REMARK  15 active torsions:
REMARK  status: ('A' for Active; 'I' for Inactive)
REMARK    1  A    between atoms: N1_1  and  N2_4 
REMARK    2  A    between atoms: N2_4  and  C1_6 
REMARK    3  A    between atoms: C4_13  and  N5_14 
REMARK    4  A    between atoms: C5_19  and  N8_20 
REMARK    5  A    between atoms: C6_26  and  S1_27 
REMARK    6  A    between atoms: S1_27  and  C7_28 
REMARK    7  A    between atoms: C7_28  and  C8_29 
REMARK    8  A    between atoms: C8_29  and  C9_30 
REMARK    9  A    between atoms: C8_29  and  C10_33 
REMARK   10  A    between atoms: C9_30  and  O1_31 
REMARK   11  A    between atoms: C10_33  and  O2_34 
REMARK   12  A    between atoms: C10_33  and  C11_36 
REMARK   13  A    between atoms: C11_36  and  O3_37 
REMARK   14  A    between atoms: O3_37  and  S2_38 
REMARK   15  A    between atoms: C12_41  and  O6_42 
ROOT
HETATM    1  N5  UNL     1      -1.396  -1.938  -0.397  1.00  0.00    -0.213 N 
HETATM    2  N6  UNL     1      -1.843  -3.226  -0.522  1.00  0.00    -0.235 N 
ATOM      3  H6  UNL     1      -2.617  -3.461  -1.143  1.00  0.00     0.208 HD
HETATM    4  N7  UNL     1      -1.210  -4.185   0.219  1.00  0.00    -0.275 N 
ATOM      5  H7  UNL     1      -1.619  -5.115   0.312  1.00  0.00     0.185 HD
HETATM    6  C5  UNL     1       0.005  -3.883   0.851  1.00  0.00     0.404 C 
HETATM    7  N9  UNL     1       0.462  -2.535   0.815  1.00  0.00    -0.325 N 
ATOM      8  H9  UNL     1       1.344  -2.317   1.278  1.00  0.00     0.165 HD
HETATM    9  C6  UNL     1      -0.169  -1.575   0.235  1.00  0.00     0.166 C 
ENDROOT
BRANCH   1  10
HETATM   10  C4  UNL     1      -2.201  -0.887  -0.903  1.00  0.00     0.140 A 
HETATM   11  C3  UNL     1      -2.997  -0.051  -0.144  1.00  0.00     0.097 A 
HETATM   12  N4  UNL     1      -3.256   0.069   1.184  1.00  0.00    -0.348 N 
HETATM   13  C13 UNL     1      -3.632   0.834  -1.007  1.00  0.00     0.109 A 
HETATM   14  C2  UNL     1      -4.104   1.016   1.670  1.00  0.00     0.182 A 
ATOM     15  H4  UNL     1      -2.801  -0.570   1.836  1.00  0.00     0.167 HD
HETATM   16  N3  UNL     1      -4.706   1.859   0.824  1.00  0.00    -0.336 N 
HETATM   17  C1  UNL     1      -4.489   1.790  -0.509  1.00  0.00     0.150 A 
ATOM     18  H3  UNL     1      -5.341   2.568   1.191  1.00  0.00     0.168 HD
HETATM   19  N10 UNL     1      -3.220   0.527  -2.255  1.00  0.00    -0.330 N 
HETATM   20  C12 UNL     1      -2.350  -0.516  -2.212  1.00  0.00     0.172 A 
ATOM     21  H10 UNL     1      -3.518   1.007  -3.105  1.00  0.00     0.168 HD
BRANCH  17  22
HETATM   22  N2  UNL     1      -5.073   2.602  -1.297  1.00  0.00    -0.290 N 
ATOM     23  H2  UNL     1      -4.880   2.514  -2.295  1.00  0.00     0.188 HD
BRANCH  22  24
HETATM   24  N1  UNL     1      -5.951   3.596  -0.898  1.00  0.00    -0.344 N 
ATOM     25  H12 UNL     1      -6.132   3.669   0.103  1.00  0.00     0.176 HD
ATOM     26  H11 UNL     1      -6.419   4.246  -1.529  1.00  0.00     0.176 HD
ENDBRANCH  22  24
ENDBRANCH  17  22
BRANCH  20  27
HETATM   27  O6  UNL     1      -1.748  -1.066  -3.341  1.00  0.00    -0.344 OA
ATOM     28  H6  UNL     1      -1.851  -0.808  -4.250  1.00  0.00     0.219 HD
ENDBRANCH  20  27
ENDBRANCH   1  10
BRANCH   9  29
HETATM   29  S1  UNL     1       0.385   0.114   0.170  1.00  0.00    -0.092 SA
BRANCH  29  30
HETATM   30  C7  UNL     1       1.888   0.273   1.165  1.00  0.00     0.091 C 
BRANCH  30  31
HETATM   31  C8  UNL     1       2.488   1.628   1.139  1.00  0.00     0.050 C 
BRANCH  31  32
HETATM   32  C9  UNL     1       3.722   1.608   2.017  1.00  0.00     0.172 C 
BRANCH  32  33
HETATM   33  O1  UNL     1       4.365   2.859   2.052  1.00  0.00    -0.400 OA
ATOM     34  H1  UNL     1       5.139   2.846   2.603  1.00  0.00     0.209 HD
ENDBRANCH  32  33
ENDBRANCH  31  32
BRANCH  31  35
HETATM   35  C10 UNL     1       2.722   2.136  -0.235  1.00  0.00     0.150 C 
BRANCH  35  36
HETATM   36  O2  UNL     1       3.293   3.443  -0.106  1.00  0.00    -0.393 OA
ATOM     37  H2  UNL     1       3.443   3.768  -0.986  1.00  0.00     0.210 HD
ENDBRANCH  35  36
BRANCH  35  38
HETATM   38  C11 UNL     1       3.565   1.311  -1.139  1.00  0.00     0.223 C 
BRANCH  38  39
HETATM   39  O3  UNL     1       3.085   0.031  -1.358  1.00  0.00    -0.260 OA
BRANCH  39  40
HETATM   40  S2  UNL     1       4.079  -0.848  -2.381  1.00  0.00     0.401 S 
HETATM   41  O4  UNL     1       5.509  -0.850  -1.865  1.00  0.00    -0.179 OA
HETATM   42  O5  UNL     1       3.606  -2.268  -2.389  1.00  0.00    -0.179 OA
ENDBRANCH  39  40
ENDBRANCH  38  39
ENDBRANCH  35  38
ENDBRANCH  31  35
ENDBRANCH  30  31
ENDBRANCH  29  30
ENDBRANCH   9  29
BRANCH   6  43
HETATM   43  N8  UNL     1       1.102  -4.717   0.337  1.00  0.00    -0.039 N 
ATOM     44  H83 UNL     1       0.881  -5.710   0.409  1.00  0.00     0.279 HD
ATOM     45  H82 UNL     1       1.181  -4.646  -0.677  1.00  0.00     0.279 HD
ATOM     46  H81 UNL     1       1.986  -4.497   0.797  1.00  0.00     0.279 HD
ENDBRANCH   6  43
TORSDOF 15
