REMARK  12 active torsions:
REMARK  status: ('A' for Active; 'I' for Inactive)
REMARK    1  A    between atoms: N1_2  and  C2_4 
REMARK    2  A    between atoms: C2_4  and  O1_5 
REMARK    3  A    between atoms: C2_4  and  N2_7 
REMARK    4  A    between atoms: N2_7  and  C3_9 
REMARK    5  A    between atoms: C4_10  and  C5_11 
REMARK    6  A    between atoms: C5_11  and  O2_12 
REMARK    7  A    between atoms: C5_11  and  N3_14 
REMARK    8  A    between atoms: N3_14  and  C6_16 
REMARK    9  A    between atoms: N6_23  and  O4_24 
REMARK   10  A    between atoms: C9_29  and  N8_30 
REMARK   11  A    between atoms: N8_30  and  C10_32 
REMARK   12  A    between atoms: C13_37  and  N10_38 
ROOT
HETATM    1  C6  UNL     1       0.651  -0.290  -0.000  1.00  0.00     0.154 A 
HETATM    2  N4  UNL     1       0.205  -1.494   0.378  1.00  0.00    -0.321 N 
ATOM      3  H4  UNL     1      -0.783  -1.589   0.613  1.00  0.00     0.169 HD
HETATM    4  C7  UNL     1       0.994  -2.598   0.466  1.00  0.00     0.178 A 
HETATM    5  N5  UNL     1       0.795  -3.858   0.820  1.00  0.00    -0.219 N 
ATOM      6  H5  UNL     1      -0.090  -4.268   1.118  1.00  0.00     0.198 HD
HETATM    7  O3  UNL     1       1.936  -4.478   0.719  1.00  0.00    -0.125 OA
HETATM    8  N6  UNL     1       2.859  -3.645   0.310  1.00  0.00    -0.081 N 
HETATM    9  C8  UNL     1       2.305  -2.438   0.134  1.00  0.00     0.208 A 
HETATM   10  N7  UNL     1       2.729  -1.228  -0.241  1.00  0.00    -0.319 N 
ATOM     11  H7  UNL     1       3.718  -1.149  -0.478  1.00  0.00     0.169 HD
HETATM   12  C9  UNL     1       2.011  -0.117  -0.341  1.00  0.00     0.152 A 
ENDROOT
BRANCH   1  13
HETATM   13  N3  UNL     1      -0.271   0.775  -0.120  1.00  0.00    -0.318 N 
ATOM     14  H3  UNL     1      -0.101   1.571  -0.735  1.00  0.00     0.169 HD
BRANCH  13  15
HETATM   15  C5  UNL     1      -1.457   0.670   0.673  1.00  0.00     0.174 C 
BRANCH  15  16
HETATM   16  C4  UNL     1      -2.545   1.633   0.531  1.00  0.00     0.146 A 
HETATM   17  C3  UNL     1      -3.907   1.308   0.244  1.00  0.00     0.155 A 
HETATM   18  N14 UNL     1      -4.588   2.465   0.273  1.00  0.00    -0.265 N 
HETATM   19  N13 UNL     1      -3.728   3.457   0.548  1.00  0.00    -0.239 N 
HETATM   20  C15 UNL     1      -6.042   2.680   0.119  1.00  0.00     0.181 C 
HETATM   21  N12 UNL     1      -2.526   2.958   0.698  1.00  0.00    -0.279 N 
ATOM     22  H13 UNL     1      -3.972   4.444   0.628  1.00  0.00     0.208 HD
ATOM     23  H12 UNL     1      -1.692   3.505   0.912  1.00  0.00     0.189 HD
BRANCH  17  24
HETATM   24  N2  UNL     1      -4.237   0.137   0.006  1.00  0.00    -0.331 N 
ATOM     25  H2  UNL     1      -3.439  -0.496   0.052  1.00  0.00     0.165 HD
BRANCH  24  26
HETATM   26  C2  UNL     1      -5.413  -0.540  -0.308  1.00  0.00     0.323 C 
BRANCH  26  27
HETATM   27  N1  UNL     1      -5.202  -1.911  -0.749  1.00  0.00    -0.385 N 
HETATM   28  C1  UNL     1      -4.811  -2.820   0.247  1.00  0.00     0.144 C 
ATOM     29  H1  UNL     1      -5.330  -2.194  -1.721  1.00  0.00     0.157 HD
ENDBRANCH  26  27
BRANCH  26  30
HETATM   30  O1  UNL     1      -6.063   0.068  -1.437  1.00  0.00    -0.360 OA
ATOM     31  H1  UNL     1      -6.201   0.963  -1.149  1.00  0.00     0.214 HD
ENDBRANCH  26  30
ENDBRANCH  24  26
ENDBRANCH  17  24
ENDBRANCH  15  16
BRANCH  15  32
HETATM   32  O2  UNL     1      -1.712  -0.500   1.329  1.00  0.00    -0.344 OA
ATOM     33  H2  UNL     1      -1.004  -1.127   1.421  1.00  0.00     0.219 HD
ENDBRANCH  15  32
ENDBRANCH  13  15
ENDBRANCH   1  13
BRANCH  12  34
HETATM   34  N8  UNL     1       2.400   1.172  -0.667  1.00  0.00    -0.348 N 
ATOM     35  H8  UNL     1       1.636   1.792  -0.936  1.00  0.00     0.167 HD
BRANCH  34  36
HETATM   36  C10 UNL     1       3.706   1.784  -0.690  1.00  0.00     0.108 C 
HETATM   37  C11 UNL     1       4.829   0.994  -0.304  1.00  0.00     0.064 A 
HETATM   38  C12 UNL     1       5.366  -0.061  -0.969  1.00  0.00     0.124 A 
HETATM   39  C14 UNL     1       5.526   1.425   0.854  1.00  0.00     0.272 A 
HETATM   40  N9  UNL     1       6.503  -0.655  -0.525  1.00  0.00    -0.201 N 
HETATM   41  C13 UNL     1       7.151  -0.250   0.566  1.00  0.00     0.678 A 
ATOM     42  H9  UNL     1       6.877  -1.446  -1.050  1.00  0.00     0.183 HD
HETATM   43  N11 UNL     1       6.640   0.803   1.242  1.00  0.00    -0.156 N 
ATOM     44  H11 UNL     1       7.123   1.133   2.078  1.00  0.00     0.187 HD
HETATM   45  O5  UNL     1       5.099   2.393   1.514  1.00  0.00    -0.267 OA
BRANCH  41  46
HETATM   46  N10 UNL     1       8.219  -0.816   0.997  1.00  0.00    -0.234 N 
ATOM     47 2H10 UNL     1       8.605  -1.611   0.487  1.00  0.00     0.174 HD
ATOM     48 1H10 UNL     1       8.715  -0.506   1.832  1.00  0.00     0.174 HD
ENDBRANCH  41  46
ENDBRANCH  34  36
ENDBRANCH  12  34
BRANCH   8  49
HETATM   49  O4  UNL     1       4.191  -3.945   0.090  1.00  0.00    -0.260 OA
ATOM     50  H4  UNL     1       4.861  -3.340  -0.207  1.00  0.00     0.247 HD
ENDBRANCH   8  49
TORSDOF 12
