REMARK  2 active torsions:
REMARK  status: ('A' for Active; 'I' for Inactive)
REMARK    1  A    between atoms: C2_2  and  C4_4 
REMARK    2  A    between atoms: C13_15  and  C14_16 
ROOT
HETATM    1  C4  UNL     1      -2.438   0.091   0.673  1.00  0.00     0.089 C 
HETATM    2  C5  UNL     1      -2.374   0.064  -0.838  1.00  0.00     0.018 C 
HETATM    3  C6  UNL     1      -1.089   0.856  -1.114  1.00  0.00     0.045 C 
HETATM    4  C7  UNL     1      -0.232   0.815   0.111  1.00  0.00     0.146 C 
HETATM    5  N1  UNL     1      -0.108   2.043   0.809  1.00  0.00    -0.382 N 
ATOM      6  H1  UNL     1      -0.150   2.076   1.828  1.00  0.00     0.160 HD
HETATM    7  C8  UNL     1       0.074   3.212   0.054  1.00  0.00     0.057 C 
HETATM    8  C9  UNL     1       1.099   3.190  -1.014  1.00  0.00     0.049 C 
HETATM    9  C10 UNL     1       2.388   2.519  -0.640  1.00  0.00     0.046 C 
HETATM   10  C11 UNL     1       2.232   1.051  -0.465  1.00  0.00    -0.023 A 
HETATM   11  C12 UNL     1       3.279   0.177  -0.617  1.00  0.00     0.043 A 
HETATM   12  C13 UNL     1       2.790  -1.093  -0.386  1.00  0.00     0.058 A 
HETATM   13  O1  UNL     1       1.527  -0.965  -0.114  1.00  0.00    -0.316 OA
HETATM   14  C17 UNL     1       1.134   0.282  -0.145  1.00  0.00     0.094 A 
HETATM   15  C18 UNL     1      -1.018  -0.139   1.035  1.00  0.00     0.281 C 
HETATM   16  F1  UNL     1      -0.669  -1.438   0.764  1.00  0.00    -0.202 F 
HETATM   17  F2  UNL     1      -0.816   0.125   2.355  1.00  0.00    -0.202 F 
ENDROOT
BRANCH   1  18
HETATM   18  C2  UNL     1      -3.438  -0.863   1.150  1.00  0.00    -0.083 C 
HETATM   19  C1  UNL     1      -3.245  -1.905   1.902  1.00  0.00     0.014 C 
HETATM   20  C3  UNL     1      -4.873  -0.617   0.702  1.00  0.00     0.043 C 
ENDBRANCH   1  18
BRANCH  12  21
HETATM   21  C14 UNL     1       3.560  -2.387  -0.435  1.00  0.00     0.043 A 
HETATM   22  C15 UNL     1       2.764  -3.544  -0.910  1.00  0.00     0.012 A 
HETATM   23  C16 UNL     1       3.180  -3.475   0.507  1.00  0.00     0.012 A 
ENDBRANCH  12  21
TORSDOF 2
