REMARK  3 active torsions:
REMARK  status: ('A' for Active; 'I' for Inactive)
REMARK    1  A    between atoms: C6_7  and  O1_8 
REMARK    2  A    between atoms: C6_7  and  C7_10 
REMARK    3  A    between atoms: C10_13  and  C11_14 
ROOT
HETATM    1  C7  UNL     1      -1.218   0.215  -0.332  1.00  0.00     0.010 A 
HETATM    2  C8  UNL     1      -0.654  -0.418   0.746  1.00  0.00     0.013 A 
HETATM    3  C9  UNL     1       0.703  -0.670   0.825  1.00  0.00     0.011 A 
HETATM    4  C10 UNL     1       1.504  -0.275  -0.208  1.00  0.00    -0.015 A 
HETATM    5  C17 UNL     1       0.957   0.361  -1.301  1.00  0.00     0.123 A 
HETATM    6  F1  UNL     1       1.719   0.772  -2.369  1.00  0.00    -0.206 F 
HETATM    7  C18 UNL     1      -0.401   0.606  -1.364  1.00  0.00     0.055 A 
ENDROOT
BRANCH   1   8
HETATM    8  C6  UNL     1      -2.662   0.491  -0.413  1.00  0.00     0.286 C 
HETATM    9  N1  UNL     1      -3.504  -0.527   0.136  1.00  0.00     0.124 N 
HETATM   10  C1  UNL     1      -3.189  -1.847  -0.329  1.00  0.00     0.314 C 
HETATM   11  C2  UNL     1      -4.877  -0.256  -0.298  1.00  0.00     0.276 C 
HETATM   12  C3  UNL     1      -5.282   1.100   0.172  1.00  0.00     0.030 C 
HETATM   13  C4  UNL     1      -4.200   1.674   1.085  1.00  0.00     0.007 C 
HETATM   14  C5  UNL     1      -2.934   1.821   0.274  1.00  0.00     0.077 C 
BRANCH   8  15
HETATM   15  O1  UNL     1      -3.022   0.660  -1.750  1.00  0.00    -0.359 OA
ATOM     16  H1  UNL     1      -2.463   1.336  -2.115  1.00  0.00     0.213 HD
ENDBRANCH   8  15
ENDBRANCH   1   8
BRANCH   4  17
HETATM   17  C11 UNL     1       2.978  -0.481  -0.214  1.00  0.00     0.022 C 
HETATM   18  C12 UNL     1       3.454  -1.328   0.919  1.00  0.00     0.009 C 
HETATM   19  C13 UNL     1       4.938  -1.491   0.835  1.00  0.00     0.001 C 
HETATM   20  C14 UNL     1       5.708  -0.217   0.698  1.00  0.00     0.000 C 
HETATM   21  C15 UNL     1       5.123   0.648  -0.410  1.00  0.00     0.001 C 
HETATM   22  C16 UNL     1       3.673   0.880  -0.045  1.00  0.00     0.009 C 
ENDBRANCH   4  17
TORSDOF 3
