REMARK  2 active torsions:
REMARK  status: ('A' for Active; 'I' for Inactive)
REMARK       I    between atoms: C1_2  and  N1_3 
REMARK    1  A    between atoms: C1_2  and  C6_11 
REMARK    2  A    between atoms: N1_3  and  C2_5 
ROOT
HETATM    1  C6  UNL     1      -0.236   0.061   0.225  1.00  0.00     0.042 C 
HETATM    2  C7  UNL     1      -0.559   1.024  -0.880  1.00  0.00     0.024 C 
HETATM    3  C8  UNL     1      -2.054   1.028  -1.093  1.00  0.00    -0.013 C 
HETATM    4  C9  UNL     1      -2.536  -0.348  -1.510  1.00  0.00     0.009 C 
HETATM    5  C10 UNL     1      -2.151  -1.323  -0.417  1.00  0.00    -0.013 C 
HETATM    6  C11 UNL     1      -2.913  -0.930   0.821  1.00  0.00     0.009 C 
HETATM    7  C12 UNL     1      -2.451   0.448   1.262  1.00  0.00    -0.013 C 
HETATM    8  C13 UNL     1      -2.687   1.490   0.194  1.00  0.00     0.009 C 
HETATM    9  C14 UNL     1      -0.969   0.361   1.504  1.00  0.00     0.024 C 
HETATM   10  C15 UNL     1      -0.662  -1.330  -0.216  1.00  0.00     0.024 C 
ENDROOT
BRANCH   1  11
HETATM   11  C1  UNL     1       1.242   0.078   0.519  1.00  0.00     0.231 C 
HETATM   12  O1  UNL     1       1.618   0.402   1.666  1.00  0.00    -0.272 OA
HETATM   13  N1  UNL     1       2.179  -0.260  -0.466  1.00  0.00    -0.326 N 
ATOM     14  H1  UNL     1       1.807  -0.521  -1.379  1.00  0.00     0.169 HD
BRANCH  13  15
HETATM   15  C2  UNL     1       3.619  -0.278  -0.325  1.00  0.00     0.043 A 
HETATM   16  C3  UNL     1       4.397  -0.956  -1.261  1.00  0.00     0.080 A 
HETATM   17  S1  UNL     1       5.983  -0.695  -0.729  1.00  0.00    -0.087 SA
HETATM   18  C4  UNL     1       5.671   0.248   0.642  1.00  0.00     0.076 A 
HETATM   19 CL1  UNL     1       6.804   0.967   1.812  1.00  0.00    -0.076 Cl
HETATM   20  C5  UNL     1       4.302   0.343   0.659  1.00  0.00     0.061 A 
ENDBRANCH  13  15
ENDBRANCH   1  11
TORSDOF 2
