REMARK  3 active torsions:
REMARK  status: ('A' for Active; 'I' for Inactive)
REMARK    1  A    between atoms: C2_2  and  N1_4 
REMARK    2  A    between atoms: N1_4  and  N2_6 
REMARK    3  A    between atoms: C4_8  and  C5_9 
ROOT
HETATM    1  C5  UNL     1       1.650   0.070   0.164  1.00  0.00     0.030 C 
HETATM    2  C6  UNL     1       1.544   0.328  -1.312  1.00  0.00     0.011 C 
HETATM    3  C7  UNL     1       0.304   1.212  -1.462  1.00  0.00     0.006 C 
HETATM    4  C8  UNL     1      -0.421   1.131  -0.148  1.00  0.00    -0.003 C 
HETATM    5  C9  UNL     1       0.176  -0.037   0.577  1.00  0.00    -0.001 C 
HETATM    6  C10 UNL     1      -0.339  -1.363   0.129  1.00  0.00     0.009 C 
HETATM    7  C11 UNL     1      -1.826  -1.429  -0.029  1.00  0.00     0.045 C 
HETATM    8  C12 UNL     1      -2.426  -0.264  -0.736  1.00  0.00     0.114 C 
HETATM    9  F1  UNL     1      -2.409  -0.378  -2.109  1.00  0.00    -0.242 F 
HETATM   10  C13 UNL     1      -1.905   1.068  -0.273  1.00  0.00     0.030 C 
HETATM   11  C14 UNL     1      -2.503   1.177   1.114  1.00  0.00     0.009 C 
HETATM   12  C15 UNL     1      -3.756   0.341   1.101  1.00  0.00     0.012 C 
HETATM   13  C16 UNL     1      -3.893  -0.175  -0.316  1.00  0.00    -0.011 C 
HETATM   14  C17 UNL     1      -4.622   0.849  -1.123  1.00  0.00     0.018 C 
HETATM   15  C18 UNL     1      -4.569  -1.510  -0.367  1.00  0.00     0.018 C 
ENDROOT
BRANCH   1  16
HETATM   16  C4  UNL     1       2.392  -1.153   0.499  1.00  0.00     0.085 C 
HETATM   17  N2  UNL     1       3.604  -1.132   0.941  1.00  0.00    -0.315 N 
ATOM     18  H2  UNL     1       4.078  -2.008   1.160  1.00  0.00     0.185 HD
BRANCH  17  19
HETATM   19  N1  UNL     1       4.271   0.081   1.122  1.00  0.00    -0.307 N 
ATOM     20  H1  UNL     1       3.810   0.868   1.578  1.00  0.00     0.186 HD
BRANCH  19  21
HETATM   21  C2  UNL     1       5.628   0.194   0.648  1.00  0.00     0.012 C 
HETATM   22  C1  UNL     1       5.993   1.317   0.060  1.00  0.00     0.039 C 
HETATM   23  C3  UNL     1       6.569  -0.928   0.825  1.00  0.00     0.069 C 
ENDBRANCH  19  21
ENDBRANCH  17  19
ENDBRANCH   1  16
TORSDOF 3
