REMARK  3 active torsions:
REMARK  status: ('A' for Active; 'I' for Inactive)
REMARK    1  A    between atoms: C2_2  and  C3_4 
REMARK    2  A    between atoms: C10_11  and  C12_13 
REMARK    3  A    between atoms: N1_15  and  O1_17 
ROOT
HETATM    1  C3  UNL     1       2.980   0.166  -0.178  1.00  0.00    -0.032 C 
HETATM    2  C4  UNL     1       3.014   1.348   0.580  1.00  0.00    -0.017 C 
HETATM    3  C5  UNL     1       1.762   1.510   1.313  1.00  0.00     0.034 C 
HETATM    4  C6  UNL     1       0.816   0.767   0.452  1.00  0.00     0.006 C 
HETATM    5  C7  UNL     1      -0.379   0.212   1.173  1.00  0.00    -0.004 C 
HETATM    6  C8  UNL     1      -1.313   1.263   1.666  1.00  0.00     0.007 C 
HETATM    7  C9  UNL     1      -2.656   0.599   1.521  1.00  0.00     0.018 C 
HETATM    8  C10 UNL     1      -2.543  -0.137   0.186  1.00  0.00     0.032 C 
HETATM    9  C11 UNL     1      -3.523  -1.294   0.256  1.00  0.00     0.025 C 
HETATM   10  C13 UNL     1      -1.137  -0.628   0.163  1.00  0.00     0.006 C 
HETATM   11  C14 UNL     1      -0.500  -0.621  -1.179  1.00  0.00     0.007 C 
HETATM   12  C15 UNL     1       0.962  -1.028  -1.116  1.00  0.00     0.015 C 
HETATM   13  C16 UNL     1       1.680  -0.424   0.065  1.00  0.00    -0.011 C 
HETATM   14  C17 UNL     1       1.802  -1.402   1.215  1.00  0.00     0.021 C 
ENDROOT
BRANCH   8  15
HETATM   15  C12 UNL     1      -2.924   0.800  -0.866  1.00  0.00     0.193 C 
HETATM   16  F1  UNL     1      -2.291   1.974  -1.067  1.00  0.00    -0.189 F 
HETATM   17  N1  UNL     1      -3.902   0.503  -1.637  1.00  0.00    -0.246 N 
ATOM     18  H1  UNL     1      -4.402  -0.377  -1.512  1.00  0.00     0.196 HD
BRANCH  17  19
HETATM   19  O1  UNL     1      -4.275   1.368  -2.629  1.00  0.00    -0.288 OA
ATOM     20  H1  UNL     1      -5.001   1.148  -3.201  1.00  0.00     0.244 HD
ENDBRANCH  17  19
ENDBRANCH   8  15
BRANCH   1  21
HETATM   21  C2  UNL     1       4.138  -0.089  -0.923  1.00  0.00     0.031 C 
HETATM   22  C1  UNL     1       5.156  -0.313  -1.579  1.00  0.00     0.037 C 
HETATM   23 CL1  UNL     1       3.471  -2.056  -1.467  1.00  0.00    -0.085 Cl
ENDBRANCH   1  21
TORSDOF 3
