REMARK  4 active torsions:
REMARK  status: ('A' for Active; 'I' for Inactive)
REMARK    1  A    between atoms: O1_1  and  C1_3 
REMARK    2  A    between atoms: C1_3  and  C2_4 
REMARK    3  A    between atoms: C1_3  and  C10_15 
REMARK    4  A    between atoms: C2_4  and  C3_5 
ROOT
HETATM    1  C1  UNL     1      -0.251   0.605   0.045  1.00  0.00     0.150 C 
ENDROOT
BRANCH   1   2
HETATM    2  O1  UNL     1      -0.416   0.903  -1.286  1.00  0.00    -0.391 OA
ATOM      3  H1  UNL     1       0.381   1.017  -1.791  1.00  0.00     0.210 HD
ENDBRANCH   1   2
BRANCH   1   4
HETATM    4  C2  UNL     1      -1.489   0.428   0.830  1.00  0.00     0.074 C 
BRANCH   4   5
HETATM    5  C3  UNL     1      -2.421  -0.637   0.378  1.00  0.00     0.200 C 
HETATM    6  O2  UNL     1      -2.889  -0.451  -0.921  1.00  0.00    -0.232 OA
HETATM    7  O3  UNL     1      -3.688   0.604  -0.775  1.00  0.00    -0.226 OA
HETATM    8  C4  UNL     1      -4.637   0.088   0.122  1.00  0.00     0.129 C 
HETATM    9  C5  UNL     1      -5.509  -0.884  -0.595  1.00  0.00     0.044 C 
HETATM   10  C8  UNL     1      -5.505   1.167   0.699  1.00  0.00     0.044 C 
HETATM   11  C9  UNL     1      -3.738  -0.559   1.157  1.00  0.00     0.239 C 
HETATM   12  C6  UNL     1      -6.898  -0.492  -0.202  1.00  0.00     0.003 C 
HETATM   13  C7  UNL     1      -6.808   1.014  -0.089  1.00  0.00     0.003 C 
HETATM   14  F1  UNL     1      -4.209  -1.828   1.395  1.00  0.00    -0.243 F 
ENDBRANCH   4   5
ENDBRANCH   1   4
BRANCH   1  15
HETATM   15  C10 UNL     1       0.773  -0.454   0.174  1.00  0.00    -0.047 C 
HETATM   16  C11 UNL     1       0.847  -1.536   0.934  1.00  0.00    -0.020 C 
HETATM   17  C12 UNL     1       2.109  -2.237   0.641  1.00  0.00     0.033 C 
HETATM   18  C13 UNL     1       3.020  -1.067   0.188  1.00  0.00     0.001 C 
HETATM   19  C14 UNL     1       4.117  -1.675  -0.626  1.00  0.00     0.009 C 
HETATM   20  C22 UNL     1       2.037  -0.356  -0.667  1.00  0.00     0.043 C 
HETATM   21  C15 UNL     1       5.430  -0.936  -0.475  1.00  0.00     0.027 C 
HETATM   22  C16 UNL     1       5.698  -0.492   0.902  1.00  0.00    -0.031 C 
HETATM   23  C17 UNL     1       5.582   0.746   1.347  1.00  0.00    -0.030 C 
HETATM   24  C18 UNL     1       5.157   1.881   0.494  1.00  0.00     0.030 C 
HETATM   25  C19 UNL     1       3.680   2.169   0.599  1.00  0.00     0.030 C 
HETATM   26  C20 UNL     1       2.966   1.988  -0.690  1.00  0.00    -0.030 C 
HETATM   27  C21 UNL     1       2.324   0.971  -1.161  1.00  0.00    -0.021 C 
ENDBRANCH   1  15
TORSDOF 4
