REMARK  6 active torsions:
REMARK  status: ('A' for Active; 'I' for Inactive)
REMARK    1  A    between atoms: C2_2  and  C5_5 
REMARK    2  A    between atoms: C7_7  and  S1_8 
REMARK    3  A    between atoms: S1_8  and  C8_9 
REMARK    4  A    between atoms: C10_12  and  C12_14 
REMARK    5  A    between atoms: C12_14  and  O2_15 
REMARK    6  A    between atoms: C16_21  and  C17_22 
ROOT
HETATM    1  C5  UNL     1      -2.031   1.351   0.711  1.00  0.00    -0.049 A 
HETATM    2  C6  UNL     1      -0.714   1.416   0.368  1.00  0.00     0.026 A 
HETATM    3  C7  UNL     1      -0.052   0.434  -0.326  1.00  0.00     0.002 A 
HETATM    4  C15 UNL     1      -0.746  -0.690  -0.699  1.00  0.00     0.026 A 
HETATM    5  C16 UNL     1      -2.090  -0.810  -0.373  1.00  0.00    -0.049 A 
HETATM    6  C21 UNL     1      -2.717   0.225   0.336  1.00  0.00     0.015 A 
ENDROOT
BRANCH   3   7
HETATM    7  S1  UNL     1       1.584   0.716  -0.869  1.00  0.00    -0.114 SA
BRANCH   7   8
HETATM    8  C8  UNL     1       2.659  -0.673  -1.037  1.00  0.00     0.163 C 
HETATM    9  C9  UNL     1       3.195  -1.260   0.202  1.00  0.00     0.158 C 
HETATM   10  O1  UNL     1       2.831  -2.076   1.013  1.00  0.00    -0.296 OA
HETATM   11  C10 UNL     1       4.418  -0.427   0.081  1.00  0.00     0.076 C 
HETATM   12  C11 UNL     1       5.748  -1.079   0.244  1.00  0.00     0.029 C 
HETATM   13  C13 UNL     1       4.081  -0.252  -1.400  1.00  0.00     0.135 C 
HETATM   14  C14 UNL     1       4.657  -1.336  -2.296  1.00  0.00     0.055 C 
HETATM   15  F1  UNL     1       4.228   0.982  -1.925  1.00  0.00    -0.240 F 
BRANCH  11  16
HETATM   16  C12 UNL     1       4.354   0.842   0.863  1.00  0.00     0.184 C 
BRANCH  16  17
HETATM   17  O2  UNL     1       5.555   1.574   0.758  1.00  0.00    -0.400 OA
ATOM     18  H2  UNL     1       5.514   2.382   1.256  1.00  0.00     0.209 HD
ENDBRANCH  16  17
ENDBRANCH  11  16
ENDBRANCH   7   8
ENDBRANCH   3   7
BRANCH   1  19
HETATM   19  C2  UNL     1      -2.671   2.494   1.413  1.00  0.00    -0.024 C 
HETATM   20  C1  UNL     1      -3.381   3.252   0.290  1.00  0.00     0.019 C 
HETATM   21  C3  UNL     1      -1.671   3.421   2.008  1.00  0.00     0.019 C 
HETATM   22  C4  UNL     1      -3.707   2.102   2.426  1.00  0.00     0.019 C 
ENDBRANCH   1  19
BRANCH   5  23
HETATM   23  C17 UNL     1      -2.844  -2.038  -0.784  1.00  0.00    -0.024 C 
HETATM   24  C18 UNL     1      -4.315  -1.742  -0.578  1.00  0.00     0.019 C 
HETATM   25  C19 UNL     1      -2.632  -2.356  -2.221  1.00  0.00     0.019 C 
HETATM   26  C20 UNL     1      -2.398  -3.221   0.057  1.00  0.00     0.019 C 
ENDBRANCH   5  23
TORSDOF 6
