REMARK  15 active torsions:
REMARK  status: ('A' for Active; 'I' for Inactive)
REMARK    1  A    between atoms: N1_2  and  N2_3 
REMARK    2  A    between atoms: N1_2  and  C2_6 
REMARK    3  A    between atoms: C2_6  and  C3_7 
REMARK    4  A    between atoms: C3_7  and  C4_8 
REMARK    5  A    between atoms: C4_8  and  O1_9 
REMARK    6  A    between atoms: C4_8  and  C5_11 
REMARK    7  A    between atoms: C5_11  and  O2_12 
REMARK    8  A    between atoms: C5_11  and  C6_14 
REMARK    9  A    between atoms: C6_14  and  C7_15 
REMARK   10  A    between atoms: C9_19  and  C10_20 
REMARK   11  A    between atoms: C13_27  and  N6_28 
REMARK   12  A    between atoms: C14_33  and  N8_34 
REMARK   13  A    between atoms: N10_40  and  C16_41 
REMARK   14  A    between atoms: N12_44  and  N13_45 
REMARK   15  A    between atoms: C17_48  and  N14_49 
ROOT
HETATM    1  C7  UNL     1      -0.553  -0.171   1.001  1.00  0.00     0.054 A 
HETATM    2  C8  UNL     1      -0.657  -1.459   1.449  1.00  0.00     0.116 A 
HETATM    3  N3  UNL     1       0.554  -2.056   1.395  1.00  0.00    -0.348 N 
ATOM      4  H3  UNL     1       0.767  -3.016   1.667  1.00  0.00     0.167 HD
HETATM    5  C9  UNL     1       1.426  -1.154   0.917  1.00  0.00     0.157 A 
HETATM    6  N10 UNL     1       0.774  -0.013   0.675  1.00  0.00    -0.131 N 
ENDROOT
BRANCH   5   7
HETATM    7  C10 UNL     1       2.844  -1.442   0.727  1.00  0.00     0.094 A 
HETATM    8  C11 UNL     1       3.367  -2.683   1.053  1.00  0.00     0.123 A 
HETATM    9  N4  UNL     1       4.667  -2.994   0.904  1.00  0.00    -0.348 N 
HETATM   10  C12 UNL     1       5.488  -2.049   0.416  1.00  0.00     0.151 A 
ATOM     11  H4  UNL     1       5.019  -3.918   1.154  1.00  0.00     0.167 HD
HETATM   12  N5  UNL     1       6.794  -2.350   0.264  1.00  0.00    -0.174 N 
HETATM   13  C15 UNL     1       5.018  -0.803   0.079  1.00  0.00     0.122 A 
HETATM   14  C13 UNL     1       7.688  -1.470  -0.214  1.00  0.00     0.679 A 
ATOM     15  H5  UNL     1       7.115  -3.283   0.522  1.00  0.00     0.186 HD
HETATM   16  N7  UNL     1       7.234  -0.249  -0.546  1.00  0.00    -0.175 N 
HETATM   17  C14 UNL     1       5.933   0.115  -0.417  1.00  0.00     0.145 A 
ATOM     18  H7  UNL     1       7.897   0.435  -0.911  1.00  0.00     0.186 HD
HETATM   19  N9  UNL     1       3.708  -0.516   0.238  1.00  0.00    -0.346 N 
ATOM     20  H9  UNL     1       3.363   0.410  -0.013  1.00  0.00     0.166 HD
BRANCH  14  21
HETATM   21  N6  UNL     1       8.957  -1.770  -0.359  1.00  0.00    -0.234 N 
ATOM     22  H62 UNL     1       9.301  -2.696  -0.107  1.00  0.00     0.174 HD
ATOM     23  H61 UNL     1       9.636  -1.101  -0.722  1.00  0.00     0.174 HD
ENDBRANCH  14  21
BRANCH  17  24
HETATM   24  N8  UNL     1       5.551   1.293  -0.747  1.00  0.00    -0.383 N 
ATOM     25  H82 UNL     1       6.224   1.968  -1.112  1.00  0.00     0.157 HD
ATOM     26  H81 UNL     1       4.573   1.567  -0.650  1.00  0.00     0.157 HD
ENDBRANCH  17  24
ENDBRANCH   5   7
BRANCH   6  27
HETATM   27  C16 UNL     1       1.357   1.180   0.165  1.00  0.00     0.722 A 
HETATM   28  N11 UNL     1       1.476   1.635  -1.079  1.00  0.00    -0.095 N 
HETATM   29  N12 UNL     1       2.096   2.814  -1.067  1.00  0.00    -0.012 N 
ATOM     30  H11 UNL     1       1.143   1.154  -1.915  1.00  0.00     0.208 HD
HETATM   31  C17 UNL     1       2.391   3.136   0.225  1.00  0.00     0.727 A 
HETATM   32  N15 UNL     1       1.927   2.116   0.964  1.00  0.00    -0.018 N 
ATOM     33  H15 UNL     1       1.994   2.054   1.980  1.00  0.00     0.203 HD
BRANCH  29  34
HETATM   34  N13 UNL     1       2.425   3.642  -2.128  1.00  0.00    -0.309 N 
ATOM     35 2H13 UNL     1       2.204   3.401  -3.094  1.00  0.00     0.179 HD
ATOM     36 1H13 UNL     1       2.900   4.545  -2.119  1.00  0.00     0.179 HD
ENDBRANCH  29  34
BRANCH  31  37
HETATM   37  N14 UNL     1       2.995   4.213   0.618  1.00  0.00    -0.231 N 
ATOM     38 2H14 UNL     1       3.348   4.988   0.056  1.00  0.00     0.174 HD
ATOM     39 1H14 UNL     1       3.216   4.454   1.584  1.00  0.00     0.174 HD
ENDBRANCH  31  37
ENDBRANCH   6  27
BRANCH   1  40
HETATM   40  C6  UNL     1      -1.504   0.915   0.820  1.00  0.00     0.094 C 
BRANCH  40  41
HETATM   41  C5  UNL     1      -2.938   0.624   0.799  1.00  0.00     0.152 C 
BRANCH  41  42
HETATM   42  C4  UNL     1      -3.501  -0.220  -0.287  1.00  0.00     0.148 C 
BRANCH  42  43
HETATM   43  C3  UNL     1      -5.033  -0.228  -0.055  1.00  0.00     0.050 C 
BRANCH  43  44
HETATM   44  C2  UNL     1      -5.774  -0.826  -1.200  1.00  0.00     0.115 C 
BRANCH  44  45
HETATM   45  N1  UNL     1      -7.200  -0.816  -0.938  1.00  0.00    -0.242 NA
HETATM   46  C1  UNL     1      -7.574  -1.710   0.116  1.00  0.00     0.135 C 
BRANCH  45  47
HETATM   47  N2  UNL     1      -7.723   0.448  -0.773  1.00  0.00    -0.364 NA
ATOM     48  H22 UNL     1      -8.726   0.455  -0.589  1.00  0.00     0.171 HD
ATOM     49  H21 UNL     1      -7.457   1.085  -1.524  1.00  0.00     0.171 HD
ENDBRANCH  45  47
ENDBRANCH  44  45
ENDBRANCH  43  44
ENDBRANCH  42  43
BRANCH  42  50
HETATM   50  O1  UNL     1      -3.024  -1.475  -0.449  1.00  0.00    -0.393 OA
ATOM     51  H1  UNL     1      -2.085  -1.470  -0.591  1.00  0.00     0.210 HD
ENDBRANCH  42  50
ENDBRANCH  41  42
BRANCH  41  52
HETATM   52  O2  UNL     1      -3.615   1.876   0.697  1.00  0.00    -0.393 OA
ATOM     53  H2  UNL     1      -3.255   2.416   1.391  1.00  0.00     0.210 HD
ENDBRANCH  41  52
ENDBRANCH  40  41
ENDBRANCH   1  40
TORSDOF 15
