REMARK  13 active torsions:
REMARK  status: ('A' for Active; 'I' for Inactive)
REMARK       I    between atoms: C1_4  and  N2_5 
REMARK       I    between atoms: C1_4  and  N13_49 
REMARK    1  A    between atoms: N2_5  and  C2_7 
REMARK    2  A    between atoms: C2_7  and  C3_8 
REMARK    3  A    between atoms: C3_8  and  N3_9 
REMARK    4  A    between atoms: C3_8  and  C4_13 
REMARK    5  A    between atoms: C4_13  and  O1_14 
REMARK    6  A    between atoms: C4_13  and  N4_16 
REMARK    7  A    between atoms: N4_16  and  C5_18 
REMARK    8  A    between atoms: C6_21  and  C7_22 
REMARK    9  A    between atoms: C7_22  and  C8_23 
REMARK   10  A    between atoms: C8_23  and  N6_24 
REMARK   11  A    between atoms: C12_36  and  C13_37 
REMARK   12  A    between atoms: C14_41  and  N10_42 
REMARK   13  A    between atoms: N13_49  and  N14_51 
ROOT
HETATM    1  C5  UNL     1      -0.768   0.110  -0.031  1.00  0.00     0.124 A 
HETATM    2  N5  UNL     1      -0.697   1.399  -0.444  1.00  0.00    -0.331 N 
ATOM      3  H5  UNL     1       0.206   1.873  -0.453  1.00  0.00     0.168 HD
HETATM    4  C6  UNL     1      -1.787   2.060  -0.839  1.00  0.00     0.085 A 
HETATM    5  N7  UNL     1      -3.007   1.440  -0.832  1.00  0.00    -0.331 N 
ATOM      6  H7  UNL     1      -3.829   1.961  -1.138  1.00  0.00     0.168 HD
HETATM    7  C9  UNL     1      -3.152   0.168  -0.435  1.00  0.00     0.124 A 
HETATM    8  C10 UNL     1      -1.996  -0.508  -0.025  1.00  0.00     0.119 A 
HETATM    9  C11 UNL     1      -2.189  -1.875   0.399  1.00  0.00     0.261 C 
HETATM   10  O2  UNL     1      -1.237  -2.573   0.785  1.00  0.00    -0.267 OA
HETATM   11  N8  UNL     1      -3.520  -2.421   0.368  1.00  0.00    -0.329 N 
ATOM     12  H8  UNL     1      -3.662  -3.425   0.261  1.00  0.00     0.165 HD
HETATM   13  C12 UNL     1      -4.657  -1.532   0.490  1.00  0.00     0.257 C 
HETATM   14  N12 UNL     1      -4.440  -0.454  -0.438  1.00  0.00    -0.348 N 
ATOM     15  H12 UNL     1      -5.176  -0.145  -1.073  1.00  0.00     0.163 HD
ENDROOT
BRANCH   1  16
HETATM   16  N4  UNL     1       0.415  -0.581   0.351  1.00  0.00    -0.347 N 
ATOM     17  H4  UNL     1       0.383  -1.563   0.624  1.00  0.00     0.163 HD
BRANCH  16  18
HETATM   18  C4  UNL     1       1.694   0.165   0.342  1.00  0.00     0.251 C 
BRANCH  18  19
HETATM   19  C3  UNL     1       2.793  -0.835   0.606  1.00  0.00     0.249 C 
BRANCH  19  20
HETATM   20  C2  UNL     1       4.133  -0.176   0.782  1.00  0.00     0.175 C 
BRANCH  20  21
HETATM   21  N2  UNL     1       4.530   0.540  -0.417  1.00  0.00    -0.223 N 
HETATM   22  C1  UNL     1       5.768   1.213  -0.408  1.00  0.00     0.691 C 
HETATM   23  N1  UNL     1       5.888   2.298  -1.111  1.00  0.00    -0.233 N 
HETATM   24  N13 UNL     1       6.828   0.680   0.364  1.00  0.00    -0.072 N 
ATOM     25  H12 UNL     1       5.124   2.682  -1.667  1.00  0.00     0.174 HD
ATOM     26  H11 UNL     1       6.784   2.785  -1.104  1.00  0.00     0.174 HD
ATOM     27  H13 UNL     1       6.687   0.433   1.344  1.00  0.00     0.212 HD
ATOM     28  H2  UNL     1       3.930   0.555  -1.242  1.00  0.00     0.177 HD
BRANCH  24  29
HETATM   29  N14 UNL     1       8.068   0.500  -0.245  1.00  0.00    -0.024 N 
HETATM   30  O4  UNL     1       8.219  -0.296  -1.207  1.00  0.00    -0.516 OA
HETATM   31  O5  UNL     1       9.155   1.210   0.217  1.00  0.00    -0.516 OA
ENDBRANCH  24  29
ENDBRANCH  20  21
ENDBRANCH  19  20
BRANCH  19  32
HETATM   32  N3  UNL     1       2.911  -1.765  -0.502  1.00  0.00    -0.069 N 
ATOM     33  H33 UNL     1       3.255  -1.326  -1.356  1.00  0.00     0.275 HD
ATOM     34  H32 UNL     1       3.672  -2.434  -0.382  1.00  0.00     0.275 HD
ATOM     35  H31 UNL     1       2.002  -2.212  -0.621  1.00  0.00     0.275 HD
ENDBRANCH  19  32
ENDBRANCH  18  19
BRANCH  18  36
HETATM   36  O1  UNL     1       1.589   1.065   1.429  1.00  0.00    -0.375 OA
ATOM     37  H1  UNL     1       0.897   1.694   1.263  1.00  0.00     0.212 HD
ENDBRANCH  18  36
ENDBRANCH  16  18
ENDBRANCH   1  16
BRANCH   4  38
HETATM   38  C7  UNL     1      -1.671   3.460  -1.299  1.00  0.00     0.104 C 
BRANCH  38  39
HETATM   39  C8  UNL     1      -0.265   3.984  -1.208  1.00  0.00     0.237 C 
BRANCH  39  40
HETATM   40  N6  UNL     1       0.149   3.958   0.164  1.00  0.00    -0.079 N 
ATOM     41  H63 UNL     1      -0.495   4.461   0.775  1.00  0.00     0.274 HD
ATOM     42  H62 UNL     1       0.050   3.034   0.584  1.00  0.00     0.274 HD
ATOM     43  H61 UNL     1       1.103   4.314   0.226  1.00  0.00     0.274 HD
ENDBRANCH  39  40
ENDBRANCH  38  39
ENDBRANCH   4  38
BRANCH  13  44
HETATM   44  C13 UNL     1      -5.897  -2.272   0.255  1.00  0.00     0.148 A 
HETATM   45  N9  UNL     1      -6.973  -1.960  -0.482  1.00  0.00    -0.241 N 
HETATM   46  O3  UNL     1      -7.853  -2.942  -0.395  1.00  0.00    -0.200 OA
ATOM     47  H9  UNL     1      -7.093  -1.103  -1.022  1.00  0.00     0.196 HD
HETATM   48  C14 UNL     1      -7.383  -3.890   0.380  1.00  0.00     0.242 A 
HETATM   49  N11 UNL     1      -6.163  -3.476   0.787  1.00  0.00    -0.306 N 
ATOM     50  H11 UNL     1      -5.540  -3.998   1.403  1.00  0.00     0.171 HD
BRANCH  48  51
HETATM   51  N10 UNL     1      -8.028  -4.971   0.645  1.00  0.00    -0.364 N 
ATOM     52 2H10 UNL     1      -8.949  -5.284   0.338  1.00  0.00     0.159 HD
ATOM     53 1H10 UNL     1      -7.662  -5.708   1.248  1.00  0.00     0.159 HD
ENDBRANCH  48  51
ENDBRANCH  13  44
TORSDOF 13
