REMARK  11 active torsions:
REMARK  status: ('A' for Active; 'I' for Inactive)
REMARK    1  A    between atoms: C2_2  and  C3_3 
REMARK    2  A    between atoms: C2_2  and  C4_6 
REMARK    3  A    between atoms: C3_3  and  O1_4 
REMARK       I    between atoms: C4_6  and  N1_8 
REMARK    4  A    between atoms: N1_8  and  C5_10 
REMARK    5  A    between atoms: C7_12  and  N2_13 
REMARK    6  A    between atoms: N3_15  and  C8_17 
REMARK    7  A    between atoms: C9_20  and  N5_21 
REMARK    8  A    between atoms: N9_32  and  C12_33 
REMARK    9  A    between atoms: C13_37  and  N11_38 
REMARK       I    between atoms: N11_38  and  C14_40 
REMARK       I    between atoms: C14_40  and  N12_42 
REMARK   10  A    between atoms: N12_42  and  N13_44 
REMARK   11  A    between atoms: C15_49  and  N15_50 
ROOT
HETATM    1  C8  UNL     1       0.626   2.110   0.889  1.00  0.00     0.167 A 
HETATM    2  N4  UNL     1       0.320   0.996   1.574  1.00  0.00    -0.173 N 
ATOM      3  H4  UNL     1      -0.511   0.979   2.165  1.00  0.00     0.186 HD
HETATM    4  C9  UNL     1       1.107  -0.111   1.488  1.00  0.00     0.679 A 
HETATM    5  N6  UNL     1       2.216  -0.143   0.723  1.00  0.00    -0.173 N 
ATOM      6  H6  UNL     1       2.785  -0.989   0.680  1.00  0.00     0.186 HD
HETATM    7  C10 UNL     1       2.566   0.936   0.023  1.00  0.00     0.173 A 
HETATM    8  C11 UNL     1       1.768   2.066   0.106  1.00  0.00     0.141 A 
HETATM    9  N7  UNL     1       2.362   2.972  -0.692  1.00  0.00    -0.279 N 
ATOM     10  H7  UNL     1       2.034   3.923  -0.861  1.00  0.00     0.189 HD
HETATM   11  N8  UNL     1       3.445   2.421  -1.221  1.00  0.00    -0.236 N 
ATOM     12  H8  UNL     1       4.075   2.898  -1.866  1.00  0.00     0.208 HD
HETATM   13  N9  UNL     1       3.603   1.192  -0.813  1.00  0.00    -0.224 N 
ENDROOT
BRANCH   1  14
HETATM   14  N3  UNL     1      -0.152   3.298   0.935  1.00  0.00    -0.281 N 
HETATM   15  N2  UNL     1      -1.301   3.357   0.450  1.00  0.00    -0.283 N 
ATOM     16  H2  UNL     1      -1.843   4.220   0.493  1.00  0.00     0.188 HD
ATOM     17  H3  UNL     1       0.240   4.129   1.378  1.00  0.00     0.188 HD
BRANCH  15  18
HETATM   18  C7  UNL     1      -1.840   2.178  -0.171  1.00  0.00     0.139 A 
HETATM   19  C6  UNL     1      -3.048   1.728   0.260  1.00  0.00     0.099 A 
HETATM   20  C5  UNL     1      -3.584   0.581  -0.335  1.00  0.00     0.127 A 
HETATM   21  N16 UNL     1      -2.900  -0.031  -1.299  1.00  0.00    -0.177 N 
HETATM   22  C15 UNL     1      -1.715   0.435  -1.701  1.00  0.00     0.679 A 
ATOM     23  H16 UNL     1      -3.286  -0.867  -1.737  1.00  0.00     0.185 HD
HETATM   24  N14 UNL     1      -1.199   1.532  -1.134  1.00  0.00    -0.175 N 
ATOM     25  H14 UNL     1      -0.293   1.878  -1.450  1.00  0.00     0.186 HD
BRANCH  20  26
HETATM   26  N1  UNL     1      -4.828   0.158   0.142  1.00  0.00    -0.312 N 
HETATM   27  C4  UNL     1      -5.589  -0.959  -0.280  1.00  0.00     0.229 C 
HETATM   28  O2  UNL     1      -5.249  -1.758  -1.170  1.00  0.00    -0.273 OA
ATOM     29  H1  UNL     1      -5.238   0.723   0.885  1.00  0.00     0.170 HD
BRANCH  27  30
HETATM   30  C2  UNL     1      -6.920  -1.220   0.390  1.00  0.00     0.098 C 
HETATM   31  C1  UNL     1      -7.517  -2.449  -0.233  1.00  0.00     0.022 C 
BRANCH  30  32
HETATM   32  C3  UNL     1      -7.789  -0.015   0.066  1.00  0.00     0.177 C 
BRANCH  32  33
HETATM   33  O1  UNL     1      -9.073  -0.143   0.538  1.00  0.00    -0.400 OA
ATOM     34  H1  UNL     1      -9.616   0.610   0.336  1.00  0.00     0.209 HD
ENDBRANCH  32  33
ENDBRANCH  30  32
ENDBRANCH  27  30
ENDBRANCH  20  26
BRANCH  22  35
HETATM   35  N15 UNL     1      -1.065  -0.193  -2.656  1.00  0.00    -0.234 N 
ATOM     36 2H15 UNL     1      -0.160   0.163  -2.963  1.00  0.00     0.174 HD
ATOM     37 1H15 UNL     1      -1.458  -1.029  -3.088  1.00  0.00     0.174 HD
ENDBRANCH  22  35
ENDBRANCH  15  18
ENDBRANCH   1  14
BRANCH   4  38
HETATM   38  N5  UNL     1       0.723  -1.127   2.185  1.00  0.00    -0.234 N 
ATOM     39  H52 UNL     1      -0.116  -1.103   2.764  1.00  0.00     0.174 HD
ATOM     40  H51 UNL     1       1.313  -1.957   2.121  1.00  0.00     0.174 HD
ENDBRANCH   4  38
BRANCH  13  41
HETATM   41  C12 UNL     1       4.685   0.298  -1.195  1.00  0.00     0.362 A 
HETATM   42  N10 UNL     1       4.697  -1.035  -0.648  1.00  0.00    -0.024 N 
HETATM   43  C13 UNL     1       5.682  -0.047  -0.188  1.00  0.00     0.343 A 
ATOM     44 2H10 UNL     1       4.008  -1.632  -0.190  1.00  0.00     0.282 HD
ATOM     45 1H10 UNL     1       4.749  -1.975  -1.042  1.00  0.00     0.282 HD
BRANCH  43  46
HETATM   46  N11 UNL     1       7.062  -0.261  -0.466  1.00  0.00    -0.310 N 
HETATM   47  C14 UNL     1       8.078  -0.068   0.507  1.00  0.00     0.336 C 
HETATM   48  O3  UNL     1       7.813   0.310   1.689  1.00  0.00    -0.246 OA
HETATM   49  N12 UNL     1       9.450  -0.286   0.213  1.00  0.00    -0.258 N 
ATOM     50  H12 UNL     1       9.719  -0.590  -0.723  1.00  0.00     0.191 HD
ATOM     51  H11 UNL     1       7.332  -0.565  -1.402  1.00  0.00     0.166 HD
BRANCH  49  52
HETATM   52  N13 UNL     1      10.439  -0.092   1.181  1.00  0.00    -0.341 N 
ATOM     53 2H13 UNL     1      10.153   0.212   2.112  1.00  0.00     0.177 HD
ATOM     54 1H13 UNL     1      11.425  -0.249   0.970  1.00  0.00     0.177 HD
ENDBRANCH  49  52
ENDBRANCH  43  46
ENDBRANCH  13  41
TORSDOF 11
