REMARK  15 active torsions:
REMARK  status: ('A' for Active; 'I' for Inactive)
REMARK       I    between atoms: C2_2  and  N1_4 
REMARK    1  A    between atoms: C4_9  and  N4_10 
REMARK    2  A    between atoms: C5_16  and  C6_17 
REMARK    3  A    between atoms: C6_17  and  O2_18 
REMARK    4  A    between atoms: C6_17  and  N6_20 
REMARK    5  A    between atoms: N6_20  and  C7_22 
REMARK    6  A    between atoms: C9_24  and  N7_25 
REMARK    7  A    between atoms: N7_25  and  C10_27 
REMARK    8  A    between atoms: C10_27  and  O3_28 
REMARK    9  A    between atoms: C10_27  and  C11_30 
REMARK   10  A    between atoms: C11_30  and  N8_31 
REMARK       I    between atoms: N9_36  and  C13_37 
REMARK   11  A    between atoms: C15_40  and  N10_41 
REMARK   12  A    between atoms: C16_44  and  C17_45 
REMARK   13  A    between atoms: C17_45  and  O5_46 
REMARK   14  A    between atoms: C17_45  and  C18_48 
REMARK   15  A    between atoms: C18_48  and  N11_49 
ROOT
HETATM    1  C6  UNL     1      -0.601  -0.096  -0.034  1.00  0.00     0.267 C 
ENDROOT
BRANCH   1   2
HETATM    2  C5  UNL     1      -2.058   0.084   0.174  1.00  0.00     0.060 C 
HETATM    3  N5  UNL     1      -2.385   0.989   0.964  1.00  0.00    -0.348 N 
HETATM    4  C4  UNL     1      -3.496   1.591   1.522  1.00  0.00     0.388 C 
ATOM      5  H5  UNL     1      -1.544   1.441   1.322  1.00  0.00     0.163 HD
HETATM    6  N3  UNL     1      -4.778   1.032   1.332  1.00  0.00    -0.321 N 
HETATM    7  C3  UNL     1      -5.122   0.166   0.422  1.00  0.00     0.196 C 
ATOM      8  H3  UNL     1      -5.510   1.338   1.973  1.00  0.00     0.166 HD
HETATM    9  N1  UNL     1      -4.336  -0.454  -0.614  1.00  0.00    -0.279 N 
HETATM   10  N2  UNL     1      -6.491  -0.200   0.489  1.00  0.00    -0.063 NA
HETATM   11  C2  UNL     1      -5.070  -0.705  -1.782  1.00  0.00     0.223 C 
HETATM   12  C16 UNL     1      -2.983  -0.822  -0.568  1.00  0.00     0.175 C 
HETATM   13  C1  UNL     1      -4.614  -1.299  -3.049  1.00  0.00     0.117 C 
HETATM   14  O1  UNL     1      -6.315  -0.386  -1.789  1.00  0.00    -0.273 OA
BRANCH   4  15
HETATM   15  N4  UNL     1      -3.561   2.962   0.969  1.00  0.00    -0.041 N 
ATOM     16  H43 UNL     1      -3.879   2.995   0.001  1.00  0.00     0.279 HD
ATOM     17  H42 UNL     1      -4.313   3.525   1.366  1.00  0.00     0.279 HD
ATOM     18  H41 UNL     1      -2.635   3.366   1.106  1.00  0.00     0.279 HD
ENDBRANCH   4  15
BRANCH  12  19
HETATM   19  C17 UNL     1      -2.663  -2.222  -0.158  1.00  0.00     0.172 C 
BRANCH  19  20
HETATM   20  O5  UNL     1      -3.263  -3.153  -1.046  1.00  0.00    -0.391 OA
ATOM     21  H5  UNL     1      -3.059  -4.044  -0.785  1.00  0.00     0.210 HD
ENDBRANCH  19  20
BRANCH  19  22
HETATM   22  C18 UNL     1      -3.026  -2.695   1.194  1.00  0.00     0.263 C 
BRANCH  22  23
HETATM   23  N11 UNL     1      -2.526  -1.941   2.299  1.00  0.00    -0.077 N 
ATOM     24 3H11 UNL     1      -1.512  -1.862   2.227  1.00  0.00     0.274 HD
ATOM     25 2H11 UNL     1      -2.799  -0.964   2.196  1.00  0.00     0.274 HD
ATOM     26 1H11 UNL     1      -2.777  -2.268   3.232  1.00  0.00     0.274 HD
ENDBRANCH  22  23
ENDBRANCH  19  22
ENDBRANCH  12  19
ENDBRANCH   1   2
BRANCH   1  27
HETATM   27  O2  UNL     1      -0.291   0.005  -1.421  1.00  0.00    -0.371 OA
ATOM     28  H2  UNL     1       0.643  -0.110  -1.554  1.00  0.00     0.212 HD
ENDBRANCH   1  27
BRANCH   1  29
HETATM   29  N6  UNL     1       0.086   1.072   0.523  1.00  0.00    -0.356 N 
ATOM     30  H6  UNL     1      -0.448   1.847   0.917  1.00  0.00     0.162 HD
BRANCH  29  31
HETATM   31  C7  UNL     1       1.507   1.110   0.507  1.00  0.00     0.077 A 
HETATM   32  C8  UNL     1       2.222   0.036   0.019  1.00  0.00     0.063 A 
HETATM   33  C9  UNL     1       3.593   0.076   0.014  1.00  0.00     0.048 A 
HETATM   34  C12 UNL     1       4.222   1.188   0.496  1.00  0.00     0.131 A 
HETATM   35  N9  UNL     1       3.556   2.273   0.988  1.00  0.00    -0.275 N 
HETATM   36  C13 UNL     1       4.308   3.368   1.461  1.00  0.00     0.225 C 
HETATM   37  C15 UNL     1       2.196   2.204   0.980  1.00  0.00     0.135 A 
HETATM   38  C14 UNL     1       3.714   4.588   2.012  1.00  0.00     0.118 C 
HETATM   39  O4  UNL     1       5.582   3.289   1.406  1.00  0.00    -0.273 OA
BRANCH  33  40
HETATM   40  N7  UNL     1       4.331  -1.040  -0.489  1.00  0.00    -0.361 N 
ATOM     41  H7  UNL     1       3.826  -1.867  -0.808  1.00  0.00     0.162 HD
BRANCH  40  42
HETATM   42  C10 UNL     1       5.771  -1.027  -0.557  1.00  0.00     0.243 C 
BRANCH  42  43
HETATM   43  O3  UNL     1       6.185   0.009  -1.409  1.00  0.00    -0.375 OA
ATOM     44  H3  UNL     1       7.134   0.018  -1.454  1.00  0.00     0.212 HD
ENDBRANCH  42  43
BRANCH  42  45
HETATM   45  C11 UNL     1       6.263  -2.339  -1.078  1.00  0.00     0.282 C 
BRANCH  45  46
HETATM   46  N8  UNL     1       5.733  -2.592  -2.415  1.00  0.00    -0.075 N 
ATOM     47  H83 UNL     1       4.715  -2.534  -2.436  1.00  0.00     0.274 HD
ATOM     48  H82 UNL     1       5.943  -1.827  -3.056  1.00  0.00     0.274 HD
ATOM     49  H81 UNL     1       6.069  -3.487  -2.770  1.00  0.00     0.274 HD
ENDBRANCH  45  46
ENDBRANCH  42  45
ENDBRANCH  40  42
ENDBRANCH  33  40
BRANCH  37  50
HETATM   50  N10 UNL     1       1.592   3.233   1.443  1.00  0.00    -0.383 N 
ATOM     51 2H10 UNL     1       0.573   3.181   1.437  1.00  0.00     0.157 HD
ATOM     52 1H10 UNL     1       2.102   4.044   1.793  1.00  0.00     0.157 HD
ENDBRANCH  37  50
ENDBRANCH  29  31
ENDBRANCH   1  29
TORSDOF 15
