REMARK  6 active torsions:
REMARK  status: ('A' for Active; 'I' for Inactive)
REMARK    1  A    between atoms: C2_2  and  S1_7 
REMARK    2  A    between atoms: N1_3  and  O1_5 
REMARK    3  A    between atoms: S1_7  and  C3_8 
REMARK    4  A    between atoms: C3_8  and  C4_9 
REMARK    5  A    between atoms: N3_12  and  N4_14 
REMARK       I    between atoms: N4_14  and  C6_16 
REMARK    6  A    between atoms: C6_16  and  C7_18 
ROOT
HETATM    1  C4  UNL     1       0.555   0.055  -0.174  1.00  0.00     0.115 C 
HETATM    2  C5  UNL     1       0.033  -0.597  -1.333  1.00  0.00     0.115 C 
HETATM    3  N2  UNL     1      -0.373  -1.127  -2.282  1.00  0.00    -0.190 NA
HETATM    4  N3  UNL     1      -0.201   0.321   0.825  1.00  0.00    -0.291 N 
ATOM      5  H3  UNL     1       0.226   0.786   1.626  1.00  0.00     0.187 HD
ENDROOT
BRANCH   1   6
HETATM    6  C3  UNL     1       1.982   0.428  -0.118  1.00  0.00     0.151 C 
BRANCH   6   7
HETATM    7  S1  UNL     1       3.066  -1.003  -0.272  1.00  0.00    -0.108 SA
BRANCH   7   8
HETATM    8  C2  UNL     1       4.750  -0.471  -0.195  1.00  0.00     0.064 C 
HETATM    9  C1  UNL     1       5.062   0.956  -0.029  1.00  0.00     0.078 C 
HETATM   10  N1  UNL     1       5.698  -1.324  -0.284  1.00  0.00    -0.267 N 
ATOM     11  H1  UNL     1       6.654  -0.973  -0.235  1.00  0.00     0.194 HD
BRANCH  10  12
HETATM   12  O1  UNL     1       5.527  -2.669  -0.440  1.00  0.00    -0.289 OA
ATOM     13  H1  UNL     1       6.231  -3.303  -0.506  1.00  0.00     0.244 HD
ENDBRANCH  10  12
ENDBRANCH   7   8
ENDBRANCH   6   7
ENDBRANCH   1   6
BRANCH   4  14
HETATM   14  N4  UNL     1      -1.554   0.027   0.903  1.00  0.00    -0.263 N 
HETATM   15  C6  UNL     1      -2.525   0.688   0.125  1.00  0.00     0.293 C 
HETATM   16  O2  UNL     1      -2.151   1.578  -0.668  1.00  0.00    -0.264 OA
ATOM     17  H4  UNL     1      -1.859  -0.699   1.551  1.00  0.00     0.190 HD
BRANCH  15  18
HETATM   18  C7  UNL     1      -3.922   0.322   0.264  1.00  0.00     0.144 A 
HETATM   19  C8  UNL     1      -4.986   0.880  -0.429  1.00  0.00     0.045 A 
HETATM   20  C9  UNL     1      -6.131   0.250   0.001  1.00  0.00     0.027 A 
HETATM   21  C10 UNL     1      -5.725  -0.666   0.937  1.00  0.00     0.143 A 
HETATM   22  O3  UNL     1      -4.435  -0.581   1.050  1.00  0.00    -0.317 OA
ENDBRANCH  15  18
ENDBRANCH   4  14
TORSDOF 6
