REMARK  7 active torsions:
REMARK  status: ('A' for Active; 'I' for Inactive)
REMARK    1  A    between atoms: O1_2  and  C2_3 
REMARK    2  A    between atoms: C2_3  and  C3_5 
REMARK    3  A    between atoms: C3_5  and  C5_8 
REMARK    4  A    between atoms: N2_13  and  C10_15 
REMARK    5  A    between atoms: C10_15  and  C11_16 
REMARK    6  A    between atoms: C11_16  and  O3_17 
REMARK    7  A    between atoms: N3_19  and  O4_21 
ROOT
HETATM    1  C3  UNL     1      -0.787  -0.382   1.119  1.00  0.00     0.201 C 
HETATM    2  C4  UNL     1      -0.739  -1.723   1.640  1.00  0.00     0.074 C 
HETATM    3  N1  UNL     1      -0.705  -2.810   2.097  1.00  0.00    -0.196 NA
ENDROOT
BRANCH   1   4
HETATM    4  C2  UNL     1      -2.154   0.234   1.325  1.00  0.00     0.277 C 
HETATM    5  O2  UNL     1      -3.076  -0.415   1.890  1.00  0.00    -0.264 OA
BRANCH   4   6
HETATM    6  O1  UNL     1      -2.429   1.518   0.902  1.00  0.00    -0.325 OA
HETATM    7  C1  UNL     1      -3.734   2.053   1.120  1.00  0.00     0.213 C 
ENDBRANCH   4   6
ENDBRANCH   1   4
BRANCH   1   8
HETATM    8  C5  UNL     1      -0.532  -0.304  -0.339  1.00  0.00     0.058 C 
HETATM    9  C6  UNL     1      -1.537  -1.035  -1.183  1.00  0.00     0.013 C 
HETATM   10  C7  UNL     1      -0.955  -2.379  -1.421  1.00  0.00     0.006 C 
HETATM   11  C8  UNL     1       0.505  -2.264  -1.144  1.00  0.00     0.052 C 
HETATM   12  C9  UNL     1       0.757  -0.836  -0.817  1.00  0.00    -0.012 C 
HETATM   13  N2  UNL     1       1.907  -0.309  -0.981  1.00  0.00    -0.388 N 
ATOM     14  H2  UNL     1       2.694  -0.856  -1.331  1.00  0.00     0.159 HD
BRANCH  13  15
HETATM   15  C10 UNL     1       2.053   1.069  -0.658  1.00  0.00     0.205 C 
BRANCH  15  16
HETATM   16  C11 UNL     1       3.359   1.409  -0.095  1.00  0.00     0.153 C 
HETATM   17  N3  UNL     1       3.502   1.919   1.072  1.00  0.00    -0.250 N 
ATOM     18  H3  UNL     1       2.661   2.090   1.623  1.00  0.00     0.196 HD
BRANCH  16  19
HETATM   19  O3  UNL     1       4.489   1.171  -0.853  1.00  0.00    -0.347 OA
ATOM     20  H3  UNL     1       5.337   1.392  -0.487  1.00  0.00     0.219 HD
ENDBRANCH  16  19
BRANCH  17  21
HETATM   21  O4  UNL     1       4.700   2.247   1.625  1.00  0.00    -0.288 OA
ATOM     22  H4  UNL     1       4.806   2.625   2.490  1.00  0.00     0.244 HD
ENDBRANCH  17  21
ENDBRANCH  15  16
ENDBRANCH  13  15
ENDBRANCH   1   8
TORSDOF 7
