REMARK  7 active torsions:
REMARK  status: ('A' for Active; 'I' for Inactive)
REMARK    1  A    between atoms: C1_4  and  N2_5 
REMARK    2  A    between atoms: C1_4  and  C8_17 
REMARK    3  A    between atoms: N2_5  and  O1_7 
REMARK    4  A    between atoms: O1_7  and  C2_8 
REMARK    5  A    between atoms: C2_8  and  C3_10 
REMARK    6  A    between atoms: C3_10  and  S1_11 
REMARK    7  A    between atoms: S1_11  and  C4_12 
ROOT
HETATM    1  N2  UNL     1      -1.440  -1.323   0.355  1.00  0.00    -0.241 N 
ATOM      2  H2  UNL     1      -1.444  -1.269   1.374  1.00  0.00     0.196 HD
ENDROOT
BRANCH   1   3
HETATM    3  C1  UNL     1      -2.634  -0.988  -0.394  1.00  0.00     0.130 C 
HETATM    4  N1  UNL     1      -2.963  -1.730  -1.322  1.00  0.00    -0.383 N 
ATOM      5  H12 UNL     1      -2.405  -2.548  -1.566  1.00  0.00     0.157 HD
ATOM      6  H11 UNL     1      -3.804  -1.494  -1.849  1.00  0.00     0.157 HD
BRANCH   3   7
HETATM    7  C8  UNL     1      -3.431   0.180  -0.046  1.00  0.00     0.012 A 
HETATM    8  C9  UNL     1      -3.070   1.062   0.971  1.00  0.00     0.032 A 
HETATM    9  C10 UNL     1      -3.849   2.148   1.274  1.00  0.00     0.088 A 
HETATM   10  N3  UNL     1      -4.981   2.360   0.572  1.00  0.00    -0.375 N 
HETATM   11  C11 UNL     1      -5.389   1.555  -0.418  1.00  0.00     0.088 A 
ATOM     12  H3  UNL     1      -5.553   3.171   0.806  1.00  0.00     0.164 HD
HETATM   13  C12 UNL     1      -4.597   0.468  -0.711  1.00  0.00     0.032 A 
ENDBRANCH   3   7
ENDBRANCH   1   3
BRANCH   1  14
HETATM   14  O1  UNL     1      -0.314  -1.710  -0.301  1.00  0.00    -0.197 OA
BRANCH  14  15
HETATM   15  C2  UNL     1       1.007  -1.532   0.121  1.00  0.00     0.290 C 
HETATM   16  O2  UNL     1       1.199  -0.953   1.200  1.00  0.00    -0.262 OA
BRANCH  15  17
HETATM   17  C3  UNL     1       2.136  -2.022  -0.692  1.00  0.00     0.194 C 
BRANCH  17  18
HETATM   18  S1  UNL     1       3.102  -0.827  -1.557  1.00  0.00    -0.095 SA
BRANCH  18  19
HETATM   19  C4  UNL     1       4.167   0.181  -0.557  1.00  0.00     0.112 A 
HETATM   20  C5  UNL     1       5.481  -0.093  -0.184  1.00  0.00     0.046 A 
HETATM   21  C6  UNL     1       5.913   0.962   0.588  1.00  0.00     0.028 A 
HETATM   22  C7  UNL     1       4.861   1.826   0.656  1.00  0.00     0.143 A 
HETATM   23  O3  UNL     1       3.846   1.333  -0.032  1.00  0.00    -0.316 OA
ENDBRANCH  18  19
ENDBRANCH  17  18
ENDBRANCH  15  17
ENDBRANCH  14  15
ENDBRANCH   1  14
TORSDOF 7
