REMARK  6 active torsions:
REMARK  status: ('A' for Active; 'I' for Inactive)
REMARK    1  A    between atoms: N1_2  and  C1_4 
REMARK    2  A    between atoms: C4_7  and  C5_8 
REMARK    3  A    between atoms: N2_9  and  N3_11 
REMARK    4  A    between atoms: N3_11  and  C6_13 
REMARK    5  A    between atoms: C6_13  and  N4_15 
REMARK    6  A    between atoms: N4_15  and  C7_17 
ROOT
HETATM    1  C5  UNL     1       2.070   1.336   0.876  1.00  0.00     0.144 C 
HETATM    2  N2  UNL     1       0.839   1.006   0.781  1.00  0.00    -0.307 N 
ATOM      3  H2  UNL     1       0.609   0.163   0.255  1.00  0.00     0.186 HD
ENDROOT
BRANCH   2   4
HETATM    4  N3  UNL     1      -0.195   1.717   1.343  1.00  0.00    -0.277 N 
ATOM      5  H3  UNL     1      -0.007   2.592   1.832  1.00  0.00     0.189 HD
BRANCH   4   6
HETATM    6  C6  UNL     1      -1.525   1.231   1.241  1.00  0.00     0.186 C 
HETATM    7  S1  UNL     1      -2.751   2.083   1.913  1.00  0.00    -0.040 SA
BRANCH   6   8
HETATM    8  N4  UNL     1      -1.795   0.024   0.568  1.00  0.00    -0.361 N 
ATOM      9  H4  UNL     1      -1.030  -0.505   0.150  1.00  0.00     0.162 HD
BRANCH   8  10
HETATM   10  C7  UNL     1      -3.132  -0.464   0.467  1.00  0.00     0.083 C 
HETATM   11  C8  UNL     1      -4.120   0.443  -0.241  1.00  0.00     0.025 C 
HETATM   12  C9  UNL     1      -4.775  -0.842  -0.763  1.00  0.00     0.004 C 
HETATM   13  C10 UNL     1      -3.371  -1.458  -0.677  1.00  0.00     0.025 C 
ENDBRANCH   8  10
ENDBRANCH   6   8
ENDBRANCH   4   6
ENDBRANCH   2   4
BRANCH   1  14
HETATM   14  C4  UNL     1       3.087   0.519   0.247  1.00  0.00     0.095 A 
HETATM   15  C3  UNL     1       2.866  -0.640  -0.484  1.00  0.00     0.043 A 
HETATM   16  C2  UNL     1       4.089  -1.111  -0.908  1.00  0.00     0.065 A 
HETATM   17  C1  UNL     1       5.022  -0.221  -0.421  1.00  0.00     0.215 A 
HETATM   18  O3  UNL     1       4.378   0.703   0.241  1.00  0.00    -0.287 OA
BRANCH  17  19
HETATM   19  N1  UNL     1       6.442  -0.327  -0.628  1.00  0.00    -0.090 N 
HETATM   20  O1  UNL     1       6.916  -1.267  -1.284  1.00  0.00    -0.530 OA
HETATM   21  O2  UNL     1       7.247   0.634  -0.083  1.00  0.00    -0.530 OA
ENDBRANCH  17  19
ENDBRANCH   1  14
TORSDOF 6
