REMARK  12 active torsions:
REMARK  status: ('A' for Active; 'I' for Inactive)
REMARK    1  A    between atoms: C2_2  and  C3_4 
REMARK    2  A    between atoms: C2_2  and  C16_24 
REMARK    3  A    between atoms: C3_4  and  C4_5 
REMARK    4  A    between atoms: C4_5  and  C5_6 
REMARK    5  A    between atoms: C5_6  and  O2_8 
REMARK    6  A    between atoms: O2_8  and  C6_9 
REMARK    7  A    between atoms: C6_9  and  C7_10 
REMARK    8  A    between atoms: C7_10  and  O3_11 
REMARK    9  A    between atoms: O3_11  and  C8_12 
REMARK   10  A    between atoms: C8_12  and  C9_14 
REMARK   11  A    between atoms: C9_14  and  C10_15 
REMARK   12  A    between atoms: C13_18  and  O5_19 
ROOT
HETATM    1  C1  UNL     1      -0.373  -1.808   2.426  1.00  0.00     0.033 C 
HETATM    2  C2  UNL     1       0.092  -0.651   1.571  1.00  0.00     0.038 C 
HETATM    3 CL1  UNL     1       0.964   0.384   2.802  1.00  0.00    -0.119 Cl
ENDROOT
BRANCH   2   4
HETATM    4  C3  UNL     1       1.179  -1.152   0.693  1.00  0.00     0.035 C 
BRANCH   4   5
HETATM    5  C4  UNL     1       1.855  -0.205  -0.224  1.00  0.00     0.113 C 
BRANCH   5   6
HETATM    6  C5  UNL     1       2.569   0.921   0.478  1.00  0.00     0.258 C 
HETATM    7  O1  UNL     1       2.140   2.081   0.550  1.00  0.00    -0.265 OA
BRANCH   6   8
HETATM    8  O2  UNL     1       3.771   0.594   1.064  1.00  0.00    -0.319 OA
BRANCH   8   9
HETATM    9  C6  UNL     1       4.588   1.490   1.756  1.00  0.00     0.205 C 
BRANCH   9  10
HETATM   10  C7  UNL     1       5.044   2.587   0.831  1.00  0.00     0.205 C 
BRANCH  10  11
HETATM   11  O3  UNL     1       5.766   2.113  -0.264  1.00  0.00    -0.319 OA
BRANCH  11  12
HETATM   12  C8  UNL     1       6.971   1.442  -0.182  1.00  0.00     0.263 C 
HETATM   13  O4  UNL     1       7.507   1.217   0.928  1.00  0.00    -0.265 OA
BRANCH  12  14
HETATM   14  C9  UNL     1       7.672   0.965  -1.406  1.00  0.00     0.149 C 
BRANCH  14  15
HETATM   15  C10 UNL     1       8.923   0.292  -0.997  1.00  0.00    -0.047 A 
HETATM   16  C11 UNL     1      10.083   1.027  -0.899  1.00  0.00     0.010 A 
HETATM   17  C12 UNL     1      11.283   0.460  -0.523  1.00  0.00     0.039 A 
HETATM   18  C13 UNL     1      11.345  -0.891  -0.230  1.00  0.00     0.087 A 
HETATM   19  C14 UNL     1      10.181  -1.629  -0.328  1.00  0.00     0.067 A 
HETATM   20 CL2  UNL     1      10.275  -3.339   0.047  1.00  0.00    -0.081 Cl
HETATM   21  C15 UNL     1       8.979  -1.047  -0.707  1.00  0.00     0.034 A 
BRANCH  18  22
HETATM   22  O5  UNL     1      12.536  -1.463   0.145  1.00  0.00    -0.359 OA
ATOM     23  H5  UNL     1      12.579  -2.390   0.346  1.00  0.00     0.217 HD
ENDBRANCH  18  22
ENDBRANCH  14  15
ENDBRANCH  12  14
ENDBRANCH  11  12
ENDBRANCH  10  11
ENDBRANCH   9  10
ENDBRANCH   8   9
ENDBRANCH   6   8
ENDBRANCH   5   6
ENDBRANCH   4   5
ENDBRANCH   2   4
BRANCH   2  24
HETATM   24  C16 UNL     1      -0.919   0.190   0.992  1.00  0.00     0.017 C 
HETATM   25  C17 UNL     1      -1.731   0.878   2.130  1.00  0.00     0.007 C 
HETATM   26  C18 UNL     1      -2.659   1.739   1.350  1.00  0.00     0.006 C 
HETATM   27  C19 UNL     1      -2.843   0.990   0.047  1.00  0.00    -0.002 C 
HETATM   28  C20 UNL     1      -4.269   0.885  -0.269  1.00  0.00    -0.005 C 
HETATM   29  C32 UNL     1      -2.068  -0.327   0.189  1.00  0.00    -0.035 C 
HETATM   30  C21 UNL     1      -4.649   0.858  -1.719  1.00  0.00     0.006 C 
HETATM   31  C29 UNL     1      -5.017  -0.177   0.503  1.00  0.00    -0.002 C 
HETATM   32  C22 UNL     1      -6.114   1.250  -1.775  1.00  0.00     0.006 C 
HETATM   33  C23 UNL     1      -6.931   0.171  -1.118  1.00  0.00    -0.006 C 
HETATM   34  C24 UNL     1      -7.020  -1.095  -1.924  1.00  0.00     0.005 C 
HETATM   35  C27 UNL     1      -6.462  -0.205   0.250  1.00  0.00    -0.036 C 
HETATM   36  C25 UNL     1      -7.161  -2.209  -0.879  1.00  0.00     0.001 C 
HETATM   37  C26 UNL     1      -7.135  -1.531   0.463  1.00  0.00     0.010 C 
HETATM   38  C28 UNL     1      -7.127   0.777   1.227  1.00  0.00     0.016 C 
HETATM   39  C30 UNL     1      -4.307  -1.465   0.255  1.00  0.00     0.006 C 
HETATM   40  C31 UNL     1      -2.870  -1.426   0.759  1.00  0.00     0.010 C 
HETATM   41  C33 UNL     1      -1.652  -0.684  -1.232  1.00  0.00     0.016 C 
ENDBRANCH   2  24
TORSDOF 12
