REMARK  13 active torsions:
REMARK  status: ('A' for Active; 'I' for Inactive)
REMARK    1  A    between atoms: O1_1  and  C1_3 
REMARK    2  A    between atoms: C1_3  and  S1_4 
REMARK    3  A    between atoms: C1_3  and  N3_39 
REMARK    4  A    between atoms: S1_4  and  C2_5 
REMARK    5  A    between atoms: C2_5  and  C3_6 
REMARK    6  A    between atoms: C5_8  and  N1_9 
REMARK    7  A    between atoms: N1_9  and  C6_11 
REMARK    8  A    between atoms: C6_11  and  C7_12 
REMARK    9  A    between atoms: C7_12  and  C8_13 
REMARK   10  A    between atoms: C8_13  and  N2_14 
REMARK   11  A    between atoms: N2_14  and  C9_15 
REMARK   12  A    between atoms: N2_14  and  C14_20 
REMARK   13  A    between atoms: C28_36  and  O2_37 
ROOT
HETATM    1  C7  UNL     1      -0.892   0.387  -0.386  1.00  0.00     0.064 C 
ENDROOT
BRANCH   1   2
HETATM    2  C6  UNL     1       0.264   1.207   0.104  1.00  0.00     0.058 C 
BRANCH   2   3
HETATM    3  N1  UNL     1       1.440   1.205  -0.653  1.00  0.00    -0.394 N 
ATOM      4  H1  UNL     1       1.740   2.057  -1.126  1.00  0.00     0.159 HD
BRANCH   3   5
HETATM    5  C5  UNL     1       2.213   0.030  -0.766  1.00  0.00     0.106 C 
HETATM    6  C4  UNL     1       2.749  -0.520   0.522  1.00  0.00     0.041 C 
HETATM    7  C3  UNL     1       4.017  -1.250   0.023  1.00  0.00     0.054 C 
HETATM    8  C28 UNL     1       4.507  -0.338  -0.978  1.00  0.00     0.046 C 
HETATM    9  C27 UNL     1       3.500   0.418  -1.458  1.00  0.00     0.030 C 
BRANCH   7  10
HETATM   10  C2  UNL     1       4.881  -1.611   1.192  1.00  0.00     0.094 C 
BRANCH  10  11
HETATM   11  S1  UNL     1       5.445  -0.302   2.201  1.00  0.00    -0.086 SA
BRANCH  11  12
HETATM   12  C1  UNL     1       6.746   0.741   1.725  1.00  0.00     0.177 C 
BRANCH  12  13
HETATM   13  O1  UNL     1       6.544   2.007   1.943  1.00  0.00    -0.341 OA
ATOM     14  H1  UNL     1       7.257   2.578   1.682  1.00  0.00     0.220 HD
ENDBRANCH  12  13
BRANCH  12  15
HETATM   15  N3  UNL     1       7.989   0.455   1.131  1.00  0.00    -0.356 N 
HETATM   16  C29 UNL     1       8.775   1.652   0.800  1.00  0.00     0.125 C 
HETATM   17  C30 UNL     1      10.241   1.380   0.769  1.00  0.00     0.020 C 
HETATM   18  C31 UNL     1      10.678   0.609  -0.432  1.00  0.00     0.002 C 
HETATM   19  C32 UNL     1       9.524  -0.065  -1.134  1.00  0.00     0.002 C 
HETATM   20  C33 UNL     1       9.004  -1.242  -0.385  1.00  0.00     0.020 C 
HETATM   21  C34 UNL     1       8.468  -0.875   0.945  1.00  0.00     0.125 C 
ENDBRANCH  12  15
ENDBRANCH  11  12
ENDBRANCH  10  11
ENDBRANCH   7  10
BRANCH   8  22
HETATM   22  O2  UNL     1       5.801  -0.145  -1.490  1.00  0.00    -0.365 OA
ATOM     23  H2  UNL     1       6.124   0.457  -2.150  1.00  0.00     0.217 HD
ENDBRANCH   8  22
ENDBRANCH   3   5
ENDBRANCH   2   3
ENDBRANCH   1   2
BRANCH   1  24
HETATM   24  C8  UNL     1      -2.020   0.623   0.626  1.00  0.00     0.128 C 
BRANCH  24  25
HETATM   25  N2  UNL     1      -3.214  -0.117   0.316  1.00  0.00    -0.379 N 
BRANCH  25  26
HETATM   26  C9  UNL     1      -3.205  -1.048  -0.749  1.00  0.00     0.003 C 
HETATM   27  C10 UNL     1      -3.364  -0.889  -2.043  1.00  0.00    -0.002 C 
HETATM   28  C11 UNL     1      -3.270  -2.186  -2.760  1.00  0.00     0.029 C 
HETATM   29  C12 UNL     1      -3.622  -3.184  -1.672  1.00  0.00     0.010 C 
HETATM   30  C13 UNL     1      -2.980  -2.516  -0.469  1.00  0.00     0.057 C 
ENDBRANCH  25  26
BRANCH  25  31
HETATM   31  C14 UNL     1      -4.372   0.104   1.118  1.00  0.00     0.085 C 
HETATM   32  C15 UNL     1      -4.792   1.583   1.104  1.00  0.00     0.030 C 
HETATM   33  C16 UNL     1      -6.236   1.618   0.751  1.00  0.00    -0.004 C 
HETATM   34  C17 UNL     1      -7.059   2.608   1.494  1.00  0.00     0.010 C 
HETATM   35  C25 UNL     1      -6.683   0.220   1.209  1.00  0.00     0.025 C 
HETATM   36  C18 UNL     1      -8.457   2.137   1.808  1.00  0.00     0.039 C 
HETATM   37  C19 UNL     1      -8.929   1.049   0.897  1.00  0.00    -0.048 A 
HETATM   38  C20 UNL     1     -10.207   1.031   0.389  1.00  0.00     0.053 A 
HETATM   39  C24 UNL     1      -8.019   0.053   0.589  1.00  0.00    -0.044 A 
HETATM   40  C21 UNL     1     -10.563  -0.009  -0.439  1.00  0.00     0.155 A 
HETATM   41  F1  UNL     1     -11.822  -0.038  -0.946  1.00  0.00    -0.203 F 
HETATM   42  C22 UNL     1      -9.680  -1.015  -0.763  1.00  0.00     0.155 A 
HETATM   43  F2  UNL     1     -10.010  -2.046  -1.574  1.00  0.00    -0.203 F 
HETATM   44  C23 UNL     1      -8.398  -0.966  -0.232  1.00  0.00     0.053 A 
HETATM   45  C26 UNL     1      -5.607  -0.616   0.556  1.00  0.00     0.035 C 
ENDBRANCH  25  31
ENDBRANCH  24  25
ENDBRANCH   1  24
TORSDOF 13
