REMARK  11 active torsions:
REMARK  status: ('A' for Active; 'I' for Inactive)
REMARK    1  A    between atoms: C6_8  and  C7_9 
REMARK    2  A    between atoms: N2_12  and  C10_13 
REMARK    3  A    between atoms: C11_14  and  C12_15 
REMARK    4  A    between atoms: C12_15  and  C13_16 
REMARK    5  A    between atoms: C13_16  and  C14_17 
REMARK    6  A    between atoms: C14_17  and  O1_18 
REMARK    7  A    between atoms: O1_18  and  C15_19 
REMARK    8  A    between atoms: C15_19  and  N3_21 
REMARK    9  A    between atoms: C18_24  and  O2_25 
REMARK   10  A    between atoms: O2_25  and  C19_26 
REMARK   11  A    between atoms: C31_40  and  O3_41 
ROOT
HETATM    1  C10 UNL     1       1.618   0.211   1.438  1.00  0.00     0.089 C 
HETATM    2  C11 UNL     1       0.192  -0.031   1.424  1.00  0.00     0.013 C 
ENDROOT
BRANCH   2   3
HETATM    3  C12 UNL     1      -0.525  -1.269   1.201  1.00  0.00    -0.023 C 
BRANCH   3   4
HETATM    4  C13 UNL     1      -0.593  -1.933  -0.127  1.00  0.00     0.054 C 
BRANCH   4   5
HETATM    5  C14 UNL     1      -1.246  -1.013  -1.170  1.00  0.00     0.182 C 
BRANCH   5   6
HETATM    6  O1  UNL     1      -2.537  -0.654  -0.726  1.00  0.00    -0.327 OA
BRANCH   6   7
HETATM    7  C15 UNL     1      -3.415   0.129  -1.398  1.00  0.00     0.212 C 
HETATM    8  S1  UNL     1      -2.851   1.245  -2.451  1.00  0.00    -0.033 SA
BRANCH   7   9
HETATM    9  N3  UNL     1      -4.849  -0.020  -1.184  1.00  0.00    -0.351 N 
HETATM   10  C16 UNL     1      -5.672   0.854  -1.933  1.00  0.00     0.128 C 
HETATM   11  C17 UNL     1      -7.117   0.662  -1.741  1.00  0.00     0.054 C 
HETATM   12  C18 UNL     1      -7.493   0.179  -0.353  1.00  0.00     0.150 C 
HETATM   13  C25 UNL     1      -6.754  -1.112  -0.039  1.00  0.00     0.130 C 
HETATM   14 CL1  UNL     1      -7.080  -1.497   1.661  1.00  0.00    -0.121 Cl
HETATM   15  C26 UNL     1      -5.303  -1.010  -0.273  1.00  0.00     0.148 C 
BRANCH  12  16
HETATM   16  O2  UNL     1      -8.845  -0.112  -0.366  1.00  0.00    -0.344 OA
BRANCH  16  17
HETATM   17  C19 UNL     1      -9.827   0.512   0.341  1.00  0.00     0.072 A 
HETATM   18  C20 UNL     1      -9.599   1.576   1.168  1.00  0.00     0.037 A 
HETATM   19  C21 UNL     1     -10.636   2.188   1.876  1.00  0.00     0.006 A 
HETATM   20  C22 UNL     1     -11.930   1.745   1.770  1.00  0.00     0.042 A 
HETATM   21  C23 UNL     1     -12.188   0.664   0.935  1.00  0.00     0.119 A 
HETATM   22  F1  UNL     1     -13.469   0.260   0.853  1.00  0.00    -0.206 F 
HETATM   23  C24 UNL     1     -11.158   0.079   0.250  1.00  0.00     0.079 A 
ENDBRANCH  16  17
ENDBRANCH  12  16
ENDBRANCH   7   9
ENDBRANCH   6   7
ENDBRANCH   5   6
ENDBRANCH   4   5
ENDBRANCH   3   4
ENDBRANCH   2   3
BRANCH   1  24
HETATM   24  N2  UNL     1       2.472  -0.075   0.401  1.00  0.00    -0.370 N 
HETATM   25  C9  UNL     1       2.933  -1.371   0.128  1.00  0.00     0.064 C 
HETATM   26  C8  UNL     1       4.356  -1.639   0.591  1.00  0.00     0.054 C 
HETATM   27  C7  UNL     1       5.237  -0.547   0.049  1.00  0.00     0.027 C 
HETATM   28  C28 UNL     1       4.760   0.746   0.621  1.00  0.00     0.030 C 
HETATM   29  C27 UNL     1       3.378   0.985   0.010  1.00  0.00     0.128 C 
BRANCH  27  30
HETATM   30  C6  UNL     1       6.666  -0.820   0.251  1.00  0.00    -0.026 A 
HETATM   31  C5  UNL     1       7.136  -1.898   0.967  1.00  0.00     0.096 A 
HETATM   32  N1  UNL     1       8.480  -1.851   0.972  1.00  0.00    -0.365 N 
HETATM   33  C4  UNL     1       8.920  -0.786   0.288  1.00  0.00     0.043 A 
ATOM     34  H1  UNL     1       9.082  -2.533   1.433  1.00  0.00     0.165 HD
HETATM   35  C3  UNL     1      10.153  -0.259  -0.027  1.00  0.00     0.039 A 
HETATM   36  C29 UNL     1       7.773  -0.143  -0.163  1.00  0.00     0.001 A 
HETATM   37  C2  UNL     1      10.306   0.891  -0.780  1.00  0.00    -0.027 A 
HETATM   38  C1  UNL     1      11.682   1.398  -1.085  1.00  0.00     0.051 C 
HETATM   39  C31 UNL     1       9.170   1.526  -1.227  1.00  0.00     0.072 A 
HETATM   40  C30 UNL     1       7.919   0.988  -0.903  1.00  0.00     0.051 A 
BRANCH  39  41
HETATM   41  O3  UNL     1       9.292   2.669  -1.976  1.00  0.00    -0.360 OA
ATOM     42  H3  UNL     1       8.508   3.107  -2.285  1.00  0.00     0.217 HD
ENDBRANCH  39  41
ENDBRANCH  27  30
ENDBRANCH   1  24
TORSDOF 11
