REMARK  10 active torsions:
REMARK  status: ('A' for Active; 'I' for Inactive)
REMARK    1  A    between atoms: O1_1  and  C1_3 
REMARK    2  A    between atoms: C1_3  and  C2_4 
REMARK    3  A    between atoms: C1_3  and  C9_16 
REMARK    4  A    between atoms: C2_4  and  N1_5 
REMARK    5  A    between atoms: N1_5  and  C3_8 
REMARK    6  A    between atoms: C3_8  and  C4_9 
REMARK    7  A    between atoms: C4_9  and  O2_10 
REMARK    8  A    between atoms: C4_9  and  C5_12 
REMARK    9  A    between atoms: C5_12  and  C6_13 
REMARK   10  A    between atoms: C9_16  and  C10_17 
ROOT
HETATM    1  C2  UNL     1       0.366   0.346   1.537  1.00  0.00     0.264 C 
ENDROOT
BRANCH   1   2
HETATM    2  C1  UNL     1      -0.575  -0.546   0.706  1.00  0.00     0.144 C 
BRANCH   2   3
HETATM    3  O1  UNL     1      -0.929  -1.643   1.455  1.00  0.00    -0.394 OA
ATOM      4  H1  UNL     1      -1.509  -2.193   0.942  1.00  0.00     0.210 HD
ENDBRANCH   2   3
BRANCH   2   5
HETATM    5  C9  UNL     1      -1.756   0.296   0.274  1.00  0.00     0.038 C 
BRANCH   5   6
HETATM    6  C10 UNL     1      -2.737  -0.470  -0.554  1.00  0.00    -0.012 C 
HETATM    7  C11 UNL     1      -3.344  -1.628   0.164  1.00  0.00     0.005 C 
HETATM    8  C12 UNL     1      -4.774  -1.896  -0.192  1.00  0.00     0.000 C 
HETATM    9  C13 UNL     1      -5.659  -0.691  -0.168  1.00  0.00     0.000 C 
HETATM   10  C14 UNL     1      -4.902   0.610  -0.099  1.00  0.00     0.000 C 
HETATM   11  C15 UNL     1      -3.758   0.508  -1.081  1.00  0.00     0.005 C 
ENDBRANCH   5   6
ENDBRANCH   2   5
ENDBRANCH   1   2
BRANCH   1  12
HETATM   12  N1  UNL     1       0.725   1.492   0.776  1.00  0.00    -0.070 N 
ATOM     13  H12 UNL     1      -0.108   1.973   0.436  1.00  0.00     0.277 HD
ATOM     14  H11 UNL     1       1.108   2.219   1.380  1.00  0.00     0.277 HD
BRANCH  12  15
HETATM   15  C3  UNL     1       1.619   1.211  -0.301  1.00  0.00     0.264 C 
BRANCH  15  16
HETATM   16  C4  UNL     1       2.983   0.879   0.302  1.00  0.00     0.144 C 
BRANCH  16  17
HETATM   17  O2  UNL     1       3.402   1.990   1.069  1.00  0.00    -0.394 OA
ATOM     18  H2  UNL     1       4.250   1.784   1.444  1.00  0.00     0.210 HD
ENDBRANCH  16  17
BRANCH  16  19
HETATM   19  C5  UNL     1       4.002   0.678  -0.827  1.00  0.00     0.038 C 
BRANCH  19  20
HETATM   20  C6  UNL     1       5.348   0.366  -0.202  1.00  0.00    -0.012 A 
HETATM   21  C7  UNL     1       6.490   0.139  -1.161  1.00  0.00     0.005 A 
HETATM   22  C8  UNL     1       5.931  -0.990  -0.325  1.00  0.00     0.005 A 
ENDBRANCH  19  20
ENDBRANCH  16  19
ENDBRANCH  15  16
ENDBRANCH  12  15
ENDBRANCH   1  12
TORSDOF 10
