REMARK  8 active torsions:
REMARK  status: ('A' for Active; 'I' for Inactive)
REMARK    1  A    between atoms: N1_2  and  C2_5 
REMARK    2  A    between atoms: C2_5  and  C3_6 
REMARK    3  A    between atoms: C3_6  and  N2_7 
REMARK    4  A    between atoms: N2_7  and  C4_10 
REMARK    5  A    between atoms: C4_10  and  C5_11 
REMARK    6  A    between atoms: C5_11  and  N3_12 
REMARK    7  A    between atoms: N3_12  and  C6_14 
REMARK    8  A    between atoms: C6_14  and  C7_15 
ROOT
HETATM    1  N3  UNL     1       0.341   0.162   1.485  1.00  0.00    -0.419 N 
ATOM      2  H3  UNL     1       0.134  -0.102   2.448  1.00  0.00     0.153 HD
ENDROOT
BRANCH   1   3
HETATM    3  C5  UNL     1       1.584  -0.150   0.856  1.00  0.00     0.141 C 
BRANCH   3   4
HETATM    4  C4  UNL     1       2.439   1.054   0.577  1.00  0.00     0.251 C 
BRANCH   4   5
HETATM    5  N2  UNL     1       3.684   0.731  -0.082  1.00  0.00    -0.072 N 
ATOM      6  H22 UNL     1       4.146   1.558  -0.460  1.00  0.00     0.277 HD
ATOM      7  H21 UNL     1       3.537   0.232  -0.959  1.00  0.00     0.277 HD
BRANCH   5   8
HETATM    8  C3  UNL     1       4.534  -0.001   0.826  1.00  0.00     0.259 C 
BRANCH   8   9
HETATM    9  C2  UNL     1       5.871  -0.347   0.197  1.00  0.00     0.259 C 
BRANCH   9  10
HETATM   10  N1  UNL     1       6.617   0.807  -0.217  1.00  0.00    -0.077 N 
HETATM   11  C1  UNL     1       7.868   0.318  -0.797  1.00  0.00     0.267 C 
ATOM     12  H12 UNL     1       6.759   1.483   0.533  1.00  0.00     0.276 HD
ATOM     13  H11 UNL     1       6.095   1.418  -0.845  1.00  0.00     0.276 HD
ENDBRANCH   9  10
ENDBRANCH   8   9
ENDBRANCH   5   8
ENDBRANCH   4   5
ENDBRANCH   3   4
ENDBRANCH   1   3
BRANCH   1  14
HETATM   14  C6  UNL     1      -0.591   0.870   0.668  1.00  0.00     0.118 C 
BRANCH  14  15
HETATM   15  C7  UNL     1      -1.072  -0.023  -0.441  1.00  0.00     0.003 C 
HETATM   16  C8  UNL     1      -1.752  -1.273   0.032  1.00  0.00     0.006 C 
HETATM   17  C9  UNL     1      -2.458  -1.185   1.331  1.00  0.00     0.000 C 
HETATM   18  C10 UNL     1      -3.739  -1.994   1.371  1.00  0.00     0.000 C 
HETATM   19  C11 UNL     1      -4.664  -1.678   0.233  1.00  0.00     0.000 C 
HETATM   20  C12 UNL     1      -4.949  -0.218   0.079  1.00  0.00     0.000 C 
HETATM   21  C13 UNL     1      -4.380   0.375  -1.193  1.00  0.00     0.004 C 
HETATM   22  C14 UNL     1      -3.190   1.277  -0.924  1.00  0.00    -0.018 C 
HETATM   23  C15 UNL     1      -3.459   2.587  -1.675  1.00  0.00     0.010 C 
HETATM   24  C16 UNL     1      -1.907   0.733  -1.457  1.00  0.00     0.010 C 
ENDBRANCH  14  15
ENDBRANCH   1  14
TORSDOF 8
