REMARK  7 active torsions:
REMARK  status: ('A' for Active; 'I' for Inactive)
REMARK    1  A    between atoms: C3_3  and  C4_4 
REMARK    2  A    between atoms: C4_4  and  C5_5 
REMARK    3  A    between atoms: C5_5  and  C6_6 
REMARK    4  A    between atoms: C5_5  and  N1_10 
REMARK    5  A    between atoms: C6_6  and  C7_7 
REMARK    6  A    between atoms: C7_7  and  C8_8 
REMARK    7  A    between atoms: N1_10  and  C10_12 
ROOT
HETATM    1  C1  UNL     1       0.980   4.354  -2.454  1.00  0.00     0.012 C 
HETATM    2  C2  UNL     1       0.788   3.600  -1.534  1.00  0.00    -0.117 C 
HETATM    3  C3  UNL     1       0.535   2.683  -0.427  1.00  0.00     0.095 C 
ENDROOT
BRANCH   3   4
HETATM    4  C4  UNL     1       1.173   1.336  -0.724  1.00  0.00     0.037 C 
BRANCH   4   5
HETATM    5  C5  UNL     1       0.878   0.431   0.454  1.00  0.00     0.083 C 
BRANCH   5   6
HETATM    6  C6  UNL     1       1.475  -0.914   0.200  1.00  0.00     0.025 C 
BRANCH   6   7
HETATM    7  C7  UNL     1       2.983  -0.774   0.037  1.00  0.00     0.002 C 
BRANCH   7   8
HETATM    8  C8  UNL     1       3.606  -2.162  -0.200  1.00  0.00    -0.004 C 
HETATM    9  C9  UNL     1       3.337  -3.085   0.949  1.00  0.00     0.005 C 
ENDBRANCH   7   8
ENDBRANCH   6   7
ENDBRANCH   5   6
BRANCH   5  10
HETATM   10  N1  UNL     1      -0.450   0.517   0.830  1.00  0.00    -0.371 N 
ATOM     11  H1  UNL     1      -0.523   0.998   1.726  1.00  0.00     0.161 HD
BRANCH  10  12
HETATM   12  C10 UNL     1      -1.592   0.197   0.429  1.00  0.00     0.121 A 
HETATM   13  N2  UNL     1      -1.794  -0.451  -0.730  1.00  0.00    -0.332 N 
HETATM   14  C11 UNL     1      -2.985  -0.827  -1.225  1.00  0.00     0.079 A 
ATOM     15  H2  UNL     1      -0.969  -0.678  -1.284  1.00  0.00     0.168 HD
HETATM   16  C12 UNL     1      -3.064  -1.537  -2.520  1.00  0.00     0.089 C 
HETATM   17  N3  UNL     1      -4.089  -0.535  -0.505  1.00  0.00    -0.339 N 
HETATM   18  C13 UNL     1      -3.950   0.124   0.685  1.00  0.00     0.111 A 
ATOM     19  H3  UNL     1      -5.013  -0.802  -0.844  1.00  0.00     0.168 HD
HETATM   20  S1  UNL     1      -5.050   0.667   1.867  1.00  0.00     0.008 SA
HETATM   21  C15 UNL     1      -2.746   0.514   1.203  1.00  0.00     0.111 A 
HETATM   22  N4  UNL     1      -3.972   1.356   2.957  1.00  0.00    -0.291 N 
HETATM   23  C14 UNL     1      -2.781   1.155   2.390  1.00  0.00     0.268 A 
ATOM     24  H4  UNL     1      -4.179   1.818   3.842  1.00  0.00     0.177 HD
HETATM   25  O1  UNL     1      -1.745   1.594   3.027  1.00  0.00    -0.267 OA
ENDBRANCH  10  12
ENDBRANCH   5  10
ENDBRANCH   4   5
ENDBRANCH   3   4
TORSDOF 7
