REMARK  8 active torsions:
REMARK  status: ('A' for Active; 'I' for Inactive)
REMARK    1  A    between atoms: O1_1  and  C1_3 
REMARK    2  A    between atoms: C1_3  and  C2_4 
REMARK    3  A    between atoms: C2_4  and  C3_5 
REMARK    4  A    between atoms: C3_5  and  C4_6 
REMARK    5  A    between atoms: C4_6  and  N1_7 
REMARK    6  A    between atoms: N1_7  and  C5_9 
REMARK    7  A    between atoms: N4_19  and  C11_20 
REMARK    8  A    between atoms: C11_20  and  C12_21 
ROOT
HETATM    1  C5  UNL     1       2.258  -0.134  -1.468  1.00  0.00     0.062 A 
HETATM    2  C6  UNL     1       2.147  -1.119  -2.467  1.00  0.00     0.137 A 
HETATM    3  N2  UNL     1       0.956  -1.534  -2.917  1.00  0.00    -0.308 N 
ATOM      4  H2  UNL     1       0.929  -2.250  -3.643  1.00  0.00     0.186 HD
HETATM    5  N3  UNL     1      -0.184  -1.054  -2.459  1.00  0.00    -0.285 N 
ATOM      6  H3  UNL     1      -1.074  -1.393  -2.824  1.00  0.00     0.188 HD
HETATM    7  C7  UNL     1      -0.153  -0.109  -1.502  1.00  0.00     0.134 A 
HETATM    8  C8  UNL     1       1.061   0.357  -1.001  1.00  0.00     0.039 A 
HETATM    9  C9  UNL     1       0.753   1.293  -0.060  1.00  0.00     0.035 A 
HETATM   10  C10 UNL     1      -0.626   1.396   0.011  1.00  0.00     0.093 A 
HETATM   11  N4  UNL     1      -1.160   0.542  -0.868  1.00  0.00    -0.341 N 
ENDROOT
BRANCH   1  12
HETATM   12  N1  UNL     1       3.386   0.195  -1.108  1.00  0.00    -0.368 N 
ATOM     13  H1  UNL     1       4.073  -0.343  -1.636  1.00  0.00     0.165 HD
BRANCH  12  14
HETATM   14  C4  UNL     1       4.050   1.042  -0.235  1.00  0.00     0.061 C 
BRANCH  14  15
HETATM   15  C3  UNL     1       4.193   0.511   1.184  1.00  0.00     0.046 C 
BRANCH  15  16
HETATM   16  C2  UNL     1       4.953  -0.774   1.229  1.00  0.00     0.031 C 
BRANCH  16  17
HETATM   17  C1  UNL     1       6.357  -0.646   0.680  1.00  0.00     0.164 C 
BRANCH  17  18
HETATM   18  O1  UNL     1       7.113   0.266   1.375  1.00  0.00    -0.401 OA
ATOM     19  H1  UNL     1       7.995   0.346   1.030  1.00  0.00     0.209 HD
ENDBRANCH  17  18
ENDBRANCH  16  17
ENDBRANCH  15  16
ENDBRANCH  14  15
ENDBRANCH  12  14
ENDBRANCH   1  12
BRANCH  11  20
HETATM   20  C11 UNL     1      -2.570   0.355  -1.107  1.00  0.00     0.134 C 
BRANCH  20  21
HETATM   21  C12 UNL     1      -3.207  -0.721  -0.271  1.00  0.00     0.004 C 
HETATM   22  C13 UNL     1      -3.102  -0.456   1.186  1.00  0.00     0.006 C 
HETATM   23  C14 UNL     1      -3.924   0.770   1.503  1.00  0.00     0.000 C 
HETATM   24  C15 UNL     1      -5.369   0.545   1.175  1.00  0.00     0.000 C 
HETATM   25  C16 UNL     1      -5.639  -0.668   0.348  1.00  0.00     0.000 C 
HETATM   26  C17 UNL     1      -4.627  -0.913  -0.743  1.00  0.00     0.006 C 
ENDBRANCH  20  21
ENDBRANCH  11  20
TORSDOF 8
