REMARK  6 active torsions:
REMARK  status: ('A' for Active; 'I' for Inactive)
REMARK    1  A    between atoms: O1_2  and  C2_3 
REMARK    2  A    between atoms: C7_8  and  O2_9 
REMARK    3  A    between atoms: C9_11  and  C10_12 
REMARK    4  A    between atoms: C10_12  and  C11_13 
REMARK    5  A    between atoms: C11_13  and  N1_14 
REMARK    6  A    between atoms: C18_21  and  O3_22 
ROOT
HETATM    1  C2  UNL     1      -3.081   1.552   0.351  1.00  0.00     0.102 A 
HETATM    2  C3  UNL     1      -2.878   0.396   1.044  1.00  0.00     0.047 A 
HETATM    3  C4  UNL     1      -1.938  -0.587   0.691  1.00  0.00    -0.046 A 
HETATM    4  C5  UNL     1      -1.178  -0.354  -0.434  1.00  0.00    -0.045 A 
HETATM    5  C6  UNL     1      -1.374   0.808  -1.144  1.00  0.00     0.047 A 
HETATM    6  C7  UNL     1      -2.301   1.741  -0.765  1.00  0.00     0.102 A 
HETATM    7  C9  UNL     1      -0.127  -1.220  -1.013  1.00  0.00     0.021 C 
HETATM    8  C16 UNL     1       0.556  -2.019   0.038  1.00  0.00     0.012 C 
HETATM    9  C17 UNL     1      -0.377  -3.095   0.583  1.00  0.00     0.033 C 
HETATM   10  C18 UNL     1      -0.852  -2.510   1.921  1.00  0.00     0.122 C 
HETATM   11  C19 UNL     1      -2.053  -1.698   1.673  1.00  0.00     0.070 C 
ENDROOT
BRANCH   7  12
HETATM   12  C10 UNL     1       0.856  -0.566  -1.911  1.00  0.00     0.039 C 
BRANCH  12  13
HETATM   13  C11 UNL     1       1.707   0.515  -1.404  1.00  0.00     0.273 C 
BRANCH  13  14
HETATM   14  N1  UNL     1       2.603   0.176  -0.313  1.00  0.00     0.088 N 
HETATM   15  C12 UNL     1       3.294   1.442   0.010  1.00  0.00     0.272 C 
HETATM   16  C13 UNL     1       4.303   0.934   1.039  1.00  0.00     0.032 C 
HETATM   17  C14 UNL     1       4.709  -0.398   0.410  1.00  0.00     0.032 C 
HETATM   18  C15 UNL     1       3.754  -0.580  -0.776  1.00  0.00     0.272 C 
ENDBRANCH  13  14
ENDBRANCH  12  13
ENDBRANCH   7  12
BRANCH   6  19
HETATM   19  O2  UNL     1      -2.487   2.912  -1.493  1.00  0.00    -0.353 OA
HETATM   20  C8  UNL     1      -1.706   3.134  -2.637  1.00  0.00     0.210 C 
ENDBRANCH   6  19
BRANCH  10  21
HETATM   21  O3  UNL     1      -1.193  -3.574   2.740  1.00  0.00    -0.395 OA
ATOM     22  H3  UNL     1      -1.487  -3.212   3.568  1.00  0.00     0.210 HD
ENDBRANCH  10  21
BRANCH   1  23
HETATM   23  O1  UNL     1      -4.036   2.509   0.746  1.00  0.00    -0.353 OA
HETATM   24  C1  UNL     1      -4.816   2.272   1.901  1.00  0.00     0.210 C 
ENDBRANCH   1  23
TORSDOF 6
