REMARK  5 active torsions:
REMARK  status: ('A' for Active; 'I' for Inactive)
REMARK    1  A    between atoms: C4_4  and  C5_5 
REMARK    2  A    between atoms: N1_8  and  C8_9 
REMARK    3  A    between atoms: C8_9  and  C9_10 
REMARK    4  A    between atoms: C9_10  and  O1_11 
REMARK    5  A    between atoms: O1_11  and  C10_12 
ROOT
HETATM    1  C5  UNL     1      -1.937  -0.365  -0.346  1.00  0.00     0.024 C 
HETATM    2  C6  UNL     1      -1.047   0.549  -1.119  1.00  0.00     0.029 C 
HETATM    3  C7  UNL     1       0.395   0.085  -0.842  1.00  0.00     0.122 C 
HETATM    4  N1  UNL     1       0.404  -1.264  -0.412  1.00  0.00    -0.391 N 
HETATM    5  C15 UNL     1      -0.119  -1.501   0.894  1.00  0.00     0.122 C 
HETATM    6  C16 UNL     1      -1.312  -0.538   1.025  1.00  0.00     0.029 C 
ENDROOT
BRANCH   4   7
HETATM    7  C8  UNL     1       1.388  -2.118  -0.908  1.00  0.00     0.084 C 
BRANCH   7   8
HETATM    8  C9  UNL     1       2.807  -1.852  -0.459  1.00  0.00     0.212 C 
BRANCH   8   9
HETATM    9  O1  UNL     1       3.168  -0.598  -0.841  1.00  0.00    -0.379 OA
BRANCH   9  10
HETATM   10  C10 UNL     1       4.426  -0.196  -0.512  1.00  0.00     0.139 C 
HETATM   11  C11 UNL     1       4.268   0.929   0.524  1.00  0.00     0.035 C 
HETATM   12  C12 UNL     1       5.651   1.158   1.102  1.00  0.00     0.022 C 
HETATM   13  C13 UNL     1       6.568   1.610  -0.014  1.00  0.00     0.114 C 
HETATM   14  N2  UNL     1       6.564   0.717  -1.127  1.00  0.00    -0.419 N 
HETATM   15  C14 UNL     1       5.279   0.322  -1.609  1.00  0.00     0.145 C 
ATOM     16  H2  UNL     1       7.428   0.381  -1.553  1.00  0.00     0.153 HD
ENDBRANCH   9  10
ENDBRANCH   8   9
ENDBRANCH   7   8
ENDBRANCH   4   7
BRANCH   1  17
HETATM   17  C4  UNL     1      -3.314   0.063  -0.198  1.00  0.00    -0.030 A 
HETATM   18  C3  UNL     1      -3.762   1.293  -0.702  1.00  0.00     0.034 A 
HETATM   19  C2  UNL     1      -5.082   1.421  -0.418  1.00  0.00     0.008 A 
HETATM   20  C1  UNL     1      -5.997   2.547  -0.749  1.00  0.00     0.068 C 
HETATM   21  N3  UNL     1      -5.442   0.297   0.246  1.00  0.00    -0.358 N 
HETATM   22  C17 UNL     1      -4.391  -0.528   0.386  1.00  0.00     0.014 A 
HETATM   23  C19 UNL     1      -6.775  -0.021   0.761  1.00  0.00     0.156 C 
HETATM   24  C18 UNL     1      -4.348  -1.858   1.043  1.00  0.00     0.069 C 
ENDBRANCH   1  17
TORSDOF 5
