REMARK  5 active torsions:
REMARK  status: ('A' for Active; 'I' for Inactive)
REMARK    1  A    between atoms: C2_2  and  N1_3 
REMARK    2  A    between atoms: N1_3  and  C3_4 
REMARK    3  A    between atoms: N1_3  and  C10_17 
REMARK    4  A    between atoms: N5_20  and  C13_21 
REMARK    5  A    between atoms: C13_21  and  C14_22 
ROOT
HETATM    1  C3  UNL     1       2.376  -0.566  -0.973  1.00  0.00     0.062 A 
HETATM    2  C4  UNL     1       2.435  -1.881  -1.386  1.00  0.00     0.049 A 
HETATM    3  C5  UNL     1       3.580  -2.654  -1.314  1.00  0.00     0.092 A 
HETATM    4  N2  UNL     1       4.685  -2.079  -0.811  1.00  0.00    -0.350 N 
ATOM      5  H2  UNL     1       5.540  -2.632  -0.749  1.00  0.00     0.166 HD
HETATM    6  C6  UNL     1       4.709  -0.819  -0.391  1.00  0.00     0.136 A 
HETATM    7  N3  UNL     1       5.689  -0.071   0.129  1.00  0.00    -0.330 N 
ATOM      8  H3  UNL     1       6.645  -0.386   0.297  1.00  0.00     0.168 HD
HETATM    9  C7  UNL     1       5.215   1.168   0.398  1.00  0.00     0.079 A 
HETATM   10  C8  UNL     1       5.959   2.314   0.979  1.00  0.00     0.089 C 
HETATM   11  N4  UNL     1       3.924   1.147   0.025  1.00  0.00    -0.341 N 
ATOM     12  H4  UNL     1       3.294   1.945   0.105  1.00  0.00     0.167 HD
HETATM   13  C9  UNL     1       3.564  -0.042  -0.463  1.00  0.00     0.105 A 
ENDROOT
BRANCH   1  14
HETATM   14  N1  UNL     1       1.209   0.202  -1.051  1.00  0.00    -0.374 N 
BRANCH  14  15
HETATM   15  C2  UNL     1       1.228   1.445  -1.839  1.00  0.00     0.119 C 
HETATM   16  C1  UNL     1       1.083   2.579  -0.843  1.00  0.00     0.026 C 
ENDBRANCH  14  15
BRANCH  14  17
HETATM   17  C10 UNL     1      -0.062  -0.091  -0.433  1.00  0.00     0.088 C 
HETATM   18  C11 UNL     1      -1.169  -0.240  -1.451  1.00  0.00     0.055 C 
HETATM   19  C12 UNL     1      -2.139  -1.347  -1.023  1.00  0.00     0.274 C 
HETATM   20  N5  UNL     1      -2.527  -1.194   0.350  1.00  0.00     0.088 N 
HETATM   21  C17 UNL     1      -1.386  -1.231   1.252  1.00  0.00     0.274 C 
HETATM   22  C18 UNL     1      -0.066  -1.275   0.473  1.00  0.00     0.055 C 
BRANCH  20  23
HETATM   23  C13 UNL     1      -3.363  -0.061   0.582  1.00  0.00     0.276 C 
BRANCH  23  24
HETATM   24  C14 UNL     1      -4.733  -0.138  -0.005  1.00  0.00     0.006 C 
HETATM   25  C15 UNL     1      -5.460   1.154   0.351  1.00  0.00     0.011 C 
HETATM   26  C16 UNL     1      -5.532  -1.301   0.537  1.00  0.00     0.011 C 
ENDBRANCH  23  24
ENDBRANCH  20  23
ENDBRANCH  14  17
ENDBRANCH   1  14
TORSDOF 5
