REMARK  6 active torsions:
REMARK  status: ('A' for Active; 'I' for Inactive)
REMARK    1  A    between atoms: N1_2  and  C3_4 
REMARK    2  A    between atoms: C3_4  and  C4_5 
REMARK    3  A    between atoms: C4_5  and  O1_6 
REMARK    4  A    between atoms: O1_6  and  C5_7 
REMARK    5  A    between atoms: C8_12  and  N3_13 
REMARK    6  A    between atoms: N3_13  and  C9_15 
ROOT
HETATM    1  C5  UNL     1      -0.325  -0.591   1.308  1.00  0.00     0.158 A 
HETATM    2  C6  UNL     1       0.203  -1.154   2.464  1.00  0.00     0.074 A 
HETATM    3  C7  UNL     1       1.590  -1.170   2.601  1.00  0.00     0.110 A 
HETATM    4  N2  UNL     1       2.385  -0.657   1.646  1.00  0.00    -0.202 N 
ATOM      5  H2  UNL     1       3.398  -0.680   1.767  1.00  0.00     0.183 HD
HETATM    6  C8  UNL     1       1.862  -0.115   0.534  1.00  0.00     0.680 A 
HETATM    7  N4  UNL     1       0.544  -0.103   0.410  1.00  0.00    -0.171 N 
ATOM      8  H4  UNL     1       0.157   0.311  -0.438  1.00  0.00     0.186 HD
ENDROOT
BRANCH   1   9
HETATM    9  O1  UNL     1      -1.707  -0.544   1.110  1.00  0.00    -0.333 OA
BRANCH   9  10
HETATM   10  C4  UNL     1      -2.168   0.043  -0.086  1.00  0.00     0.219 C 
BRANCH  10  11
HETATM   11  C3  UNL     1      -3.680   0.028  -0.170  1.00  0.00     0.180 C 
HETATM   12  C15 UNL     1      -4.128  -1.415  -0.101  1.00  0.00     0.044 C 
HETATM   13  C16 UNL     1      -4.466  -1.805  -1.523  1.00  0.00     0.003 C 
HETATM   14  C17 UNL     1      -4.993  -0.499  -2.117  1.00  0.00     0.003 C 
HETATM   15  C18 UNL     1      -4.072   0.555  -1.527  1.00  0.00     0.044 C 
BRANCH  11  16
HETATM   16  N1  UNL     1      -4.279   0.746   0.909  1.00  0.00     0.091 N 
HETATM   17  C1  UNL     1      -5.691   0.909   0.788  1.00  0.00     0.310 C 
HETATM   18  C2  UNL     1      -3.595   1.953   1.275  1.00  0.00     0.310 C 
ENDBRANCH  11  16
ENDBRANCH  10  11
ENDBRANCH   9  10
ENDBRANCH   1   9
BRANCH   6  19
HETATM   19  N3  UNL     1       2.616   0.376  -0.379  1.00  0.00    -0.221 N 
ATOM     20  H3  UNL     1       2.161   0.773  -1.201  1.00  0.00     0.178 HD
BRANCH  19  21
HETATM   21  C9  UNL     1       4.057   0.411  -0.335  1.00  0.00     0.099 C 
HETATM   22  C10 UNL     1       4.633   1.444  -1.268  1.00  0.00     0.026 C 
HETATM   23  C11 UNL     1       6.152   1.420  -1.042  1.00  0.00     0.002 C 
HETATM   24  C12 UNL     1       6.731   0.112  -1.539  1.00  0.00     0.000 C 
HETATM   25  C13 UNL     1       5.649  -0.924  -1.756  1.00  0.00     0.002 C 
HETATM   26  C14 UNL     1       4.626  -0.924  -0.670  1.00  0.00     0.026 C 
ENDBRANCH  19  21
ENDBRANCH   6  19
TORSDOF 6
