REMARK  7 active torsions:
REMARK  status: ('A' for Active; 'I' for Inactive)
REMARK    1  A    between atoms: O1_2  and  C2_3 
REMARK    2  A    between atoms: C2_3  and  C3_4 
REMARK    3  A    between atoms: C3_4  and  N1_5 
REMARK    4  A    between atoms: C3_4  and  C11_21 
REMARK       I    between atoms: N1_5  and  C4_7 
REMARK    5  A    between atoms: C4_7  and  O3_9 
REMARK    6  A    between atoms: O3_9  and  C5_10 
REMARK       I    between atoms: N2_13  and  C8_14 
REMARK    7  A    between atoms: C11_21  and  C13_23 
ROOT
HETATM    1  N1  UNL     1      -1.348   0.054   0.179  1.00  0.00    -0.330 N 
ATOM      2  H1  UNL     1      -1.481   0.395   1.131  1.00  0.00     0.165 HD
HETATM    3  C4  UNL     1      -0.027  -0.108  -0.330  1.00  0.00     0.361 C 
HETATM    4  O2  UNL     1       0.158  -0.529  -1.511  1.00  0.00    -0.238 OA
ENDROOT
BRANCH   3   5
HETATM    5  O3  UNL     1       1.106   0.175   0.403  1.00  0.00    -0.298 OA
BRANCH   5   6
HETATM    6  C5  UNL     1       2.431   0.010  -0.116  1.00  0.00     0.136 C 
HETATM    7  C6  UNL     1       3.183   1.304  -0.144  1.00  0.00     0.052 C 
HETATM    8  C7  UNL     1       4.629   1.091   0.227  1.00  0.00     0.128 C 
HETATM    9  N2  UNL     1       5.195  -0.108  -0.309  1.00  0.00    -0.356 N 
HETATM   10  C8  UNL     1       6.462  -0.127  -0.925  1.00  0.00     0.183 C 
HETATM   11  C9  UNL     1       4.438  -1.358  -0.218  1.00  0.00     0.128 C 
HETATM   12  N3  UNL     1       7.023  -1.188  -1.357  1.00  0.00    -0.374 N 
HETATM   13  N4  UNL     1       7.174   1.102  -1.084  1.00  0.00    -0.064 NA
ATOM     14  H32 UNL     1       6.515  -2.065  -1.244  1.00  0.00     0.158 HD
ATOM     15  H31 UNL     1       7.940  -1.202  -1.803  1.00  0.00     0.158 HD
HETATM   16  C10 UNL     1       3.217  -1.002   0.645  1.00  0.00     0.052 C 
ENDBRANCH   5   6
ENDBRANCH   3   5
BRANCH   1  17
HETATM   17  C3  UNL     1      -2.500  -0.257  -0.631  1.00  0.00     0.114 C 
BRANCH  17  18
HETATM   18  C2  UNL     1      -3.220  -1.435  -0.078  1.00  0.00     0.192 C 
BRANCH  18  19
HETATM   19  O1  UNL     1      -2.389  -2.556  -0.050  1.00  0.00    -0.394 OA
HETATM   20  C1  UNL     1      -3.061  -3.661   0.468  1.00  0.00     0.201 C 
ENDBRANCH  18  19
ENDBRANCH  17  18
BRANCH  17  21
HETATM   21  C11 UNL     1      -3.293   0.907  -1.055  1.00  0.00     0.010 C 
HETATM   22  C12 UNL     1      -4.282   0.530  -2.170  1.00  0.00     0.012 C 
BRANCH  21  23
HETATM   23  C13 UNL     1      -4.049   1.712  -0.065  1.00  0.00    -0.017 C 
HETATM   24  C14 UNL     1      -3.235   2.356   1.015  1.00  0.00     0.010 C 
HETATM   25  C15 UNL     1      -5.301   1.051   0.457  1.00  0.00     0.010 C 
ENDBRANCH  21  23
ENDBRANCH  17  21
ENDBRANCH   1  17
TORSDOF 7
