REMARK  5 active torsions:
REMARK  status: ('A' for Active; 'I' for Inactive)
REMARK    1  A    between atoms: C2_2  and  C3_3 
REMARK    2  A    between atoms: C3_3  and  N1_4 
REMARK    3  A    between atoms: C5_6  and  N2_7 
REMARK    4  A    between atoms: C14_19  and  C15_20 
REMARK    5  A    between atoms: C15_20  and  N4_21 
REMARK       I    between atoms: N4_21  and  C16_23 
ROOT
HETATM    1  N1  UNL     1       1.278   0.911   0.144  1.00  0.00    -0.385 N 
HETATM    2  C4  UNL     1       0.196   0.166   0.713  1.00  0.00     0.147 C 
HETATM    3  C5  UNL     1      -0.159  -1.071  -0.046  1.00  0.00     0.099 C 
HETATM    4  C12 UNL     1       1.037  -1.790  -0.656  1.00  0.00     0.029 C 
HETATM    5  C13 UNL     1       2.053  -0.841  -1.230  1.00  0.00     0.029 C 
HETATM    6  C14 UNL     1       2.421   0.120  -0.103  1.00  0.00     0.101 C 
ENDROOT
BRANCH   3   7
HETATM    7  N2  UNL     1      -1.186  -1.036  -0.981  1.00  0.00    -0.389 N 
HETATM    8  C6  UNL     1      -2.516  -0.895  -0.776  1.00  0.00    -0.006 C 
HETATM    9  C7  UNL     1      -3.115   0.336  -0.151  1.00  0.00     0.054 C 
HETATM   10  C11 UNL     1      -3.224  -2.202  -0.237  1.00  0.00     0.156 C 
HETATM   11  C8  UNL     1      -4.520   0.675  -0.422  1.00  0.00     0.026 C 
HETATM   12  C9  UNL     1      -5.645   0.168   0.427  1.00  0.00     0.129 C 
HETATM   13  N3  UNL     1      -5.725  -1.326   0.469  1.00  0.00    -0.360 N 
HETATM   14  C10 UNL     1      -4.512  -1.817   0.134  1.00  0.00    -0.070 C 
ATOM     15  H3  UNL     1      -6.550  -1.876   0.708  1.00  0.00     0.168 HD
ATOM     16  H2  UNL     1      -0.898  -1.129  -1.955  1.00  0.00     0.159 HD
ENDBRANCH   3   7
BRANCH   1  17
HETATM   17  C3  UNL     1       0.943   1.982  -0.676  1.00  0.00     0.058 C 
BRANCH  17  18
HETATM   18  C2  UNL     1       0.351   3.100   0.162  1.00  0.00     0.040 C 
HETATM   19  C1  UNL     1       1.344   3.593   1.199  1.00  0.00     0.010 C 
ENDBRANCH  17  18
ENDBRANCH   1  17
BRANCH   6  20
HETATM   20  C15 UNL     1       3.691   0.832  -0.357  1.00  0.00     0.147 C 
BRANCH  20  21
HETATM   21  N4  UNL     1       4.753  -0.118  -0.586  1.00  0.00    -0.359 N 
HETATM   22  C16 UNL     1       5.223  -1.069   0.343  1.00  0.00     0.213 C 
HETATM   23  C17 UNL     1       6.318  -2.023   0.039  1.00  0.00     0.117 C 
HETATM   24  O1  UNL     1       4.714  -1.130   1.482  1.00  0.00    -0.274 OA
ATOM     25  H4  UNL     1       5.204  -0.100  -1.501  1.00  0.00     0.162 HD
ENDBRANCH  20  21
ENDBRANCH   6  20
TORSDOF 5
