REMARK  6 active torsions:
REMARK  status: ('A' for Active; 'I' for Inactive)
REMARK    1  A    between atoms: C2_2  and  N1_4 
REMARK       I    between atoms: C4_6  and  N2_7 
REMARK       I    between atoms: C4_6  and  N4_18 
REMARK    2  A    between atoms: N2_7  and  C5_9 
REMARK    3  A    between atoms: C5_9  and  C6_10 
REMARK    4  A    between atoms: C6_10  and  C7_11 
REMARK    5  A    between atoms: C7_11  and  N3_12 
REMARK    6  A    between atoms: N4_18  and  C12_20 
ROOT
HETATM    1  N1  UNL     1      -1.796   2.121  -0.551  1.00  0.00    -0.223 N 
ATOM      2  H1  UNL     1      -2.748   2.406  -0.781  1.00  0.00     0.178 HD
HETATM    3  C4  UNL     1      -1.498   0.920  -0.780  1.00  0.00     0.670 C 
HETATM    4  N2  UNL     1      -0.226   0.359  -0.521  1.00  0.00    -0.227 N 
ATOM      5  H2  UNL     1       0.073   0.178   0.437  1.00  0.00     0.177 HD
HETATM    6  N4  UNL     1      -2.473   0.017  -1.333  1.00  0.00    -0.222 N 
ATOM      7  H4  UNL     1      -2.863   0.157  -2.265  1.00  0.00     0.178 HD
ENDROOT
BRANCH   1   8
HETATM    8  C2  UNL     1      -0.944   3.129  -0.003  1.00  0.00     0.091 C 
HETATM    9  C1  UNL     1      -1.149   4.409  -0.796  1.00  0.00     0.032 C 
HETATM   10  C3  UNL     1      -1.308   3.427   1.460  1.00  0.00     0.032 C 
ENDBRANCH   1   8
BRANCH   4  11
HETATM   11  C5  UNL     1       0.648   0.044  -1.633  1.00  0.00     0.140 C 
BRANCH  11  12
HETATM   12  C6  UNL     1       1.905  -0.672  -1.226  1.00  0.00     0.050 C 
BRANCH  12  13
HETATM   13  C7  UNL     1       2.695   0.164  -0.291  1.00  0.00     0.274 C 
BRANCH  13  14
HETATM   14  N3  UNL     1       3.896  -0.427   0.190  1.00  0.00     0.092 N 
HETATM   15  C8  UNL     1       4.963  -0.628  -0.707  1.00  0.00     0.298 C 
HETATM   16  C9  UNL     1       6.024  -1.451   0.045  1.00  0.00     0.198 C 
HETATM   17  O1  UNL     1       6.484  -0.682   1.080  1.00  0.00    -0.388 OA
HETATM   18  C10 UNL     1       5.516  -0.368   2.030  1.00  0.00     0.198 C 
HETATM   19  C11 UNL     1       4.278   0.219   1.396  1.00  0.00     0.298 C 
ENDBRANCH  13  14
ENDBRANCH  12  13
ENDBRANCH  11  12
ENDBRANCH   4  11
BRANCH   6  20
HETATM   20  C12 UNL     1      -2.870  -1.092  -0.508  1.00  0.00     0.099 C 
HETATM   21  C13 UNL     1      -3.539  -0.683   0.784  1.00  0.00     0.026 C 
HETATM   22  C14 UNL     1      -4.880  -1.355   0.963  1.00  0.00     0.002 C 
HETATM   23  C15 UNL     1      -4.875  -2.820   0.712  1.00  0.00     0.000 C 
HETATM   24  C16 UNL     1      -3.850  -3.287  -0.296  1.00  0.00     0.002 C 
HETATM   25  C17 UNL     1      -3.641  -2.140  -1.273  1.00  0.00     0.026 C 
ENDBRANCH   6  20
TORSDOF 6
