REMARK  17 active torsions:
REMARK  status: ('A' for Active; 'I' for Inactive)
REMARK    1  A    between atoms: N5_12  and  C4_13 
REMARK    2  A    between atoms: C5_14  and  N6_15 
REMARK    3  A    between atoms: C7_20  and  N7_21 
REMARK    4  A    between atoms: C8_25  and  O1_26 
REMARK    5  A    between atoms: C9_28  and  O2_29 
REMARK    6  A    between atoms: O2_29  and  C10_30 
REMARK    7  A    between atoms: C11_31  and  O3_32 
REMARK    8  A    between atoms: C12_34  and  N8_35 
REMARK    9  A    between atoms: C14_40  and  N9_41 
REMARK   10  A    between atoms: C15_45  and  O4_46 
REMARK   11  A    between atoms: O4_46  and  C16_47 
REMARK   12  A    between atoms: C16_47  and  C17_48 
REMARK   13  A    between atoms: C17_48  and  N10_49 
REMARK   14  A    between atoms: C17_48  and  C18_53 
REMARK   15  A    between atoms: C18_53  and  O5_54 
REMARK   16  A    between atoms: C18_53  and  O6_56 
REMARK   17  A    between atoms: N11_59  and  O7_60 
ROOT
HETATM    1  C4  UNL     1       1.289  -0.566   1.776  1.00  0.00     0.173 C 
HETATM    2  C5  UNL     1       2.325  -0.720   2.829  1.00  0.00     0.212 C 
HETATM    3  C6  UNL     1       2.067   0.153   4.073  1.00  0.00     0.070 C 
HETATM    4  C7  UNL     1       2.171   1.551   3.438  1.00  0.00     0.216 C 
HETATM    5  C8  UNL     1       0.977   1.653   2.559  1.00  0.00     0.179 C 
HETATM    6  C9  UNL     1       0.999   0.843   1.280  1.00  0.00     0.179 C 
ENDROOT
BRANCH   6   7
HETATM    7  O2  UNL     1      -0.224   0.796   0.704  1.00  0.00    -0.370 OA
BRANCH   7   8
HETATM    8  C10 UNL     1      -0.670   1.030  -0.477  1.00  0.00     0.183 C 
HETATM    9  C11 UNL     1      -1.514   2.260  -0.769  1.00  0.00     0.180 C 
HETATM   10  C12 UNL     1      -1.521   2.467  -2.287  1.00  0.00     0.216 C 
HETATM   11  C13 UNL     1      -1.879   1.292  -3.092  1.00  0.00     0.071 C 
HETATM   12  C14 UNL     1      -1.275   0.001  -2.675  1.00  0.00     0.217 C 
HETATM   13  C15 UNL     1      -1.529  -0.073  -1.135  1.00  0.00     0.183 C 
BRANCH   9  14
HETATM   14  O3  UNL     1      -1.024   3.448  -0.317  1.00  0.00    -0.391 OA
ATOM     15  H3  UNL     1      -1.551   4.217  -0.499  1.00  0.00     0.210 HD
ENDBRANCH   9  14
BRANCH  10  16
HETATM   16  N8  UNL     1      -0.262   3.091  -2.704  1.00  0.00    -0.072 N 
ATOM     17  H83 UNL     1      -0.076   3.957  -2.198  1.00  0.00     0.274 HD
ATOM     18  H82 UNL     1       0.552   2.561  -2.392  1.00  0.00     0.274 HD
ATOM     19  H81 UNL     1      -0.267   3.229  -3.715  1.00  0.00     0.274 HD
ENDBRANCH  10  16
BRANCH  12  20
HETATM   20  N9  UNL     1       0.075  -0.197  -3.022  1.00  0.00    -0.072 N 
ATOM     21  H93 UNL     1       0.195  -0.070  -4.027  1.00  0.00     0.274 HD
ATOM     22  H92 UNL     1       0.638   0.577  -2.669  1.00  0.00     0.274 HD
ATOM     23  H91 UNL     1       0.490  -1.084  -2.736  1.00  0.00     0.274 HD
ENDBRANCH  12  20
BRANCH  13  24
HETATM   24  O4  UNL     1      -2.817   0.273  -1.049  1.00  0.00    -0.379 OA
BRANCH  24  25
HETATM   25  C16 UNL     1      -3.847  -0.449  -0.672  1.00  0.00     0.206 C 
BRANCH  25  26
HETATM   26  C17 UNL     1      -3.790  -0.890   0.761  1.00  0.00     0.261 C 
BRANCH  26  27
HETATM   27  N10 UNL     1      -2.657  -1.725   1.023  1.00  0.00    -0.068 N 
ATOM     28 3H10 UNL     1      -2.632  -2.524   0.389  1.00  0.00     0.275 HD
ATOM     29 2H10 UNL     1      -1.789  -1.269   0.742  1.00  0.00     0.275 HD
ATOM     30 1H10 UNL     1      -2.618  -2.025   1.997  1.00  0.00     0.275 HD
ENDBRANCH  26  27
BRANCH  26  31
HETATM   31  C18 UNL     1      -5.023  -1.683   1.157  1.00  0.00     0.286 C 
BRANCH  31  32
HETATM   32  O5  UNL     1      -5.039  -2.835   0.377  1.00  0.00    -0.369 OA
ATOM     33  H5  UNL     1      -5.810  -3.331   0.625  1.00  0.00     0.212 HD
ENDBRANCH  31  32
BRANCH  31  34
HETATM   34  O6  UNL     1      -6.181  -0.919   0.992  1.00  0.00    -0.369 OA
ATOM     35  H6  UNL     1      -6.952  -1.415   1.240  1.00  0.00     0.212 HD
ENDBRANCH  31  34
ENDBRANCH  26  31
ENDBRANCH  25  26
ENDBRANCH  24  25
ENDBRANCH  13  24
ENDBRANCH   7   8
ENDBRANCH   6   7
BRANCH   1  36
HETATM   36  N5  UNL     1       1.468  -1.577   0.812  1.00  0.00    -0.252 N 
HETATM   37  N4  UNL     1       0.817  -2.762   0.906  1.00  0.00    -0.237 N 
HETATM   38  N3  UNL     1       1.117  -3.552  -0.069  1.00  0.00    -0.267 N 
ATOM     39  H4  UNL     1       0.169  -3.000   1.656  1.00  0.00     0.208 HD
HETATM   40  C3  UNL     1       2.004  -2.907  -0.871  1.00  0.00     0.178 A 
ATOM     41  H3  UNL     1       0.753  -4.494  -0.212  1.00  0.00     0.190 HD
HETATM   42  N2  UNL     1       2.687  -3.273  -2.057  1.00  0.00    -0.284 N 
HETATM   43  C19 UNL     1       2.208  -1.667  -0.295  1.00  0.00     0.174 A 
HETATM   44  N1  UNL     1       3.498  -2.507  -2.626  1.00  0.00    -0.314 N 
ATOM     45  H2  UNL     1       2.512  -4.193  -2.462  1.00  0.00     0.188 HD
HETATM   46  C2  UNL     1       3.781  -1.221  -2.106  1.00  0.00     0.202 A 
ATOM     47  H1  UNL     1       3.963  -2.815  -3.480  1.00  0.00     0.182 HD
HETATM   48  C1  UNL     1       3.812  -0.151  -3.200  1.00  0.00     0.053 C 
HETATM   49  N11 UNL     1       3.080  -0.771  -0.944  1.00  0.00    -0.119 NA
BRANCH  49  50
HETATM   50  O7  UNL     1       4.077  -0.343  -0.082  1.00  0.00    -0.305 OA
ATOM     51  H7  UNL     1       3.611  -0.044   0.690  1.00  0.00     0.237 HD
ENDBRANCH  49  50
ENDBRANCH   1  36
BRANCH   5  52
HETATM   52  O1  UNL     1       0.729   2.991   2.415  1.00  0.00    -0.391 OA
ATOM     53  H1  UNL     1      -0.034   3.056   1.853  1.00  0.00     0.210 HD
ENDBRANCH   5  52
BRANCH   2  54
HETATM   54  N6  UNL     1       2.219  -2.091   3.315  1.00  0.00    -0.073 N 
ATOM     55  H63 UNL     1       1.281  -2.336   3.632  1.00  0.00     0.274 HD
ATOM     56  H62 UNL     1       2.289  -2.789   2.574  1.00  0.00     0.274 HD
ATOM     57  H61 UNL     1       2.930  -2.197   4.038  1.00  0.00     0.274 HD
ENDBRANCH   2  54
BRANCH   4  58
HETATM   58  N7  UNL     1       3.393   1.614   2.712  1.00  0.00    -0.072 N 
ATOM     59  H73 UNL     1       4.204   1.379   3.284  1.00  0.00     0.274 HD
ATOM     60  H72 UNL     1       3.485   0.862   2.029  1.00  0.00     0.274 HD
ATOM     61  H71 UNL     1       3.462   2.541   2.291  1.00  0.00     0.274 HD
ENDBRANCH   4  58
TORSDOF 17
