REMARK  15 active torsions:
REMARK  status: ('A' for Active; 'I' for Inactive)
REMARK    1  A    between atoms: N1_1  and  C1_4 
REMARK    2  A    between atoms: C2_7  and  N3_8 
REMARK    3  A    between atoms: N6_16  and  C4_17 
REMARK    4  A    between atoms: C7_20  and  C8_21 
REMARK    5  A    between atoms: C9_24  and  N8_25 
REMARK    6  A    between atoms: N8_25  and  C10_27 
REMARK    7  A    between atoms: C10_27  and  C11_28 
REMARK    8  A    between atoms: C10_27  and  C12_31 
REMARK    9  A    between atoms: C12_31  and  O2_32 
REMARK   10  A    between atoms: C12_31  and  O3_34 
REMARK   11  A    between atoms: C14_38  and  S1_39 
REMARK   12  A    between atoms: S1_39  and  N10_42 
REMARK   13  A    between atoms: N10_42  and  O7_43 
REMARK   14  A    between atoms: N10_42  and  N11_45 
REMARK   15  A    between atoms: N11_45  and  O8_46 
ROOT
HETATM    1  C4  UNL     1       2.988   0.109  -0.718  1.00  0.00     0.131 A 
HETATM    2  C5  UNL     1       2.195  -0.566  -1.609  1.00  0.00     0.051 A 
HETATM    3  C6  UNL     1       0.852  -0.610  -1.338  1.00  0.00     0.022 A 
HETATM    4  C7  UNL     1       0.288  -0.011  -0.222  1.00  0.00     0.055 A 
HETATM    5  C14 UNL     1       1.111   0.651   0.645  1.00  0.00     0.163 A 
HETATM    6  N12 UNL     1       2.446   0.685   0.357  1.00  0.00    -0.330 N 
ATOM      7  H12 UNL     1       3.064   1.179   1.001  1.00  0.00     0.168 HD
ENDROOT
BRANCH   1   8
HETATM    8  N6  UNL     1       4.394   0.186  -0.956  1.00  0.00    -0.206 N 
HETATM    9  N5  UNL     1       4.996   1.191  -1.560  1.00  0.00    -0.232 N 
HETATM   10  N4  UNL     1       6.291   0.980  -1.634  1.00  0.00    -0.279 N 
ATOM     11  H5  UNL     1       4.522   2.019  -1.921  1.00  0.00     0.209 HD
HETATM   12  C3  UNL     1       6.549  -0.203  -1.059  1.00  0.00     0.140 A 
ATOM     13  H4  UNL     1       6.978   1.606  -2.055  1.00  0.00     0.189 HD
HETATM   14  C2  UNL     1       7.696  -0.935  -0.843  1.00  0.00     0.147 A 
HETATM   15  C15 UNL     1       5.343  -0.705  -0.629  1.00  0.00     0.177 A 
HETATM   16  N2  UNL     1       7.588  -2.115  -0.218  1.00  0.00    -0.175 N 
HETATM   17  C1  UNL     1       6.423  -2.611   0.203  1.00  0.00     0.679 A 
ATOM     18  H2  UNL     1       8.435  -2.659  -0.057  1.00  0.00     0.186 HD
HETATM   19  N13 UNL     1       5.292  -1.890  -0.010  1.00  0.00    -0.172 N 
ATOM     20  H13 UNL     1       4.394  -2.256   0.305  1.00  0.00     0.186 HD
BRANCH  14  21
HETATM   21  N3  UNL     1       8.829  -0.477  -1.240  1.00  0.00    -0.383 N 
ATOM     22  H32 UNL     1       9.678  -1.019  -1.080  1.00  0.00     0.157 HD
ATOM     23  H31 UNL     1       8.911   0.421  -1.716  1.00  0.00     0.157 HD
ENDBRANCH  14  21
BRANCH  17  24
HETATM   24  N1  UNL     1       6.375  -3.747   0.796  1.00  0.00    -0.234 N 
ATOM     25  H12 UNL     1       7.224  -4.289   0.956  1.00  0.00     0.174 HD
ATOM     26  H11 UNL     1       5.484  -4.126   1.118  1.00  0.00     0.174 HD
ENDBRANCH  17  24
ENDBRANCH   1   8
BRANCH   5  27
HETATM   27  S1  UNL     1       0.545   1.386   2.124  1.00  0.00     0.299 S 
HETATM   28  O5  UNL     1      -0.228   0.433   2.961  1.00  0.00    -0.201 OA
HETATM   29  O6  UNL     1       1.814   1.684   2.964  1.00  0.00    -0.201 OA
BRANCH  27  30
HETATM   30  N10 UNL     1      -0.182   2.915   1.889  1.00  0.00     0.040 NA
BRANCH  30  31
HETATM   31  O7  UNL     1       0.741   3.922   1.963  1.00  0.00    -0.281 OA
ATOM     32  H7  UNL     1       0.337   4.772   1.832  1.00  0.00     0.240 HD
ENDBRANCH  30  31
BRANCH  30  33
HETATM   33  N11 UNL     1      -1.097   3.213   2.934  1.00  0.00     0.034 NA
BRANCH  33  34
HETATM   34  O8  UNL     1      -2.092   4.013   2.513  1.00  0.00    -0.279 OA
ATOM     35  H8  UNL     1      -2.704   4.212   3.212  1.00  0.00     0.240 HD
ENDBRANCH  33  34
ENDBRANCH  30  33
ENDBRANCH  27  30
ENDBRANCH   5  27
BRANCH   4  36
HETATM   36  C8  UNL     1      -1.172  -0.088  -0.041  1.00  0.00     0.162 A 
HETATM   37  N7  UNL     1      -2.027  -0.767  -0.832  1.00  0.00    -0.321 N 
HETATM   38  C9  UNL     1      -3.311  -0.635  -0.389  1.00  0.00     0.130 A 
ATOM     39  H7  UNL     1      -1.751  -1.307  -1.652  1.00  0.00     0.169 HD
HETATM   40  C13 UNL     1      -3.187   0.164   0.717  1.00  0.00     0.192 A 
HETATM   41  O4  UNL     1      -1.910   0.453   0.872  1.00  0.00    -0.301 OA
BRANCH  38  42
HETATM   42  N8  UNL     1      -4.438  -1.232  -1.006  1.00  0.00    -0.336 N 
ATOM     43  H8  UNL     1      -4.260  -1.804  -1.832  1.00  0.00     0.167 HD
BRANCH  42  44
HETATM   44  C10 UNL     1      -5.785  -1.115  -0.592  1.00  0.00     0.131 C 
BRANCH  44  45
HETATM   45  C11 UNL     1      -6.085  -1.564   0.789  1.00  0.00     0.282 C 
HETATM   46  N9  UNL     1      -7.392  -1.414   1.277  1.00  0.00    -0.056 NA
HETATM   47  O1  UNL     1      -5.168  -2.061   1.476  1.00  0.00    -0.270 OA
ENDBRANCH  44  45
BRANCH  44  48
HETATM   48  C12 UNL     1      -6.493   0.150  -0.993  1.00  0.00     0.310 C 
BRANCH  48  49
HETATM   49  O2  UNL     1      -6.522   0.281  -2.400  1.00  0.00    -0.366 OA
ATOM     50  H2  UNL     1      -6.969   1.080  -2.653  1.00  0.00     0.213 HD
ENDBRANCH  48  49
BRANCH  48  51
HETATM   51  O3  UNL     1      -6.003   1.294  -0.394  1.00  0.00    -0.366 OA
ATOM     52  H3  UNL     1      -6.450   2.093  -0.647  1.00  0.00     0.213 HD
ENDBRANCH  48  51
ENDBRANCH  44  48
ENDBRANCH  42  44
ENDBRANCH  38  42
ENDBRANCH   4  36
TORSDOF 15
