REMARK  8 active torsions:
REMARK  status: ('A' for Active; 'I' for Inactive)
REMARK    1  A    between atoms: C1_2  and  N1_3 
REMARK    2  A    between atoms: N1_3  and  C2_5 
REMARK    3  A    between atoms: C2_5  and  C3_6 
REMARK       I    between atoms: N2_7  and  C4_9 
REMARK       I    between atoms: C4_9  and  N3_11 
REMARK    4  A    between atoms: N3_11  and  C5_13 
REMARK    5  A    between atoms: C5_13  and  C6_14 
REMARK    6  A    between atoms: C6_14  and  N4_15 
REMARK    7  A    between atoms: N4_15  and  C7_17 
REMARK    8  A    between atoms: C7_17  and  C8_19 
ROOT
HETATM    1  C3  UNL     1       3.008   0.349   1.093  1.00  0.00     0.085 C 
HETATM    2  N2  UNL     1       2.092   0.525   0.195  1.00  0.00    -0.321 N 
ATOM      3  H2  UNL     1       2.357   0.778  -0.757  1.00  0.00     0.169 HD
HETATM    4  C4  UNL     1       0.726   0.369   0.526  1.00  0.00     0.319 C 
HETATM    5  O2  UNL     1       0.047   1.392   0.750  1.00  0.00    -0.247 OA
HETATM    6  N3  UNL     1       0.153  -0.906   0.599  1.00  0.00    -0.341 N 
ATOM      7  H3  UNL     1       0.766  -1.698   0.406  1.00  0.00     0.164 HD
ENDROOT
BRANCH   6   8
HETATM    8  C5  UNL     1      -1.215  -1.206   0.919  1.00  0.00     0.143 C 
BRANCH   8   9
HETATM    9  C6  UNL     1      -2.183  -0.596  -0.087  1.00  0.00     0.136 C 
BRANCH   9  10
HETATM   10  N4  UNL     1      -3.531  -0.893   0.220  1.00  0.00    -0.387 N 
ATOM     11  H4  UNL     1      -3.755  -1.417   1.066  1.00  0.00     0.156 HD
BRANCH  10  12
HETATM   12  C7  UNL     1      -4.561  -0.471  -0.632  1.00  0.00     0.330 C 
HETATM   13  F1  UNL     1      -4.484  -1.022  -1.911  1.00  0.00    -0.221 F 
BRANCH  12  14
HETATM   14  C8  UNL     1      -4.741   1.008  -0.799  1.00  0.00     0.406 C 
HETATM   15  F2  UNL     1      -3.685   1.686  -1.316  1.00  0.00    -0.209 F 
HETATM   16  F3  UNL     1      -5.120   1.506   0.450  1.00  0.00    -0.209 F 
ENDBRANCH  12  14
ENDBRANCH  10  12
ENDBRANCH   9  10
ENDBRANCH   8   9
ENDBRANCH   6   8
BRANCH   1  17
HETATM   17  C2  UNL     1       4.413   0.516   0.727  1.00  0.00     0.166 C 
BRANCH  17  18
HETATM   18  N1  UNL     1       4.615   0.535  -0.716  1.00  0.00    -0.363 N 
ATOM     19  H1  UNL     1       3.829   0.438  -1.359  1.00  0.00     0.162 HD
BRANCH  18  20
HETATM   20  C1  UNL     1       5.930   0.691  -1.195  1.00  0.00     0.348 C 
HETATM   21  O1  UNL     1       6.879   0.809  -0.404  1.00  0.00    -0.284 OA
ENDBRANCH  18  20
ENDBRANCH  17  18
ENDBRANCH   1  17
TORSDOF 8
