REMARK  8 active torsions:
REMARK  status: ('A' for Active; 'I' for Inactive)
REMARK    1  A    between atoms: C1_2  and  N1_3 
REMARK    2  A    between atoms: N1_3  and  C2_5 
REMARK    3  A    between atoms: C2_5  and  C3_6 
REMARK    4  A    between atoms: C3_6  and  N2_7 
REMARK       I    between atoms: N2_7  and  C4_9 
REMARK    5  A    between atoms: C4_9  and  C5_11 
REMARK    6  A    between atoms: C5_11  and  N3_12 
REMARK       I    between atoms: N3_12  and  C6_14 
REMARK       I    between atoms: C6_14  and  N4_16 
REMARK    7  A    between atoms: N4_16  and  C7_18 
REMARK    8  A    between atoms: C7_18  and  C8_19 
ROOT
HETATM    1  C5  UNL     1       0.753   0.928  -0.909  1.00  0.00     0.227 C 
ENDROOT
BRANCH   1   2
HETATM    2  C4  UNL     1      -0.696   0.902  -1.130  1.00  0.00     0.235 C 
HETATM    3  N2  UNL     1      -1.524  -0.113  -0.660  1.00  0.00    -0.358 N 
ATOM      4  H2  UNL     1      -1.127  -0.897  -0.142  1.00  0.00     0.162 HD
HETATM    5  O2  UNL     1      -1.197   1.870  -1.790  1.00  0.00    -0.272 OA
BRANCH   3   6
HETATM    6  C3  UNL     1      -2.973  -0.055  -0.911  1.00  0.00     0.142 C 
BRANCH   6   7
HETATM    7  C2  UNL     1      -3.539   1.133  -0.194  1.00  0.00     0.141 C 
BRANCH   7   8
HETATM    8  N1  UNL     1      -4.957   1.213  -0.432  1.00  0.00    -0.367 N 
ATOM      9  H1  UNL     1      -5.336   2.026  -0.919  1.00  0.00     0.161 HD
BRANCH   8  10
HETATM   10  C1  UNL     1      -5.831   0.197  -0.009  1.00  0.00     0.348 C 
HETATM   11  O1  UNL     1      -5.428  -0.806   0.593  1.00  0.00    -0.284 OA
ENDBRANCH   8  10
ENDBRANCH   7   8
ENDBRANCH   6   7
ENDBRANCH   3   6
ENDBRANCH   1   2
BRANCH   1  12
HETATM   12  N3  UNL     1       1.223  -0.194  -0.161  1.00  0.00    -0.334 N 
HETATM   13  C6  UNL     1       2.650  -0.255   0.108  1.00  0.00     0.316 C 
HETATM   14  O3  UNL     1       3.374   0.653  -0.316  1.00  0.00    -0.247 OA
HETATM   15  N4  UNL     1       3.168  -1.335   0.838  1.00  0.00    -0.338 N 
ATOM     16  H4  UNL     1       2.496  -2.043   1.134  1.00  0.00     0.164 HD
ATOM     17  H3  UNL     1       0.586  -0.919   0.169  1.00  0.00     0.164 HD
BRANCH  15  18
HETATM   18  C7  UNL     1       4.518  -1.555   1.212  1.00  0.00     0.195 C 
BRANCH  18  19
HETATM   19  C8  UNL     1       5.171  -0.579   2.117  1.00  0.00     0.370 C 
HETATM   20  F1  UNL     1       5.270   0.710   1.694  1.00  0.00    -0.213 F 
HETATM   21  F2  UNL     1       6.495  -1.028   2.290  1.00  0.00    -0.213 F 
ENDBRANCH  18  19
ENDBRANCH  15  18
ENDBRANCH   1  12
TORSDOF 8
