REMARK  8 active torsions:
REMARK  status: ('A' for Active; 'I' for Inactive)
REMARK    1  A    between atoms: C6_6  and  C8_8 
REMARK    2  A    between atoms: C8_8  and  O1_9 
REMARK    3  A    between atoms: C9_11  and  O2_12 
REMARK    4  A    between atoms: O2_12  and  C10_13 
REMARK    5  A    between atoms: C13_17  and  O4_18 
REMARK    6  A    between atoms: C14_20  and  O5_21 
REMARK    7  A    between atoms: O5_21  and  C15_22 
REMARK    8  A    between atoms: C15_22  and  C16_24 
ROOT
HETATM    1  C1  UNL     1      -5.185  -2.988  -1.389  1.00  0.00     0.043 C 
HETATM    2  C2  UNL     1      -4.391  -2.187  -0.422  1.00  0.00    -0.081 C 
HETATM    3  C3  UNL     1      -3.303  -2.786   0.009  1.00  0.00    -0.023 C 
HETATM    4  C4  UNL     1      -2.330  -2.216   0.977  1.00  0.00     0.033 C 
HETATM    5  C5  UNL     1      -1.804  -0.885   0.627  1.00  0.00     0.012 C 
HETATM    6  C6  UNL     1      -0.290  -1.035   0.434  1.00  0.00     0.008 C 
HETATM    7  C7  UNL     1       0.099  -2.191  -0.409  1.00  0.00     0.020 C 
HETATM    8  C9  UNL     1       0.329   0.202  -0.090  1.00  0.00     0.135 C 
HETATM    9  C20 UNL     1      -0.527   1.357   0.409  1.00  0.00     0.034 C 
HETATM   10  C21 UNL     1      -1.790   1.308  -0.401  1.00  0.00     0.014 C 
HETATM   11  C22 UNL     1      -2.467  -0.074  -0.399  1.00  0.00    -0.012 C 
HETATM   12  C23 UNL     1      -2.381  -0.562  -1.816  1.00  0.00     0.018 C 
HETATM   13  C24 UNL     1      -3.918   0.258  -0.119  1.00  0.00     0.140 C 
HETATM   14  O7  UNL     1      -4.044   1.225   0.895  1.00  0.00    -0.370 OA
HETATM   15  C25 UNL     1      -5.180   2.000   0.793  1.00  0.00     0.072 C 
HETATM   16  C26 UNL     1      -5.468   2.587  -0.540  1.00  0.00     0.050 C 
HETATM   17  C27 UNL     1      -4.995   3.159   1.775  1.00  0.00     0.050 C 
HETATM   18  C28 UNL     1      -6.404   1.276   1.235  1.00  0.00     0.006 C 
HETATM   19  C29 UNL     1      -6.567  -0.017   1.483  1.00  0.00    -0.027 C 
HETATM   20  C30 UNL     1      -5.489  -1.038   1.355  1.00  0.00     0.038 C 
HETATM   21  C31 UNL     1      -4.880  -0.849  -0.049  1.00  0.00     0.047 C 
ENDROOT
BRANCH   8  22
HETATM   22  O2  UNL     1       1.660   0.399   0.161  1.00  0.00    -0.352 OA
BRANCH  22  23
HETATM   23  C10 UNL     1       2.408   0.661  -0.957  1.00  0.00     0.297 C 
HETATM   24  O3  UNL     1       2.740   2.049  -0.865  1.00  0.00    -0.351 OA
HETATM   25  C11 UNL     1       3.217   2.246   0.410  1.00  0.00     0.152 C 
HETATM   26  C12 UNL     1       3.473   3.714   0.691  1.00  0.00     0.042 C 
HETATM   27  C13 UNL     1       4.543   1.528   0.613  1.00  0.00     0.179 C 
HETATM   28  C14 UNL     1       4.491   0.088   0.220  1.00  0.00     0.202 C 
HETATM   29  C19 UNL     1       3.673  -0.084  -1.030  1.00  0.00     0.257 C 
HETATM   30  F1  UNL     1       3.535  -1.436  -1.321  1.00  0.00    -0.241 F 
BRANCH  27  31
HETATM   31  O4  UNL     1       5.518   2.171  -0.115  1.00  0.00    -0.390 OA
ATOM     32  H4  UNL     1       6.346   1.723   0.012  1.00  0.00     0.210 HD
ENDBRANCH  27  31
BRANCH  28  33
HETATM   33  O5  UNL     1       5.844  -0.257  -0.159  1.00  0.00    -0.310 OA
BRANCH  33  34
HETATM   34  C15 UNL     1       6.502  -1.275   0.479  1.00  0.00     0.262 C 
HETATM   35  O6  UNL     1       5.982  -1.937   1.393  1.00  0.00    -0.265 OA
BRANCH  34  36
HETATM   36  C16 UNL     1       7.890  -1.605   0.067  1.00  0.00     0.077 C 
HETATM   37  C17 UNL     1       8.747  -0.355   0.287  1.00  0.00     0.020 C 
HETATM   38  C18 UNL     1       7.948  -1.870  -1.442  1.00  0.00     0.020 C 
ENDBRANCH  34  36
ENDBRANCH  33  34
ENDBRANCH  28  33
ENDBRANCH  22  23
ENDBRANCH   8  22
BRANCH   6  39
HETATM   39  C8  UNL     1       0.245  -1.277   1.851  1.00  0.00     0.176 C 
BRANCH  39  40
HETATM   40  O1  UNL     1       1.610  -1.445   1.888  1.00  0.00    -0.400 OA
ATOM     41  H1  UNL     1       1.941  -1.595   2.766  1.00  0.00     0.209 HD
ENDBRANCH  39  40
ENDBRANCH   6  39
TORSDOF 8
