REMARK  5 active torsions:
REMARK  status: ('A' for Active; 'I' for Inactive)
REMARK    1  A    between atoms: C2_2  and  N1_3 
REMARK       I    between atoms: N1_3  and  C3_5 
REMARK       I    between atoms: C3_5  and  N2_7 
REMARK    2  A    between atoms: N2_7  and  C4_9 
REMARK    3  A    between atoms: C5_10  and  S1_11 
REMARK    4  A    between atoms: S1_11  and  C6_12 
REMARK    5  A    between atoms: C10_16  and  S2_17 
ROOT
HETATM    1  C4  UNL     1       2.141  -1.168  -1.261  1.00  0.00     0.152 A 
HETATM    2  C5  UNL     1       0.712  -1.216  -1.381  1.00  0.00     0.117 A 
HETATM    3  N3  UNL     1       0.442  -1.496  -2.643  1.00  0.00    -0.328 N 
ATOM      4  H3  UNL     1      -0.487  -1.601  -3.051  1.00  0.00     0.168 HD
HETATM    5  C17 UNL     1       1.611  -1.617  -3.293  1.00  0.00     0.159 A 
HETATM    6  S3  UNL     1       2.237  -1.915  -4.845  1.00  0.00    -0.044 SA
HETATM    7  C18 UNL     1       3.875  -1.781  -4.466  1.00  0.00     0.077 A 
HETATM    8 BR1  UNL     1       5.417  -1.970  -5.619  1.00  0.00    -0.041 Br
HETATM    9  C19 UNL     1       3.855  -1.503  -3.113  1.00  0.00     0.041 A 
HETATM   10  C20 UNL     1       5.215  -1.216  -2.488  1.00  0.00     0.071 C 
HETATM   11  N4  UNL     1       2.682  -1.425  -2.507  1.00  0.00    -0.277 N 
ENDROOT
BRANCH   2  12
HETATM   12  S1  UNL     1      -0.472  -0.964  -0.043  1.00  0.00    -0.103 SA
BRANCH  12  13
HETATM   13  C6  UNL     1      -0.867   0.741   0.058  1.00  0.00     0.063 C 
HETATM   14  C7  UNL     1      -1.615   1.448  -1.000  1.00  0.00     0.008 C 
HETATM   15  C8  UNL     1      -2.550   0.704  -1.841  1.00  0.00     0.008 C 
HETATM   16  C14 UNL     1      -2.177   2.315   0.101  1.00  0.00    -0.038 C 
HETATM   17  C9  UNL     1      -3.355  -0.374  -1.265  1.00  0.00     0.020 C 
HETATM   18  C10 UNL     1      -3.907  -0.175   0.091  1.00  0.00     0.108 C 
HETATM   19  C12 UNL     1      -2.946   0.101   1.170  1.00  0.00     0.026 C 
HETATM   20  C13 UNL     1      -1.967   1.156   1.021  1.00  0.00     0.009 C 
HETATM   21  C15 UNL     1      -1.155   3.409   0.443  1.00  0.00     0.015 C 
HETATM   22  C16 UNL     1      -3.518   2.892  -0.034  1.00  0.00     0.015 C 
BRANCH  18  23
HETATM   23  S2  UNL     1      -4.713  -1.726   0.560  1.00  0.00     0.144 S 
HETATM   24  C11 UNL     1      -5.483  -1.419   2.134  1.00  0.00     0.161 C 
HETATM   25  O2  UNL     1      -5.711  -2.010  -0.509  1.00  0.00    -0.228 OA
HETATM   26  O3  UNL     1      -3.670  -2.806   0.660  1.00  0.00    -0.228 OA
ENDBRANCH  18  23
ENDBRANCH  12  13
ENDBRANCH   2  12
BRANCH   1  27
HETATM   27  N2  UNL     1       2.643  -0.830  -0.001  1.00  0.00    -0.292 N 
HETATM   28  C3  UNL     1       3.744  -1.165   0.775  1.00  0.00     0.321 C 
HETATM   29  N1  UNL     1       3.903  -0.461   2.035  1.00  0.00    -0.343 N 
HETATM   30  O1  UNL     1       4.620  -1.987   0.544  1.00  0.00    -0.247 OA
ATOM     31  H1  UNL     1       3.220   0.244   2.313  1.00  0.00     0.164 HD
ATOM     32  H2  UNL     1       2.040  -0.159   0.475  1.00  0.00     0.172 HD
BRANCH  29  33
HETATM   33  C2  UNL     1       5.021  -0.755   2.894  1.00  0.00     0.120 C 
HETATM   34  C1  UNL     1       5.007   0.074   4.142  1.00  0.00     0.026 C 
ENDBRANCH  29  33
ENDBRANCH   1  27
TORSDOF 5
