REMARK  8 active torsions:
REMARK  status: ('A' for Active; 'I' for Inactive)
REMARK    1  A    between atoms: C2_2  and  O1_3 
REMARK    2  A    between atoms: O1_3  and  C3_4 
REMARK       I    between atoms: C3_4  and  N1_6 
REMARK    3  A    between atoms: N1_6  and  C4_8 
REMARK    4  A    between atoms: C4_8  and  C5_9 
REMARK    5  A    between atoms: C4_8  and  C9_16 
REMARK    6  A    between atoms: C8_13  and  O3_14 
REMARK    7  A    between atoms: N2_23  and  C15_24 
REMARK    8  A    between atoms: C19_28  and  C20_29 
ROOT
HETATM    1  C9  UNL     1       2.550   0.239  -1.359  1.00  0.00     0.054 C 
HETATM    2  C10 UNL     1       2.694   0.317  -2.874  1.00  0.00     0.036 C 
HETATM    3  C11 UNL     1       1.445   0.823  -3.549  1.00  0.00     0.168 C 
HETATM    4  O4  UNL     1       0.330   0.288  -2.897  1.00  0.00    -0.388 OA
HETATM    5  C12 UNL     1       0.627  -0.873  -2.218  1.00  0.00     0.208 C 
HETATM    6  C13 UNL     1       1.376  -0.519  -0.878  1.00  0.00     0.110 C 
HETATM    7  C14 UNL     1       0.449   0.397  -0.153  1.00  0.00     0.168 C 
HETATM    8  N2  UNL     1      -0.707  -0.167   0.518  1.00  0.00    -0.334 N 
HETATM    9  C26 UNL     1      -0.811  -1.387   1.246  1.00  0.00     0.285 C 
HETATM   10  O5  UNL     1      -1.554  -1.411   2.196  1.00  0.00    -0.265 OA
HETATM   11  C27 UNL     1      -0.092  -2.636   0.958  1.00  0.00     0.205 C 
HETATM   12  F1  UNL     1      -0.646  -3.765   1.517  1.00  0.00    -0.198 F 
HETATM   13  C28 UNL     1       0.997  -2.796   0.243  1.00  0.00     0.184 C 
HETATM   14  O6  UNL     1       1.669  -1.738  -0.383  1.00  0.00    -0.344 OA
ENDROOT
BRANCH   1  15
HETATM   15  C4  UNL     1       3.922   0.066  -0.807  1.00  0.00     0.137 C 
BRANCH  15  16
HETATM   16  N1  UNL     1       3.911  -0.042   0.612  1.00  0.00    -0.327 N 
HETATM   17  C3  UNL     1       4.836   0.337   1.557  1.00  0.00     0.361 C 
HETATM   18  O2  UNL     1       5.975   0.897   1.316  1.00  0.00    -0.238 OA
ATOM     19  H1  UNL     1       3.071  -0.476   0.995  1.00  0.00     0.165 HD
BRANCH  17  20
HETATM   20  O1  UNL     1       4.639   0.149   2.930  1.00  0.00    -0.304 OA
BRANCH  20  21
HETATM   21  C2  UNL     1       5.583   0.482   3.917  1.00  0.00     0.176 C 
HETATM   22  C1  UNL     1       5.982   1.924   3.791  1.00  0.00     0.034 C 
ENDBRANCH  20  21
ENDBRANCH  17  20
ENDBRANCH  15  16
BRANCH  15  23
HETATM   23  C5  UNL     1       4.691  -1.060  -1.489  1.00  0.00     0.039 A 
HETATM   24  S1  UNL     1       4.093  -2.588  -1.950  1.00  0.00    -0.101 SA
HETATM   25  C6  UNL     1       5.518  -3.345  -2.455  1.00  0.00     0.053 A 
HETATM   26  C7  UNL     1       6.451  -2.374  -2.256  1.00  0.00     0.044 A 
HETATM   27  C8  UNL     1       6.018  -1.187  -1.757  1.00  0.00     0.081 A 
BRANCH  27  28
HETATM   28  O3  UNL     1       6.972  -0.135  -1.553  1.00  0.00    -0.360 OA
ATOM     29  H3  UNL     1       7.899  -0.224  -1.740  1.00  0.00     0.217 HD
ENDBRANCH  27  28
ENDBRANCH  15  23
ENDBRANCH   1  15
BRANCH   8  30
HETATM   30  C15 UNL     1      -1.908   0.582   0.456  1.00  0.00     0.032 C 
HETATM   31  C16 UNL     1      -1.757   1.903  -0.338  1.00  0.00     0.039 C 
HETATM   32  C17 UNL     1      -2.865  -0.215  -0.463  1.00  0.00     0.031 C 
HETATM   33  C18 UNL     1      -4.148   0.552  -0.699  1.00  0.00     0.008 C 
HETATM   34  C19 UNL     1      -4.880   0.925   0.552  1.00  0.00    -0.007 C 
HETATM   35  C24 UNL     1      -4.074   0.298   1.709  1.00  0.00     0.008 C 
HETATM   36  C25 UNL     1      -2.674   0.885   1.649  1.00  0.00     0.031 C 
BRANCH  34  37
HETATM   37  C20 UNL     1      -6.294   0.391   0.585  1.00  0.00    -0.048 C 
HETATM   38  C21 UNL     1      -7.041   0.962  -0.589  1.00  0.00     0.015 C 
HETATM   39  C22 UNL     1      -6.356  -1.119   0.523  1.00  0.00     0.015 C 
HETATM   40  C23 UNL     1      -6.972   0.821   1.846  1.00  0.00     0.015 C 
ENDBRANCH  34  37
ENDBRANCH   8  30
TORSDOF 8
