REMARK  11 active torsions:
REMARK  status: ('A' for Active; 'I' for Inactive)
REMARK    1  A    between atoms: C7_8  and  O1_9 
REMARK    2  A    between atoms: O1_9  and  C8_10 
REMARK    3  A    between atoms: C8_10  and  C9_11 
REMARK    4  A    between atoms: C9_11  and  O3_13 
REMARK    5  A    between atoms: O3_13  and  C10_14 
REMARK    6  A    between atoms: C10_14  and  C11_15 
REMARK       I    between atoms: C11_15  and  N2_17 
REMARK    7  A    between atoms: N2_17  and  C12_19 
REMARK    8  A    between atoms: C15_24  and  N4_25 
REMARK    9  A    between atoms: C16_28  and  C17_29 
REMARK   10  A    between atoms: C18_30  and  C19_31 
REMARK   11  A    between atoms: C19_31  and  C20_33 
ROOT
HETATM    1  N1  UNL     1      -8.152   0.365   4.355  1.00  0.00    -0.191 NA
HETATM    2  C1  UNL     1      -7.694   0.923   3.457  1.00  0.00     0.102 C 
HETATM    3  C2  UNL     1      -7.127   1.623   2.309  1.00  0.00     0.077 A 
HETATM    4  C3  UNL     1      -7.466   2.932   2.041  1.00  0.00     0.025 A 
HETATM    5  C4  UNL     1      -6.941   3.609   0.965  1.00  0.00     0.002 A 
HETATM    6  C5  UNL     1      -6.051   2.990   0.112  1.00  0.00     0.003 A 
HETATM    7  C6  UNL     1      -5.721   1.669   0.396  1.00  0.00     0.038 A 
HETATM    8  C7  UNL     1      -6.234   0.980   1.465  1.00  0.00     0.090 A 
ENDROOT
BRANCH   8   9
HETATM    9  O1  UNL     1      -5.884  -0.311   1.702  1.00  0.00    -0.340 OA
BRANCH   9  10
HETATM   10  C8  UNL     1      -5.022  -1.148   1.030  1.00  0.00     0.286 C 
BRANCH  10  11
HETATM   11  C9  UNL     1      -3.603  -0.733   1.004  1.00  0.00     0.283 C 
HETATM   12  O2  UNL     1      -3.221   0.276   1.646  1.00  0.00    -0.263 OA
BRANCH  11  13
HETATM   13  O3  UNL     1      -2.639  -1.420   0.286  1.00  0.00    -0.310 OA
BRANCH  13  14
HETATM   14  C10 UNL     1      -1.311  -1.007   0.279  1.00  0.00     0.281 C 
BRANCH  14  15
HETATM   15  C11 UNL     1      -0.498  -1.933  -0.583  1.00  0.00     0.246 C 
HETATM   16  O4  UNL     1      -1.106  -2.879  -1.117  1.00  0.00    -0.271 OA
HETATM   17  N2  UNL     1       0.873  -1.737  -0.772  1.00  0.00    -0.323 N 
ATOM     18  H2  UNL     1       1.265  -0.930  -0.287  1.00  0.00     0.169 HD
BRANCH  17  19
HETATM   19  C12 UNL     1       1.791  -2.481  -1.527  1.00  0.00     0.063 A 
HETATM   20  C13 UNL     1       1.469  -3.698  -2.052  1.00  0.00     0.118 A 
HETATM   21  N3  UNL     1       2.372  -4.447  -2.733  1.00  0.00    -0.371 N 
HETATM   22  C14 UNL     1       3.595  -4.007  -2.903  1.00  0.00     0.124 A 
ATOM     23  H3  UNL     1       2.099  -5.353  -3.113  1.00  0.00     0.164 HD
HETATM   24  C15 UNL     1       4.006  -2.746  -2.386  1.00  0.00     0.130 A 
HETATM   25  C16 UNL     1       3.114  -1.966  -1.690  1.00  0.00     0.027 A 
BRANCH  24  26
HETATM   26  N4  UNL     1       5.310  -2.388  -2.776  1.00  0.00    -0.113 N 
HETATM   27  O5  UNL     1       5.686  -2.805  -3.965  1.00  0.00    -0.532 OA
HETATM   28  O6  UNL     1       6.271  -1.672  -2.197  1.00  0.00    -0.532 OA
ENDBRANCH  24  26
BRANCH  25  29
HETATM   29  C17 UNL     1       3.313  -0.628  -1.214  1.00  0.00     0.020 C 
HETATM   30  C18 UNL     1       4.305  -0.019  -0.644  1.00  0.00     0.057 C 
BRANCH  30  31
HETATM   31  C19 UNL     1       4.177   1.390  -0.287  1.00  0.00     0.189 C 
HETATM   32  O7  UNL     1       3.117   2.001  -0.538  1.00  0.00    -0.287 OA
BRANCH  31  33
HETATM   33  C20 UNL     1       5.289   2.113   0.369  1.00  0.00     0.054 A 
HETATM   34  C21 UNL     1       6.516   1.622   0.725  1.00  0.00     0.023 A 
HETATM   35  C22 UNL     1       7.374   2.463   1.312  1.00  0.00     0.009 A 
HETATM   36  C23 UNL     1       6.955   3.751   1.510  1.00  0.00     0.050 A 
HETATM   37  S1  UNL     1       5.374   3.739   0.867  1.00  0.00    -0.098 SA
ENDBRANCH  31  33
ENDBRANCH  30  31
ENDBRANCH  25  29
ENDBRANCH  17  19
ENDBRANCH  14  15
ENDBRANCH  13  14
ENDBRANCH  11  13
ENDBRANCH  10  11
ENDBRANCH   9  10
ENDBRANCH   8   9
TORSDOF 11
