REMARK  12 active torsions:
REMARK  status: ('A' for Active; 'I' for Inactive)
REMARK    1  A    between atoms: C1_2  and  C2_3 
REMARK    2  A    between atoms: C1_2  and  O3_28 
REMARK    3  A    between atoms: C2_3  and  N1_4 
REMARK    4  A    between atoms: N1_4  and  C3_5 
REMARK    5  A    between atoms: N1_4  and  C12_22 
REMARK    6  A    between atoms: C3_5  and  C4_6 
REMARK    7  A    between atoms: C4_6  and  O2_7 
REMARK    8  A    between atoms: C4_6  and  C5_9 
REMARK    9  A    between atoms: C4_6  and  C8_17 
REMARK   10  A    between atoms: C5_9  and  N2_10 
REMARK   11  A    between atoms: O3_28  and  C18_29 
REMARK   12  A    between atoms: C21_32  and  N5_33 
ROOT
HETATM    1  N1  UNL     1      -0.176  -1.539   0.559  1.00  0.00    -0.348 N 
ENDROOT
BRANCH   1   2
HETATM    2  C2  UNL     1       1.274  -1.925   0.498  1.00  0.00     0.239 C 
BRANCH   2   3
HETATM    3  C1  UNL     1       2.137  -0.828   0.101  1.00  0.00     0.282 C 
HETATM    4  O1  UNL     1       1.680   0.311  -0.125  1.00  0.00    -0.263 OA
BRANCH   3   5
HETATM    5  O3  UNL     1       3.498  -1.024  -0.036  1.00  0.00    -0.278 OA
BRANCH   5   6
HETATM    6  C18 UNL     1       4.418  -0.075  -0.405  1.00  0.00     0.079 A 
HETATM    7  C19 UNL     1       4.813   0.090  -1.702  1.00  0.00     0.040 A 
HETATM    8  C20 UNL     1       5.750   1.050  -2.088  1.00  0.00     0.039 A 
HETATM    9  C21 UNL     1       6.310   1.873  -1.135  1.00  0.00     0.103 A 
HETATM   10  C22 UNL     1       5.920   1.717   0.184  1.00  0.00     0.039 A 
HETATM   11  C23 UNL     1       4.978   0.748   0.545  1.00  0.00     0.040 A 
BRANCH   9  12
HETATM   12  N5  UNL     1       7.277   2.860  -1.508  1.00  0.00    -0.116 N 
HETATM   13  O4  UNL     1       7.599   2.959  -2.700  1.00  0.00    -0.532 OA
HETATM   14  O5  UNL     1       7.820   3.663  -0.533  1.00  0.00    -0.532 OA
ENDBRANCH   9  12
ENDBRANCH   5   6
ENDBRANCH   3   5
ENDBRANCH   2   3
ENDBRANCH   1   2
BRANCH   1  15
HETATM   15  C3  UNL     1      -0.797  -1.294  -0.662  1.00  0.00     0.110 C 
BRANCH  15  16
HETATM   16  C4  UNL     1      -2.068  -0.643  -0.928  1.00  0.00     0.141 C 
BRANCH  16  17
HETATM   17  O2  UNL     1      -2.249  -0.852  -2.377  1.00  0.00    -0.377 OA
ATOM     18  H2  UNL     1      -3.080  -0.426  -2.551  1.00  0.00     0.211 HD
ENDBRANCH  16  17
BRANCH  16  19
HETATM   19  C5  UNL     1      -3.316  -1.151  -0.341  1.00  0.00     0.199 C 
BRANCH  19  20
HETATM   20  N2  UNL     1      -4.448  -0.335  -0.813  1.00  0.00    -0.283 N 
HETATM   21  C6  UNL     1      -5.039   0.725  -0.292  1.00  0.00     0.201 A 
HETATM   22  N3  UNL     1      -6.021   1.105  -1.132  1.00  0.00    -0.346 N 
HETATM   23  C7  UNL     1      -6.056   0.281  -2.193  1.00  0.00     0.198 A 
ATOM     24  H3  UNL     1      -6.644   1.899  -0.985  1.00  0.00     0.167 HD
HETATM   25  N4  UNL     1      -5.074  -0.600  -1.972  1.00  0.00    -0.293 N 
ATOM     26  H4  UNL     1      -4.833  -1.368  -2.598  1.00  0.00     0.188 HD
ENDBRANCH  19  20
ENDBRANCH  16  19
BRANCH  16  27
HETATM   27  C8  UNL     1      -2.063   0.874  -0.843  1.00  0.00     0.023 A 
HETATM   28  C9  UNL     1      -2.326   1.783  -1.842  1.00  0.00     0.018 A 
HETATM   29  C10 UNL     1      -2.250   3.090  -1.533  1.00  0.00     0.008 A 
HETATM   30  C11 UNL     1      -1.917   3.421  -0.252  1.00  0.00     0.050 A 
HETATM   31  S1  UNL     1      -1.725   1.897   0.468  1.00  0.00    -0.103 SA
ENDBRANCH  16  27
ENDBRANCH  15  16
ENDBRANCH   1  15
BRANCH   1  32
HETATM   32  C12 UNL     1      -0.677  -1.589   1.866  1.00  0.00     0.034 A 
HETATM   33  C13 UNL     1      -1.369  -2.745   2.247  1.00  0.00     0.029 A 
HETATM   34  C14 UNL     1      -1.845  -2.916   3.520  1.00  0.00     0.002 A 
HETATM   35  C15 UNL     1      -1.661  -1.947   4.491  1.00  0.00     0.000 A 
HETATM   36  C16 UNL     1      -0.984  -0.806   4.137  1.00  0.00     0.002 A 
HETATM   37  C17 UNL     1      -0.510  -0.649   2.849  1.00  0.00     0.029 A 
ENDBRANCH   1  32
TORSDOF 12
