REMARK  11 active torsions:
REMARK  status: ('A' for Active; 'I' for Inactive)
REMARK    1  A    between atoms: O1_2  and  C2_3 
REMARK    2  A    between atoms: C2_3  and  O2_4 
REMARK    3  A    between atoms: O2_4  and  C3_5 
REMARK    4  A    between atoms: C7_9  and  C8_10 
REMARK    5  A    between atoms: C8_10  and  N1_11 
REMARK    6  A    between atoms: N1_11  and  C9_12 
REMARK    7  A    between atoms: N1_11  and  C16_19 
REMARK    8  A    between atoms: C9_12  and  C10_13 
REMARK    9  A    between atoms: C18_23  and  N3_24 
REMARK   10  A    between atoms: N4_27  and  C19_28 
REMARK   11  A    between atoms: C21_31  and  O6_32 
ROOT
HETATM    1  N1  UNL     1      -0.117   0.636  -0.099  1.00  0.00    -0.209 N 
ENDROOT
BRANCH   1   2
HETATM    2  C8  UNL     1       0.789  -0.485  -0.138  1.00  0.00     0.180 C 
BRANCH   2   3
HETATM    3  C7  UNL     1       2.183  -0.189  -0.410  1.00  0.00    -0.037 A 
HETATM    4  C6  UNL     1       2.562   0.976  -1.010  1.00  0.00     0.009 A 
HETATM    5  C5  UNL     1       3.884   1.282  -1.290  1.00  0.00     0.003 A 
HETATM    6  C4  UNL     1       4.873   0.392  -0.960  1.00  0.00     0.037 A 
HETATM    7  C3  UNL     1       4.519  -0.790  -0.354  1.00  0.00     0.072 A 
HETATM    8  C23 UNL     1       3.178  -1.083  -0.078  1.00  0.00     0.045 A 
BRANCH   7   9
HETATM    9  O2  UNL     1       5.484  -1.710  -0.008  1.00  0.00    -0.326 OA
BRANCH   9  10
HETATM   10  C2  UNL     1       6.847  -1.474  -0.262  1.00  0.00     0.344 C 
BRANCH  10  11
HETATM   11  O1  UNL     1       7.542  -2.597   0.209  1.00  0.00    -0.371 OA
HETATM   12  C1  UNL     1       7.348  -2.795   1.556  1.00  0.00     0.204 C 
ENDBRANCH  10  11
ENDBRANCH   9  10
ENDBRANCH   7   9
ENDBRANCH   2   3
ENDBRANCH   1   2
BRANCH   1  13
HETATM   13  C9  UNL     1       0.037   1.619   0.977  1.00  0.00     0.180 C 
BRANCH  13  14
HETATM   14  C10 UNL     1      -0.909   2.737   0.892  1.00  0.00    -0.040 A 
HETATM   15  C11 UNL     1      -2.109   2.650   1.563  1.00  0.00     0.009 A 
HETATM   16  C12 UNL     1      -3.050   3.657   1.530  1.00  0.00     0.001 A 
HETATM   17  C13 UNL     1      -2.769   4.786   0.796  1.00  0.00     0.000 A 
HETATM   18  C14 UNL     1      -1.582   4.918   0.109  1.00  0.00     0.001 A 
HETATM   19  C15 UNL     1      -0.676   3.887   0.173  1.00  0.00     0.009 A 
ENDBRANCH  13  14
ENDBRANCH   1  13
BRANCH   1  20
HETATM   20  C16 UNL     1      -1.109   0.798  -1.069  1.00  0.00     0.687 A 
HETATM   21  N2  UNL     1      -1.103   1.655  -2.088  1.00  0.00    -0.198 N 
HETATM   22  C17 UNL     1      -2.190   1.527  -2.832  1.00  0.00     0.161 A 
ATOM     23  H2  UNL     1      -0.356   2.325  -2.272  1.00  0.00     0.183 HD
HETATM   24  C18 UNL     1      -2.955   0.510  -2.247  1.00  0.00     0.210 A 
HETATM   25  N4  UNL     1      -2.273   0.087  -1.178  1.00  0.00    -0.124 N 
BRANCH  24  26
HETATM   26  N3  UNL     1      -4.215   0.080  -2.783  1.00  0.00    -0.096 N 
HETATM   27  O3  UNL     1      -4.670   0.642  -3.830  1.00  0.00    -0.530 OA
HETATM   28  O4  UNL     1      -4.962  -0.905  -2.232  1.00  0.00    -0.530 OA
ENDBRANCH  24  26
BRANCH  25  29
HETATM   29  C19 UNL     1      -2.659  -0.954  -0.273  1.00  0.00     0.312 C 
HETATM   30  O5  UNL     1      -2.842  -2.192  -0.887  1.00  0.00    -0.354 OA
HETATM   31  C20 UNL     1      -2.848  -3.124   0.175  1.00  0.00     0.203 C 
HETATM   32  C21 UNL     1      -4.271  -3.359   0.580  1.00  0.00     0.151 C 
HETATM   33  C22 UNL     1      -4.954  -2.162   1.151  1.00  0.00     0.112 C 
HETATM   34  S1  UNL     1      -4.139  -0.594   0.704  1.00  0.00    -0.113 SA
BRANCH  32  35
HETATM   35  O6  UNL     1      -4.972  -3.911  -0.500  1.00  0.00    -0.393 OA
ATOM     36  H6  UNL     1      -5.874  -4.060  -0.243  1.00  0.00     0.210 HD
ENDBRANCH  32  35
ENDBRANCH  25  29
ENDBRANCH   1  20
TORSDOF 11
