REMARK  2 active torsions:
REMARK  status: ('A' for Active; 'I' for Inactive)
REMARK    1  A    between atoms: O1_1  and  C1_3 
REMARK    2  A    between atoms: C1_3  and  C2_4 
ROOT
HETATM    1  C2  UNL     1       1.845   0.037   0.552  1.00  0.00     0.167 C 
HETATM    2  O2  UNL     1       1.623  -1.311   0.693  1.00  0.00    -0.374 OA
HETATM    3  C3  UNL     1       0.633  -1.407  -0.290  1.00  0.00     0.158 C 
HETATM    4  C4  UNL     1      -0.742  -1.748   0.220  1.00  0.00     0.141 C 
HETATM    5  N1  UNL     1      -1.321  -0.554   0.741  1.00  0.00    -0.247 NA
HETATM    6  C5  UNL     1      -2.658  -0.290   0.326  1.00  0.00     0.109 C 
HETATM    7  C6  UNL     1      -2.610   0.948  -0.504  1.00  0.00     0.032 C 
HETATM    8  C7  UNL     1      -1.295   1.575  -0.093  1.00  0.00     0.110 C 
HETATM    9  N2  UNL     1      -0.525   0.515   0.465  1.00  0.00    -0.240 NA
HETATM   10  C8  UNL     1       0.597   0.101  -0.319  1.00  0.00     0.136 C 
ENDROOT
BRANCH   1  11
HETATM   11  C1  UNL     1       3.065   0.414  -0.262  1.00  0.00     0.197 C 
BRANCH  11  12
HETATM   12  O1  UNL     1       4.172  -0.152   0.408  1.00  0.00    -0.398 OA
ATOM     13  H1  UNL     1       4.937   0.085  -0.103  1.00  0.00     0.209 HD
ENDBRANCH  11  12
ENDBRANCH   1  11
TORSDOF 2
