REMARK  5 active torsions:
REMARK  status: ('A' for Active; 'I' for Inactive)
REMARK    1  A    between atoms: C5_7  and  C6_8 
REMARK    2  A    between atoms: C6_8  and  C7_9 
REMARK    3  A    between atoms: C7_9  and  C8_10 
REMARK    4  A    between atoms: C8_10  and  O3_11 
REMARK    5  A    between atoms: S1_13  and  C9_14 
ROOT
HETATM    1  C1  UNL     1      -3.108   1.571   0.037  1.00  0.00     0.058 C 
HETATM    2  C2  UNL     1      -2.460   0.254  -0.334  1.00  0.00     0.111 C 
HETATM    3  C3  UNL     1      -3.382  -0.887  -0.334  1.00  0.00     0.058 C 
HETATM    4  O1  UNL     1      -1.653   0.451  -1.417  1.00  0.00    -0.299 OA
HETATM    5  C4  UNL     1      -0.311   0.311  -1.305  1.00  0.00     0.274 C 
HETATM    6  O2  UNL     1       0.334  -0.437  -2.123  1.00  0.00    -0.264 OA
HETATM    7  C5  UNL     1       0.336   1.032  -0.241  1.00  0.00     0.148 C 
HETATM    8  S1  UNL     1      -1.063  -0.012   1.200  1.00  0.00    -0.067 SA
ENDROOT
BRANCH   7   9
HETATM    9  C6  UNL     1       1.599   0.614   0.305  1.00  0.00     0.027 C 
BRANCH   9  10
HETATM   10  C7  UNL     1       2.734   0.572  -0.651  1.00  0.00     0.028 C 
BRANCH  10  11
HETATM   11  C8  UNL     1       4.000   0.118   0.103  1.00  0.00     0.164 C 
BRANCH  11  12
HETATM   12  O3  UNL     1       3.827  -1.130   0.649  1.00  0.00    -0.401 OA
ATOM     13  H3  UNL     1       4.607  -1.410   1.114  1.00  0.00     0.209 HD
ENDBRANCH  11  12
ENDBRANCH  10  11
ENDBRANCH   9  10
ENDBRANCH   7   9
BRANCH   8  14
HETATM   14  C9  UNL     1      -0.504  -2.009   1.235  1.00  0.00     0.438 C 
HETATM   15  F1  UNL     1      -1.730  -2.641   1.481  1.00  0.00    -0.161 F 
HETATM   16  F2  UNL     1       0.371  -2.167   2.272  1.00  0.00    -0.161 F 
HETATM   17  F3  UNL     1      -0.022  -2.360   0.023  1.00  0.00    -0.161 F 
ENDBRANCH   8  14
TORSDOF 5
