REMARK  3 active torsions:
REMARK  status: ('A' for Active; 'I' for Inactive)
REMARK       I    between atoms: C1_2  and  N1_3 
REMARK    1  A    between atoms: C1_2  and  C7_10 
REMARK    2  A    between atoms: N1_3  and  C2_5 
REMARK    3  A    between atoms: C9_14  and  C10_15 
ROOT
HETATM    1  C7  UNL     1       1.833   0.071   0.854  1.00  0.00     0.089 A 
HETATM    2  C8  UNL     1       2.422  -0.286  -0.335  1.00  0.00     0.113 A 
HETATM    3  N2  UNL     1       3.709  -0.404  -0.361  1.00  0.00    -0.358 N 
ATOM      4  H2  UNL     1       4.182  -0.667  -1.226  1.00  0.00     0.165 HD
HETATM    5  C9  UNL     1       4.413  -0.182   0.742  1.00  0.00     0.116 A 
HETATM    6  S1  UNL     1       3.204   0.216   1.880  1.00  0.00    -0.064 SA
ENDROOT
BRANCH   1   7
HETATM    7  C1  UNL     1       0.411   0.269   1.144  1.00  0.00     0.260 C 
HETATM    8  O1  UNL     1       0.099   0.596   2.309  1.00  0.00    -0.267 OA
HETATM    9  N1  UNL     1      -0.541   0.095   0.146  1.00  0.00    -0.352 N 
ATOM     10  H1  UNL     1      -0.208  -0.173  -0.780  1.00  0.00     0.163 HD
BRANCH   9  11
HETATM   11  C2  UNL     1      -1.968   0.264   0.319  1.00  0.00     0.084 C 
HETATM   12  C3  UNL     1      -2.626  -1.049  -0.047  1.00  0.00     0.025 C 
HETATM   13  C4  UNL     1      -3.315  -0.757  -1.362  1.00  0.00     0.002 C 
HETATM   14  C5  UNL     1      -3.826   0.668  -1.105  1.00  0.00     0.002 C 
HETATM   15  C6  UNL     1      -2.541   1.316  -0.583  1.00  0.00     0.025 C 
ENDBRANCH   9  11
ENDBRANCH   1   7
BRANCH   5  16
HETATM   16  C10 UNL     1       5.911  -0.267   0.914  1.00  0.00     0.410 C 
HETATM   17  F1  UNL     1       6.331   1.021   1.236  1.00  0.00    -0.207 F 
HETATM   18  F2  UNL     1       6.236  -1.162   1.889  1.00  0.00    -0.207 F 
ENDBRANCH   5  16
TORSDOF 3
