REMARK  4 active torsions:
REMARK  status: ('A' for Active; 'I' for Inactive)
REMARK    1  A    between atoms: C2_2  and  C3_3 
REMARK    2  A    between atoms: C4_6  and  C5_7 
REMARK    3  A    between atoms: C7_9  and  C8_10 
REMARK    4  A    between atoms: C9_13  and  C10_14 
ROOT
HETATM    1  C3  UNL     1      -2.045  -0.203  -0.254  1.00  0.00     0.124 A 
HETATM    2  N1  UNL     1      -0.961   0.532  -0.410  1.00  0.00    -0.338 N 
ATOM      3  H1  UNL     1      -0.955   1.482  -0.780  1.00  0.00     0.168 HD
HETATM    4  C4  UNL     1       0.171  -0.163  -0.002  1.00  0.00     0.079 A 
HETATM    5  C9  UNL     1      -0.313  -1.352   0.407  1.00  0.00     0.188 A 
HETATM    6  O3  UNL     1      -1.652  -1.339   0.239  1.00  0.00    -0.290 OA
ENDROOT
BRANCH   4   7
HETATM    7  C5  UNL     1       1.448   0.478  -0.094  1.00  0.00    -0.026 C 
HETATM    8  C6  UNL     1       1.465   1.953  -0.516  1.00  0.00     0.050 C 
HETATM    9  C7  UNL     1       2.647   0.043   0.118  1.00  0.00     0.093 C 
BRANCH   9  10
HETATM   10  C8  UNL     1       3.910   0.719   0.017  1.00  0.00     0.199 C 
HETATM   11  O1  UNL     1       4.057   1.895  -0.310  1.00  0.00    -0.644 OA
HETATM   12  O2  UNL     1       5.087   0.014   0.305  1.00  0.00    -0.644 OA
ENDBRANCH   9  10
ENDBRANCH   4   7
BRANCH   5  13
HETATM   13  C10 UNL     1       0.450  -2.484   0.950  1.00  0.00     0.441 C 
HETATM   14  F1  UNL     1       1.119  -2.252   2.118  1.00  0.00    -0.164 F 
HETATM   15  F2  UNL     1       1.122  -3.235   0.013  1.00  0.00    -0.164 F 
HETATM   16  F3  UNL     1      -0.554  -3.413   1.379  1.00  0.00    -0.164 F 
ENDBRANCH   5  13
BRANCH   1  17
HETATM   17  C2  UNL     1      -3.453   0.172  -0.571  1.00  0.00     0.080 C 
HETATM   18  C1  UNL     1      -4.127   0.816   0.604  1.00  0.00     0.013 C 
ENDBRANCH   1  17
TORSDOF 4
