REMARK  4 active torsions:
REMARK  status: ('A' for Active; 'I' for Inactive)
REMARK    1  A    between atoms: C2_2  and  O1_3 
REMARK    2  A    between atoms: C2_2  and  C3_5 
REMARK    3  A    between atoms: C5_10  and  C6_11 
REMARK    4  A    between atoms: C5_10  and  C7_13 
ROOT
HETATM    1  C7  UNL     1      -2.035  -0.918  -0.610  1.00  0.00     0.140 C 
HETATM    2  C8  UNL     1      -2.994  -1.538   0.307  1.00  0.00     0.060 C 
HETATM    3  N2  UNL     1      -3.745  -2.034   1.038  1.00  0.00    -0.197 NA
ENDROOT
BRANCH   1   4
HETATM    4  C5  UNL     1      -1.450   0.336   0.010  1.00  0.00     0.042 C 
HETATM    5  C4  UNL     1      -0.473   0.977  -0.914  1.00  0.00     0.281 C 
HETATM    6  N1  UNL     1       0.810   0.451  -0.956  1.00  0.00    -0.355 N 
HETATM    7  F1  UNL     1      -1.001   0.975  -2.202  1.00  0.00    -0.226 F 
HETATM    8  C3  UNL     1       1.410  -0.348  -0.230  1.00  0.00     0.073 C 
ATOM      9  H1  UNL     1       1.367   0.791  -1.740  1.00  0.00     0.162 HD
HETATM   10  S1  UNL     1       0.592  -1.040   1.185  1.00  0.00    -0.113 SA
HETATM   11  C9  UNL     1      -0.923  -0.019   1.358  1.00  0.00     0.097 C 
BRANCH   8  12
HETATM   12  C2  UNL     1       2.799  -0.740  -0.515  1.00  0.00     0.170 C 
HETATM   13  C1  UNL     1       3.747  -0.393   0.614  1.00  0.00     0.046 C 
BRANCH  12  14
HETATM   14  O1  UNL     1       3.257  -0.101  -1.672  1.00  0.00    -0.389 OA
ATOM     15  H1  UNL     1       2.662  -0.319  -2.380  1.00  0.00     0.210 HD
ENDBRANCH  12  14
ENDBRANCH   8  12
BRANCH   4  16
HETATM   16  C6  UNL     1      -2.647   1.267   0.257  1.00  0.00     0.130 C 
HETATM   17 CL1  UNL     1      -2.130   2.798   0.982  1.00  0.00    -0.129 Cl
ENDBRANCH   4  16
ENDBRANCH   1   4
TORSDOF 4
