REMARK  4 active torsions:
REMARK  status: ('A' for Active; 'I' for Inactive)
REMARK    1  A    between atoms: C3_3  and  N1_4 
REMARK    2  A    between atoms: C3_3  and  C9_16 
REMARK    3  A    between atoms: N1_4  and  N2_6 
REMARK    4  A    between atoms: C4_8  and  C5_9 
ROOT
HETATM    1  N2  UNL     1      -0.291  -0.157   0.520  1.00  0.00    -0.307 N 
ATOM      2  H2  UNL     1      -0.030  -1.053   0.108  1.00  0.00     0.186 HD
HETATM    3  C4  UNL     1       0.615   0.707   0.797  1.00  0.00     0.162 C 
ENDROOT
BRANCH   1   4
HETATM    4  N1  UNL     1      -1.617   0.121   0.777  1.00  0.00    -0.301 N 
ATOM      5  H1  UNL     1      -1.882   0.392   1.724  1.00  0.00     0.186 HD
BRANCH   4   6
HETATM    6  C3  UNL     1      -2.633   0.048  -0.216  1.00  0.00     0.076 C 
HETATM    7  C2  UNL     1      -3.382   1.096  -0.419  1.00  0.00     0.000 C 
HETATM    8  C1  UNL     1      -3.179   2.321   0.363  1.00  0.00     0.038 C 
BRANCH   6   9
HETATM    9  C9  UNL     1      -2.806  -1.224  -0.992  1.00  0.00     0.218 C 
HETATM   10  C10 UNL     1      -3.125  -2.379  -0.104  1.00  0.00     0.077 C 
HETATM   11  F1  UNL     1      -1.623  -1.472  -1.667  1.00  0.00    -0.219 F 
HETATM   12 CL1  UNL     1      -4.069  -1.000  -2.216  1.00  0.00    -0.076 Cl
ENDBRANCH   6   9
ENDBRANCH   4   6
ENDBRANCH   1   4
BRANCH   3  13
HETATM   13  C5  UNL     1       1.995   0.382   0.514  1.00  0.00     0.155 C 
HETATM   14  N3  UNL     1       2.913   1.244   0.789  1.00  0.00    -0.370 N 
HETATM   15  C6  UNL     1       4.315   1.021   0.548  1.00  0.00     0.123 C 
ATOM     16  H3  UNL     1       2.631   2.134   1.200  1.00  0.00     0.161 HD
HETATM   17  C7  UNL     1       4.568  -0.463   0.519  1.00  0.00     0.046 C 
HETATM   18  C8  UNL     1       3.626  -1.061  -0.518  1.00  0.00     0.179 C 
HETATM   19  O1  UNL     1       2.308  -0.839  -0.042  1.00  0.00    -0.335 OA
ENDBRANCH   3  13
TORSDOF 4
