REMARK  5 active torsions:
REMARK  status: ('A' for Active; 'I' for Inactive)
REMARK    1  A    between atoms: C2_2  and  O1_3 
REMARK    2  A    between atoms: O1_3  and  C3_4 
REMARK    3  A    between atoms: C3_4  and  C4_6 
REMARK    4  A    between atoms: C5_7  and  C6_8 
REMARK    5  A    between atoms: N1_11  and  O4_13 
ROOT
HETATM    1  C4  UNL     1       0.752   0.476  -0.086  1.00  0.00     0.081 C 
HETATM    2  C5  UNL     1       1.624   0.738   0.865  1.00  0.00     0.020 C 
ENDROOT
BRANCH   1   3
HETATM    3  C3  UNL     1      -0.666   0.261   0.183  1.00  0.00     0.287 C 
HETATM    4  O2  UNL     1      -1.155   0.308   1.330  1.00  0.00    -0.260 OA
BRANCH   3   5
HETATM    5  O1  UNL     1      -1.502  -0.007  -0.872  1.00  0.00    -0.278 OA
BRANCH   5   6
HETATM    6  C2  UNL     1      -2.847  -0.232  -0.800  1.00  0.00     0.086 C 
HETATM    7  C1  UNL     1      -3.854   0.850  -0.898  1.00  0.00     0.079 C 
HETATM    8  C8  UNL     1      -3.280  -1.464  -0.637  1.00  0.00     0.132 C 
HETATM    9 CL1  UNL     1      -2.132  -2.784  -0.514  1.00  0.00    -0.068 Cl
HETATM   10 CL2  UNL     1      -5.020  -1.789  -0.540  1.00  0.00    -0.068 Cl
ENDBRANCH   5   6
ENDBRANCH   3   5
ENDBRANCH   1   3
BRANCH   2  11
HETATM   11  C6  UNL     1       3.040   0.941   0.493  1.00  0.00     0.229 A 
HETATM   12  O3  UNL     1       3.884   1.499   1.501  1.00  0.00    -0.318 OA
HETATM   13  C7  UNL     1       4.068   0.155   0.965  1.00  0.00     0.172 A 
HETATM   14  N1  UNL     1       4.918  -0.791   1.203  1.00  0.00    -0.248 N 
ATOM     15  H1  UNL     1       5.641  -0.630   1.904  1.00  0.00     0.196 HD
BRANCH  14  16
HETATM   16  O4  UNL     1       4.891  -1.987   0.563  1.00  0.00    -0.288 OA
ATOM     17  H4  UNL     1       5.515  -2.682   0.738  1.00  0.00     0.244 HD
ENDBRANCH  14  16
ENDBRANCH   2  11
TORSDOF 5
