REMARK  3 active torsions:
REMARK  status: ('A' for Active; 'I' for Inactive)
REMARK    1  A    between atoms: C4_4  and  N1_5 
REMARK    2  A    between atoms: N1_5  and  C5_8 
REMARK    3  A    between atoms: C5_8  and  C6_9 
ROOT
HETATM    1  N1  UNL     1      -0.207  -0.743  -0.458  1.00  0.00    -0.070 N 
ATOM      2  H11 UNL     1      -0.573  -1.695  -0.480  1.00  0.00     0.277 HD
ATOM      3  H12 UNL     1      -0.322  -0.512  -1.445  1.00  0.00     0.277 HD
ENDROOT
BRANCH   1   4
HETATM    4  C4  UNL     1       1.157  -0.713  -0.066  1.00  0.00     0.185 C 
HETATM    5  C3  UNL     1       2.093  -1.012  -1.250  1.00  0.00     0.033 C 
HETATM    6  C2  UNL     1       3.486  -1.260  -0.709  1.00  0.00     0.002 C 
HETATM    7  C1  UNL     1       3.958  -0.127   0.153  1.00  0.00     0.000 C 
HETATM    8  C11 UNL     1       2.974   1.000   0.080  1.00  0.00     0.002 C 
HETATM    9  C10 UNL     1       1.649   0.487   0.664  1.00  0.00     0.033 C 
ENDBRANCH   1   4
BRANCH   1  10
HETATM   10  C5  UNL     1      -1.011   0.127   0.399  1.00  0.00     0.239 C 
BRANCH  10  11
HETATM   11  C6  UNL     1      -2.469  -0.155   0.231  1.00  0.00     0.037 C 
HETATM   12  C7  UNL     1      -3.288   0.761   1.138  1.00  0.00     0.034 C 
HETATM   13  C8  UNL     1      -4.656   0.521   0.515  1.00  0.00     0.168 C 
HETATM   14  O1  UNL     1      -4.438   0.111  -0.790  1.00  0.00    -0.391 OA
HETATM   15  C9  UNL     1      -3.083   0.193  -1.083  1.00  0.00     0.173 C 
ENDBRANCH  10  11
ENDBRANCH   1  10
TORSDOF 3
