REMARK  3 active torsions:
REMARK  status: ('A' for Active; 'I' for Inactive)
REMARK    1  A    between atoms: C5_5  and  C6_6 
REMARK    2  A    between atoms: C6_6  and  N1_7 
REMARK    3  A    between atoms: N1_7  and  C7_10 
ROOT
HETATM    1  C6  UNL     1       0.464  -0.200  -0.768  1.00  0.00     0.237 C 
ENDROOT
BRANCH   1   2
HETATM    2  C5  UNL     1      -0.730   0.565  -0.280  1.00  0.00     0.011 C 
HETATM    3  C4  UNL     1      -1.895   0.459  -1.258  1.00  0.00     0.006 C 
HETATM    4  C3  UNL     1      -2.632  -0.795  -0.967  1.00  0.00     0.000 C 
HETATM    5  C2  UNL     1      -3.805  -0.684  -0.071  1.00  0.00     0.000 C 
HETATM    6  C1  UNL     1      -3.742   0.226   1.071  1.00  0.00     0.000 C 
HETATM    7  C12 UNL     1      -2.472   0.921   1.363  1.00  0.00     0.000 C 
HETATM    8  C11 UNL     1      -1.215   0.145   1.076  1.00  0.00     0.006 C 
ENDBRANCH   1   2
BRANCH   1   9
HETATM    9  N1  UNL     1       1.526  -0.066   0.192  1.00  0.00    -0.068 N 
ATOM     10  H12 UNL     1       1.734   0.912   0.394  1.00  0.00     0.277 HD
ATOM     11  H11 UNL     1       1.233  -0.355   1.125  1.00  0.00     0.277 HD
BRANCH   9  12
HETATM   12  C7  UNL     1       2.698  -0.784  -0.249  1.00  0.00     0.211 C 
HETATM   13  C8  UNL     1       3.719  -0.713   0.887  1.00  0.00     0.061 C 
HETATM   14  C9  UNL     1       4.390   0.606   0.627  1.00  0.00     0.169 C 
HETATM   15  O1  UNL     1       3.925   1.089  -0.570  1.00  0.00    -0.389 OA
HETATM   16  C10 UNL     1       3.435   0.016  -1.310  1.00  0.00     0.200 C 
ENDBRANCH   9  12
ENDBRANCH   1   9
TORSDOF 3
