REMARK  3 active torsions:
REMARK  status: ('A' for Active; 'I' for Inactive)
REMARK    1  A    between atoms: C4_4  and  C5_5 
REMARK    2  A    between atoms: C5_5  and  N1_6 
REMARK    3  A    between atoms: N1_6  and  C6_9 
ROOT
HETATM    1  N1  UNL     1      -0.633   0.038   0.506  1.00  0.00    -0.070 N 
ATOM      2  H11 UNL     1      -0.356   0.839   1.073  1.00  0.00     0.277 HD
ATOM      3  H12 UNL     1      -0.450  -0.678   1.209  1.00  0.00     0.277 HD
ENDROOT
BRANCH   1   4
HETATM    4  C5  UNL     1       0.161  -0.120  -0.714  1.00  0.00     0.237 C 
BRANCH   4   5
HETATM    5  C4  UNL     1       1.622   0.036  -0.521  1.00  0.00     0.011 C 
HETATM    6  C3  UNL     1       2.266  -0.924   0.435  1.00  0.00     0.006 C 
HETATM    7  C2  UNL     1       3.739  -1.019   0.034  1.00  0.00     0.000 C 
HETATM    8  C1  UNL     1       4.250   0.392  -0.174  1.00  0.00     0.000 C 
HETATM    9  C12 UNL     1       3.376   1.422   0.491  1.00  0.00     0.000 C 
HETATM   10  C11 UNL     1       1.990   1.442  -0.066  1.00  0.00     0.006 C 
ENDBRANCH   4   5
ENDBRANCH   1   4
BRANCH   1  11
HETATM   11  C6  UNL     1      -1.993   0.084   0.078  1.00  0.00     0.190 C 
HETATM   12  C7  UNL     1      -2.523  -1.163  -0.581  1.00  0.00     0.059 C 
HETATM   13  C8  UNL     1      -4.026  -1.274  -0.401  1.00  0.00     0.169 C 
HETATM   14  O1  UNL     1      -4.673  -0.048  -0.478  1.00  0.00    -0.391 OA
HETATM   15  C9  UNL     1      -4.240   0.908   0.402  1.00  0.00     0.169 C 
HETATM   16  C10 UNL     1      -2.980   0.481   1.150  1.00  0.00     0.059 C 
ENDBRANCH   1  11
TORSDOF 3
