REMARK  13 active torsions:
REMARK  status: ('A' for Active; 'I' for Inactive)
REMARK    1  A    between atoms: C2_2  and  C4_4 
REMARK    2  A    between atoms: C4_4  and  C5_6 
REMARK    3  A    between atoms: C5_6  and  C7_8 
REMARK    4  A    between atoms: C7_8  and  C9_10 
REMARK    5  A    between atoms: C10_11  and  C11_12 
REMARK    6  A    between atoms: C12_13  and  C14_15 
REMARK    7  A    between atoms: C15_16  and  C16_17 
REMARK    8  A    between atoms: C22_26  and  C23_27 
REMARK    9  A    between atoms: C23_27  and  C24_28 
REMARK   10  A    between atoms: C28_32  and  O5_33 
REMARK   11  A    between atoms: C29_35  and  C30_36 
REMARK   12  A    between atoms: C30_36  and  C31_37 
REMARK   13  A    between atoms: C35_41  and  O6_42 
ROOT
HETATM    1  C16 UNL     1       0.452   0.604  -1.235  1.00  0.00     0.294 C 
HETATM    2  O2  UNL     1       0.677   1.381  -0.130  1.00  0.00    -0.322 OA
HETATM    3  C17 UNL     1      -0.118   1.150   0.958  1.00  0.00     0.166 C 
HETATM    4  C18 UNL     1       0.316  -0.153   1.610  1.00  0.00     0.078 C 
HETATM    5  C19 UNL     1       0.185   2.247   1.975  1.00  0.00     0.078 C 
HETATM    6  O3  UNL     1      -1.471   1.046   0.700  1.00  0.00    -0.295 OA
HETATM    7  C20 UNL     1      -1.767   0.788  -0.624  1.00  0.00     0.303 C 
HETATM    8  O4  UNL     1      -2.989   0.073  -0.689  1.00  0.00    -0.288 OA
HETATM    9  C21 UNL     1      -4.198   0.664  -0.298  1.00  0.00     0.101 A 
HETATM   10  C22 UNL     1      -5.280  -0.106   0.072  1.00  0.00     0.014 A 
HETATM   11  C28 UNL     1      -6.492   0.498   0.465  1.00  0.00     0.084 A 
HETATM   12  C29 UNL     1      -6.546   1.858   0.462  1.00  0.00     0.013 A 
HETATM   13  C35 UNL     1      -5.449   2.633   0.087  1.00  0.00     0.091 A 
HETATM   14  C36 UNL     1      -4.244   2.037  -0.303  1.00  0.00     0.078 A 
HETATM   15  C37 UNL     1      -3.084   2.814  -0.698  1.00  0.00     0.176 C 
HETATM   16  O7  UNL     1      -3.068   4.046  -0.450  1.00  0.00    -0.291 OA
HETATM   17  C38 UNL     1      -1.970   2.110  -1.377  1.00  0.00     0.150 C 
HETATM   18  C39 UNL     1      -2.411   1.747  -2.773  1.00  0.00     0.027 C 
HETATM   19  O8  UNL     1      -0.819   0.071  -1.292  1.00  0.00    -0.297 OA
ENDROOT
BRANCH   1  20
HETATM   20  C15 UNL     1       1.529  -0.422  -1.443  1.00  0.00     0.034 C 
HETATM   21  C14 UNL     1       2.705  -0.211  -0.867  1.00  0.00     0.007 C 
BRANCH  21  22
HETATM   22  C12 UNL     1       3.847  -1.097  -0.966  1.00  0.00    -0.062 C 
HETATM   23  C11 UNL     1       4.965  -0.772  -0.342  1.00  0.00     0.006 C 
HETATM   24  C13 UNL     1       3.823  -2.357  -1.743  1.00  0.00     0.048 C 
BRANCH  23  25
HETATM   25  C10 UNL     1       6.139  -1.622  -0.413  1.00  0.00    -0.003 C 
HETATM   26  C9  UNL     1       7.264  -1.282   0.227  1.00  0.00    -0.022 C 
BRANCH  26  27
HETATM   27  C7  UNL     1       8.426  -2.167   0.130  1.00  0.00     0.015 C 
HETATM   28  C8  UNL     1       8.838  -2.664   1.512  1.00  0.00     0.015 C 
BRANCH  27  29
HETATM   29  C5  UNL     1       9.633  -1.531  -0.487  1.00  0.00     0.063 C 
HETATM   30  C6  UNL     1       9.342  -1.079  -1.914  1.00  0.00     0.019 C 
BRANCH  29  31
HETATM   31  C4  UNL     1      10.183  -0.401   0.272  1.00  0.00     0.158 C 
HETATM   32  O1  UNL     1       9.596   0.014   1.300  1.00  0.00    -0.292 OA
BRANCH  31  33
HETATM   33  C2  UNL     1      11.425   0.265  -0.150  1.00  0.00    -0.025 C 
HETATM   34  C1  UNL     1      11.912   1.291   0.549  1.00  0.00     0.022 C 
HETATM   35  C3  UNL     1      12.162  -0.190  -1.356  1.00  0.00     0.051 C 
ENDBRANCH  31  33
ENDBRANCH  29  31
ENDBRANCH  27  29
ENDBRANCH  26  27
ENDBRANCH  23  25
ENDBRANCH  21  22
ENDBRANCH   1  20
BRANCH  10  36
HETATM   36  C23 UNL     1      -5.177  -1.586   0.053  1.00  0.00     0.072 C 
BRANCH  36  37
HETATM   37  C24 UNL     1      -4.403  -2.142   1.188  1.00  0.00    -0.020 C 
HETATM   38  C25 UNL     1      -4.909  -3.008   2.054  1.00  0.00    -0.091 C 
HETATM   39  C26 UNL     1      -6.283  -3.538   2.024  1.00  0.00     0.042 C 
HETATM   40  C27 UNL     1      -4.020  -3.504   3.170  1.00  0.00     0.042 C 
ENDBRANCH  36  37
ENDBRANCH  10  36
BRANCH  11  41
HETATM   41  O5  UNL     1      -7.533  -0.343   0.823  1.00  0.00    -0.359 OA
ATOM     42  H5  UNL     1      -8.350   0.064   1.088  1.00  0.00     0.217 HD
ENDBRANCH  11  41
BRANCH  13  43
HETATM   43  O6  UNL     1      -5.445   4.011   0.064  1.00  0.00    -0.359 OA
ATOM     44  H6  UNL     1      -4.698   4.539  -0.191  1.00  0.00     0.217 HD
ENDBRANCH  13  43
BRANCH  12  45
HETATM   45  C30 UNL     1      -7.773   2.583   0.849  1.00  0.00     0.072 C 
BRANCH  45  46
HETATM   46  C31 UNL     1      -8.759   2.555  -0.268  1.00  0.00    -0.020 C 
HETATM   47  C32 UNL     1     -10.042   2.298  -0.158  1.00  0.00    -0.091 C 
HETATM   48  C33 UNL     1     -10.644   2.005   1.168  1.00  0.00     0.042 C 
HETATM   49  C34 UNL     1     -10.891   2.305  -1.388  1.00  0.00     0.042 C 
ENDBRANCH  45  46
ENDBRANCH  12  45
TORSDOF 13
