REMARK  18 active torsions:
REMARK  status: ('A' for Active; 'I' for Inactive)
REMARK    1  A    between atoms: C2_2  and  S1_4 
REMARK    2  A    between atoms: S1_4  and  C4_5 
REMARK    3  A    between atoms: C4_5  and  C7_8 
REMARK    4  A    between atoms: C10_11  and  C11_12 
REMARK    5  A    between atoms: C14_15  and  C15_16 
REMARK    6  A    between atoms: C16_17  and  C17_18 
REMARK    7  A    between atoms: C17_18  and  C18_19 
REMARK    8  A    between atoms: C18_19  and  O1_20 
REMARK    9  A    between atoms: C18_19  and  C19_22 
REMARK   10  A    between atoms: C19_22  and  O2_23 
REMARK   11  A    between atoms: C19_22  and  C20_25 
REMARK   12  A    between atoms: C20_25  and  C21_26 
REMARK   13  A    between atoms: C24_31  and  C25_32 
REMARK   14  A    between atoms: C25_32  and  O4_34 
REMARK   15  A    between atoms: C28_37  and  O5_38 
REMARK   16  A    between atoms: C29_40  and  C30_41 
REMARK   17  A    between atoms: C30_41  and  C31_42 
REMARK   18  A    between atoms: C35_46  and  O6_47 
ROOT
HETATM    1  C20 UNL     1       1.565  -0.016   1.659  1.00  0.00     0.054 A 
HETATM    2  C37 UNL     1       1.269  -1.420   2.062  1.00  0.00     0.024 A 
HETATM    3  C38 UNL     1       0.892  -0.390   2.987  1.00  0.00     0.024 A 
ENDROOT
BRANCH   1   4
HETATM    4  C19 UNL     1       0.672   0.807   0.812  1.00  0.00     0.091 C 
BRANCH   4   5
HETATM    5  C18 UNL     1      -0.679   0.599   0.397  1.00  0.00     0.095 C 
BRANCH   5   6
HETATM    6  C17 UNL     1      -1.483  -0.363   0.673  1.00  0.00     0.039 C 
BRANCH   6   7
HETATM    7  C16 UNL     1      -2.866  -0.358   0.103  1.00  0.00    -0.001 C 
HETATM    8  C15 UNL     1      -3.688  -1.327   0.360  1.00  0.00    -0.021 C 
BRANCH   8   9
HETATM    9  C14 UNL     1      -5.046  -1.467  -0.113  1.00  0.00     0.018 C 
HETATM   10  C7  UNL     1      -5.604  -0.338  -0.872  1.00  0.00     0.012 C 
HETATM   11  C8  UNL     1      -6.144  -0.913  -2.183  1.00  0.00     0.007 C 
HETATM   12  C9  UNL     1      -6.181  -2.420  -1.995  1.00  0.00     0.006 C 
HETATM   13  C10 UNL     1      -5.089  -2.702  -1.008  1.00  0.00    -0.003 C 
BRANCH  10  14
HETATM   14  C4  UNL     1      -6.718   0.396  -0.132  1.00  0.00     0.009 C 
HETATM   15  C5  UNL     1      -6.330   0.802   1.267  1.00  0.00     0.027 C 
HETATM   16  C6  UNL     1      -7.915  -0.576   0.092  1.00  0.00     0.027 C 
BRANCH  14  17
HETATM   17  S1  UNL     1      -7.409   1.765  -1.047  1.00  0.00    -0.126 SA
BRANCH  17  18
HETATM   18  C2  UNL     1      -6.366   3.138  -1.326  1.00  0.00    -0.034 C 
HETATM   19  C1  UNL     1      -5.131   3.329  -0.900  1.00  0.00     0.026 C 
HETATM   20  C3  UNL     1      -6.953   4.274  -2.144  1.00  0.00     0.055 C 
ENDBRANCH  17  18
ENDBRANCH  14  17
ENDBRANCH  10  14
BRANCH  13  21
HETATM   21  C11 UNL     1      -5.183  -3.988  -0.268  1.00  0.00    -0.018 C 
HETATM   22  C12 UNL     1      -5.163  -5.136  -1.258  1.00  0.00     0.010 C 
HETATM   23  C13 UNL     1      -6.278  -4.087   0.742  1.00  0.00     0.010 C 
ENDBRANCH  13  21
ENDBRANCH   8   9
ENDBRANCH   6   7
ENDBRANCH   5   6
BRANCH   5  24
HETATM   24  O1  UNL     1      -1.236   1.599  -0.457  1.00  0.00    -0.358 OA
ATOM     25  H1  UNL     1      -0.641   2.311  -0.661  1.00  0.00     0.217 HD
ENDBRANCH   5  24
ENDBRANCH   4   5
BRANCH   4  26
HETATM   26  O2  UNL     1       1.192   1.922   0.359  1.00  0.00    -0.361 OA
ATOM     27  H2  UNL     1       2.090   2.060   0.635  1.00  0.00     0.217 HD
ENDBRANCH   4  26
ENDBRANCH   1   4
BRANCH   1  28
HETATM   28  C21 UNL     1       2.972   0.453   1.824  1.00  0.00     0.039 A 
HETATM   29  N1  UNL     1       3.317   1.037   3.019  1.00  0.00    -0.361 N 
HETATM   30  C22 UNL     1       4.466   1.658   3.188  1.00  0.00     0.022 A 
ATOM     31  H1  UNL     1       2.663   0.988   3.800  1.00  0.00     0.165 HD
HETATM   32  C23 UNL     1       4.853   2.301   4.497  1.00  0.00     0.069 C 
HETATM   33  C24 UNL     1       5.418   1.767   2.170  1.00  0.00     0.075 A 
HETATM   34  C27 UNL     1       5.122   1.193   0.955  1.00  0.00     0.031 A 
HETATM   35  C28 UNL     1       6.075   1.222  -0.062  1.00  0.00     0.084 A 
HETATM   36  C36 UNL     1       3.880   0.539   0.825  1.00  0.00     0.035 A 
HETATM   37  C29 UNL     1       5.779   0.558  -1.276  1.00  0.00    -0.021 A 
HETATM   38  C34 UNL     1       4.601  -0.067  -1.392  1.00  0.00     0.047 A 
HETATM   39  C35 UNL     1       3.656  -0.088  -0.371  1.00  0.00     0.079 A 
BRANCH  33  40
HETATM   40  C25 UNL     1       6.652   2.488   2.442  1.00  0.00     0.295 C 
HETATM   41  O3  UNL     1       6.701   3.711   2.216  1.00  0.00    -0.259 OA
BRANCH  40  42
HETATM   42  O4  UNL     1       7.734   1.816   2.944  1.00  0.00    -0.322 OA
HETATM   43  C26 UNL     1       8.931   2.497   3.228  1.00  0.00     0.213 C 
ENDBRANCH  40  42
ENDBRANCH  33  40
BRANCH  35  44
HETATM   44  O5  UNL     1       7.225   1.855   0.089  1.00  0.00    -0.359 OA
ATOM     45  H5  UNL     1       7.874   1.875  -0.604  1.00  0.00     0.217 HD
ENDBRANCH  35  44
BRANCH  37  46
HETATM   46  C30 UNL     1       6.827   0.547  -2.333  1.00  0.00     0.045 C 
BRANCH  46  47
HETATM   47  C31 UNL     1       7.829  -0.540  -2.227  1.00  0.00    -0.018 C 
HETATM   48  C32 UNL     1       8.814  -0.361  -3.397  1.00  0.00     0.010 C 
HETATM   49  C33 UNL     1       8.631  -0.623  -0.977  1.00  0.00     0.010 C 
ENDBRANCH  46  47
ENDBRANCH  37  46
BRANCH  39  50
HETATM   50  O6  UNL     1       2.503  -0.775  -0.615  1.00  0.00    -0.360 OA
ATOM     51  H6  UNL     1       1.858  -0.789   0.082  1.00  0.00     0.217 HD
ENDBRANCH  39  50
ENDBRANCH   1  28
TORSDOF 18
