REMARK  15 active torsions:
REMARK  status: ('A' for Active; 'I' for Inactive)
REMARK    1  A    between atoms: C2_2  and  C3_3 
REMARK    2  A    between atoms: C3_3  and  C5_6 
REMARK    3  A    between atoms: C5_6  and  C6_7 
REMARK    4  A    between atoms: C6_7  and  C7_8 
REMARK    5  A    between atoms: C8_9  and  O1_10 
REMARK    6  A    between atoms: C14_18  and  O3_19 
REMARK    7  A    between atoms: C24_30  and  C25_31 
REMARK    8  A    between atoms: C25_31  and  S1_33 
REMARK    9  A    between atoms: S1_33  and  C26_34 
REMARK   10  A    between atoms: C26_34  and  C27_35 
REMARK   11  A    between atoms: C27_35  and  C28_36 
REMARK   12  A    between atoms: C28_36  and  C29_37 
REMARK   13  A    between atoms: C29_37  and  C30_38 
REMARK   14  A    between atoms: C30_38  and  O5_39 
REMARK   15  A    between atoms: C30_38  and  O6_41 
ROOT
HETATM    1  C3  UNL     1      -4.864  -1.951  -2.868  1.00  0.00     0.043 C 
HETATM    2  C4  UNL     1      -6.286  -1.988  -3.185  1.00  0.00     0.099 C 
HETATM    3  N1  UNL     1      -7.416  -2.007  -3.433  1.00  0.00    -0.191 NA
ENDROOT
BRANCH   1   4
HETATM    4  C2  UNL     1      -4.118  -3.157  -3.188  1.00  0.00     0.012 C 
HETATM    5  C1  UNL     1      -4.759  -4.198  -3.737  1.00  0.00     0.013 C 
ENDBRANCH   1   4
BRANCH   1   6
HETATM    6  C5  UNL     1      -4.387  -0.851  -2.329  1.00  0.00     0.019 C 
BRANCH   6   7
HETATM    7  C6  UNL     1      -3.041  -0.635  -1.954  1.00  0.00    -0.012 C 
BRANCH   7   8
HETATM    8  C7  UNL     1      -2.407  -0.264  -0.675  1.00  0.00     0.016 C 
HETATM    9  C8  UNL     1      -2.758  -1.365   0.261  1.00  0.00     0.132 C 
HETATM   10  C9  UNL     1      -4.159  -1.337   0.776  1.00  0.00     0.043 C 
HETATM   11  C10 UNL     1      -4.412  -0.046   1.492  1.00  0.00     0.035 C 
HETATM   12  C11 UNL     1      -5.829   0.129   1.904  1.00  0.00     0.013 A 
HETATM   13  C17 UNL     1      -3.979   1.179   0.784  1.00  0.00    -0.031 C 
HETATM   14  C12 UNL     1      -6.157   1.371   2.394  1.00  0.00    -0.024 A 
HETATM   15  C14 UNL     1      -6.966  -0.626   1.942  1.00  0.00     0.190 A 
HETATM   16  C13 UNL     1      -7.490   1.316   2.711  1.00  0.00     0.152 A 
HETATM   17  C15 UNL     1      -5.212   2.488   2.523  1.00  0.00     0.042 C 
HETATM   18  O2  UNL     1      -7.931   0.116   2.427  1.00  0.00    -0.299 OA
HETATM   19  C16 UNL     1      -3.849   2.221   1.922  1.00  0.00     0.015 C 
HETATM   20  C18 UNL     1      -5.032   1.876  -0.048  1.00  0.00     0.016 C 
HETATM   21  C19 UNL     1      -2.668   1.012   0.035  1.00  0.00     0.010 C 
HETATM   22  C20 UNL     1      -1.655   1.233   1.144  1.00  0.00     0.007 C 
HETATM   23  C21 UNL     1      -0.243   0.957   0.901  1.00  0.00     0.011 C 
HETATM   24  C22 UNL     1       0.136   0.001  -0.171  1.00  0.00    -0.025 C 
HETATM   25  C23 UNL     1       0.793  -1.255   0.345  1.00  0.00     0.017 C 
HETATM   26  C24 UNL     1       1.301   0.664  -0.914  1.00  0.00     0.076 C 
HETATM   27  C36 UNL     1      -0.964  -0.156  -1.151  1.00  0.00    -0.022 C 
HETATM   28  C33 UNL     1       1.853  -0.264  -1.968  1.00  0.00     0.014 C 
HETATM   29  C34 UNL     1       0.935  -1.343  -2.387  1.00  0.00     0.002 C 
HETATM   30  C35 UNL     1      -0.513  -1.240  -2.064  1.00  0.00     0.011 C 
HETATM   31  C37 UNL     1      -0.948   1.211  -1.888  1.00  0.00     0.017 C 
BRANCH   9  32
HETATM   32  O1  UNL     1      -2.038  -1.557   1.406  1.00  0.00    -0.394 OA
ATOM     33  H1  UNL     1      -2.262  -2.260   2.004  1.00  0.00     0.210 HD
ENDBRANCH   9  32
BRANCH  15  34
HETATM   34  O3  UNL     1      -7.040  -1.969   1.519  1.00  0.00    -0.340 OA
ATOM     35  H3  UNL     1      -7.831  -2.494   1.545  1.00  0.00     0.220 HD
ENDBRANCH  15  34
BRANCH  26  36
HETATM   36  C25 UNL     1       2.460   0.914   0.026  1.00  0.00     0.191 C 
HETATM   37  O4  UNL     1       2.468   0.673   1.202  1.00  0.00    -0.285 OA
BRANCH  36  38
HETATM   38  S1  UNL     1       3.976   1.626  -0.590  1.00  0.00    -0.092 SA
BRANCH  38  39
HETATM   39  C26 UNL     1       5.203   1.763   0.714  1.00  0.00     0.082 C 
BRANCH  39  40
HETATM   40  C27 UNL     1       5.645   0.373   1.119  1.00  0.00     0.011 C 
BRANCH  40  41
HETATM   41  C28 UNL     1       6.671   0.378   2.191  1.00  0.00     0.006 C 
BRANCH  41  42
HETATM   42  C29 UNL     1       7.942   1.083   1.939  1.00  0.00     0.061 C 
BRANCH  42  43
HETATM   43  C30 UNL     1       8.820   0.615   0.836  1.00  0.00     0.258 C 
BRANCH  43  44
HETATM   44  O5  UNL     1       9.955   1.500   0.866  1.00  0.00    -0.366 OA
HETATM   45  C31 UNL     1      11.115   0.772   1.101  1.00  0.00     0.204 C 
ENDBRANCH  43  44
BRANCH  43  46
HETATM   46  O6  UNL     1       8.295   0.788  -0.433  1.00  0.00    -0.366 OA
HETATM   47  C32 UNL     1       8.534  -0.380  -1.177  1.00  0.00     0.204 C 
ENDBRANCH  43  46
ENDBRANCH  42  43
ENDBRANCH  41  42
ENDBRANCH  40  41
ENDBRANCH  39  40
ENDBRANCH  38  39
ENDBRANCH  36  38
ENDBRANCH  26  36
ENDBRANCH   7   8
ENDBRANCH   6   7
ENDBRANCH   1   6
TORSDOF 15
