REMARK  14 active torsions:
REMARK  status: ('A' for Active; 'I' for Inactive)
REMARK    1  A    between atoms: C2_2  and  C4_4 
REMARK    2  A    between atoms: C16_19  and  C17_20 
REMARK    3  A    between atoms: C17_20  and  C18_21 
REMARK    4  A    between atoms: C18_21  and  C20_23 
REMARK    5  A    between atoms: C20_23  and  C21_24 
REMARK    6  A    between atoms: C21_24  and  C22_25 
REMARK    7  A    between atoms: C21_24  and  C24_33 
REMARK    8  A    between atoms: C22_25  and  C23_26 
REMARK    9  A    between atoms: C23_26  and  O4_27 
REMARK   10  A    between atoms: N1_29  and  O5_31 
REMARK   11  A    between atoms: C24_33  and  C25_34 
REMARK   12  A    between atoms: C25_34  and  C26_35 
REMARK   13  A    between atoms: C25_34  and  C28_37 
REMARK   14  A    between atoms: C31_40  and  O6_41 
ROOT
HETATM    1  C4  UNL     1      -4.369   1.401   0.697  1.00  0.00     0.161 C 
HETATM    2  O1  UNL     1      -5.699   1.436   0.737  1.00  0.00    -0.348 OA
HETATM    3  C5  UNL     1      -6.613   0.614   1.134  1.00  0.00     0.292 A 
HETATM    4  O2  UNL     1      -7.671   0.586   0.042  1.00  0.00    -0.346 OA
HETATM    5  C6  UNL     1      -7.164  -0.531   0.620  1.00  0.00     0.209 A 
HETATM    6  C7  UNL     1      -6.343  -1.562  -0.159  1.00  0.00     0.164 C 
HETATM    7  O3  UNL     1      -5.934  -2.438   0.848  1.00  0.00    -0.372 OA
HETATM    8  C8  UNL     1      -4.691  -1.980   1.322  1.00  0.00     0.059 C 
HETATM    9  C9  UNL     1      -3.884  -3.315   1.383  1.00  0.00     0.046 C 
HETATM   10  C10 UNL     1      -4.771  -1.532   2.726  1.00  0.00     0.046 C 
HETATM   11  C11 UNL     1      -4.169  -1.115   0.274  1.00  0.00     0.040 C 
HETATM   12  C12 UNL     1      -3.555   0.219   0.553  1.00  0.00     0.063 C 
HETATM   13  C13 UNL     1      -2.382   0.217  -0.389  1.00  0.00    -0.010 A 
HETATM   14  C14 UNL     1      -1.164   0.481   0.192  1.00  0.00    -0.043 A 
HETATM   15  C15 UNL     1      -1.073   0.679   1.672  1.00  0.00     0.049 C 
HETATM   16  C16 UNL     1       0.023   0.535  -0.568  1.00  0.00    -0.017 A 
HETATM   17  C31 UNL     1      -0.120   0.310  -1.918  1.00  0.00     0.081 A 
HETATM   18  C32 UNL     1      -1.367   0.033  -2.520  1.00  0.00     0.006 A 
HETATM   19  C33 UNL     1      -1.447  -0.201  -3.988  1.00  0.00     0.054 C 
HETATM   20  C34 UNL     1      -2.480  -0.016  -1.769  1.00  0.00     0.086 A 
HETATM   21  O7  UNL     1      -3.666  -0.322  -2.476  1.00  0.00    -0.339 OA
HETATM   22  C35 UNL     1      -4.664  -1.321  -2.126  1.00  0.00     0.067 C 
HETATM   23  C36 UNL     1      -5.788  -1.037  -3.146  1.00  0.00     0.047 C 
HETATM   24  C37 UNL     1      -4.199  -2.683  -2.385  1.00  0.00     0.047 C 
HETATM   25  C38 UNL     1      -5.172  -0.967  -0.810  1.00  0.00     0.059 C 
ENDROOT
BRANCH  16  26
HETATM   26  C17 UNL     1       1.332   0.789   0.072  1.00  0.00     0.046 C 
BRANCH  26  27
HETATM   27  C18 UNL     1       1.922  -0.383   0.749  1.00  0.00    -0.014 C 
HETATM   28  C19 UNL     1       2.217  -1.563  -0.131  1.00  0.00     0.010 C 
BRANCH  27  29
HETATM   29  C20 UNL     1       3.001  -0.140   1.712  1.00  0.00     0.009 C 
BRANCH  29  30
HETATM   30  C21 UNL     1       4.249   0.533   1.304  1.00  0.00    -0.006 C 
BRANCH  30  31
HETATM   31  C22 UNL     1       5.122   0.609   2.575  1.00  0.00     0.090 C 
BRANCH  31  32
HETATM   32  C23 UNL     1       4.394   1.396   3.633  1.00  0.00     0.135 C 
HETATM   33  N1  UNL     1       4.083   0.904   4.777  1.00  0.00    -0.251 N 
ATOM     34  H1  UNL     1       3.589   1.500   5.442  1.00  0.00     0.196 HD
BRANCH  32  35
HETATM   35  O4  UNL     1       4.034   2.714   3.378  1.00  0.00    -0.348 OA
ATOM     36  H4  UNL     1       3.575   3.210   4.045  1.00  0.00     0.219 HD
ENDBRANCH  32  35
BRANCH  33  37
HETATM   37  O5  UNL     1       4.381  -0.382   5.152  1.00  0.00    -0.288 OA
ATOM     38  H5  UNL     1       4.151  -0.746   5.999  1.00  0.00     0.244 HD
ENDBRANCH  33  37
ENDBRANCH  31  32
ENDBRANCH  30  31
BRANCH  30  39
HETATM   39  C24 UNL     1       5.063  -0.147   0.279  1.00  0.00     0.010 C 
BRANCH  39  40
HETATM   40  C25 UNL     1       6.367   0.546  -0.107  1.00  0.00    -0.011 C 
BRANCH  40  41
HETATM   41  C26 UNL     1       6.034   1.893  -0.648  1.00  0.00     0.000 C 
HETATM   42  C27 UNL     1       7.202   2.721  -1.084  1.00  0.00     0.005 C 
ENDBRANCH  40  41
BRANCH  40  43
HETATM   43  C28 UNL     1       6.998  -0.400  -1.114  1.00  0.00    -0.019 C 
HETATM   44  C29 UNL     1       7.195  -1.749  -0.396  1.00  0.00     0.010 C 
HETATM   45  C30 UNL     1       8.343   0.004  -1.603  1.00  0.00     0.010 C 
ENDBRANCH  40  43
ENDBRANCH  39  40
ENDBRANCH  30  39
ENDBRANCH  29  30
ENDBRANCH  27  29
ENDBRANCH  26  27
ENDBRANCH  16  26
BRANCH  17  46
HETATM   46  O6  UNL     1       0.947   0.341  -2.779  1.00  0.00    -0.359 OA
ATOM     47  H6  UNL     1       0.848   0.186  -3.711  1.00  0.00     0.217 HD
ENDBRANCH  17  46
BRANCH   1  48
HETATM   48  C2  UNL     1      -4.031   2.529  -0.232  1.00  0.00    -0.064 C 
HETATM   49  C1  UNL     1      -4.935   2.919  -1.172  1.00  0.00     0.016 C 
HETATM   50  C3  UNL     1      -2.802   3.346  -0.255  1.00  0.00     0.045 C 
ENDBRANCH   1  48
TORSDOF 14
