REMARK  4 active torsions:
REMARK  status: ('A' for Active; 'I' for Inactive)
REMARK    1  A    between atoms: N1_2  and  C2_4 
REMARK    2  A    between atoms: C2_4  and  C6_15 
REMARK    3  A    between atoms: N2_5  and  C3_7 
REMARK    4  A    between atoms: C6_15  and  O1_18 
ROOT
HETATM    1  C2  UNL     1      -0.597   0.611  -0.130  1.00  0.00     0.113 C 
HETATM    2  N2  UNL     1       0.542   1.043  -0.455  1.00  0.00    -0.324 N 
ATOM      3  H2  UNL     1       0.550   1.975  -0.870  1.00  0.00     0.169 HD
ENDROOT
BRANCH   2   4
HETATM    4  C3  UNL     1       1.807   0.431  -0.331  1.00  0.00     0.152 A 
HETATM    5  N3  UNL     1       2.721   0.487   0.627  1.00  0.00    -0.329 N 
HETATM    6  C4  UNL     1       3.827  -0.172   0.514  1.00  0.00     0.106 A 
ATOM      7  H3  UNL     1       2.551   1.053   1.458  1.00  0.00     0.168 HD
HETATM    8 BR1  UNL     1       5.206  -0.133   1.880  1.00  0.00    -0.029 Br
HETATM    9  C5  UNL     1       4.016  -0.921  -0.621  1.00  0.00     0.089 A 
HETATM   10 BR2  UNL     1       5.514  -2.009  -1.118  1.00  0.00    -0.040 Br
HETATM   11  S1  UNL     1       2.548  -0.613  -1.464  1.00  0.00    -0.043 SA
ENDBRANCH   2   4
BRANCH   1  12
HETATM   12  N1  UNL     1      -1.712   1.445  -0.371  1.00  0.00    -0.382 N 
HETATM   13  C1  UNL     1      -1.762   2.749   0.225  1.00  0.00     0.147 C 
ATOM     14  H1  UNL     1      -2.476   1.122  -0.965  1.00  0.00     0.160 HD
ENDBRANCH   1  12
BRANCH   1  15
HETATM   15  C6  UNL     1      -0.828  -0.692   0.477  1.00  0.00     0.108 C 
HETATM   16  C7  UNL     1      -1.745  -1.473  -0.454  1.00  0.00     0.054 C 
HETATM   17  C8  UNL     1      -1.503  -0.590   1.839  1.00  0.00     0.054 C 
BRANCH  15  18
HETATM   18  O1  UNL     1       0.364  -1.377   0.653  1.00  0.00    -0.383 OA
ATOM     19  H1  UNL     1       0.213  -2.227   1.049  1.00  0.00     0.211 HD
ENDBRANCH  15  18
ENDBRANCH   1  15
TORSDOF 4
