REMARK  4 active torsions:
REMARK  status: ('A' for Active; 'I' for Inactive)
REMARK    1  A    between atoms: C7_7  and  C8_8 
REMARK       I    between atoms: C8_8  and  N1_10 
REMARK    2  A    between atoms: N1_10  and  C9_12 
REMARK    3  A    between atoms: C9_12  and  N2_14 
REMARK    4  A    between atoms: N2_14  and  N3_16 
ROOT
HETATM    1  C9  UNL     1       1.112  -1.378   0.792  1.00  0.00     0.193 C 
HETATM    2  S1  UNL     1       1.511  -2.377   2.080  1.00  0.00    -0.039 SA
ENDROOT
BRANCH   1   3
HETATM    3  N1  UNL     1      -0.214  -0.970   0.638  1.00  0.00    -0.302 N 
HETATM    4  C8  UNL     1      -0.724  -0.142  -0.373  1.00  0.00     0.228 C 
HETATM    5  O1  UNL     1      -0.001   0.323  -1.264  1.00  0.00    -0.273 OA
ATOM      6  H1  UNL     1      -0.881  -1.309   1.332  1.00  0.00     0.171 HD
BRANCH   4   7
HETATM    7  C7  UNL     1      -2.166   0.232  -0.444  1.00  0.00     0.082 C 
HETATM    8  C2  UNL     1      -2.643   0.966   0.763  1.00  0.00    -0.006 C 
HETATM    9  C1  UNL     1      -2.883   2.446   0.489  1.00  0.00     0.011 C 
HETATM   10  C3  UNL     1      -3.929   0.334   1.243  1.00  0.00     0.005 C 
HETATM   11  C4  UNL     1      -4.935   0.176   0.129  1.00  0.00     0.000 C 
HETATM   12  C5  UNL     1      -4.385  -0.765  -0.912  1.00  0.00     0.001 C 
HETATM   13  C6  UNL     1      -2.930  -1.054  -0.698  1.00  0.00     0.014 C 
ENDBRANCH   4   7
ENDBRANCH   1   3
BRANCH   1  14
HETATM   14  N2  UNL     1       2.181  -1.017  -0.061  1.00  0.00    -0.276 N 
ATOM     15  H2  UNL     1       2.006  -0.412  -0.863  1.00  0.00     0.189 HD
BRANCH  14  16
HETATM   16  N3  UNL     1       3.488  -1.487   0.189  1.00  0.00    -0.304 N 
HETATM   17  C10 UNL     1       4.489  -0.715   0.069  1.00  0.00     0.032 C 
HETATM   18  C11 UNL     1       4.443   0.713  -0.326  1.00  0.00     0.225 C 
HETATM   19  C13 UNL     1       5.914  -1.045   0.291  1.00  0.00     0.129 C 
HETATM   20  O2  UNL     1       5.736   1.147  -0.466  1.00  0.00    -0.346 OA
HETATM   21  C12 UNL     1       6.560   0.322   0.275  1.00  0.00     0.221 C 
HETATM   22 CL1  UNL     1       8.167   0.143  -0.468  1.00  0.00    -0.070 Cl
HETATM   23 CL2  UNL     1       6.783   0.911   1.943  1.00  0.00    -0.070 Cl
ATOM     24  H3  UNL     1       3.630  -2.457   0.469  1.00  0.00     0.186 HD
ENDBRANCH  14  16
ENDBRANCH   1  14
TORSDOF 4
