REMARK  3 active torsions:
REMARK  status: ('A' for Active; 'I' for Inactive)
REMARK    1  A    between atoms: O1_1  and  C1_3 
REMARK    2  A    between atoms: C1_3  and  C2_4 
REMARK    3  A    between atoms: C2_4  and  N1_5 
ROOT
HETATM    1  N1  UNL     1      -0.681   0.493   0.490  1.00  0.00    -0.366 N 
HETATM    2  C3  UNL     1      -0.973   1.872   0.815  1.00  0.00     0.220 C 
HETATM    3  S1  UNL     1       0.221   3.032   0.097  1.00  0.00    -0.035 SA
HETATM    4  N2  UNL     1       1.364   2.029  -0.805  1.00  0.00    -0.327 N 
ATOM      5  H2  UNL     1       1.831   2.404  -1.630  1.00  0.00     0.174 HD
HETATM    6  C4  UNL     1       1.629   0.708  -0.381  1.00  0.00     0.066 A 
HETATM    7  C5  UNL     1       2.872   0.155  -0.592  1.00  0.00     0.052 A 
HETATM    8  C6  UNL     1       3.147  -1.139  -0.183  1.00  0.00     0.030 A 
HETATM    9 BR1  UNL     1       4.881  -1.816  -0.513  1.00  0.00    -0.050 Br
HETATM   10  C7  UNL     1       2.154  -1.863   0.438  1.00  0.00     0.030 A 
HETATM   11 BR2  UNL     1       2.559  -3.642   0.992  1.00  0.00    -0.050 Br
HETATM   12  C8  UNL     1       0.913  -1.291   0.640  1.00  0.00     0.052 A 
HETATM   13  C9  UNL     1       0.610  -0.011   0.246  1.00  0.00     0.059 A 
ENDROOT
BRANCH   1  14
HETATM   14  C2  UNL     1      -1.808  -0.408   0.419  1.00  0.00     0.150 C 
BRANCH  14  15
HETATM   15  C1  UNL     1      -2.713  -0.084  -0.783  1.00  0.00     0.183 C 
BRANCH  15  16
HETATM   16  O1  UNL     1      -3.781  -0.982  -0.810  1.00  0.00    -0.399 OA
ATOM     17  H1  UNL     1      -4.340  -0.782  -1.552  1.00  0.00     0.209 HD
ENDBRANCH  15  16
ENDBRANCH  14  15
ENDBRANCH   1  14
TORSDOF 3
