REMARK  8 active torsions:
REMARK  status: ('A' for Active; 'I' for Inactive)
REMARK    1  A    between atoms: C2_2  and  C3_3 
REMARK    2  A    between atoms: C3_3  and  C4_4 
REMARK    3  A    between atoms: C4_4  and  C5_5 
REMARK    4  A    between atoms: C5_5  and  C6_6 
REMARK    5  A    between atoms: C6_6  and  N1_7 
REMARK    6  A    between atoms: C8_9  and  C9_10 
REMARK    7  A    between atoms: C10_11  and  O1_12 
REMARK    8  A    between atoms: C12_15  and  O2_16 
ROOT
HETATM    1  N1  UNL     1       0.488   0.383  -0.319  1.00  0.00    -0.331 N 
HETATM    2  C7  UNL     1      -0.308  -0.591  -0.947  1.00  0.00     0.081 C 
HETATM    3  C8  UNL     1      -1.795  -0.390  -1.013  1.00  0.00     0.018 C 
HETATM    4  C11 UNL     1      -2.396  -1.542  -0.205  1.00  0.00     0.051 C 
HETATM    5  C12 UNL     1      -2.270  -1.333   1.280  1.00  0.00     0.119 C 
HETATM    6  C13 UNL     1      -2.837  -0.008   1.726  1.00  0.00     0.036 C 
HETATM    7  C14 UNL     1      -3.433   0.700   0.506  1.00  0.00    -0.010 C 
HETATM    8  C15 UNL     1      -4.011   2.031   0.899  1.00  0.00     0.010 C 
HETATM    9  C16 UNL     1      -2.335   0.910  -0.551  1.00  0.00     0.015 C 
HETATM   10  C17 UNL     1      -1.441   1.957  -0.042  1.00  0.00     0.109 C 
HETATM   11  C18 UNL     1      -0.062   1.547   0.240  1.00  0.00     0.223 C 
HETATM   12  O3  UNL     1       0.635   2.256   1.000  1.00  0.00    -0.273 OA
ENDROOT
BRANCH   1  13
HETATM   13  C6  UNL     1       1.910   0.193  -0.248  1.00  0.00     0.131 C 
BRANCH  13  14
HETATM   14  C5  UNL     1       2.362  -0.529   0.980  1.00  0.00     0.020 C 
BRANCH  14  15
HETATM   15  C4  UNL     1       3.860  -0.720   1.030  1.00  0.00     0.002 C 
BRANCH  15  16
HETATM   16  C3  UNL     1       4.633   0.574   1.021  1.00  0.00    -0.000 C 
BRANCH  16  17
HETATM   17  C2  UNL     1       6.110   0.178   1.080  1.00  0.00    -0.005 C 
HETATM   18  C1  UNL     1       6.513  -0.670  -0.087  1.00  0.00     0.005 C 
ENDBRANCH  16  17
ENDBRANCH  15  16
ENDBRANCH  14  15
ENDBRANCH  13  14
ENDBRANCH   1  13
BRANCH   3  19
HETATM   19  C9  UNL     1      -2.119  -0.692  -2.456  1.00  0.00     0.012 C 
HETATM   20  C10 UNL     1      -3.452  -0.604  -2.989  1.00  0.00     0.128 C 
BRANCH  20  21
HETATM   21  O1  UNL     1      -4.460  -1.403  -2.479  1.00  0.00    -0.373 OA
ATOM     22  H1  UNL     1      -5.340  -1.345  -2.831  1.00  0.00     0.216 HD
ENDBRANCH  20  21
ENDBRANCH   3  19
BRANCH   5  23
HETATM   23  O2  UNL     1      -1.013  -1.613   1.795  1.00  0.00    -0.396 OA
ATOM     24  H2  UNL     1      -0.933  -1.481   2.732  1.00  0.00     0.210 HD
ENDBRANCH   5  23
TORSDOF 8
