REMARK  9 active torsions:
REMARK  status: ('A' for Active; 'I' for Inactive)
REMARK    1  A    between atoms: C2_2  and  O1_5 
REMARK    2  A    between atoms: O1_5  and  C5_6 
REMARK    3  A    between atoms: C5_6  and  C6_7 
REMARK    4  A    between atoms: C6_7  and  C7_8 
REMARK    5  A    between atoms: C7_8  and  C8_9 
REMARK    6  A    between atoms: C8_9  and  C9_10 
REMARK    7  A    between atoms: C9_10  and  C10_11 
REMARK       I    between atoms: C10_11  and  N1_13 
REMARK    8  A    between atoms: N1_13  and  C11_15 
REMARK    9  A    between atoms: C17_21  and  N2_22 
ROOT
HETATM    1  C10 UNL     1      -1.230  -1.557   0.498  1.00  0.00     0.218 C 
HETATM    2  O2  UNL     1      -0.700  -1.019   1.504  1.00  0.00    -0.274 OA
HETATM    3  N1  UNL     1      -2.557  -1.221   0.103  1.00  0.00    -0.351 N 
ATOM      4  H1  UNL     1      -2.964  -1.672  -0.717  1.00  0.00     0.163 HD
ENDROOT
BRANCH   3   5
HETATM    5  C11 UNL     1      -3.302  -0.299   0.806  1.00  0.00     0.043 C 
HETATM    6  C12 UNL     1      -3.611  -0.549   2.275  1.00  0.00     0.037 C 
HETATM    7  C13 UNL     1      -4.800   0.375   1.975  1.00  0.00    -0.003 C 
HETATM    8  C14 UNL     1      -4.074   1.669   1.731  1.00  0.00     0.012 C 
HETATM    9  C18 UNL     1      -4.828  -0.301   0.620  1.00  0.00     0.049 C 
HETATM   10  C15 UNL     1      -3.082   1.173   0.659  1.00  0.00     0.016 C 
HETATM   11  C16 UNL     1      -3.757   1.458  -0.663  1.00  0.00     0.040 C 
HETATM   12  C17 UNL     1      -5.074   0.694  -0.463  1.00  0.00     0.190 C 
BRANCH  12  13
HETATM   13  N2  UNL     1      -5.504   0.077  -1.691  1.00  0.00    -0.075 N 
ATOM     14  H23 UNL     1      -5.574   0.756  -2.449  1.00  0.00     0.274 HD
ATOM     15  H22 UNL     1      -4.778  -0.521  -2.086  1.00  0.00     0.274 HD
ATOM     16  H21 UNL     1      -6.379  -0.430  -1.558  1.00  0.00     0.274 HD
ENDBRANCH  12  13
ENDBRANCH   3   5
BRANCH   1  17
HETATM   17  C9  UNL     1      -0.409  -2.545  -0.241  1.00  0.00     0.103 C 
BRANCH  17  18
HETATM   18  C8  UNL     1       0.967  -2.735   0.279  1.00  0.00     0.009 C 
BRANCH  18  19
HETATM   19  C7  UNL     1       1.859  -1.548   0.274  1.00  0.00     0.002 C 
BRANCH  19  20
HETATM   20  C6  UNL     1       2.078  -0.972  -1.110  1.00  0.00     0.026 C 
BRANCH  20  21
HETATM   21  C5  UNL     1       2.998   0.220  -0.952  1.00  0.00     0.168 C 
BRANCH  21  22
HETATM   22  O1  UNL     1       4.212  -0.175  -0.396  1.00  0.00    -0.381 OA
BRANCH  22  23
HETATM   23  C2  UNL     1       5.094   0.859  -0.226  1.00  0.00     0.050 C 
HETATM   24  C1  UNL     1       4.570   1.946   0.686  1.00  0.00     0.045 C 
HETATM   25  C3  UNL     1       6.335   0.289   0.455  1.00  0.00     0.045 C 
HETATM   26  C4  UNL     1       5.543   1.501  -1.499  1.00  0.00     0.045 C 
ENDBRANCH  22  23
ENDBRANCH  21  22
ENDBRANCH  20  21
ENDBRANCH  19  20
ENDBRANCH  18  19
ENDBRANCH  17  18
ENDBRANCH   1  17
TORSDOF 9
