REMARK  2 active torsions:
REMARK  status: ('A' for Active; 'I' for Inactive)
REMARK    1  A    between atoms: C5_5  and  N1_6 
REMARK    2  A    between atoms: N1_6  and  C6_9 
ROOT
HETATM    1  N1  UNL     1      -0.867   0.045  -0.770  1.00  0.00    -0.066 N 
ATOM      2  H11 UNL     1      -1.300  -0.612  -1.419  1.00  0.00     0.278 HD
ATOM      3  H12 UNL     1      -0.634   0.771  -1.447  1.00  0.00     0.278 HD
ENDROOT
BRANCH   1   4
HETATM    4  C5  UNL     1       0.314  -0.510  -0.104  1.00  0.00     0.186 C 
HETATM    5  C4  UNL     1       0.998   0.567   0.676  1.00  0.00     0.033 C 
HETATM    6  C3  UNL     1       2.418   0.268   1.003  1.00  0.00     0.006 C 
HETATM    7  C2  UNL     1       3.259  -0.208  -0.131  1.00  0.00    -0.019 C 
HETATM    8  C1  UNL     1       4.125  -1.374   0.365  1.00  0.00     0.010 C 
HETATM    9  C12 UNL     1       2.498  -0.631  -1.343  1.00  0.00     0.006 C 
HETATM   10  C11 UNL     1       1.184  -1.271  -1.044  1.00  0.00     0.033 C 
ENDBRANCH   1   4
BRANCH   1  11
HETATM   11  C6  UNL     1      -1.776   0.503   0.248  1.00  0.00     0.201 C 
HETATM   12  C7  UNL     1      -2.306  -0.574   1.168  1.00  0.00     0.113 C 
HETATM   13  C8  UNL     1      -3.633   0.152   1.126  1.00  0.00     0.250 C 
HETATM   14  F1  UNL     1      -4.740  -0.657   1.016  1.00  0.00    -0.206 F 
HETATM   15  F2  UNL     1      -3.703   1.021   2.207  1.00  0.00    -0.206 F 
HETATM   16  C9  UNL     1      -3.177   0.783  -0.170  1.00  0.00     0.085 C 
HETATM   17  C10 UNL     1      -3.699   0.002  -1.347  1.00  0.00     0.018 C 
ENDBRANCH   1  11
TORSDOF 2
