REMARK  2 active torsions:
REMARK  status: ('A' for Active; 'I' for Inactive)
REMARK    1  A    between atoms: C4_6  and  N1_7 
REMARK    2  A    between atoms: N1_7  and  C5_10 
ROOT
HETATM    1  N1  UNL     1      -0.725  -0.482   0.546  1.00  0.00    -0.066 N 
ATOM      2  H11 UNL     1      -0.453  -1.447   0.360  1.00  0.00     0.278 HD
ATOM      3  H12 UNL     1      -0.996  -0.595   1.523  1.00  0.00     0.278 HD
ENDROOT
BRANCH   1   4
HETATM    4  C4  UNL     1      -1.828  -0.052  -0.285  1.00  0.00     0.192 C 
HETATM    5  C3  UNL     1      -2.934  -1.090  -0.340  1.00  0.00     0.039 C 
HETATM    6  C2  UNL     1      -4.087  -0.270  -0.885  1.00  0.00     0.081 C 
HETATM    7  C1  UNL     1      -3.854   1.153  -0.405  1.00  0.00     0.245 C 
HETATM    8  F1  UNL     1      -4.918   1.609   0.359  1.00  0.00    -0.206 F 
HETATM    9  F2  UNL     1      -3.624   1.961  -1.506  1.00  0.00    -0.206 F 
HETATM   10  C12 UNL     1      -2.579   1.097   0.401  1.00  0.00     0.112 C 
ENDBRANCH   1   4
BRANCH   1  11
HETATM   11  C5  UNL     1       0.388   0.449   0.383  1.00  0.00     0.188 C 
HETATM   12  C6  UNL     1       1.537   0.049   1.287  1.00  0.00     0.042 C 
HETATM   13  C7  UNL     1       2.380  -0.100   0.084  1.00  0.00    -0.037 C 
HETATM   14  C8  UNL     1       3.599   0.754  -0.056  1.00  0.00     0.010 C 
HETATM   15  C10 UNL     1       3.232  -1.303  -0.066  1.00  0.00     0.010 C 
HETATM   16  C11 UNL     1       1.252   0.115  -0.841  1.00  0.00     0.042 C 
HETATM   17  C9  UNL     1       4.379  -0.447   0.481  1.00  0.00     0.002 C 
ENDBRANCH   1  11
TORSDOF 2
