REMARK  2 active torsions:
REMARK  status: ('A' for Active; 'I' for Inactive)
REMARK    1  A    between atoms: C2_2  and  N1_3 
REMARK    2  A    between atoms: N1_3  and  C3_5 
ROOT
HETATM    1  C3  UNL     1       0.691  -0.035  -0.151  1.00  0.00     0.085 C 
HETATM    2  C4  UNL     1      -0.082   0.370   1.099  1.00  0.00     0.009 C 
HETATM    3  C5  UNL     1      -0.462   1.826   0.931  1.00  0.00     0.007 C 
HETATM    4  C6  UNL     1      -1.265   1.910  -0.350  1.00  0.00     0.006 C 
HETATM    5  C7  UNL     1      -1.540   0.603  -0.998  1.00  0.00     0.001 C 
HETATM    6  C8  UNL     1      -0.328  -0.286  -1.205  1.00  0.00     0.018 C 
HETATM    7  C9  UNL     1      -0.903  -1.675  -1.179  1.00  0.00     0.086 C 
HETATM    8  C10 UNL     1      -2.394  -1.509  -0.833  1.00  0.00     0.248 C 
HETATM    9  F1  UNL     1      -2.882  -2.591  -0.157  1.00  0.00    -0.206 F 
HETATM   10  F2  UNL     1      -3.066  -1.232  -1.981  1.00  0.00    -0.206 F 
HETATM   11  C11 UNL     1      -2.288  -0.261   0.033  1.00  0.00     0.063 C 
HETATM   12  C12 UNL     1      -1.383  -0.427   1.203  1.00  0.00     0.017 C 
ENDROOT
BRANCH   1  13
HETATM   13  N1  UNL     1       1.721  -0.962   0.040  1.00  0.00    -0.417 N 
ATOM     14  H1  UNL     1       1.677  -1.903  -0.350  1.00  0.00     0.153 HD
BRANCH  13  15
HETATM   15  C2  UNL     1       2.840  -0.516   0.813  1.00  0.00     0.110 C 
HETATM   16  C1  UNL     1       3.700   0.472   0.034  1.00  0.00     0.026 C 
ENDBRANCH  13  15
ENDBRANCH   1  13
TORSDOF 2
