REMARK  3 active torsions:
REMARK  status: ('A' for Active; 'I' for Inactive)
REMARK    1  A    between atoms: C3_3  and  O1_6 
REMARK    2  A    between atoms: O1_6  and  C6_7 
REMARK    3  A    between atoms: C6_7  and  C7_8 
ROOT
HETATM    1  C1  UNL     1       4.603   0.883   1.576  1.00  0.00     0.015 C 
HETATM    2  C2  UNL     1       3.703   0.507   0.870  1.00  0.00    -0.080 C 
HETATM    3  C3  UNL     1       2.614   0.042  -0.016  1.00  0.00     0.115 C 
HETATM    4  C4  UNL     1       3.019  -1.289  -0.584  1.00  0.00     0.060 C 
HETATM    5  C5  UNL     1       2.529   1.049  -1.142  1.00  0.00     0.060 C 
ENDROOT
BRANCH   3   6
HETATM    6  O1  UNL     1       1.413   0.024   0.648  1.00  0.00    -0.368 OA
BRANCH   6   7
HETATM    7  C6  UNL     1       0.425  -0.413  -0.207  1.00  0.00     0.174 C 
BRANCH   7   8
HETATM    8  C7  UNL     1      -0.943  -0.464   0.449  1.00  0.00     0.010 C 
HETATM    9  C8  UNL     1      -1.380   0.869   0.943  1.00  0.00     0.013 C 
HETATM   10  C9  UNL     1      -2.844   0.924   1.227  1.00  0.00     0.079 C 
HETATM   11  C10 UNL     1      -3.556   0.630  -0.097  1.00  0.00     0.243 C 
HETATM   12  F1  UNL     1      -2.871   1.346  -1.066  1.00  0.00    -0.206 F 
HETATM   13  F2  UNL     1      -4.883   0.916  -0.048  1.00  0.00    -0.206 F 
HETATM   14  C11 UNL     1      -3.297  -0.843  -0.359  1.00  0.00     0.079 C 
HETATM   15  C12 UNL     1      -1.857  -1.132  -0.506  1.00  0.00     0.013 C 
ENDBRANCH   7   8
ENDBRANCH   6   7
ENDBRANCH   3   6
TORSDOF 3
