REMARK  8 active torsions:
REMARK  status: ('A' for Active; 'I' for Inactive)
REMARK    1  A    between atoms: C4_4  and  N1_5 
REMARK    2  A    between atoms: N1_5  and  C5_7 
REMARK    3  A    between atoms: C7_9  and  C8_10 
REMARK    4  A    between atoms: C11_19  and  N5_20 
REMARK    5  A    between atoms: N5_20  and  C12_22 
REMARK    6  A    between atoms: C13_25  and  N7_26 
REMARK    7  A    between atoms: N7_26  and  C14_28 
REMARK    8  A    between atoms: C14_28  and  C15_29 
ROOT
HETATM    1  C12 UNL     1      -1.935  -0.587   2.087  1.00  0.00     0.161 A 
HETATM    2  N6  UNL     1      -3.088  -0.216   1.522  1.00  0.00    -0.174 N 
ATOM      3  H6  UNL     1      -3.095   0.612   0.927  1.00  0.00     0.186 HD
HETATM    4  C13 UNL     1      -4.243  -0.889   1.704  1.00  0.00     0.680 A 
HETATM    5  N8  UNL     1      -4.207  -1.981   2.496  1.00  0.00    -0.180 N 
ATOM      6  H8  UNL     1      -5.076  -2.495   2.639  1.00  0.00     0.185 HD
HETATM    7  C18 UNL     1      -3.105  -2.433   3.106  1.00  0.00     0.155 A 
HETATM    8  C19 UNL     1      -3.099  -3.600   3.943  1.00  0.00     0.120 C 
HETATM    9  N9  UNL     1      -3.106  -4.544   4.618  1.00  0.00    -0.190 NA
HETATM   10  C20 UNL     1      -1.927  -1.707   2.891  1.00  0.00     0.117 A 
HETATM   11 CL1  UNL     1      -0.432  -2.195   3.629  1.00  0.00    -0.077 Cl
ENDROOT
BRANCH   4  12
HETATM   12  N7  UNL     1      -5.346  -0.515   1.150  1.00  0.00    -0.226 N 
ATOM     13  H7  UNL     1      -6.212  -1.033   1.296  1.00  0.00     0.177 HD
BRANCH  12  14
HETATM   14  C14 UNL     1      -5.312   0.666   0.313  1.00  0.00     0.142 C 
BRANCH  14  15
HETATM   15  C15 UNL     1      -6.391   0.628  -0.749  1.00  0.00    -0.004 C 
HETATM   16  C16 UNL     1      -6.278   1.895  -1.570  1.00  0.00     0.011 C 
HETATM   17  C17 UNL     1      -7.728   0.717  -0.004  1.00  0.00     0.011 C 
ENDBRANCH  14  15
ENDBRANCH  12  14
ENDBRANCH   4  12
BRANCH   1  18
HETATM   18  N5  UNL     1      -0.736   0.143   1.876  1.00  0.00    -0.174 N 
ATOM     19  H5  UNL     1      -0.461   0.873   2.534  1.00  0.00     0.186 HD
BRANCH  18  20
HETATM   20  C11 UNL     1       0.007  -0.116   0.852  1.00  0.00     0.685 A 
HETATM   21  N4  UNL     1       1.138   0.591   0.675  1.00  0.00    -0.176 N 
HETATM   22  C4  UNL     1       1.969   0.374  -0.379  1.00  0.00     0.124 A 
ATOM     23  H4  UNL     1       1.380   1.313   1.354  1.00  0.00     0.186 HD
HETATM   24  C3  UNL     1       1.593  -0.607  -1.257  1.00  0.00     0.074 A 
HETATM   25  C2  UNL     1       0.442  -1.354  -1.111  1.00  0.00     0.026 A 
HETATM   26  C1  UNL     1       0.068  -2.411  -2.086  1.00  0.00     0.069 C 
HETATM   27  N10 UNL     1      -0.326  -1.076  -0.040  1.00  0.00    -0.196 N 
ATOM     28  H10 UNL     1      -1.186  -1.606   0.103  1.00  0.00     0.184 HD
BRANCH  22  29
HETATM   29  N1  UNL     1       3.142   1.157  -0.500  1.00  0.00    -0.327 N 
ATOM     30  H1  UNL     1       3.050   2.172  -0.470  1.00  0.00     0.169 HD
BRANCH  29  31
HETATM   31  C5  UNL     1       4.321   0.655  -0.646  1.00  0.00     0.123 A 
HETATM   32  C6  UNL     1       5.461   1.415  -0.763  1.00  0.00     0.076 A 
HETATM   33  C7  UNL     1       6.535   0.564  -0.903  1.00  0.00     0.033 A 
HETATM   34  N2  UNL     1       6.022  -0.669  -0.868  1.00  0.00    -0.303 N 
HETATM   35  N3  UNL     1       4.709  -0.623  -0.715  1.00  0.00    -0.285 N 
ATOM     36  H2  UNL     1       6.567  -1.527  -0.948  1.00  0.00     0.186 HD
ATOM     37  H3  UNL     1       4.091  -1.433  -0.659  1.00  0.00     0.188 HD
BRANCH  33  38
HETATM   38  C8  UNL     1       7.950   0.995  -1.059  1.00  0.00     0.037 A 
HETATM   39  C9  UNL     1       8.268   2.298  -0.361  1.00  0.00     0.011 A 
HETATM   40  C10 UNL     1       8.168   2.276  -1.868  1.00  0.00     0.011 A 
ENDBRANCH  33  38
ENDBRANCH  29  31
ENDBRANCH  22  29
ENDBRANCH  18  20
ENDBRANCH   1  18
TORSDOF 8
