REMARK  7 active torsions:
REMARK  status: ('A' for Active; 'I' for Inactive)
REMARK    1  A    between atoms: C2_2  and  C4_4 
REMARK    2  A    between atoms: C4_4  and  C5_5 
REMARK    3  A    between atoms: C5_5  and  N1_6 
REMARK    4  A    between atoms: N1_6  and  C6_8 
REMARK    5  A    between atoms: C6_8  and  C7_12 
REMARK    6  A    between atoms: C19_30  and  C20_31 
REMARK    7  A    between atoms: C20_31  and  O2_32 
ROOT
HETATM    1  C7  UNL     1       1.373   0.604  -0.365  1.00  0.00     0.256 C 
HETATM    2  C8  UNL     1       0.648  -0.043  -1.520  1.00  0.00     0.083 C 
HETATM    3  C9  UNL     1      -0.824  -0.103  -1.260  1.00  0.00    -0.001 A 
HETATM    4  C10 UNL     1      -1.326  -1.311  -0.796  1.00  0.00     0.174 A 
HETATM    5  F1  UNL     1      -0.486  -2.362  -0.595  1.00  0.00    -0.201 F 
HETATM    6  C11 UNL     1      -2.656  -1.508  -0.522  1.00  0.00     0.189 A 
HETATM    7  N3  UNL     1      -3.500  -0.474  -0.716  1.00  0.00    -0.282 N 
HETATM    8  C12 UNL     1      -3.028   0.682  -1.159  1.00  0.00     0.257 A 
HETATM    9  O1  UNL     1      -3.892   1.614  -1.318  1.00  0.00    -0.267 OA
HETATM   10  C13 UNL     1      -1.688   0.924  -1.449  1.00  0.00     0.020 A 
HETATM   11  C14 UNL     1      -1.365   2.271  -1.927  1.00  0.00     0.045 C 
HETATM   12  C15 UNL     1      -1.045   3.315  -0.945  1.00  0.00     0.010 C 
HETATM   13  C16 UNL     1      -1.110   2.904   0.510  1.00  0.00     0.007 C 
HETATM   14  C17 UNL     1      -1.347   4.106   1.411  1.00  0.00     0.011 C 
HETATM   15  C18 UNL     1       0.248   2.343   0.870  1.00  0.00     0.237 C 
HETATM   16  N4  UNL     1       0.993   2.004  -0.328  1.00  0.00    -0.063 N 
ATOM     17  H41 UNL     1       0.478   2.268  -1.168  1.00  0.00     0.278 HD
ATOM     18  H42 UNL     1       1.807   2.609  -0.439  1.00  0.00     0.278 HD
HETATM   19  C19 UNL     1      -4.865  -0.910  -0.366  1.00  0.00     0.153 C 
HETATM   20  C21 UNL     1      -4.598  -2.106   0.482  1.00  0.00     0.085 C 
HETATM   21  C22 UNL     1      -5.714  -3.094   0.474  1.00  0.00     0.048 C 
HETATM   22  C23 UNL     1      -4.370  -1.710   1.947  1.00  0.00     0.048 C 
HETATM   23  O3  UNL     1      -3.384  -2.595  -0.060  1.00  0.00    -0.320 OA
ENDROOT
BRANCH   1  24
HETATM   24  C6  UNL     1       2.848   0.586  -0.519  1.00  0.00     0.102 C 
HETATM   25  N2  UNL     1       3.350   0.092  -1.588  1.00  0.00    -0.387 N 
ATOM     26  H22 UNL     1       4.364   0.080  -1.694  1.00  0.00     0.157 HD
ATOM     27  H21 UNL     1       2.752  -0.285  -2.323  1.00  0.00     0.157 HD
BRANCH  24  28
HETATM   28  N1  UNL     1       3.694   1.120   0.521  1.00  0.00    -0.378 N 
ATOM     29  H1  UNL     1       3.357   1.857   1.140  1.00  0.00     0.160 HD
BRANCH  28  30
HETATM   30  C5  UNL     1       5.023   0.590   0.666  1.00  0.00     0.121 C 
BRANCH  30  31
HETATM   31  C4  UNL     1       4.947  -0.852   1.155  1.00  0.00     0.023 C 
BRANCH  31  32
HETATM   32  C2  UNL     1       6.356  -1.383   1.299  1.00  0.00    -0.021 C 
HETATM   33  C1  UNL     1       7.031  -1.312  -0.068  1.00  0.00     0.009 C 
HETATM   34  C3  UNL     1       6.361  -2.797   1.794  1.00  0.00     0.009 C 
ENDBRANCH  31  32
ENDBRANCH  30  31
ENDBRANCH  28  30
ENDBRANCH  24  28
ENDBRANCH   1  24
BRANCH  19  35
HETATM   35  C20 UNL     1      -5.548  -1.205  -1.673  1.00  0.00     0.193 C 
BRANCH  35  36
HETATM   36  O2  UNL     1      -6.856  -1.625  -1.526  1.00  0.00    -0.399 OA
ATOM     37  H2  UNL     1      -7.287  -1.811  -2.352  1.00  0.00     0.209 HD
ENDBRANCH  35  36
ENDBRANCH  19  35
TORSDOF 7
