REMARK  7 active torsions:
REMARK  status: ('A' for Active; 'I' for Inactive)
REMARK    1  A    between atoms: C6_6  and  C7_7 
REMARK    2  A    between atoms: C9_16  and  N5_17 
REMARK    3  A    between atoms: N5_17  and  C10_19 
REMARK    4  A    between atoms: C10_19  and  C11_20 
REMARK    5  A    between atoms: C10_19  and  C12_23 
REMARK    6  A    between atoms: C11_20  and  O1_21 
REMARK    7  A    between atoms: C21_35  and  C22_36 
ROOT
HETATM    1  C7  UNL     1       0.051  -1.409  -0.059  1.00  0.00     0.118 A 
HETATM    2  N1  UNL     1      -0.348  -2.665  -0.362  1.00  0.00    -0.183 N 
ATOM      3  H1  UNL     1       0.359  -3.296  -0.739  1.00  0.00     0.184 HD
HETATM    4  C8  UNL     1      -1.569  -3.151  -0.215  1.00  0.00     0.723 A 
HETATM    5  N2  UNL     1      -2.459  -4.171  -0.320  1.00  0.00    -0.115 N 
ATOM      6  H2  UNL     1      -2.435  -5.141  -0.635  1.00  0.00     0.207 HD
HETATM    7  N3  UNL     1      -3.361  -3.357   0.163  1.00  0.00    -0.205 N 
ATOM      8  H3  UNL     1      -4.353  -3.474   0.371  1.00  0.00     0.210 HD
HETATM    9  N4  UNL     1      -2.539  -2.330   0.288  1.00  0.00    -0.050 N 
HETATM   10  C9  UNL     1      -2.245  -1.062   0.621  1.00  0.00     0.184 A 
HETATM   11  C17 UNL     1      -0.934  -0.590   0.446  1.00  0.00     0.192 A 
HETATM   12  F1  UNL     1      -0.679   0.678   0.788  1.00  0.00    -0.199 F 
ENDROOT
BRANCH   1  13
HETATM   13  C6  UNL     1       1.428  -0.981  -0.265  1.00  0.00     0.063 A 
HETATM   14  C5  UNL     1       2.064   0.189  -0.048  1.00  0.00     0.041 A 
HETATM   15  C4  UNL     1       3.414   0.089  -0.416  1.00  0.00    -0.025 A 
HETATM   16  C2  UNL     1       4.539   1.068  -0.383  1.00  0.00    -0.005 C 
HETATM   17  C18 UNL     1       3.549  -1.207  -0.863  1.00  0.00     0.017 A 
HETATM   18  C1  UNL     1       4.190   2.144   0.620  1.00  0.00     0.021 C 
HETATM   19  C3  UNL     1       4.528   1.772  -1.748  1.00  0.00     0.021 C 
HETATM   20  C21 UNL     1       5.848   0.418  -0.129  1.00  0.00     0.099 C 
HETATM   21  C20 UNL     1       5.869  -1.078  -0.277  1.00  0.00     0.022 C 
HETATM   22  C19 UNL     1       4.917  -1.593  -1.325  1.00  0.00     0.058 C 
HETATM   23  N6  UNL     1       2.364  -1.828  -0.768  1.00  0.00    -0.357 N 
ATOM     24  H6  UNL     1       2.190  -2.797  -1.035  1.00  0.00     0.166 HD
BRANCH  20  25
HETATM   25  C22 UNL     1       6.387   0.783   1.200  1.00  0.00     0.178 C 
HETATM   26  O2  UNL     1       6.575  -0.132   2.074  1.00  0.00    -0.648 OA
HETATM   27  O3  UNL     1       6.714   2.085   1.579  1.00  0.00    -0.648 OA
ENDBRANCH  20  25
ENDBRANCH   1  13
BRANCH  10  28
HETATM   28  N5  UNL     1      -3.066  -0.231   1.092  1.00  0.00    -0.365 N 
ATOM     29  H5  UNL     1      -2.672   0.689   1.288  1.00  0.00     0.161 HD
BRANCH  28  30
HETATM   30  C10 UNL     1      -4.430  -0.356   1.393  1.00  0.00     0.110 C 
BRANCH  30  31
HETATM   31  C11 UNL     1      -4.740  -0.032   2.866  1.00  0.00     0.189 C 
BRANCH  31  32
HETATM   32  O1  UNL     1      -4.042  -0.897   3.706  1.00  0.00    -0.399 OA
ATOM     33  H1  UNL     1      -4.233  -0.697   4.615  1.00  0.00     0.209 HD
ENDBRANCH  31  32
ENDBRANCH  30  31
BRANCH  30  34
HETATM   34  C12 UNL     1      -5.305   0.528   0.525  1.00  0.00     0.010 C 
HETATM   35  C13 UNL     1      -5.129   0.172  -0.919  1.00  0.00     0.007 C 
HETATM   36  C14 UNL     1      -5.472   1.430  -1.692  1.00  0.00     0.000 C 
HETATM   37  C15 UNL     1      -5.012   2.538  -0.785  1.00  0.00     0.000 C 
HETATM   38  C16 UNL     1      -4.984   1.979   0.631  1.00  0.00     0.007 C 
ENDBRANCH  30  34
ENDBRANCH  28  30
ENDBRANCH  10  28
TORSDOF 7
