REMARK  3 active torsions:
REMARK  status: ('A' for Active; 'I' for Inactive)
REMARK       I    between atoms: C1_2  and  N1_3 
REMARK    1  A    between atoms: C1_2  and  C7_11 
REMARK    2  A    between atoms: N1_3  and  C2_5 
REMARK    3  A    between atoms: C9_15  and  N3_16 
ROOT
HETATM    1  C7  UNL     1      -0.153  -0.605   0.190  1.00  0.00     0.091 A 
HETATM    2  C8  UNL     1       0.305   0.658  -0.081  1.00  0.00     0.115 A 
HETATM    3  N2  UNL     1       1.577   0.842  -0.176  1.00  0.00    -0.345 N 
ATOM      4  H2  UNL     1       1.942   1.773  -0.377  1.00  0.00     0.167 HD
HETATM    5  C9  UNL     1       2.411  -0.173  -0.014  1.00  0.00     0.147 A 
HETATM    6  S1  UNL     1       1.337  -1.466   0.291  1.00  0.00    -0.047 SA
ENDROOT
BRANCH   1   7
HETATM    7  C1  UNL     1      -1.529  -1.075   0.347  1.00  0.00     0.260 C 
HETATM    8  O1  UNL     1      -1.735  -2.292   0.597  1.00  0.00    -0.267 OA
HETATM    9  N1  UNL     1      -2.575  -0.145   0.212  1.00  0.00    -0.352 N 
ATOM     10  H1  UNL     1      -2.380   0.835   0.010  1.00  0.00     0.163 HD
BRANCH   9  11
HETATM   11  C2  UNL     1      -3.950  -0.618   0.369  1.00  0.00     0.087 C 
HETATM   12  C3  UNL     1      -4.720  -0.264  -0.867  1.00  0.00     0.028 C 
HETATM   13  C4  UNL     1      -5.876   0.590  -0.420  1.00  0.00     0.039 C 
HETATM   14  C5  UNL     1      -5.281   1.270   0.819  1.00  0.00     0.172 C 
HETATM   15  F1  UNL     1      -4.396   2.256   0.494  1.00  0.00    -0.249 F 
HETATM   16  C6  UNL     1      -4.632   0.120   1.523  1.00  0.00     0.062 C 
ENDBRANCH   9  11
ENDBRANCH   1   7
BRANCH   5  17
HETATM   17  N3  UNL     1       3.821  -0.180  -0.078  1.00  0.00    -0.357 N 
HETATM   18  C10 UNL     1       4.534   1.039  -0.348  1.00  0.00     0.151 C 
HETATM   19  C11 UNL     1       5.731   1.040   0.604  1.00  0.00     0.187 C 
HETATM   20  O2  UNL     1       6.592   0.011   0.342  1.00  0.00    -0.388 OA
HETATM   21  C12 UNL     1       6.058  -1.113  -0.222  1.00  0.00     0.187 C 
HETATM   22  C13 UNL     1       4.607  -1.370   0.117  1.00  0.00     0.151 C 
ENDBRANCH   5  17
TORSDOF 3
