REMARK  4 active torsions:
REMARK  status: ('A' for Active; 'I' for Inactive)
REMARK    1  A    between atoms: O1_2  and  C2_3 
REMARK    2  A    between atoms: C2_3  and  C3_5 
REMARK    3  A    between atoms: C6_10  and  N1_11 
REMARK       I    between atoms: N1_11  and  C7_13 
REMARK    4  A    between atoms: C7_13  and  C8_15 
ROOT
HETATM    1  C3  UNL     1      -1.204   1.512   0.022  1.00  0.00     0.091 A 
HETATM    2  C4  UNL     1      -1.910   2.665   0.192  1.00  0.00     0.036 A 
HETATM    3 BR1  UNL     1      -3.399   2.924   1.439  1.00  0.00    -0.049 Br
HETATM    4  C5  UNL     1      -1.540   3.734  -0.570  1.00  0.00     0.072 A 
HETATM    5  S1  UNL     1      -0.250   3.152  -1.486  1.00  0.00    -0.082 SA
HETATM    6  C6  UNL     1      -0.187   1.498  -0.867  1.00  0.00     0.094 A 
ENDROOT
BRANCH   6   7
HETATM    7  N1  UNL     1       0.905   0.635  -1.162  1.00  0.00    -0.314 N 
HETATM    8  C7  UNL     1       1.576  -0.222  -0.280  1.00  0.00     0.291 C 
HETATM    9  O3  UNL     1       1.338  -0.329   0.948  1.00  0.00    -0.264 OA
ATOM     10  H1  UNL     1       1.237   0.641  -2.126  1.00  0.00     0.170 HD
BRANCH   8  11
HETATM   11  C8  UNL     1       2.671  -1.096  -0.807  1.00  0.00     0.212 C 
HETATM   12  C9  UNL     1       3.377  -1.995   0.109  1.00  0.00     0.102 C 
HETATM   13  O4  UNL     1       2.924  -1.007  -2.024  1.00  0.00    -0.288 OA
ENDBRANCH   8  11
ENDBRANCH   6   7
BRANCH   1  14
HETATM   14  C2  UNL     1      -1.772   0.252   0.617  1.00  0.00     0.297 C 
HETATM   15  O2  UNL     1      -2.671   0.286   1.501  1.00  0.00    -0.259 OA
BRANCH  14  16
HETATM   16  O1  UNL     1      -1.378  -1.012   0.239  1.00  0.00    -0.322 OA
HETATM   17  C1  UNL     1      -1.943  -2.175   0.804  1.00  0.00     0.213 C 
ENDBRANCH  14  16
ENDBRANCH   1  14
TORSDOF 4
