REMARK  3 active torsions:
REMARK  status: ('A' for Active; 'I' for Inactive)
REMARK    1  A    between atoms: C2_2  and  O1_3 
REMARK    2  A    between atoms: O1_3  and  C3_4 
REMARK    3  A    between atoms: C8_14  and  C9_15 
ROOT
HETATM    1  C1  UNL     1       0.817  -0.680   1.919  1.00  0.00     0.048 C 
HETATM    2  C2  UNL     1       0.226  -1.235   0.637  1.00  0.00     0.082 C 
HETATM    3  C7  UNL     1       0.738  -2.647   0.497  1.00  0.00     0.157 C 
HETATM    4  N1  UNL     1       2.180  -2.382   0.357  1.00  0.00    -0.390 N 
ATOM      5  H1  UNL     1       2.921  -3.010   0.670  1.00  0.00     0.159 HD
HETATM    6  C8  UNL     1       2.373  -1.244  -0.217  1.00  0.00     0.008 C 
HETATM    7  C11 UNL     1       1.044  -0.613  -0.511  1.00  0.00     0.096 C 
ENDROOT
BRANCH   2   8
HETATM    8  O1  UNL     1      -1.066  -1.007   0.417  1.00  0.00    -0.339 OA
BRANCH   8   9
HETATM    9  C3  UNL     1      -1.611   0.196   0.295  1.00  0.00     0.362 C 
HETATM   10  O2  UNL     1      -2.118   0.483  -1.018  1.00  0.00    -0.350 OA
HETATM   11  C4  UNL     1      -2.401   1.850  -0.964  1.00  0.00     0.198 C 
HETATM   12  C5  UNL     1      -3.786   1.977  -0.389  1.00  0.00     0.205 C 
HETATM   13  O3  UNL     1      -3.807   1.144   0.789  1.00  0.00    -0.316 OA
HETATM   14  C6  UNL     1      -2.616   0.628   1.287  1.00  0.00     0.314 C 
HETATM   15  O4  UNL     1      -2.413   0.539   2.496  1.00  0.00    -0.260 OA
ENDBRANCH   8   9
ENDBRANCH   2   8
BRANCH   6  16
HETATM   16  C9  UNL     1       3.630  -0.592  -0.551  1.00  0.00     0.032 C 
HETATM   17  C10 UNL     1       3.675   0.579  -1.151  1.00  0.00     0.058 C 
HETATM   18 BR1  UNL     1       5.296   1.460  -1.600  1.00  0.00    -0.064 Br
ENDBRANCH   6  16
TORSDOF 3
