REMARK  3 active torsions:
REMARK  status: ('A' for Active; 'I' for Inactive)
REMARK    1  A    between atoms: N1_2  and  C2_5 
REMARK    2  A    between atoms: C2_5  and  C3_6 
REMARK    3  A    between atoms: C4_7  and  N2_8 
ROOT
HETATM    1  C3  UNL     1      -0.880   0.634   0.395  1.00  0.00     0.009 A 
HETATM    2  C4  UNL     1       0.511   0.819   0.500  1.00  0.00     0.082 A 
HETATM    3  S1  UNL     1       0.639   2.328   1.275  1.00  0.00    -0.064 SA
HETATM    4  C9  UNL     1      -1.001   2.695   1.452  1.00  0.00     0.060 A 
HETATM    5 BR1  UNL     1      -1.804   4.267   2.251  1.00  0.00    -0.042 Br
HETATM    6  C10 UNL     1      -1.646   1.613   0.891  1.00  0.00    -0.027 A 
HETATM    7  C11 UNL     1      -3.171   1.626   0.840  1.00  0.00     0.050 C 
ENDROOT
BRANCH   2   8
HETATM    8  N2  UNL     1       1.539  -0.059   0.065  1.00  0.00    -0.371 N 
HETATM    9  C5  UNL     1       2.322  -0.834   0.958  1.00  0.00     0.149 C 
HETATM   10  C6  UNL     1       3.785  -0.867   0.561  1.00  0.00     0.187 C 
HETATM   11  O1  UNL     1       4.017  -0.652  -0.762  1.00  0.00    -0.388 OA
HETATM   12  C7  UNL     1       3.296   0.305  -1.414  1.00  0.00     0.187 C 
HETATM   13  C8  UNL     1       1.823  -0.167  -1.341  1.00  0.00     0.149 C 
ENDBRANCH   2   8
BRANCH   1  14
HETATM   14  C2  UNL     1      -1.330  -0.645  -0.294  1.00  0.00     0.273 C 
BRANCH  14  15
HETATM   15  N1  UNL     1      -2.748  -0.794  -0.326  1.00  0.00    -0.075 N 
HETATM   16  C1  UNL     1      -3.084  -1.978  -1.124  1.00  0.00     0.267 C 
ATOM     17  H12 UNL     1      -3.220   0.047  -0.660  1.00  0.00     0.277 HD
ATOM     18  H11 UNL     1      -3.157  -0.826   0.608  1.00  0.00     0.277 HD
ENDBRANCH  14  15
ENDBRANCH   1  14
TORSDOF 3
