REMARK  7 active torsions:
REMARK  status: ('A' for Active; 'I' for Inactive)
REMARK    1  A    between atoms: C3_3  and  C4_4 
REMARK    2  A    between atoms: C4_4  and  N1_5 
REMARK    3  A    between atoms: N4_16  and  C10_18 
REMARK    4  A    between atoms: C10_18  and  C11_19 
REMARK    5  A    between atoms: C11_19  and  N5_20 
REMARK    6  A    between atoms: N5_20  and  C12_21 
REMARK    7  A    between atoms: N5_20  and  C14_23 
ROOT
HETATM    1  C1  UNL     1       8.557   0.808  -1.109  1.00  0.00     0.012 C 
HETATM    2  C2  UNL     1       7.464   1.215  -0.802  1.00  0.00    -0.116 C 
HETATM    3  C3  UNL     1       6.145   1.731  -0.444  1.00  0.00     0.113 C 
ENDROOT
BRANCH   3   4
HETATM    4  C4  UNL     1       5.314   0.589   0.164  1.00  0.00     0.150 C 
BRANCH   4   5
HETATM    5  N1  UNL     1       4.041   1.110   0.506  1.00  0.00    -0.225 N 
HETATM    6  C5  UNL     1       2.914   0.523   0.494  1.00  0.00     0.694 A 
HETATM    7  N2  UNL     1       2.791  -0.856   0.095  1.00  0.00    -0.176 N 
HETATM    8  N6  UNL     1       1.732   1.274   0.856  1.00  0.00    -0.022 N 
HETATM    9  C6  UNL     1       1.501  -1.461   0.059  1.00  0.00     0.132 A 
ATOM     10  H2  UNL     1       3.619  -1.394  -0.159  1.00  0.00     0.186 HD
HETATM   11  C7  UNL     1       1.399  -2.705  -0.323  1.00  0.00     0.019 C 
HETATM   12  N3  UNL     1       0.345  -0.682   0.425  1.00  0.00    -0.176 N 
HETATM   13  C8  UNL     1       2.556  -3.534  -0.728  1.00  0.00     0.040 C 
HETATM   14  C9  UNL     1       0.447   0.676   0.821  1.00  0.00     0.694 A 
ATOM     15  H3  UNL     1      -0.575  -1.121   0.398  1.00  0.00     0.186 HD
HETATM   16  N4  UNL     1      -0.559   1.385   1.116  1.00  0.00    -0.224 N 
ATOM     17  H4  UNL     1      -0.395   2.352   1.394  1.00  0.00     0.177 HD
ATOM     18  H6  UNL     1       1.824   2.249   1.141  1.00  0.00     0.203 HD
ATOM     19  H1  UNL     1       4.028   2.086   0.801  1.00  0.00     0.177 HD
BRANCH  16  20
HETATM   20  C10 UNL     1      -1.937   0.910   1.084  1.00  0.00     0.168 C 
BRANCH  20  21
HETATM   21  C11 UNL     1      -2.603   1.248  -0.202  1.00  0.00     0.292 C 
BRANCH  21  22
HETATM   22  N5  UNL     1      -3.965   0.808  -0.317  1.00  0.00     0.089 N 
BRANCH  22  23
HETATM   23  C12 UNL     1      -4.826   1.483   0.576  1.00  0.00     0.268 C 
HETATM   24  C13 UNL     1      -6.277   1.219   0.531  1.00  0.00     0.037 C 
ENDBRANCH  22  23
BRANCH  22  25
HETATM   25  C14 UNL     1      -3.989  -0.594  -0.406  1.00  0.00     0.268 C 
HETATM   26  C15 UNL     1      -5.290  -1.256  -0.746  1.00  0.00     0.037 C 
ENDBRANCH  22  25
ENDBRANCH  21  22
ENDBRANCH  20  21
ENDBRANCH  16  20
ENDBRANCH   4   5
ENDBRANCH   3   4
TORSDOF 7
