REMARK  9 active torsions:
REMARK  status: ('A' for Active; 'I' for Inactive)
REMARK    1  A    between atoms: C3_5  and  N2_6 
REMARK    2  A    between atoms: C3_5  and  C13_21 
REMARK    3  A    between atoms: N2_6  and  C4_8 
REMARK    4  A    between atoms: C4_8  and  C5_9 
REMARK    5  A    between atoms: C4_8  and  C6_12 
REMARK    6  A    between atoms: C5_9  and  O1_10 
REMARK    7  A    between atoms: C6_12  and  C7_13 
REMARK    8  A    between atoms: C7_13  and  C8_14 
REMARK    9  A    between atoms: C10_18  and  C11_19 
ROOT
HETATM    1  C1  UNL     1       3.836   3.242  -0.819  1.00  0.00     0.123 C 
HETATM    2  C2  UNL     1       2.926   2.442  -0.625  1.00  0.00    -0.074 C 
HETATM    3  N1  UNL     1       1.894   1.583  -0.407  1.00  0.00    -0.315 N 
ATOM      4  H1  UNL     1       1.028   2.026  -0.101  1.00  0.00     0.176 HD
HETATM    5  C3  UNL     1       1.833   0.341  -0.520  1.00  0.00     0.088 C 
ENDROOT
BRANCH   5   6
HETATM    6  N2  UNL     1       0.517  -0.227  -0.187  1.00  0.00    -0.372 N 
ATOM      7  H2  UNL     1       0.109  -0.924  -0.810  1.00  0.00     0.161 HD
BRANCH   6   8
HETATM    8  C4  UNL     1      -0.210   0.166   0.981  1.00  0.00     0.107 C 
BRANCH   8   9
HETATM    9  C5  UNL     1       0.559  -0.209   2.268  1.00  0.00     0.189 C 
BRANCH   9  10
HETATM   10  O1  UNL     1       1.785   0.401   2.344  1.00  0.00    -0.399 OA
ATOM     11  H1  UNL     1       2.258   0.170   3.135  1.00  0.00     0.209 HD
ENDBRANCH   9  10
ENDBRANCH   8   9
BRANCH   8  12
HETATM   12  C6  UNL     1      -1.542  -0.476   1.017  1.00  0.00     0.046 C 
BRANCH  12  13
HETATM   13  C7  UNL     1      -2.485  -0.209  -0.098  1.00  0.00     0.048 A 
HETATM   14  C9  UNL     1      -2.608  -1.087  -1.310  1.00  0.00     0.029 A 
HETATM   15  C10 UNL     1      -3.570  -1.272  -0.221  1.00  0.00     0.026 A 
BRANCH  13  16
HETATM   16  C8  UNL     1      -2.922   1.191  -0.369  1.00  0.00     0.240 C 
HETATM   17  N3  UNL     1      -2.515   2.213   0.512  1.00  0.00    -0.061 NA
HETATM   18  O2  UNL     1      -3.640   1.513  -1.342  1.00  0.00    -0.276 OA
ENDBRANCH  13  16
BRANCH  15  19
HETATM   19  C11 UNL     1      -4.987  -0.906  -0.258  1.00  0.00    -0.031 C 
HETATM   20  C12 UNL     1      -5.910  -1.840  -0.099  1.00  0.00     0.007 C 
ENDBRANCH  15  19
ENDBRANCH  12  13
ENDBRANCH   8  12
ENDBRANCH   6   8
ENDBRANCH   5   6
BRANCH   5  21
HETATM   21  C13 UNL     1       2.883  -0.585  -0.950  1.00  0.00     0.054 C 
HETATM   22  C14 UNL     1       4.195  -0.470  -0.228  1.00  0.00     0.012 C 
HETATM   23  C15 UNL     1       4.901  -0.408  -1.556  1.00  0.00     0.002 C 
HETATM   24  C16 UNL     1       3.575  -0.241  -2.242  1.00  0.00     0.012 C 
ENDBRANCH   5  21
TORSDOF 9
