REMARK  8 active torsions:
REMARK  status: ('A' for Active; 'I' for Inactive)
REMARK    1  A    between atoms: O1_2  and  C2_3 
REMARK    2  A    between atoms: C4_5  and  O2_6 
REMARK    3  A    between atoms: O2_6  and  C5_7 
REMARK    4  A    between atoms: C5_7  and  C6_9 
REMARK    5  A    between atoms: C10_13  and  O4_14 
REMARK    6  A    between atoms: O4_14  and  C11_15 
REMARK    7  A    between atoms: C11_15  and  C14_18 
REMARK    8  A    between atoms: C16_22  and  C17_23 
ROOT
HETATM    1  C2  UNL     1      -1.544  -1.939   0.256  1.00  0.00     0.078 A 
HETATM    2  C3  UNL     1      -0.249  -1.664  -0.040  1.00  0.00     0.077 A 
HETATM    3  C4  UNL     1       0.229  -0.360  -0.268  1.00  0.00     0.115 A 
HETATM    4  C10 UNL     1      -0.651   0.682  -0.189  1.00  0.00     0.105 A 
HETATM    5  C15 UNL     1      -2.008   0.365   0.124  1.00  0.00     0.050 A 
HETATM    6  C16 UNL     1      -2.439  -0.911   0.340  1.00  0.00    -0.014 A 
ENDROOT
BRANCH   3   7
HETATM    7  O2  UNL     1       1.578  -0.191  -0.566  1.00  0.00    -0.275 OA
BRANCH   7   8
HETATM    8  C5  UNL     1       2.547  -0.406   0.408  1.00  0.00     0.271 C 
HETATM    9  O3  UNL     1       2.076  -0.739   1.553  1.00  0.00    -0.264 OA
BRANCH   8  10
HETATM   10  C6  UNL     1       4.004  -0.288   0.220  1.00  0.00     0.037 C 
HETATM   11  C7  UNL     1       4.672  -0.530   1.555  1.00  0.00     0.025 C 
HETATM   12  C8  UNL     1       4.380  -1.480  -0.690  1.00  0.00     0.025 C 
HETATM   13  C9  UNL     1       4.460   0.954  -0.452  1.00  0.00     0.025 C 
ENDBRANCH   8  10
ENDBRANCH   7   8
ENDBRANCH   3   7
BRANCH   4  14
HETATM   14  O4  UNL     1      -0.356   1.958  -0.378  1.00  0.00    -0.327 OA
BRANCH  14  15
HETATM   15  C11 UNL     1       0.437   2.961  -0.640  1.00  0.00     0.148 C 
HETATM   16  C12 UNL     1       1.146   2.892  -2.005  1.00  0.00     0.058 C 
HETATM   17  C13 UNL     1       1.493   3.304   0.408  1.00  0.00     0.058 C 
BRANCH  15  18
HETATM   18  C14 UNL     1      -0.395   4.244  -0.775  1.00  0.00     0.209 C 
HETATM   19  O5  UNL     1       0.149   5.344  -1.027  1.00  0.00    -0.646 OA
HETATM   20  O6  UNL     1      -1.751   4.140  -0.610  1.00  0.00    -0.646 OA
ENDBRANCH  15  18
ENDBRANCH  14  15
ENDBRANCH   4  14
BRANCH   1  21
HETATM   21  O1  UNL     1      -2.040  -3.212   0.484  1.00  0.00    -0.355 OA
HETATM   22  C1  UNL     1      -1.159  -4.320   0.411  1.00  0.00     0.210 C 
ENDBRANCH   1  21
BRANCH   6  23
HETATM   23  C17 UNL     1      -3.856  -1.147   0.658  1.00  0.00    -0.021 C 
HETATM   24  C18 UNL     1      -4.642   0.157   0.692  1.00  0.00     0.019 C 
HETATM   25  C19 UNL     1      -3.926  -1.722   2.057  1.00  0.00     0.019 C 
HETATM   26  C20 UNL     1      -4.557  -2.075  -0.269  1.00  0.00     0.019 C 
ENDBRANCH   6  23
TORSDOF 8
