REMARK  7 active torsions:
REMARK  status: ('A' for Active; 'I' for Inactive)
REMARK    1  A    between atoms: N2_11  and  C9_12 
REMARK    2  A    between atoms: C9_12  and  C10_17 
REMARK    3  A    between atoms: N3_13  and  O1_15 
REMARK    4  A    between atoms: C12_20  and  C13_21 
REMARK    5  A    between atoms: C13_21  and  O2_22 
REMARK    6  A    between atoms: O2_22  and  C14_23 
REMARK    7  A    between atoms: C14_23  and  C15_24 
ROOT
HETATM    1  C9  UNL     1      -1.075   0.918  -0.072  1.00  0.00     0.153 C 
HETATM    2  N3  UNL     1      -1.020   2.147   0.270  1.00  0.00    -0.251 N 
ATOM      3  H3  UNL     1      -1.876   2.648   0.508  1.00  0.00     0.196 HD
ENDROOT
BRANCH   1   4
HETATM    4  N2  UNL     1      -2.354   0.304  -0.103  1.00  0.00    -0.270 N 
HETATM    5  C2  UNL     1      -3.202   0.081   1.025  1.00  0.00     0.115 C 
HETATM    6  C1  UNL     1      -3.432   1.372   1.819  1.00  0.00     0.035 C 
HETATM    7  C3  UNL     1      -4.522  -0.295   0.409  1.00  0.00     0.057 C 
HETATM    8  C4  UNL     1      -5.058  -1.591   0.992  1.00  0.00     0.013 C 
HETATM    9  C8  UNL     1      -4.187  -0.526  -1.006  1.00  0.00     0.010 C 
HETATM   10  C5  UNL     1      -6.222  -2.036   0.165  1.00  0.00     0.001 C 
HETATM   11  C6  UNL     1      -6.505  -1.137  -1.019  1.00  0.00     0.006 C 
HETATM   12  C7  UNL     1      -5.241  -1.087  -1.889  1.00  0.00     0.054 C 
HETATM   13  N1  UNL     1      -2.976  -0.176  -1.230  1.00  0.00    -0.304 N 
ATOM     14  H1  UNL     1      -2.524  -0.246  -2.142  1.00  0.00     0.186 HD
ENDBRANCH   1   4
BRANCH   1  15
HETATM   15  C10 UNL     1       0.143   0.132  -0.439  1.00  0.00     0.019 A 
HETATM   16  C11 UNL     1       0.220  -1.174  -0.016  1.00  0.00     0.065 A 
HETATM   17  S1  UNL     1       1.714  -1.698  -0.635  1.00  0.00    -0.103 SA
HETATM   18  C12 UNL     1       2.210  -0.267  -1.414  1.00  0.00     0.007 A 
HETATM   19  C20 UNL     1       1.176   0.595  -1.162  1.00  0.00     0.032 A 
BRANCH  18  20
HETATM   20  C13 UNL     1       3.469   0.013  -2.202  1.00  0.00     0.214 C 
BRANCH  20  21
HETATM   21  O2  UNL     1       3.869   1.332  -2.052  1.00  0.00    -0.382 OA
BRANCH  21  22
HETATM   22  C14 UNL     1       4.164   1.663  -0.733  1.00  0.00     0.202 C 
BRANCH  22  23
HETATM   23  C15 UNL     1       5.264   0.772  -0.269  1.00  0.00    -0.060 C 
HETATM   24  C16 UNL     1       5.187  -0.067   0.748  1.00  0.00    -0.022 C 
HETATM   25  C17 UNL     1       6.488  -0.791   0.914  1.00  0.00     0.028 C 
HETATM   26  C18 UNL     1       7.473   0.035   0.154  1.00  0.00     0.008 C 
HETATM   27  C19 UNL     1       6.604   0.711  -0.898  1.00  0.00     0.036 C 
ENDBRANCH  22  23
ENDBRANCH  21  22
ENDBRANCH  20  21
ENDBRANCH  18  20
ENDBRANCH   1  15
BRANCH   2  28
HETATM   28  O1  UNL     1       0.179   2.791   0.318  1.00  0.00    -0.288 OA
ATOM     29  H1  UNL     1       0.220   3.705   0.572  1.00  0.00     0.244 HD
ENDBRANCH   2  28
TORSDOF 7
