REMARK  6 active torsions:
REMARK  status: ('A' for Active; 'I' for Inactive)
REMARK    1  A    between atoms: C2_2  and  C3_3 
REMARK    2  A    between atoms: C3_3  and  C4_4 
REMARK    3  A    between atoms: C4_4  and  C5_5 
REMARK    4  A    between atoms: C9_10  and  O2_11 
REMARK    5  A    between atoms: C10_13  and  C11_14 
REMARK    6  A    between atoms: C11_14  and  N1_15 
ROOT
HETATM    1  C5  UNL     1      -3.432   0.824  -1.063  1.00  0.00     0.060 A 
HETATM    2  O1  UNL     1      -3.228   2.116  -0.797  1.00  0.00    -0.314 OA
HETATM    3  C6  UNL     1      -1.961   2.404  -0.754  1.00  0.00     0.090 A 
HETATM    4  C7  UNL     1      -1.422   3.654  -0.501  1.00  0.00     0.041 C 
HETATM    5  C8  UNL     1      -0.108   4.022  -0.396  1.00  0.00     0.040 C 
HETATM    6  C9  UNL     1       1.055   3.244  -0.387  1.00  0.00     0.081 C 
HETATM    7  C10 UNL     1       1.062   1.865  -0.465  1.00  0.00     0.063 C 
HETATM    8  C18 UNL     1       0.095   1.079  -1.045  1.00  0.00     0.199 C 
HETATM    9  O3  UNL     1       0.471   0.085  -1.720  1.00  0.00    -0.286 OA
HETATM   10  C19 UNL     1      -1.294   1.203  -1.013  1.00  0.00     0.057 A 
HETATM   11  C20 UNL     1      -2.217   0.200  -1.211  1.00  0.00    -0.015 A 
HETATM   12  C21 UNL     1      -1.899  -1.221  -1.560  1.00  0.00     0.052 C 
ENDROOT
BRANCH   7  13
HETATM   13  C11 UNL     1       2.228   1.202   0.100  1.00  0.00     0.104 C 
BRANCH  13  14
HETATM   14  N1  UNL     1       2.324  -0.173   0.127  1.00  0.00    -0.387 N 
HETATM   15  C12 UNL     1       1.498  -1.011   0.862  1.00  0.00     0.132 C 
HETATM   16  C13 UNL     1       2.272  -1.632   2.041  1.00  0.00     0.094 C 
HETATM   17  S1  UNL     1       3.856  -2.309   1.449  1.00  0.00    -0.157 SA
HETATM   18  C14 UNL     1       4.494  -1.157   0.204  1.00  0.00     0.017 C 
HETATM   19  C15 UNL     1       5.522  -1.826  -0.686  1.00  0.00     0.028 C 
HETATM   20  C16 UNL     1       5.066   0.028   0.929  1.00  0.00     0.028 C 
HETATM   21  C17 UNL     1       3.297  -0.778  -0.672  1.00  0.00     0.142 C 
ENDBRANCH  13  14
ENDBRANCH   7  13
BRANCH   6  22
HETATM   22  O2  UNL     1       2.271   3.897  -0.294  1.00  0.00    -0.360 OA
ATOM     23  H2  UNL     1       3.061   3.369  -0.288  1.00  0.00     0.217 HD
ENDBRANCH   6  22
BRANCH   1  24
HETATM   24  C4  UNL     1      -4.766   0.202  -1.166  1.00  0.00     0.065 C 
BRANCH  24  25
HETATM   25  C3  UNL     1      -5.279  -0.405   0.095  1.00  0.00     0.006 C 
BRANCH  25  26
HETATM   26  C2  UNL     1      -4.466  -1.482   0.712  1.00  0.00    -0.004 C 
HETATM   27  C1  UNL     1      -5.142  -2.001   1.977  1.00  0.00     0.005 C 
ENDBRANCH  25  26
ENDBRANCH  24  25
ENDBRANCH   1  24
TORSDOF 6
