REMARK  8 active torsions:
REMARK  status: ('A' for Active; 'I' for Inactive)
REMARK    1  A    between atoms: C2_2  and  O1_3 
REMARK    2  A    between atoms: O1_3  and  C3_4 
REMARK    3  A    between atoms: C5_6  and  C6_7 
REMARK    4  A    between atoms: C8_11  and  C9_12 
REMARK    5  A    between atoms: C9_12  and  C10_13 
REMARK    6  A    between atoms: C14_20  and  C15_21 
REMARK    7  A    between atoms: C16_22  and  C17_23 
REMARK    8  A    between atoms: C17_23  and  N3_24 
ROOT
HETATM    1  C3  UNL     1      -0.783   0.370  -0.306  1.00  0.00     0.105 A 
HETATM    2  C4  UNL     1       0.556   0.080  -0.411  1.00  0.00     0.055 A 
HETATM    3  C5  UNL     1       1.059  -1.192  -0.272  1.00  0.00     0.016 A 
HETATM    4  C13 UNL     1       0.184  -2.217  -0.016  1.00  0.00     0.103 A 
HETATM    5  N2  UNL     1      -1.151  -1.957   0.093  1.00  0.00    -0.356 N 
ATOM      6  H2  UNL     1      -1.798  -2.723   0.283  1.00  0.00     0.166 HD
HETATM    7  C14 UNL     1      -1.627  -0.708  -0.046  1.00  0.00     0.120 A 
ENDROOT
BRANCH   7   8
HETATM    8  C15 UNL     1      -3.036  -0.469   0.075  1.00  0.00    -0.043 C 
HETATM    9  C16 UNL     1      -4.221  -0.261   0.170  1.00  0.00    -0.060 C 
BRANCH   9  10
HETATM   10  C17 UNL     1      -5.649   0.013   0.282  1.00  0.00     0.186 C 
HETATM   11  C18 UNL     1      -6.398  -1.259   0.042  1.00  0.00     0.052 C 
HETATM   12  C19 UNL     1      -7.738  -0.835  -0.528  1.00  0.00     0.003 C 
HETATM   13  C20 UNL     1      -7.527   0.524  -1.144  1.00  0.00     0.003 C 
HETATM   14  C21 UNL     1      -6.132   0.954  -0.798  1.00  0.00     0.052 C 
BRANCH  10  15
HETATM   15  N3  UNL     1      -6.005   0.555   1.579  1.00  0.00    -0.059 N 
ATOM     16  H33 UNL     1      -5.687  -0.054   2.333  1.00  0.00     0.276 HD
ATOM     17  H32 UNL     1      -5.453   1.385   1.796  1.00  0.00     0.276 HD
ATOM     18  H31 UNL     1      -7.004   0.747   1.657  1.00  0.00     0.276 HD
ENDBRANCH  10  15
ENDBRANCH   9  10
ENDBRANCH   7   8
BRANCH   1  19
HETATM   19  O1  UNL     1      -1.287   1.659  -0.447  1.00  0.00    -0.348 OA
BRANCH  19  20
HETATM   20  C2  UNL     1      -0.358   2.693  -0.710  1.00  0.00     0.171 C 
HETATM   21  C1  UNL     1      -1.178   3.980  -0.816  1.00  0.00     0.034 C 
ENDBRANCH  19  20
ENDBRANCH   1  19
BRANCH   3  22
HETATM   22  C6  UNL     1       2.518  -1.425  -0.399  1.00  0.00     0.086 A 
HETATM   23  N1  UNL     1       3.185  -2.558  -0.300  1.00  0.00    -0.359 N 
HETATM   24  C7  UNL     1       4.468  -2.569  -0.441  1.00  0.00     0.103 A 
ATOM     25  H1  UNL     1       2.686  -3.428  -0.112  1.00  0.00     0.166 HD
HETATM   26  C8  UNL     1       5.098  -1.378  -0.695  1.00  0.00     0.000 A 
HETATM   27  S1  UNL     1       3.763  -0.293  -0.712  1.00  0.00    -0.075 SA
BRANCH  26  28
HETATM   28  C9  UNL     1       6.561  -1.125  -0.897  1.00  0.00     0.051 C 
BRANCH  28  29
HETATM   29  C10 UNL     1       7.245  -0.821   0.411  1.00  0.00    -0.018 C 
HETATM   30  C11 UNL     1       6.707   0.379   1.112  1.00  0.00     0.010 C 
HETATM   31  C12 UNL     1       8.709  -0.544   0.082  1.00  0.00     0.010 C 
ENDBRANCH  28  29
ENDBRANCH  26  28
ENDBRANCH   3  22
TORSDOF 8
