REMARK  7 active torsions:
REMARK  status: ('A' for Active; 'I' for Inactive)
REMARK    1  A    between atoms: C2_2  and  O1_6 
REMARK    2  A    between atoms: O1_6  and  C3_7 
REMARK    3  A    between atoms: C4_11  and  N3_12 
REMARK    4  A    between atoms: N3_12  and  N4_14 
REMARK    5  A    between atoms: N4_14  and  O2_16 
REMARK    6  A    between atoms: C5_18  and  C6_19 
REMARK    7  A    between atoms: C6_19  and  O3_20 
ROOT
HETATM    1  C3  UNL     1       0.523  -0.956  -0.392  1.00  0.00     0.478 C 
HETATM    2  N2  UNL     1      -0.052  -0.215   0.677  1.00  0.00     0.000 N 
ATOM      3  H21 UNL     1      -0.018   0.801   0.587  1.00  0.00     0.285 HD
ATOM      4  H22 UNL     1       0.459  -0.232   1.560  1.00  0.00     0.285 HD
HETATM    5  C4  UNL     1      -1.402  -0.822   0.695  1.00  0.00     0.337 C 
HETATM    6  C5  UNL     1      -1.699  -0.769  -0.760  1.00  0.00     0.201 C 
HETATM    7  O4  UNL     1      -0.452  -0.987  -1.379  1.00  0.00    -0.327 OA
ENDROOT
BRANCH   1   8
HETATM    8  O1  UNL     1       1.670  -0.372  -0.960  1.00  0.00    -0.285 OA
BRANCH   8   9
HETATM    9  C2  UNL     1       2.782  -0.147  -0.164  1.00  0.00     0.112 C 
HETATM   10  C1  UNL     1       3.789   0.915  -0.508  1.00  0.00     0.097 C 
HETATM   11  N1  UNL     1       2.890  -0.895   0.869  1.00  0.00    -0.384 N 
ATOM     12  H12 UNL     1       3.708  -0.729   1.455  1.00  0.00     0.157 HD
ATOM     13  H11 UNL     1       2.207  -1.616   1.102  1.00  0.00     0.157 HD
ENDBRANCH   8   9
ENDBRANCH   1   8
BRANCH   5  14
HETATM   14  N3  UNL     1      -2.304  -0.195   1.585  1.00  0.00    -0.284 N 
ATOM     15  H3  UNL     1      -2.707  -0.786   2.312  1.00  0.00     0.184 HD
BRANCH  14  16
HETATM   16  N4  UNL     1      -2.702   1.133   1.581  1.00  0.00    -0.212 N 
ATOM     17  H4  UNL     1      -3.243   1.454   0.778  1.00  0.00     0.215 HD
BRANCH  16  18
HETATM   18  O2  UNL     1      -2.459   1.959   2.462  1.00  0.00    -0.275 OA
ATOM     19  H2  UNL     1      -2.732   2.869   2.459  1.00  0.00     0.246 HD
ENDBRANCH  16  18
ENDBRANCH  14  16
ENDBRANCH   5  14
BRANCH   6  20
HETATM   20  C6  UNL     1      -2.305   0.494  -1.269  1.00  0.00     0.200 C 
BRANCH  20  21
HETATM   21  O3  UNL     1      -1.453   1.576  -1.038  1.00  0.00    -0.398 OA
ATOM     22  H3  UNL     1      -1.839   2.381  -1.362  1.00  0.00     0.209 HD
ENDBRANCH  20  21
ENDBRANCH   6  20
TORSDOF 7
