REMARK  7 active torsions:
REMARK  status: ('A' for Active; 'I' for Inactive)
REMARK    1  A    between atoms: C1_2  and  C2_4 
REMARK    2  A    between atoms: C2_4  and  N2_5 
REMARK    3  A    between atoms: C2_4  and  C3_9 
REMARK    4  A    between atoms: C3_9  and  N3_10 
REMARK    5  A    between atoms: C3_9  and  C4_14 
REMARK    6  A    between atoms: C5_15  and  N4_16 
REMARK    7  A    between atoms: N4_16  and  O2_18 
ROOT
HETATM    1  C3  UNL     1      -0.102  -0.299   0.298  1.00  0.00     0.265 C 
ENDROOT
BRANCH   1   2
HETATM    2  C2  UNL     1      -1.159   0.269  -0.596  1.00  0.00     0.306 C 
BRANCH   2   3
HETATM    3  C1  UNL     1      -2.523  -0.138  -0.164  1.00  0.00     0.264 C 
HETATM    4  N1  UNL     1      -3.019   0.098   1.134  1.00  0.00    -0.060 NA
HETATM    5  O1  UNL     1      -3.268  -0.714  -0.983  1.00  0.00    -0.274 OA
ENDBRANCH   2   3
BRANCH   2   6
HETATM    6  N2  UNL     1      -1.022  -0.137  -1.971  1.00  0.00    -0.065 N 
ATOM      7  H23 UNL     1      -1.212  -1.128  -2.119  1.00  0.00     0.275 HD
ATOM      8  H22 UNL     1      -1.760   0.227  -2.574  1.00  0.00     0.275 HD
ATOM      9  H21 UNL     1      -0.087   0.142  -2.267  1.00  0.00     0.275 HD
ENDBRANCH   2   6
ENDBRANCH   1   2
BRANCH   1  10
HETATM   10  N3  UNL     1      -0.121  -1.759   0.314  1.00  0.00    -0.068 N 
ATOM     11  H33 UNL     1      -1.045  -2.114   0.563  1.00  0.00     0.275 HD
ATOM     12  H32 UNL     1      -0.050  -2.140  -0.630  1.00  0.00     0.275 HD
ATOM     13  H31 UNL     1       0.600  -2.146   0.923  1.00  0.00     0.275 HD
ENDBRANCH   1  10
BRANCH   1  14
HETATM   14  C4  UNL     1       1.237   0.261   0.156  1.00  0.00     0.099 A 
HETATM   15  C5  UNL     1       2.365  -0.199   0.852  1.00  0.00     0.203 A 
HETATM   16  O3  UNL     1       3.359   0.544   0.464  1.00  0.00    -0.214 OA
HETATM   17  N5  UNL     1       2.994   1.420  -0.394  1.00  0.00    -0.223 N 
HETATM   18  C6  UNL     1       1.665   1.303  -0.640  1.00  0.00     0.278 A 
ATOM     19  H5  UNL     1       3.611   2.106  -0.829  1.00  0.00     0.198 HD
HETATM   20  O4  UNL     1       1.017   2.024  -1.438  1.00  0.00    -0.266 OA
BRANCH  15  21
HETATM   21  N4  UNL     1       2.421  -1.253   1.785  1.00  0.00    -0.245 N 
ATOM     22  H4  UNL     1       2.730  -2.157   1.428  1.00  0.00     0.196 HD
BRANCH  21  23
HETATM   23  O2  UNL     1       2.142  -1.207   2.972  1.00  0.00    -0.288 OA
ATOM     24  H2  UNL     1       2.180  -1.918   3.601  1.00  0.00     0.244 HD
ENDBRANCH  21  23
ENDBRANCH  15  21
ENDBRANCH   1  14
TORSDOF 7
