REMARK  6 active torsions:
REMARK  status: ('A' for Active; 'I' for Inactive)
REMARK    1  A    between atoms: C2_7  and  O1_8 
REMARK    2  A    between atoms: O1_8  and  C3_9 
REMARK    3  A    between atoms: C3_9  and  C4_10 
REMARK    4  A    between atoms: C4_10  and  O3_12 
REMARK    5  A    between atoms: O3_12  and  C5_13 
REMARK    6  A    between atoms: C6_17  and  N4_18 
ROOT
HETATM    1  N1  UNL     1      -3.272  -1.517  -1.179  1.00  0.00    -0.234 N 
ATOM      2  H11 UNL     1      -4.273  -1.454  -1.367  1.00  0.00     0.174 HD
ATOM      3  H12 UNL     1      -2.778  -2.389  -1.366  1.00  0.00     0.174 HD
HETATM    4  C1  UNL     1      -2.630  -0.516  -0.713  1.00  0.00     0.693 A 
HETATM    5  N2  UNL     1      -1.286  -0.600  -0.461  1.00  0.00    -0.154 N 
ATOM      6  H2  UNL     1      -0.782  -1.468  -0.644  1.00  0.00     0.188 HD
HETATM    7  C2  UNL     1      -0.636   0.468   0.029  1.00  0.00     0.252 A 
HETATM    8  N3  UNL     1      -1.342   1.606   0.260  1.00  0.00    -0.154 N 
ATOM      9  H3  UNL     1      -0.847   2.417   0.632  1.00  0.00     0.188 HD
HETATM   10  C6  UNL     1      -2.642   1.714   0.025  1.00  0.00     0.693 A 
HETATM   11  N5  UNL     1      -3.278   0.628  -0.468  1.00  0.00    -0.023 N 
ATOM     12  H5  UNL     1      -4.279   0.682  -0.658  1.00  0.00     0.203 HD
ENDROOT
BRANCH   7  13
HETATM   13  O1  UNL     1       0.724   0.420   0.296  1.00  0.00    -0.311 OA
BRANCH  13  14
HETATM   14  C3  UNL     1       1.432  -0.778   0.046  1.00  0.00     0.290 C 
BRANCH  14  15
HETATM   15  C4  UNL     1       2.858  -0.641   0.389  1.00  0.00     0.290 C 
HETATM   16  O2  UNL     1       3.366   0.415   0.845  1.00  0.00    -0.262 OA
BRANCH  15  17
HETATM   17  O3  UNL     1       3.706  -1.720   0.207  1.00  0.00    -0.251 OA
BRANCH  17  18
HETATM   18  C5  UNL     1       5.055  -1.698   0.495  1.00  0.00     0.406 C 
HETATM   19  O4  UNL     1       5.565  -0.644   0.951  1.00  0.00    -0.276 OA
ENDBRANCH  17  18
ENDBRANCH  15  17
ENDBRANCH  14  15
ENDBRANCH  13  14
ENDBRANCH   7  13
BRANCH  10  20
HETATM   20  N4  UNL     1      -3.310   2.795   0.245  1.00  0.00    -0.234 N 
ATOM     21  H42 UNL     1      -2.830   3.615   0.617  1.00  0.00     0.174 HD
ATOM     22  H41 UNL     1      -4.310   2.878   0.064  1.00  0.00     0.174 HD
ENDBRANCH  10  20
TORSDOF 6
