REMARK  6 active torsions:
REMARK  status: ('A' for Active; 'I' for Inactive)
REMARK    1  A    between atoms: C2_2  and  C3_3 
REMARK    2  A    between atoms: C3_3  and  C4_4 
REMARK    3  A    between atoms: N2_6  and  O1_8 
REMARK    4  A    between atoms: O1_8  and  C5_9 
REMARK    5  A    between atoms: N5_14  and  N6_16 
REMARK    6  A    between atoms: N6_16  and  O3_18 
ROOT
HETATM    1  C4  UNL     1      -0.543  -0.422   0.495  1.00  0.00     0.118 C 
HETATM    2  N1  UNL     1      -0.551   0.107  -0.825  1.00  0.00    -0.085 NA
HETATM    3  N2  UNL     1       0.486  -0.167   1.236  1.00  0.00    -0.252 N 
ATOM      4  H2  UNL     1       0.509  -0.538   2.186  1.00  0.00     0.195 HD
ENDROOT
BRANCH   1   5
HETATM    5  C3  UNL     1      -1.687  -1.220   0.942  1.00  0.00     0.128 C 
BRANCH   5   6
HETATM    6  C2  UNL     1      -2.967  -0.493   0.915  1.00  0.00     0.008 C 
HETATM    7  C1  UNL     1      -4.198  -1.181   1.340  1.00  0.00     0.065 C 
HETATM    8  N5  UNL     1      -3.016   0.720   0.528  1.00  0.00    -0.290 N 
ATOM      9  H5  UNL     1      -2.153   1.180   0.237  1.00  0.00     0.188 HD
BRANCH   8  10
HETATM   10  N6  UNL     1      -4.211   1.441   0.489  1.00  0.00    -0.210 N 
ATOM     11  H6  UNL     1      -5.089   0.941   0.349  1.00  0.00     0.215 HD
BRANCH  10  12
HETATM   12  O3  UNL     1      -4.233   2.669   0.620  1.00  0.00    -0.274 OA
ATOM     13  H3  UNL     1      -5.046   3.160   0.593  1.00  0.00     0.246 HD
ENDBRANCH  10  12
ENDBRANCH   8  10
ENDBRANCH   5   6
ENDBRANCH   1   5
BRANCH   3  14
HETATM   14  O1  UNL     1       1.539   0.576   0.801  1.00  0.00    -0.228 OA
BRANCH  14  15
HETATM   15  C5  UNL     1       2.437   0.198  -0.196  1.00  0.00     0.403 C 
HETATM   16  N3  UNL     1       3.798   0.043   0.342  1.00  0.00    -0.085 NA
HETATM   17  N4  UNL     1       4.535   0.206  -0.863  1.00  0.00    -0.118 NA
HETATM   18  C6  UNL     1       3.906   1.392  -1.395  1.00  0.00     0.302 C 
HETATM   19  O2  UNL     1       2.567   1.136  -1.219  1.00  0.00    -0.328 OA
ENDBRANCH  14  15
ENDBRANCH   3  14
TORSDOF 6
