REMARK  5 active torsions:
REMARK  status: ('A' for Active; 'I' for Inactive)
REMARK    1  A    between atoms: O1_2  and  C2_3 
REMARK    2  A    between atoms: C2_3  and  C3_7 
REMARK    3  A    between atoms: C3_7  and  N2_8 
REMARK    4  A    between atoms: N2_8  and  N3_9 
REMARK    5  A    between atoms: N3_9  and  C4_11 
ROOT
HETATM    1  N3  UNL     1       1.111  -0.562  -0.024  1.00  0.00    -0.298 N 
ATOM      2  H3  UNL     1       1.350  -1.541   0.135  1.00  0.00     0.182 HD
ENDROOT
BRANCH   1   3
HETATM    3  N2  UNL     1      -0.217  -0.207  -0.239  1.00  0.00    -0.133 NA
BRANCH   3   4
HETATM    4  C3  UNL     1      -1.136  -1.218   0.249  1.00  0.00     0.218 C 
BRANCH   4   5
HETATM    5  C2  UNL     1      -2.521  -0.750  -0.024  1.00  0.00     0.127 C 
HETATM    6  N1  UNL     1      -3.322  -1.444  -0.779  1.00  0.00    -0.382 N 
ATOM      7  H12 UNL     1      -4.272  -1.123  -0.966  1.00  0.00     0.158 HD
ATOM      8  H11 UNL     1      -2.962  -2.314  -1.171  1.00  0.00     0.158 HD
BRANCH   5   9
HETATM    9  O1  UNL     1      -3.007   0.423   0.504  1.00  0.00    -0.343 OA
HETATM   10  C1  UNL     1      -4.294   0.939   0.275  1.00  0.00     0.211 C 
ENDBRANCH   5   9
ENDBRANCH   4   5
ENDBRANCH   3   4
ENDBRANCH   1   3
BRANCH   1  11
HETATM   11  C4  UNL     1       2.140   0.420  -0.022  1.00  0.00     0.127 A 
HETATM   12  C5  UNL     1       3.506   0.368   0.157  1.00  0.00     0.132 A 
HETATM   13  N4  UNL     1       4.480  -0.629   0.411  1.00  0.00    -0.095 NA
HETATM   14  C6  UNL     1       3.532   1.749  -0.020  1.00  0.00     0.250 A 
HETATM   15  O2  UNL     1       4.461   2.589  -0.013  1.00  0.00    -0.282 OA
HETATM   16  C7  UNL     1       2.158   1.787  -0.199  1.00  0.00     0.253 A 
HETATM   17  O3  UNL     1       1.346   2.731  -0.426  1.00  0.00    -0.281 OA
ENDBRANCH   1  11
TORSDOF 5
