REMARK  6 active torsions:
REMARK  status: ('A' for Active; 'I' for Inactive)
REMARK    1  A    between atoms: C2_2  and  O1_3 
REMARK    2  A    between atoms: O1_3  and  C3_4 
REMARK    3  A    between atoms: C3_4  and  C4_6 
REMARK    4  A    between atoms: C4_6  and  N1_8 
REMARK    5  A    between atoms: N1_8  and  N2_9 
REMARK    6  A    between atoms: N2_9  and  C6_11 
ROOT
HETATM    1  C6  UNL     1      -1.659   0.617  -0.921  1.00  0.00     0.133 C 
HETATM    2  N3  UNL     1      -1.388   1.842  -0.722  1.00  0.00    -0.290 N 
ATOM      3  H3  UNL     1      -0.539   2.240  -1.123  1.00  0.00     0.188 HD
HETATM    4  N4  UNL     1      -2.229   2.646   0.031  1.00  0.00    -0.310 N 
ATOM      5  H4  UNL     1      -1.920   3.577   0.311  1.00  0.00     0.182 HD
HETATM    6  C7  UNL     1      -3.541   2.179   0.424  1.00  0.00     0.371 C 
HETATM    7  N5  UNL     1      -3.958   1.015  -0.293  1.00  0.00    -0.051 N 
ATOM      8  H51 UNL     1      -4.304   1.247  -1.224  1.00  0.00     0.279 HD
ATOM      9  H52 UNL     1      -4.815   0.619   0.093  1.00  0.00     0.279 HD
HETATM   10  C8  UNL     1      -2.888   0.039  -0.343  1.00  0.00     0.312 C 
ENDROOT
BRANCH   1  11
HETATM   11  N2  UNL     1      -0.796  -0.238  -1.702  1.00  0.00    -0.290 N 
ATOM     12  H2  UNL     1      -1.197  -0.905  -2.361  1.00  0.00     0.183 HD
BRANCH  11  13
HETATM   13  N1  UNL     1       0.582  -0.150  -1.553  1.00  0.00    -0.125 NA
BRANCH  13  14
HETATM   14  C4  UNL     1       0.938  -0.444  -0.199  1.00  0.00     0.195 C 
HETATM   15  C5  UNL     1       0.363  -1.753   0.269  1.00  0.00     0.040 C 
BRANCH  14  16
HETATM   16  C3  UNL     1       2.408  -0.364   0.027  1.00  0.00     0.284 C 
HETATM   17  O2  UNL     1       3.198  -0.064  -0.925  1.00  0.00    -0.263 OA
BRANCH  16  18
HETATM   18  O1  UNL     1       2.981  -0.607   1.258  1.00  0.00    -0.291 OA
BRANCH  18  19
HETATM   19  C2  UNL     1       4.343  -0.542   1.506  1.00  0.00     0.135 C 
HETATM   20  C1  UNL     1       5.059  -1.627   1.354  1.00  0.00     0.038 C 
ENDBRANCH  18  19
ENDBRANCH  16  18
ENDBRANCH  14  16
ENDBRANCH  13  14
ENDBRANCH  11  13
ENDBRANCH   1  11
TORSDOF 6
