REMARK  2 active torsions:
REMARK  status: ('A' for Active; 'I' for Inactive)
REMARK    1  A    between atoms: C5_5  and  O1_6 
REMARK    2  A    between atoms: C7_10  and  C8_11 
ROOT
HETATM    1  C1  UNL     1      -2.457   0.961   1.816  1.00  0.00     0.016 C 
HETATM    2  C2  UNL     1      -2.463   0.533   0.343  1.00  0.00    -0.023 C 
HETATM    3  C3  UNL     1      -3.739   1.173  -0.230  1.00  0.00     0.016 C 
HETATM    4  C4  UNL     1      -2.642  -0.935   0.282  1.00  0.00     0.047 C 
HETATM    5  C5  UNL     1      -1.946  -1.471  -0.953  1.00  0.00     0.161 C 
HETATM    6  C6  UNL     1      -0.493  -1.113  -0.734  1.00  0.00     0.037 A 
HETATM    7  S1  UNL     1       1.032  -1.880  -0.739  1.00  0.00    -0.070 SA
HETATM    8  C7  UNL     1       2.009  -0.535  -0.361  1.00  0.00     0.105 A 
HETATM    9  N4  UNL     1       1.119   0.430  -0.251  1.00  0.00    -0.350 N 
ATOM     10  H4  UNL     1       1.422   1.377  -0.024  1.00  0.00     0.166 HD
HETATM   11  C11 UNL     1      -0.135   0.181  -0.429  1.00  0.00     0.045 A 
HETATM   12  C12 UNL     1      -1.312   1.134  -0.350  1.00  0.00     0.141 C 
HETATM   13 CL1  UNL     1      -0.848   2.658   0.436  1.00  0.00    -0.118 Cl
ENDROOT
BRANCH   8  14
HETATM   14  C8  UNL     1       3.464  -0.518  -0.210  1.00  0.00     0.109 A 
HETATM   15  N1  UNL     1       4.320  -1.539  -0.335  1.00  0.00    -0.347 N 
HETATM   16  C9  UNL     1       5.571  -1.103  -0.118  1.00  0.00     0.182 A 
ATOM     17  H1  UNL     1       4.062  -2.500  -0.560  1.00  0.00     0.167 HD
HETATM   18  N2  UNL     1       5.529   0.218   0.152  1.00  0.00    -0.339 N 
HETATM   19  C10 UNL     1       4.218   0.578   0.094  1.00  0.00     0.147 A 
ATOM     20  H2  UNL     1       6.322   0.826   0.358  1.00  0.00     0.167 HD
HETATM   21  N3  UNL     1       3.709   1.888   0.314  1.00  0.00    -0.080 NA
ENDBRANCH   8  14
BRANCH   5  22
HETATM   22  O1  UNL     1      -2.041  -2.842  -1.071  1.00  0.00    -0.390 OA
ATOM     23  H1  UNL     1      -1.605  -3.178  -1.845  1.00  0.00     0.210 HD
ENDBRANCH   5  22
TORSDOF 2
