REMARK  4 active torsions:
REMARK  status: ('A' for Active; 'I' for Inactive)
REMARK    1  A    between atoms: C2_2  and  N1_5 
REMARK    2  A    between atoms: N1_5  and  C5_7 
REMARK    3  A    between atoms: C7_12  and  N3_13 
REMARK    4  A    between atoms: N3_13  and  C8_15 
ROOT
HETATM    1  C5  UNL     1      -1.297   0.097  -0.154  1.00  0.00     0.675 C 
HETATM    2  N2  UNL     1      -0.658   0.161   0.946  1.00  0.00    -0.188 N 
ATOM      3  H2  UNL     1      -0.997   0.914   1.545  1.00  0.00     0.181 HD
HETATM    4  C6  UNL     1       0.431  -0.572   1.555  1.00  0.00     0.353 C 
HETATM    5  F1  UNL     1       1.126   0.246   2.401  1.00  0.00    -0.218 F 
HETATM    6  C7  UNL     1       1.368  -1.151   0.572  1.00  0.00     0.135 C 
HETATM    7  N4  UNL     1       1.116  -1.688  -0.555  1.00  0.00    -0.349 N 
ATOM      8  H4  UNL     1       1.952  -2.011  -1.043  1.00  0.00     0.163 HD
HETATM    9  C14 UNL     1      -0.106  -1.937  -1.289  1.00  0.00     0.114 C 
HETATM   10  C15 UNL     1       0.243  -2.091  -2.775  1.00  0.00     0.063 C 
HETATM   11  C16 UNL     1      -0.765  -3.235  -0.877  1.00  0.00     0.063 C 
HETATM   12  N5  UNL     1      -1.051  -0.855  -1.197  1.00  0.00    -0.201 N 
ATOM     13  H5  UNL     1      -1.649  -0.747  -2.016  1.00  0.00     0.180 HD
ENDROOT
BRANCH   6  14
HETATM   14  N3  UNL     1       2.728  -1.089   0.960  1.00  0.00    -0.342 N 
ATOM     15  H3  UNL     1       3.078  -1.797   1.605  1.00  0.00     0.167 HD
BRANCH  14  16
HETATM   16  C8  UNL     1       3.628  -0.100   0.503  1.00  0.00     0.033 A 
HETATM   17  C9  UNL     1       4.936  -0.116   0.934  1.00  0.00     0.029 A 
HETATM   18  C10 UNL     1       5.855   0.846   0.503  1.00  0.00     0.002 A 
HETATM   19  C11 UNL     1       5.446   1.830  -0.370  1.00  0.00     0.000 A 
HETATM   20  C12 UNL     1       4.159   1.860  -0.805  1.00  0.00     0.002 A 
HETATM   21  C13 UNL     1       3.246   0.894  -0.369  1.00  0.00     0.029 A 
ENDBRANCH  14  16
ENDBRANCH   6  14
BRANCH   1  22
HETATM   22  N1  UNL     1      -2.350   1.041  -0.388  1.00  0.00    -0.218 N 
ATOM     23  H1  UNL     1      -2.384   1.525  -1.285  1.00  0.00     0.178 HD
BRANCH  22  24
HETATM   24  C2  UNL     1      -3.362   1.332   0.596  1.00  0.00     0.036 C 
HETATM   25  C1  UNL     1      -4.297   2.369  -0.000  1.00  0.00     0.038 C 
HETATM   26  C3  UNL     1      -2.787   1.911   1.866  1.00  0.00     0.038 C 
HETATM   27  C4  UNL     1      -4.224   0.106   0.891  1.00  0.00     0.038 C 
ENDBRANCH  22  24
ENDBRANCH   1  22
TORSDOF 4
