REMARK  2 active torsions:
REMARK  status: ('A' for Active; 'I' for Inactive)
REMARK    1  A    between atoms: S1_3  and  C4_6 
REMARK    2  A    between atoms: C5_9  and  N2_10 
REMARK       I    between atoms: N2_10  and  C6_12 
ROOT
HETATM    1  C1  UNL     1      -2.947  -1.212  -1.303  1.00  0.00     0.111 C 
HETATM    2  C2  UNL     1      -2.476  -0.200  -0.683  1.00  0.00    -0.102 C 
HETATM    3  S1  UNL     1      -1.959   1.189  -0.065  1.00  0.00    -0.001 SA
HETATM    4  C3  UNL     1      -1.711   2.255  -1.333  1.00  0.00     0.122 C 
HETATM    5  F1  UNL     1      -3.095   1.655   0.957  1.00  0.00    -0.171 F 
ENDROOT
BRANCH   3   6
HETATM    6  C4  UNL     1      -0.709   0.375   0.541  1.00  0.00     0.119 A 
HETATM    7  N1  UNL     1       0.357   0.360  -0.227  1.00  0.00    -0.333 N 
HETATM    8  C5  UNL     1       1.407  -0.329   0.242  1.00  0.00     0.131 A 
ATOM      9  H1  UNL     1       0.384   0.843  -1.125  1.00  0.00     0.168 HD
HETATM   10  C7  UNL     1       1.292  -0.972   1.482  1.00  0.00     0.101 A 
HETATM   11  C8  UNL     1       2.415  -1.710   1.990  1.00  0.00     0.104 C 
HETATM   12  C9  UNL     1       0.111  -0.928   2.265  1.00  0.00     0.026 A 
HETATM   13  N4  UNL     1       3.327  -2.306   2.381  1.00  0.00    -0.191 NA
HETATM   14  C10 UNL     1      -0.150  -1.571   3.456  1.00  0.00     0.083 A 
HETATM   15  C11 UNL     1      -0.935  -0.214   1.755  1.00  0.00     0.086 A 
HETATM   16  S2  UNL     1      -1.768  -1.165   3.778  1.00  0.00    -0.025 SA
HETATM   17  N5  UNL     1      -2.092  -0.215   2.452  1.00  0.00    -0.323 N 
ATOM     18  H5  UNL     1      -2.965   0.259   2.218  1.00  0.00     0.174 HD
BRANCH   8  19
HETATM   19  N2  UNL     1       2.619  -0.431  -0.475  1.00  0.00    -0.296 N 
HETATM   20  C6  UNL     1       2.998   0.097  -1.692  1.00  0.00     0.334 C 
HETATM   21  N3  UNL     1       2.221   0.903  -2.529  1.00  0.00    -0.040 NA
HETATM   22  O1  UNL     1       4.181  -0.152  -2.139  1.00  0.00    -0.251 OA
ATOM     23  H2  UNL     1       3.337  -0.991  -0.015  1.00  0.00     0.171 HD
ENDBRANCH   8  19
ENDBRANCH   3   6
TORSDOF 2
