REMARK  13 active torsions:
REMARK  status: ('A' for Active; 'I' for Inactive)
REMARK    1  A    between atoms: C2_2  and  C11_32 
REMARK    2  A    between atoms: N1_3  and  O1_5 
REMARK    3  A    between atoms: O1_5  and  C3_6 
REMARK    4  A    between atoms: C3_6  and  C5_8 
REMARK    5  A    between atoms: C5_8  and  O4_20 
REMARK    6  A    between atoms: N2_9  and  O2_11 
REMARK    7  A    between atoms: O2_11  and  C6_12 
REMARK    8  A    between atoms: C6_12  and  C7_14 
REMARK    9  A    between atoms: C7_14  and  N3_16 
REMARK   10  A    between atoms: O4_20  and  N4_21 
REMARK       I    between atoms: N4_21  and  C10_23 
REMARK       I    between atoms: C10_23  and  N5_24 
REMARK       I    between atoms: C10_23  and  N6_28 
REMARK   11  A    between atoms: C13_36  and  C14_37 
REMARK   12  A    between atoms: C19_46  and  O7_47 
REMARK   13  A    between atoms: C20_49  and  O8_50 
ROOT
HETATM    1  C3  UNL     1       0.957  -1.783  -1.611  1.00  0.00     0.226 C 
HETATM    2  C4  UNL     1       1.214  -2.895  -2.638  1.00  0.00     0.051 C 
ENDROOT
BRANCH   1   3
HETATM    3  O1  UNL     1       0.173  -2.258  -0.560  1.00  0.00    -0.267 OA
BRANCH   3   4
HETATM    4  N1  UNL     1      -1.128  -1.904  -0.377  1.00  0.00    -0.268 N 
HETATM    5  C2  UNL     1      -1.607  -0.852   0.125  1.00  0.00     0.058 C 
HETATM    6  C1  UNL     1      -0.773   0.253   0.636  1.00  0.00     0.072 C 
ATOM      7  H1  UNL     1      -1.815  -2.589  -0.692  1.00  0.00     0.194 HD
BRANCH   5   8
HETATM    8  C11 UNL     1      -3.076  -0.715   0.208  1.00  0.00     0.093 A 
HETATM    9  N7  UNL     1      -3.645   0.381   0.732  1.00  0.00    -0.351 N 
HETATM   10  C12 UNL     1      -4.997   0.496   0.803  1.00  0.00     0.066 A 
ATOM     11  H7  UNL     1      -3.056   1.137   1.081  1.00  0.00     0.166 HD
HETATM   12  C13 UNL     1      -5.577   1.636   1.348  1.00  0.00     0.052 A 
HETATM   13  C18 UNL     1      -5.853  -0.480   0.352  1.00  0.00     0.096 A 
HETATM   14  C15 UNL     1      -6.941   1.758   1.422  1.00  0.00     0.024 A 
HETATM   15  C16 UNL     1      -7.563   2.977   2.006  1.00  0.00     0.069 C 
HETATM   16  N8  UNL     1      -7.753   0.768   0.964  1.00  0.00    -0.326 N 
HETATM   17  C17 UNL     1      -7.212  -0.358   0.426  1.00  0.00     0.261 A 
ATOM     18  H8  UNL     1      -8.766   0.870   1.024  1.00  0.00     0.169 HD
HETATM   19  O6  UNL     1      -8.000  -1.254   0.012  1.00  0.00    -0.267 OA
HETATM   20  C19 UNL     1      -5.278  -1.633  -0.200  1.00  0.00     0.119 A 
HETATM   21  C20 UNL     1      -3.908  -1.728  -0.261  1.00  0.00     0.129 A 
BRANCH  12  22
HETATM   22  C14 UNL     1      -4.727   2.711   1.847  1.00  0.00     0.274 C 
HETATM   23  O5  UNL     1      -4.365   2.683   3.052  1.00  0.00    -0.301 OA
ENDBRANCH  12  22
BRANCH  20  24
HETATM   24  O7  UNL     1      -6.159  -2.586  -0.640  1.00  0.00    -0.357 OA
ATOM     25  H7  UNL     1      -5.769  -3.367  -1.014  1.00  0.00     0.218 HD
ENDBRANCH  20  24
BRANCH  21  26
HETATM   26  O8  UNL     1      -3.308  -2.846  -0.796  1.00  0.00    -0.356 OA
ATOM     27  H8  UNL     1      -3.876  -3.537  -1.116  1.00  0.00     0.218 HD
ENDBRANCH  21  26
ENDBRANCH   5   8
ENDBRANCH   3   4
ENDBRANCH   1   3
BRANCH   1  28
HETATM   28  C5  UNL     1       2.263  -1.220  -1.203  1.00  0.00     0.191 C 
HETATM   29  N2  UNL     1       2.626  -1.250   0.032  1.00  0.00    -0.235 N 
ATOM     30  H2  UNL     1       1.979  -1.673   0.697  1.00  0.00     0.197 HD
BRANCH  29  31
HETATM   31  O2  UNL     1       3.791  -0.769   0.524  1.00  0.00    -0.196 OA
BRANCH  31  32
HETATM   32  C6  UNL     1       3.920   0.102   1.570  1.00  0.00     0.311 C 
HETATM   33  O3  UNL     1       2.884   0.509   2.146  1.00  0.00    -0.261 OA
BRANCH  32  34
HETATM   34  C7  UNL     1       5.228   0.601   2.074  1.00  0.00     0.280 C 
HETATM   35  C8  UNL     1       5.979  -0.617   2.629  1.00  0.00     0.051 C 
BRANCH  34  36
HETATM   36  N3  UNL     1       5.063   1.509   3.184  1.00  0.00    -0.066 N 
ATOM     37  H33 UNL     1       4.439   2.279   2.944  1.00  0.00     0.275 HD
ATOM     38  H32 UNL     1       4.514   1.086   3.932  1.00  0.00     0.275 HD
ATOM     39  H31 UNL     1       5.960   1.851   3.530  1.00  0.00     0.275 HD
ENDBRANCH  34  36
ENDBRANCH  32  34
ENDBRANCH  31  32
ENDBRANCH  29  31
BRANCH  28  40
HETATM   40  O4  UNL     1       3.147  -0.644  -2.103  1.00  0.00    -0.240 OA
BRANCH  40  41
HETATM   41  N4  UNL     1       4.055   0.307  -1.775  1.00  0.00    -0.139 NA
HETATM   42  C9  UNL     1       3.510   1.636  -1.991  1.00  0.00     0.149 C 
HETATM   43  C10 UNL     1       5.297   0.185  -2.513  1.00  0.00     0.479 C 
HETATM   44  N5  UNL     1       5.940  -1.082  -2.283  1.00  0.00    -0.035 N 
HETATM   45  N6  UNL     1       6.194   1.220  -1.991  1.00  0.00    -0.035 N 
ATOM     46  H53 UNL     1       6.084  -1.248  -1.287  1.00  0.00     0.278 HD
ATOM     47  H52 UNL     1       5.311  -1.858  -2.487  1.00  0.00     0.278 HD
ATOM     48  H51 UNL     1       6.814  -1.168  -2.802  1.00  0.00     0.278 HD
ATOM     49  H63 UNL     1       5.793   2.157  -2.027  1.00  0.00     0.278 HD
ATOM     50  H62 UNL     1       6.319   1.174  -0.980  1.00  0.00     0.278 HD
ATOM     51  H61 UNL     1       7.068   1.134  -2.510  1.00  0.00     0.278 HD
ENDBRANCH  40  41
ENDBRANCH  28  40
ENDBRANCH   1  28
TORSDOF 13
