REMARK  16 active torsions:
REMARK  status: ('A' for Active; 'I' for Inactive)
REMARK    1  A    between atoms: C4_4  and  C5_5 
REMARK    2  A    between atoms: C5_5  and  O1_7 
REMARK    3  A    between atoms: O1_7  and  C7_8 
REMARK    4  A    between atoms: C7_8  and  C8_9 
REMARK    5  A    between atoms: C8_9  and  C9_10 
REMARK    6  A    between atoms: C8_9  and  N6_22 
REMARK    7  A    between atoms: C9_10  and  N1_11 
REMARK    8  A    between atoms: C10_16  and  N4_17 
REMARK    9  A    between atoms: N6_22  and  N7_24 
REMARK   10  A    between atoms: N10_37  and  C16_38 
REMARK   11  A    between atoms: C16_38  and  C17_39 
REMARK   12  A    between atoms: C17_39  and  C18_40 
REMARK   13  A    between atoms: C18_40  and  C19_41 
REMARK   14  A    between atoms: C19_41  and  O2_42 
REMARK   15  A    between atoms: C20_44  and  N11_45 
REMARK   16  A    between atoms: N12_48  and  N13_49 
ROOT
HETATM    1  C1  UNL     1       0.928  -1.058   3.508  1.00  0.00     0.050 C 
HETATM    2  C2  UNL     1       0.398  -0.261   2.367  1.00  0.00    -0.031 A 
HETATM    3  C3  UNL     1       1.209   0.434   1.520  1.00  0.00     0.036 A 
HETATM    4  C4  UNL     1       0.750   1.180   0.456  1.00  0.00     0.039 A 
HETATM    5  N8  UNL     1      -0.581   1.207   0.266  1.00  0.00    -0.355 N 
ATOM      6  H8  UNL     1      -0.965   1.747  -0.509  1.00  0.00     0.166 HD
HETATM    7  C11 UNL     1      -1.428   0.526   1.090  1.00  0.00     0.077 A 
HETATM    8  C12 UNL     1      -0.972  -0.222   2.156  1.00  0.00     0.068 A 
HETATM    9  N9  UNL     1      -2.032  -0.778   2.787  1.00  0.00    -0.337 N 
ATOM     10  H9  UNL     1      -1.972  -1.379   3.609  1.00  0.00     0.167 HD
HETATM   11  C13 UNL     1      -3.178  -0.423   2.173  1.00  0.00     0.161 A 
HETATM   12  C14 UNL     1      -2.801   0.386   1.121  1.00  0.00     0.078 A 
HETATM   13  C15 UNL     1      -3.786   0.900   0.311  1.00  0.00     0.135 A 
HETATM   14  S1  UNL     1      -3.375   1.848  -0.926  1.00  0.00    -0.059 SA
HETATM   15  N10 UNL     1      -5.071   0.613   0.552  1.00  0.00    -0.167 N 
HETATM   16  C20 UNL     1      -5.400  -0.183   1.591  1.00  0.00     0.702 A 
HETATM   17  N12 UNL     1      -4.490  -0.715   2.417  1.00  0.00    -0.075 N 
ENDROOT
BRANCH   4  18
HETATM   18  C5  UNL     1       1.705   1.910  -0.421  1.00  0.00     0.167 C 
HETATM   19  C6  UNL     1       0.979   2.442  -1.642  1.00  0.00     0.046 C 
BRANCH  18  20
HETATM   20  O1  UNL     1       2.773   1.112  -0.746  1.00  0.00    -0.374 OA
BRANCH  20  21
HETATM   21  C7  UNL     1       3.961   1.705  -0.281  1.00  0.00     0.224 C 
BRANCH  21  22
HETATM   22  C8  UNL     1       5.151   0.896  -0.597  1.00  0.00     0.048 C 
BRANCH  22  23
HETATM   23  C9  UNL     1       5.305  -0.492  -0.094  1.00  0.00     0.227 C 
BRANCH  23  24
HETATM   24  N1  UNL     1       6.541  -1.093  -0.525  1.00  0.00    -0.199 N 
HETATM   25  N2  UNL     1       7.729  -1.094   0.051  1.00  0.00    -0.211 N 
HETATM   26  N3  UNL     1       8.586  -1.768  -0.690  1.00  0.00    -0.115 N 
ATOM     27  H2  UNL     1       7.951  -0.641   0.937  1.00  0.00     0.210 HD
HETATM   28  C10 UNL     1       7.931  -2.214  -1.777  1.00  0.00     0.707 A 
ATOM     29  H3  UNL     1       9.571  -1.924  -0.477  1.00  0.00     0.207 HD
HETATM   30  N5  UNL     1       6.668  -1.777  -1.639  1.00  0.00    -0.113 N 
ATOM     31  H5  UNL     1       5.915  -1.952  -2.305  1.00  0.00     0.207 HD
BRANCH  28  32
HETATM   32  N4  UNL     1       8.396  -2.923  -2.769  1.00  0.00    -0.232 N 
ATOM     33  H42 UNL     1       9.355  -3.255  -2.874  1.00  0.00     0.174 HD
ATOM     34  H41 UNL     1       7.899  -3.261  -3.593  1.00  0.00     0.174 HD
ENDBRANCH  28  32
ENDBRANCH  23  24
ENDBRANCH  22  23
BRANCH  22  35
HETATM   35  N6  UNL     1       6.106   1.365  -1.326  1.00  0.00    -0.311 N 
ATOM     36  H6  UNL     1       6.925   0.795  -1.539  1.00  0.00     0.185 HD
BRANCH  35  37
HETATM   37  N7  UNL     1       5.999   2.660  -1.816  1.00  0.00    -0.345 N 
ATOM     38  H72 UNL     1       5.174   3.217  -1.594  1.00  0.00     0.176 HD
ATOM     39  H71 UNL     1       6.754   3.031  -2.393  1.00  0.00     0.176 HD
ENDBRANCH  35  37
ENDBRANCH  22  35
ENDBRANCH  21  22
ENDBRANCH  20  21
ENDBRANCH  18  20
ENDBRANCH   4  18
BRANCH  17  40
HETATM   40  N13 UNL     1      -4.815  -1.538   3.493  1.00  0.00    -0.322 N 
ATOM     41 2H13 UNL     1      -4.122  -1.943   4.122  1.00  0.00     0.178 HD
ATOM     42 1H13 UNL     1      -5.795  -1.756   3.675  1.00  0.00     0.178 HD
ENDBRANCH  17  40
BRANCH  15  43
HETATM   43  C16 UNL     1      -6.080   1.164  -0.311  1.00  0.00     0.176 C 
BRANCH  43  44
HETATM   44  C17 UNL     1      -6.368   0.245  -1.471  1.00  0.00    -0.008 C 
BRANCH  44  45
HETATM   45  C18 UNL     1      -5.731  -0.907  -1.605  1.00  0.00    -0.004 C 
BRANCH  45  46
HETATM   46  C19 UNL     1      -6.040  -1.782  -2.755  1.00  0.00     0.191 C 
BRANCH  46  47
HETATM   47  O2  UNL     1      -4.940  -2.027  -3.568  1.00  0.00    -0.397 OA
ATOM     48  H2  UNL     1      -5.139  -2.590  -4.307  1.00  0.00     0.209 HD
ENDBRANCH  46  47
ENDBRANCH  45  46
ENDBRANCH  44  45
ENDBRANCH  43  44
ENDBRANCH  15  43
BRANCH  16  49
HETATM   49  N11 UNL     1      -6.651  -0.429   1.780  1.00  0.00    -0.233 N 
ATOM     50 2H11 UNL     1      -7.344  -0.024   1.151  1.00  0.00     0.174 HD
ATOM     51 1H11 UNL     1      -6.900  -1.031   2.565  1.00  0.00     0.174 HD
ENDBRANCH  16  49
TORSDOF 16
