REMARK  10 active torsions:
REMARK  status: ('A' for Active; 'I' for Inactive)
REMARK    1  A    between atoms: C5_8  and  C6_9 
REMARK    2  A    between atoms: C6_9  and  N3_10 
REMARK    3  A    between atoms: N3_10  and  N4_11 
REMARK       I    between atoms: N4_11  and  C7_13 
REMARK    4  A    between atoms: C7_13  and  C8_15 
REMARK    5  A    between atoms: C8_15  and  N5_16 
REMARK    6  A    between atoms: N5_16  and  N6_18 
REMARK    7  A    between atoms: N6_18  and  C9_20 
REMARK    8  A    between atoms: C13_26  and  N8_27 
REMARK    9  A    between atoms: N13_41  and  N14_42 
REMARK   10  A    between atoms: C17_45  and  C18_46 
ROOT
HETATM    1  C1  UNL     1      -7.750   0.223   1.773  1.00  0.00     0.069 C 
HETATM    2  C2  UNL     1      -6.692   0.367   0.731  1.00  0.00     0.024 A 
HETATM    3  N1  UNL     1      -5.951   1.443   0.470  1.00  0.00    -0.350 N 
ATOM      4  H1  UNL     1      -6.065   2.348   0.927  1.00  0.00     0.166 HD
HETATM    5  C3  UNL     1      -5.036   1.179  -0.473  1.00  0.00     0.128 A 
HETATM    6  C4  UNL     1      -4.082   2.158  -1.006  1.00  0.00     0.118 C 
HETATM    7  N2  UNL     1      -3.338   2.965  -1.414  1.00  0.00    -0.190 NA
HETATM    8  C5  UNL     1      -5.159  -0.112  -0.865  1.00  0.00     0.051 A 
HETATM    9  C17 UNL     1      -6.226  -0.650  -0.102  1.00  0.00     0.078 A 
ENDROOT
BRANCH   8  10
HETATM   10  C6  UNL     1      -4.152  -0.971  -1.518  1.00  0.00     0.224 C 
BRANCH  10  11
HETATM   11  N3  UNL     1      -3.037  -0.623  -1.651  1.00  0.00    -0.335 NA
BRANCH  11  12
HETATM   12  N4  UNL     1      -1.828  -0.118  -1.736  1.00  0.00    -0.198 N 
HETATM   13  C7  UNL     1      -0.977  -0.574  -0.575  1.00  0.00     0.302 C 
HETATM   14  O1  UNL     1      -1.574  -1.365   0.245  1.00  0.00    -0.263 OA
ATOM     15  H4  UNL     1      -1.508   0.498  -2.483  1.00  0.00     0.205 HD
BRANCH  13  16
HETATM   16  C8  UNL     1       0.389  -0.209  -0.360  1.00  0.00     0.168 C 
HETATM   17  C16 UNL     1       0.684   1.174  -0.119  1.00  0.00     0.196 A 
HETATM   18  N10 UNL     1       0.886   2.157  -0.998  1.00  0.00    -0.265 N 
HETATM   19  N13 UNL     1       0.849   1.735   1.133  1.00  0.00    -0.167 N 
HETATM   20  N11 UNL     1       1.163   3.272  -0.351  1.00  0.00    -0.225 N 
ATOM     21  H10 UNL     1       0.834   2.061  -2.012  1.00  0.00     0.190 HD
HETATM   22  N12 UNL     1       1.141   3.000   0.923  1.00  0.00    -0.205 N 
ATOM     23  H11 UNL     1       1.359   4.181  -0.771  1.00  0.00     0.210 HD
ATOM     24  H12 UNL     1       1.326   3.679   1.661  1.00  0.00     0.212 HD
BRANCH  16  25
HETATM   25  N5  UNL     1       1.241  -1.047  -1.175  1.00  0.00    -0.278 N 
ATOM     26  H5  UNL     1       1.140  -1.077  -2.190  1.00  0.00     0.188 HD
BRANCH  25  27
HETATM   27  N6  UNL     1       2.204  -1.811  -0.523  1.00  0.00    -0.131 N 
ATOM     28  H6  UNL     1       1.952  -2.689  -0.070  1.00  0.00     0.205 HD
BRANCH  27  29
HETATM   29  C9  UNL     1       3.437  -1.382  -0.502  1.00  0.00     0.698 A 
HETATM   30  N7  UNL     1       3.800  -0.239  -1.085  1.00  0.00    -0.188 N 
HETATM   31  C10 UNL     1       5.108  -0.042  -0.801  1.00  0.00     0.076 A 
ATOM     32  H7  UNL     1       3.203   0.373  -1.641  1.00  0.00     0.184 HD
HETATM   33  C11 UNL     1       5.991   0.962  -1.108  1.00  0.00     0.035 A 
HETATM   34  C15 UNL     1       5.535  -1.117  -0.019  1.00  0.00     0.079 A 
HETATM   35  C12 UNL     1       7.289   0.918  -0.661  1.00  0.00     0.038 A 
HETATM   36  C13 UNL     1       7.702  -0.146   0.102  1.00  0.00     0.105 A 
HETATM   37  C14 UNL     1       6.836  -1.174   0.432  1.00  0.00     0.068 A 
HETATM   38  N9  UNL     1       4.470  -1.917   0.139  1.00  0.00    -0.188 N 
ATOM     39  H9  UNL     1       4.456  -2.791   0.664  1.00  0.00     0.184 HD
BRANCH  36  40
HETATM   40  N8  UNL     1       9.018  -0.204   0.621  1.00  0.00    -0.116 N 
HETATM   41  O2  UNL     1       9.843   0.665   0.333  1.00  0.00    -0.532 OA
HETATM   42  O3  UNL     1       9.414  -1.239   1.448  1.00  0.00    -0.532 OA
ENDBRANCH  36  40
ENDBRANCH  27  29
ENDBRANCH  25  27
ENDBRANCH  16  25
BRANCH  19  43
HETATM   43  N14 UNL     1       0.736   1.087   2.384  1.00  0.00    -0.321 N 
ATOM     44 2H14 UNL     1       0.510   0.106   2.547  1.00  0.00     0.179 HD
ATOM     45 1H14 UNL     1       0.858   1.501   3.308  1.00  0.00     0.179 HD
ENDBRANCH  19  43
ENDBRANCH  13  16
ENDBRANCH  11  12
ENDBRANCH  10  11
ENDBRANCH   8  10
BRANCH   9  46
HETATM   46  C18 UNL     1      -6.644  -2.027  -0.077  1.00  0.00     0.212 C 
HETATM   47  O4  UNL     1      -6.306  -2.944  -0.849  1.00  0.00    -0.644 OA
HETATM   48  O5  UNL     1      -7.537  -2.436   0.936  1.00  0.00    -0.644 OA
ENDBRANCH   9  46
TORSDOF 10
