REMARK  6 active torsions:
REMARK  status: ('A' for Active; 'I' for Inactive)
REMARK    1  A    between atoms: C9_10  and  C11_12 
REMARK    2  A    between atoms: C11_12  and  O1_13 
REMARK    3  A    between atoms: O1_13  and  C12_14 
REMARK    4  A    between atoms: C12_14  and  O2_15 
REMARK    5  A    between atoms: C12_14  and  C13_17 
REMARK    6  A    between atoms: C15_19  and  O3_20 
ROOT
HETATM    1  C1  UNL     1      -1.219  -2.325   1.029  1.00  0.00     0.015 C 
HETATM    2  C2  UNL     1      -1.214  -1.340   0.148  1.00  0.00    -0.068 C 
HETATM    3  C3  UNL     1      -2.510  -0.632  -0.077  1.00  0.00     0.077 C 
HETATM    4  C4  UNL     1      -2.713   0.328   1.052  1.00  0.00    -0.004 C 
HETATM    5  C5  UNL     1      -4.204   0.292   1.404  1.00  0.00     0.011 C 
HETATM    6  C6  UNL     1      -2.314   1.731   0.762  1.00  0.00     0.035 C 
HETATM    7  C7  UNL     1      -1.293   1.920  -0.291  1.00  0.00     0.276 C 
HETATM    8  N1  UNL     1      -1.284   0.947  -1.335  1.00  0.00     0.118 N 
HETATM    9  C8  UNL     1      -0.083   0.197  -1.456  1.00  0.00     0.291 C 
HETATM   10  C9  UNL     1       0.032  -0.988  -0.556  1.00  0.00     0.027 C 
HETATM   11  C10 UNL     1       0.435  -2.226  -1.373  1.00  0.00     0.024 C 
HETATM   12  C15 UNL     1      -2.483   0.149  -1.362  1.00  0.00     0.365 C 
ENDROOT
BRANCH  10  13
HETATM   13  C11 UNL     1       1.194  -0.787   0.428  1.00  0.00     0.186 C 
BRANCH  13  14
HETATM   14  O1  UNL     1       2.318  -0.460  -0.324  1.00  0.00    -0.360 OA
BRANCH  14  15
HETATM   15  C12 UNL     1       3.441  -0.250   0.428  1.00  0.00     0.256 C 
BRANCH  15  16
HETATM   16  O2  UNL     1       4.434  -1.146  -0.018  1.00  0.00    -0.371 OA
ATOM     17  H2  UNL     1       5.214  -1.000   0.504  1.00  0.00     0.212 HD
ENDBRANCH  15  16
BRANCH  15  18
HETATM   18  C13 UNL     1       4.002   1.140   0.205  1.00  0.00     0.056 C 
HETATM   19  C14 UNL     1       5.234   1.261   1.081  1.00  0.00     0.010 C 
ENDBRANCH  15  18
ENDBRANCH  14  15
ENDBRANCH  13  14
ENDBRANCH  10  13
BRANCH  12  20
HETATM   20  O3  UNL     1      -3.562   0.988  -1.470  1.00  0.00    -0.367 OA
ATOM     21  H3  UNL     1      -3.545   1.481  -2.282  1.00  0.00     0.212 HD
ENDBRANCH  12  20
TORSDOF 6
