REMARK  0 active torsions:
REMARK  status: ('A' for Active; 'I' for Inactive)
ROOT
HETATM    1  C1  UNL     1      -1.939   1.424   0.092  1.00  0.00     0.049 C 
HETATM    2  C2  UNL     1      -1.119   0.194  -0.328  1.00  0.00     0.091 C 
HETATM    3  C3  UNL     1      -1.894  -0.663  -1.255  1.00  0.00     0.049 C 
HETATM    4  C4  UNL     1      -0.692  -0.472   0.944  1.00  0.00     0.067 C 
HETATM    5  C5  UNL     1      -0.060  -1.814   0.752  1.00  0.00     0.179 C 
HETATM    6  O1  UNL     1       1.049  -1.870  -0.046  1.00  0.00    -0.344 OA
HETATM    7  C6  UNL     1       1.920  -0.976  -0.529  1.00  0.00     0.114 C 
HETATM    8  S1  UNL     1       2.427  -0.960  -2.083  1.00  0.00    -0.058 SA
HETATM    9  C7  UNL     1       2.479   0.069   0.356  1.00  0.00     0.106 C 
HETATM   10  C8  UNL     1       1.926   1.443   0.052  1.00  0.00     0.217 C 
HETATM   11  O2  UNL     1       0.561   1.474   0.064  1.00  0.00    -0.240 OA
HETATM   12  O3  UNL     1       0.050   0.730  -0.908  1.00  0.00    -0.230 OA
ENDROOT
TORSDOF 0
