REMARK  0 active torsions:
REMARK  status: ('A' for Active; 'I' for Inactive)
ROOT
HETATM    1  C1  UNL     1      -2.522  -1.499  -0.266  1.00  0.00     0.049 C 
HETATM    2  C2  UNL     1      -1.563  -0.466   0.233  1.00  0.00     0.093 C 
HETATM    3  C3  UNL     1      -2.367   0.795   0.551  1.00  0.00     0.049 C 
HETATM    4  C4  UNL     1      -0.542  -0.061  -0.838  1.00  0.00     0.105 C 
HETATM    5  C5  UNL     1       0.731  -0.277  -0.086  1.00  0.00     0.195 C 
HETATM    6  O1  UNL     1       0.379  -1.226   0.856  1.00  0.00    -0.206 OA
HETATM    7  O2  UNL     1      -0.791  -0.871   1.295  1.00  0.00    -0.228 OA
HETATM    8  S1  UNL     1       2.137  -0.689  -1.081  1.00  0.00    -0.116 SA
HETATM    9  C6  UNL     1       3.345   0.620  -0.645  1.00  0.00     0.088 C 
HETATM   10  C7  UNL     1       3.088   0.845   0.813  1.00  0.00     0.088 C 
HETATM   11  S2  UNL     1       1.288   1.222   0.787  1.00  0.00    -0.116 SA
ENDROOT
TORSDOF 0
