REMARK  0 active torsions:
REMARK  status: ('A' for Active; 'I' for Inactive)
ROOT
HETATM    1  C1  UNL     1      -2.486   0.212   0.391  1.00  0.00     0.021 C 
HETATM    2  C2  UNL     1      -1.667  -0.526  -0.615  1.00  0.00     0.074 C 
HETATM    3  S1  UNL     1      -0.406  -1.594   0.174  1.00  0.00    -0.169 SA
HETATM    4  C3  UNL     1       1.190  -1.431  -0.688  1.00  0.00     0.074 C 
HETATM    5  C4  UNL     1       2.202  -0.780   0.205  1.00  0.00     0.021 C 
HETATM    6  C5  UNL     1       2.529   0.642  -0.216  1.00  0.00     0.087 C 
HETATM    7  S2  UNL     1       1.022   1.609  -0.400  1.00  0.00    -0.098 SA
HETATM    8  S3  UNL     1      -0.155   1.325   1.350  1.00  0.00    -0.098 SA
HETATM    9  C6  UNL     1      -1.887   1.478   0.883  1.00  0.00     0.087 C 
ENDROOT
TORSDOF 0
