REMARK  0 active torsions:
REMARK  status: ('A' for Active; 'I' for Inactive)
ROOT
HETATM    1  C1  UNL     1      -1.753   0.690  -0.194  1.00  0.00     0.011 C 
HETATM    2  C2  UNL     1      -1.973  -0.652   0.472  1.00  0.00     0.011 C 
HETATM    3  C3  UNL     1      -1.274  -1.750  -0.262  1.00  0.00     0.076 C 
HETATM    4  S1  UNL     1       0.187  -1.107  -1.068  1.00  0.00    -0.140 SA
HETATM    5  C4  UNL     1       1.671  -1.180  -0.098  1.00  0.00     0.184 A 
HETATM    6  N1  UNL     1       1.581  -0.964   1.291  1.00  0.00    -0.324 N 
ATOM      7  H1  UNL     1       1.183  -1.555   2.021  1.00  0.00     0.181 HD
HETATM    8  N2  UNL     1       2.123   0.150   1.376  1.00  0.00    -0.331 N 
ATOM      9  H2  UNL     1       2.334   0.792   2.140  1.00  0.00     0.180 HD
HETATM   10  C5  UNL     1       2.324   0.162  -0.004  1.00  0.00     0.142 A 
HETATM   11  C6  UNL     1       1.727   1.214  -0.841  1.00  0.00     0.103 C 
HETATM   12  S2  UNL     1       0.512   2.274  -0.155  1.00  0.00    -0.167 SA
HETATM   13  C7  UNL     1      -0.886   1.595   0.667  1.00  0.00     0.074 C 
ENDROOT
TORSDOF 0
