REMARK  0 active torsions:
REMARK  status: ('A' for Active; 'I' for Inactive)
ROOT
HETATM    1  C1  UNL     1      -1.745   0.765   1.039  1.00  0.00     0.061 C 
HETATM    2  C2  UNL     1      -1.546   0.284  -0.356  1.00  0.00     0.137 C 
HETATM    3  C3  UNL     1      -2.900   0.308  -1.082  1.00  0.00     0.061 C 
HETATM    4  O1  UNL     1      -0.673   1.009  -1.113  1.00  0.00    -0.216 OA
HETATM    5  O2  UNL     1       0.285   1.595  -0.481  1.00  0.00    -0.197 OA
HETATM    6  C4  UNL     1       1.452   0.897  -0.373  1.00  0.00     0.220 A 
HETATM    7  C5  UNL     1       2.201   1.071   0.914  1.00  0.00     0.085 C 
HETATM    8  O3  UNL     1       2.272   0.637  -1.452  1.00  0.00    -0.340 OA
HETATM    9  C6  UNL     1       1.389  -0.337  -1.128  1.00  0.00     0.191 A 
HETATM   10  C7  UNL     1       1.694  -1.514  -0.280  1.00  0.00     0.048 C 
HETATM   11  C8  UNL     1       0.435  -1.778   0.560  1.00  0.00     0.080 C 
HETATM   12  S1  UNL     1      -1.027  -1.470  -0.418  1.00  0.00    -0.129 SA
ENDROOT
TORSDOF 0
