REMARK  4 active torsions:
REMARK  status: ('A' for Active; 'I' for Inactive)
REMARK    1  A    between atoms: C2_2  and  N1_4 
REMARK    2  A    between atoms: C7_8  and  C8_9 
REMARK    3  A    between atoms: C8_9  and  C9_10 
REMARK    4  A    between atoms: N4_18  and  C13_20 
ROOT
HETATM    1  C9  UNL     1      -1.209   1.599  -0.794  1.00  0.00     0.079 A 
HETATM    2  N2  UNL     1      -2.076   2.302  -1.599  1.00  0.00    -0.340 N 
ATOM      3  H2  UNL     1      -1.804   3.063  -2.221  1.00  0.00     0.167 HD
HETATM    4  C10 UNL     1      -3.320   1.849  -1.451  1.00  0.00     0.097 A 
HETATM    5  C11 UNL     1      -4.420   2.282  -2.063  1.00  0.00     0.063 C 
HETATM    6  N3  UNL     1      -3.312   0.852  -0.559  1.00  0.00    -0.328 N 
ATOM      7  H3  UNL     1      -4.118   0.313  -0.243  1.00  0.00     0.169 HD
HETATM    8  C12 UNL     1      -2.010   0.693  -0.150  1.00  0.00     0.130 A 
HETATM    9  N4  UNL     1      -1.676  -0.193   0.707  1.00  0.00    -0.375 N 
ATOM     10  H4  UNL     1      -0.702  -0.293   0.994  1.00  0.00     0.161 HD
ENDROOT
BRANCH   1  11
HETATM   11  C8  UNL     1       0.073   1.844  -0.748  1.00  0.00     0.046 C 
BRANCH  11  12
HETATM   12  C7  UNL     1       1.116   1.232   0.013  1.00  0.00    -0.018 A 
HETATM   13  C6  UNL     1       1.460   1.729   1.252  1.00  0.00     0.014 A 
HETATM   14  C5  UNL     1       2.486   1.179   1.999  1.00  0.00     0.019 A 
HETATM   15  C4  UNL     1       3.175   0.108   1.484  1.00  0.00     0.096 A 
HETATM   16  N1  UNL     1       2.864  -0.412   0.262  1.00  0.00    -0.337 N 
HETATM   17  C15 UNL     1       1.864   0.139  -0.444  1.00  0.00     0.107 A 
BRANCH  16  18
HETATM   18  C2  UNL     1       3.622  -1.517  -0.198  1.00  0.00     0.002 C 
HETATM   19  C1  UNL     1       3.378  -2.064  -1.367  1.00  0.00     0.038 C 
HETATM   20  C3  UNL     1       4.712  -2.078   0.643  1.00  0.00     0.068 C 
ENDBRANCH  16  18
ENDBRANCH  11  12
ENDBRANCH   1  11
BRANCH   9  21
HETATM   21  C13 UNL     1      -2.711  -1.064   1.273  1.00  0.00     0.116 C 
HETATM   22  C14 UNL     1      -3.157  -2.107   0.291  1.00  0.00     0.026 C 
ENDBRANCH   9  21
TORSDOF 4
