REMARK  6 active torsions:
REMARK  status: ('A' for Active; 'I' for Inactive)
REMARK    1  A    between atoms: C3_3  and  C4_4 
REMARK    2  A    between atoms: C5_5  and  C6_6 
REMARK    3  A    between atoms: C6_6  and  N1_7 
REMARK       I    between atoms: N1_7  and  C7_9 
REMARK    4  A    between atoms: C7_9  and  C8_11 
REMARK    5  A    between atoms: C8_11  and  N2_12 
REMARK    6  A    between atoms: C14_18  and  N3_19 
ROOT
HETATM    1  C1  UNL     1       6.587   2.415   0.729  1.00  0.00     0.113 C 
HETATM    2  C2  UNL     1       5.687   1.280   0.479  1.00  0.00    -0.097 C 
HETATM    3  C3  UNL     1       4.958   0.333   0.284  1.00  0.00    -0.015 C 
ENDROOT
BRANCH   3   4
HETATM    4  C4  UNL     1       4.120  -0.794   0.062  1.00  0.00    -0.013 C 
HETATM    5  C5  UNL     1       3.419  -1.768  -0.119  1.00  0.00    -0.073 C 
BRANCH   5   6
HETATM    6  C6  UNL     1       2.588  -2.957  -0.323  1.00  0.00     0.218 C 
BRANCH   6   7
HETATM    7  N1  UNL     1       1.321  -2.516  -0.874  1.00  0.00    -0.349 N 
HETATM    8  C7  UNL     1       0.473  -1.608  -0.167  1.00  0.00     0.244 C 
HETATM    9  O1  UNL     1       0.876  -1.206   0.959  1.00  0.00    -0.272 OA
ATOM     10  H1  UNL     1       1.028  -2.862  -1.788  1.00  0.00     0.163 HD
BRANCH   8  11
HETATM   11  C8  UNL     1      -0.797  -1.193  -0.768  1.00  0.00     0.341 C 
BRANCH  11  12
HETATM   12  N2  UNL     1      -1.581  -0.275   0.023  1.00  0.00    -0.041 N 
HETATM   13  C9  UNL     1      -1.629  -0.628   1.407  1.00  0.00     0.275 C 
HETATM   14  C10 UNL     1      -0.976   1.041  -0.116  1.00  0.00     0.240 C 
HETATM   15  C11 UNL     1      -1.682   2.072   0.732  1.00  0.00     0.028 C 
HETATM   16  C12 UNL     1      -3.167   2.014   0.599  1.00  0.00     0.005 C 
HETATM   17  C13 UNL     1      -3.560   1.110  -0.518  1.00  0.00     0.056 C 
HETATM   18  C14 UNL     1      -2.936  -0.241  -0.513  1.00  0.00     0.302 C 
BRANCH  18  19
HETATM   19  N3  UNL     1      -3.718  -1.233   0.145  1.00  0.00    -0.312 N 
HETATM   20  N4  UNL     1      -4.928  -1.113   0.395  1.00  0.00    -0.347 N 
ATOM     21  H42 UNL     1      -5.375  -0.243   0.104  1.00  0.00     0.176 HD
ATOM     22  H41 UNL     1      -5.488  -1.823   0.866  1.00  0.00     0.176 HD
ATOM     23  H3  UNL     1      -3.255  -2.096   0.429  1.00  0.00     0.182 HD
ENDBRANCH  18  19
ENDBRANCH  11  12
ENDBRANCH   8  11
ENDBRANCH   6   7
ENDBRANCH   5   6
ENDBRANCH   3   4
TORSDOF 6
