REMARK  7 active torsions:
REMARK  status: ('A' for Active; 'I' for Inactive)
REMARK    1  A    between atoms: C3_3  and  C6_6 
REMARK    2  A    between atoms: C6_6  and  N1_7 
REMARK    3  A    between atoms: C6_6  and  C7_11 
REMARK    4  A    between atoms: N1_7  and  N2_8 
REMARK       I    between atoms: C7_11  and  N3_13 
REMARK    5  A    between atoms: C8_15  and  N4_16 
REMARK    6  A    between atoms: C8_15  and  S1_23 
REMARK    7  A    between atoms: N4_16  and  N5_18 
ROOT
HETATM    1  C1  UNL     1       2.532   1.970  -1.638  1.00  0.00     0.013 C 
HETATM    2  C2  UNL     1       2.544   0.961  -0.961  1.00  0.00    -0.100 C 
HETATM    3  C3  UNL     1       2.572  -0.256  -0.148  1.00  0.00     0.079 C 
HETATM    4  C4  UNL     1       3.578  -1.265  -0.659  1.00  0.00     0.037 C 
HETATM    5  C5  UNL     1       3.067   0.173   1.234  1.00  0.00     0.037 C 
ENDROOT
BRANCH   3   6
HETATM    6  C6  UNL     1       1.218  -0.838  -0.078  1.00  0.00     0.195 C 
BRANCH   6   7
HETATM    7  N1  UNL     1       1.058  -1.998  -0.519  1.00  0.00    -0.330 NA
BRANCH   7   8
HETATM    8  N2  UNL     1       0.745  -3.059  -1.104  1.00  0.00    -0.280 N 
ATOM      9  H22 UNL     1       0.097  -2.530  -1.688  1.00  0.00     0.191 HD
ATOM     10  H21 UNL     1       0.615  -4.005  -1.463  1.00  0.00     0.191 HD
ENDBRANCH   7   8
ENDBRANCH   6   7
BRANCH   6  11
HETATM   11  C7  UNL     1       0.074  -0.131   0.475  1.00  0.00     0.287 C 
HETATM   12  O1  UNL     1       0.193   1.045   0.939  1.00  0.00    -0.265 OA
HETATM   13  N3  UNL     1      -1.198  -0.713   0.518  1.00  0.00    -0.300 N 
HETATM   14  C8  UNL     1      -2.245   0.019   0.383  1.00  0.00     0.162 C 
ATOM     15  H3  UNL     1      -1.294  -1.719   0.657  1.00  0.00     0.171 HD
BRANCH  14  16
HETATM   16  N4  UNL     1      -3.518  -0.602   0.431  1.00  0.00    -0.266 N 
ATOM     17  H4  UNL     1      -4.313  -0.084   0.805  1.00  0.00     0.190 HD
BRANCH  16  18
HETATM   18  N5  UNL     1      -3.706  -1.905  -0.022  1.00  0.00    -0.247 N 
HETATM   19  N6  UNL     1      -4.824  -2.459   0.036  1.00  0.00    -0.331 N 
ATOM     20  H62 UNL     1      -5.605  -1.932   0.426  1.00  0.00     0.178 HD
ATOM     21  H61 UNL     1      -4.962  -3.414  -0.296  1.00  0.00     0.178 HD
ATOM     22  H5  UNL     1      -2.914  -2.418  -0.409  1.00  0.00     0.207 HD
ENDBRANCH  16  18
ENDBRANCH  14  16
BRANCH  14  23
HETATM   23  S1  UNL     1      -2.190   1.787   0.135  1.00  0.00    -0.097 SA
HETATM   24  C9  UNL     1      -3.832   2.495  -0.016  1.00  0.00     0.099 C 
ENDBRANCH  14  23
ENDBRANCH   6  11
ENDBRANCH   3   6
TORSDOF 7
