REMARK  9 active torsions:
REMARK  status: ('A' for Active; 'I' for Inactive)
REMARK    1  A    between atoms: C2_2  and  C3_4 
REMARK    2  A    between atoms: C7_11  and  C8_12 
REMARK    3  A    between atoms: C9_15  and  C10_16 
REMARK       I    between atoms: C10_16  and  N4_18 
REMARK    4  A    between atoms: N4_18  and  C11_19 
REMARK    5  A    between atoms: N4_18  and  C13_25 
REMARK    6  A    between atoms: C11_19  and  C12_20 
REMARK    7  A    between atoms: C12_20  and  O4_21 
REMARK    8  A    between atoms: O4_21  and  N5_22 
REMARK    9  A    between atoms: C13_25  and  C14_26 
ROOT
HETATM    1  C10 UNL     1       0.866  -0.197   0.608  1.00  0.00     0.259 C 
HETATM    2  O3  UNL     1       0.894   0.340   1.718  1.00  0.00    -0.267 OA
HETATM    3  N4  UNL     1      -0.441  -0.581   0.117  1.00  0.00    -0.323 N 
ENDROOT
BRANCH   3   4
HETATM    4  C11 UNL     1      -0.571  -1.208  -1.184  1.00  0.00     0.160 C 
BRANCH   4   5
HETATM    5  C12 UNL     1      -0.679  -0.379  -2.382  1.00  0.00     0.220 C 
BRANCH   5   6
HETATM    6  O4  UNL     1      -0.790  -1.183  -3.557  1.00  0.00    -0.286 OA
BRANCH   6   7
HETATM    7  N5  UNL     1      -0.888  -0.421  -4.643  1.00  0.00    -0.311 N 
ATOM      8  H52 UNL     1      -0.883   0.599  -4.623  1.00  0.00     0.184 HD
ATOM      9  H51 UNL     1      -0.967  -0.995  -5.482  1.00  0.00     0.184 HD
ENDBRANCH   6   7
ENDBRANCH   5   6
ENDBRANCH   4   5
ENDBRANCH   3   4
BRANCH   3  10
HETATM   10  C13 UNL     1      -1.583  -0.469   0.938  1.00  0.00     0.099 C 
BRANCH  10  11
HETATM   11  C14 UNL     1      -2.532   0.605   1.076  1.00  0.00     0.077 C 
HETATM   12  C15 UNL     1      -2.097   1.959   1.545  1.00  0.00     0.039 C 
HETATM   13  C16 UNL     1      -3.215   2.418   2.515  1.00  0.00     0.023 C 
HETATM   14  C17 UNL     1      -3.352   1.090   3.283  1.00  0.00     0.129 C 
HETATM   15  N6  UNL     1      -3.476   0.184   2.157  1.00  0.00    -0.319 N 
HETATM   16  C18 UNL     1      -4.279  -0.950   1.914  1.00  0.00     0.326 C 
HETATM   17  O5  UNL     1      -4.639  -1.715   2.873  1.00  0.00    -0.247 OA
HETATM   18  N7  UNL     1      -4.698  -1.254   0.600  1.00  0.00    -0.279 N 
HETATM   19  C19 UNL     1      -4.266  -0.364  -0.440  1.00  0.00     0.228 C 
ATOM     20  H7  UNL     1      -5.280  -2.067   0.400  1.00  0.00     0.173 HD
HETATM   21  O6  UNL     1      -4.549  -0.575  -1.647  1.00  0.00    -0.273 OA
HETATM   22  C20 UNL     1      -3.466   0.842  -0.116  1.00  0.00     0.140 C 
ENDBRANCH  10  11
ENDBRANCH   3  10
BRANCH   1  23
HETATM   23  C9  UNL     1       2.122  -0.404  -0.100  1.00  0.00     0.067 C 
HETATM   24  C3  UNL     1       2.867   0.749  -0.577  1.00  0.00     0.048 C 
HETATM   25  C4  UNL     1       4.137   0.554  -0.970  1.00  0.00     0.021 C 
HETATM   26  C5  UNL     1       4.926   1.673  -1.582  1.00  0.00     0.069 C 
HETATM   27  N1  UNL     1       4.846  -0.658  -0.716  1.00  0.00    -0.347 N 
HETATM   28  C6  UNL     1       4.164  -1.673  -0.027  1.00  0.00     0.133 C 
ATOM     29  H1  UNL     1       5.811  -0.782  -1.023  1.00  0.00     0.167 HD
HETATM   30  N2  UNL     1       4.933  -2.875   0.228  1.00  0.00    -0.082 NA
HETATM   31  C7  UNL     1       2.904  -1.545   0.364  1.00  0.00     0.087 C 
BRANCH  24  32
HETATM   32  C2  UNL     1       2.322   2.112  -0.771  1.00  0.00     0.158 C 
HETATM   33  C1  UNL     1       0.988   2.595  -0.410  1.00  0.00     0.097 C 
HETATM   34  O1  UNL     1       3.069   3.004  -1.308  1.00  0.00    -0.293 OA
ENDBRANCH  24  32
BRANCH  31  35
HETATM   35  C8  UNL     1       2.410  -2.703   1.084  1.00  0.00     0.269 C 
HETATM   36  N3  UNL     1       1.136  -2.803   1.623  1.00  0.00    -0.057 NA
HETATM   37  O2  UNL     1       3.155  -3.703   1.256  1.00  0.00    -0.271 OA
ENDBRANCH  31  35
ENDBRANCH   1  23
TORSDOF 9
