REMARK  9 active torsions:
REMARK  status: ('A' for Active; 'I' for Inactive)
REMARK    1  A    between atoms: C2_2  and  N1_3 
REMARK    2  A    between atoms: N1_3  and  N2_4 
REMARK       I    between atoms: N2_4  and  C3_6 
REMARK    3  A    between atoms: C3_6  and  C4_8 
REMARK    4  A    between atoms: C7_11  and  O2_12 
REMARK       I    between atoms: N3_15  and  C9_16 
REMARK    5  A    between atoms: C9_16  and  C10_18 
REMARK    6  A    between atoms: C10_18  and  C11_19 
REMARK    7  A    between atoms: C11_19  and  O4_20 
REMARK    8  A    between atoms: O4_20  and  C12_21 
REMARK    9  A    between atoms: C13_24  and  C14_25 
ROOT
HETATM    1  C11 UNL     1      -0.306  -2.277   0.700  1.00  0.00     0.186 C 
ENDROOT
BRANCH   1   2
HETATM    2  C10 UNL     1       0.066  -0.846   0.911  1.00  0.00     0.129 C 
BRANCH   2   3
HETATM    3  C9  UNL     1       1.529  -0.621   0.618  1.00  0.00     0.222 C 
HETATM    4  N3  UNL     1       2.109   0.643   0.704  1.00  0.00    -0.336 N 
HETATM    5  C4  UNL     1       3.430   1.079   0.439  1.00  0.00     0.180 C 
HETATM    6  C8  UNL     1       1.240   1.758   1.221  1.00  0.00     0.158 C 
HETATM    7  C5  UNL     1       4.085   1.245   1.813  1.00  0.00     0.038 C 
HETATM    8  C6  UNL     1       3.355   2.389   2.472  1.00  0.00     0.036 C 
HETATM    9  C7  UNL     1       1.876   2.306   2.477  1.00  0.00     0.136 C 
HETATM   10  O3  UNL     1       2.169  -1.634   0.298  1.00  0.00    -0.273 OA
BRANCH   5  11
HETATM   11  C3  UNL     1       4.236   0.441  -0.567  1.00  0.00     0.256 C 
HETATM   12  N2  UNL     1       5.622   0.847  -0.680  1.00  0.00    -0.272 N 
ATOM     13  H2  UNL     1       5.984   1.566  -0.054  1.00  0.00     0.185 HD
HETATM   14  O1  UNL     1       3.889  -0.452  -1.392  1.00  0.00    -0.270 OA
BRANCH  12  15
HETATM   15  N1  UNL     1       6.473   0.275  -1.628  1.00  0.00    -0.139 NA
BRANCH  15  16
HETATM   16  C2  UNL     1       6.942  -1.030  -1.226  1.00  0.00     0.130 C 
HETATM   17  C1  UNL     1       7.839  -1.682  -2.205  1.00  0.00     0.024 C 
ENDBRANCH  15  16
ENDBRANCH  12  15
ENDBRANCH   5  11
BRANCH   9  18
HETATM   18  O2  UNL     1       1.367   3.597   2.661  1.00  0.00    -0.394 OA
ATOM     19  H2  UNL     1       0.418   3.544   2.664  1.00  0.00     0.210 HD
ENDBRANCH   9  18
ENDBRANCH   2   3
ENDBRANCH   1   2
BRANCH   1  20
HETATM   20  O4  UNL     1      -1.620  -2.608   0.938  1.00  0.00    -0.334 OA
BRANCH  20  21
HETATM   21  C12 UNL     1      -2.759  -2.119   0.332  1.00  0.00     0.167 A 
HETATM   22  N4  UNL     1      -3.460  -1.015   0.631  1.00  0.00    -0.334 N 
HETATM   23  C13 UNL     1      -4.536  -0.868  -0.202  1.00  0.00     0.053 A 
ATOM     24  H4  UNL     1      -3.222  -0.368   1.383  1.00  0.00     0.168 HD
HETATM   25  C19 UNL     1      -4.529  -1.925  -1.079  1.00  0.00     0.061 A 
HETATM   26  C20 UNL     1      -3.403  -2.698  -0.725  1.00  0.00     0.099 A 
HETATM   27  N7  UNL     1      -2.989  -3.884  -1.351  1.00  0.00    -0.098 NA
BRANCH  23  28
HETATM   28  C14 UNL     1      -5.561   0.152  -0.113  1.00  0.00     0.081 A 
HETATM   29  C15 UNL     1      -6.346   0.538  -1.142  1.00  0.00     0.028 A 
HETATM   30  C16 UNL     1      -6.140   0.081  -2.529  1.00  0.00     0.069 C 
HETATM   31  N5  UNL     1      -7.356   1.435  -0.970  1.00  0.00    -0.312 N 
HETATM   32  C17 UNL     1      -7.612   1.972   0.220  1.00  0.00     0.327 A 
ATOM     33  H5  UNL     1      -7.929   1.701  -1.771  1.00  0.00     0.170 HD
HETATM   34  O5  UNL     1      -8.551   2.811   0.398  1.00  0.00    -0.247 OA
HETATM   35  N6  UNL     1      -6.843   1.604   1.254  1.00  0.00    -0.275 N 
HETATM   36  C18 UNL     1      -5.829   0.720   1.149  1.00  0.00     0.263 A 
ATOM     37  H6  UNL     1      -7.034   2.014   2.168  1.00  0.00     0.173 HD
HETATM   38  O6  UNL     1      -5.175   0.440   2.164  1.00  0.00    -0.267 OA
ENDBRANCH  23  28
ENDBRANCH  20  21
ENDBRANCH   1  20
TORSDOF 9
