REMARK  9 active torsions:
REMARK  status: ('A' for Active; 'I' for Inactive)
REMARK    1  A    between atoms: C3_4  and  C4_5 
REMARK    2  A    between atoms: C4_5  and  N1_6 
REMARK       I    between atoms: N1_6  and  C5_7 
REMARK    3  A    between atoms: C5_7  and  C6_9 
REMARK    4  A    between atoms: C6_9  and  C7_10 
REMARK    5  A    between atoms: C7_10  and  N2_11 
REMARK    6  A    between atoms: C10_14  and  N3_15 
REMARK       I    between atoms: N3_15  and  C11_17 
REMARK       I    between atoms: C11_17  and  N4_19 
REMARK    7  A    between atoms: N4_19  and  C12_21 
REMARK    8  A    between atoms: C16_29  and  N6_30 
REMARK    9  A    between atoms: C20_38  and  N7_39 
ROOT
HETATM    1  N2  UNL     1       0.427  -0.570  -0.626  1.00  0.00    -0.373 N 
HETATM    2  C8  UNL     1      -0.095   0.176  -1.661  1.00  0.00     0.065 C 
HETATM    3  C9  UNL     1      -1.504  -0.007  -2.126  1.00  0.00     0.070 C 
HETATM    4  C10 UNL     1      -2.444  -0.376  -1.042  1.00  0.00     0.092 C 
HETATM    5  C17 UNL     1      -1.726  -0.239   0.311  1.00  0.00     0.045 C 
HETATM    6  C18 UNL     1      -0.508  -1.189   0.232  1.00  0.00     0.129 C 
ENDROOT
BRANCH   4   7
HETATM    7  N3  UNL     1      -3.639   0.434  -1.054  1.00  0.00    -0.338 N 
HETATM    8  C11 UNL     1      -4.876  -0.139  -0.669  1.00  0.00     0.320 C 
HETATM    9  O3  UNL     1      -4.899  -1.371  -0.294  1.00  0.00    -0.247 OA
HETATM   10  N4  UNL     1      -6.088   0.578  -0.677  1.00  0.00    -0.310 N 
ATOM     11  H4  UNL     1      -6.112   1.543  -1.005  1.00  0.00     0.170 HD
ATOM     12  H3  UNL     1      -3.593   1.413  -1.338  1.00  0.00     0.164 HD
BRANCH  10  13
HETATM   13  C12 UNL     1      -7.296  -0.064  -0.217  1.00  0.00     0.058 C 
HETATM   14  C13 UNL     1      -8.256  -0.405  -1.051  1.00  0.00     0.102 C 
HETATM   15  C14 UNL     1      -9.486  -1.063  -0.706  1.00  0.00     0.249 C 
HETATM   16  O4  UNL     1     -10.383  -1.353  -1.569  1.00  0.00    -0.268 OA
HETATM   17  N5  UNL     1      -9.703  -1.409   0.673  1.00  0.00    -0.292 N 
HETATM   18  C15 UNL     1      -8.642  -1.052   1.549  1.00  0.00     0.261 C 
ATOM     19  H5  UNL     1     -10.551  -1.874   0.997  1.00  0.00     0.172 HD
HETATM   20  O5  UNL     1      -8.703  -1.584   2.716  1.00  0.00    -0.270 OA
HETATM   21  C16 UNL     1      -7.520  -0.163   1.250  1.00  0.00     0.324 C 
BRANCH  21  22
HETATM   22  N6  UNL     1      -6.337  -0.375   2.023  1.00  0.00    -0.061 N 
ATOM     23  H63 UNL     1      -5.837  -1.197   1.685  1.00  0.00     0.275 HD
ATOM     24  H62 UNL     1      -5.647   0.348   1.819  1.00  0.00     0.275 HD
ATOM     25  H61 UNL     1      -6.491  -0.443   3.029  1.00  0.00     0.275 HD
ENDBRANCH  21  22
ENDBRANCH  10  13
ENDBRANCH   4   7
BRANCH   1  26
HETATM   26  C7  UNL     1       1.662  -1.211  -0.653  1.00  0.00     0.073 C 
BRANCH  26  27
HETATM   27  C6  UNL     1       2.911  -0.408  -0.665  1.00  0.00     0.163 C 
BRANCH  27  28
HETATM   28  C5  UNL     1       2.994   0.503   0.557  1.00  0.00     0.291 C 
HETATM   29  N1  UNL     1       4.158   1.123   0.916  1.00  0.00    -0.412 NA
HETATM   30  O2  UNL     1       1.908   0.658   1.221  1.00  0.00    -0.257 OA
BRANCH  29  31
HETATM   31  C4  UNL     1       5.304   1.736   1.273  1.00  0.00     0.256 C 
BRANCH  31  32
HETATM   32  C3  UNL     1       6.496   1.214   0.389  1.00  0.00     0.183 C 
HETATM   33  O1  UNL     1       7.645   1.870   0.784  1.00  0.00    -0.338 OA
HETATM   34  C2  UNL     1       8.886   1.228   0.809  1.00  0.00     0.110 C 
HETATM   35  C1  UNL     1       9.909   2.002   1.142  1.00  0.00     0.055 C 
HETATM   36  C20 UNL     1       8.970  -0.168   0.486  1.00  0.00     0.169 C 
HETATM   37  O6  UNL     1       7.762  -0.819   0.152  1.00  0.00    -0.331 OA
HETATM   38  C19 UNL     1       6.618  -0.266   0.806  1.00  0.00     0.212 C 
BRANCH  36  39
HETATM   39  N7  UNL     1      10.089  -0.792   0.507  1.00  0.00    -0.378 N 
ATOM     40  H72 UNL     1      10.961  -0.322   0.748  1.00  0.00     0.158 HD
ATOM     41  H71 UNL     1      10.149  -1.784   0.277  1.00  0.00     0.158 HD
ENDBRANCH  36  39
ENDBRANCH  31  32
ENDBRANCH  29  31
ENDBRANCH  27  28
ENDBRANCH  26  27
ENDBRANCH   1  26
TORSDOF 9
