REMARK  18 active torsions:
REMARK  status: ('A' for Active; 'I' for Inactive)
REMARK    1  A    between atoms: C2_2  and  C3_3 
REMARK    2  A    between atoms: C3_3  and  C4_4 
REMARK    3  A    between atoms: C4_4  and  N1_5 
REMARK    4  A    between atoms: C5_7  and  C6_8 
REMARK    5  A    between atoms: C5_7  and  N6_29 
REMARK    6  A    between atoms: C6_8  and  C7_9 
REMARK    7  A    between atoms: C7_9  and  N2_10 
REMARK    8  A    between atoms: N2_10  and  C8_11 
REMARK       I    between atoms: N2_10  and  C12_19 
REMARK    9  A    between atoms: C8_11  and  C9_12 
REMARK   10  A    between atoms: C9_12  and  C10_13 
REMARK   11  A    between atoms: C10_13  and  N3_14 
REMARK   12  A    between atoms: N3_14  and  C11_16 
REMARK   13  A    between atoms: C12_19  and  C13_21 
REMARK   14  A    between atoms: N6_29  and  C18_31 
REMARK   15  A    between atoms: C18_31  and  C19_32 
REMARK   16  A    between atoms: C19_32  and  C20_33 
REMARK   17  A    between atoms: C20_33  and  C21_34 
REMARK   18  A    between atoms: C21_34  and  N7_35 
ROOT
HETATM    1  N1  UNL     1      -0.018  -1.691  -1.379  1.00  0.00    -0.380 N 
ATOM      2  H1  UNL     1      -0.774  -2.204  -0.926  1.00  0.00     0.160 HD
HETATM    3  C5  UNL     1       0.020  -0.459  -1.088  1.00  0.00     0.074 C 
ENDROOT
BRANCH   3   4
HETATM    4  C6  UNL     1      -1.061   0.022  -0.123  1.00  0.00     0.096 C 
BRANCH   4   5
HETATM    5  C7  UNL     1      -2.309  -0.644  -0.595  1.00  0.00     0.133 C 
BRANCH   5   6
HETATM    6  N2  UNL     1      -3.529  -0.405   0.079  1.00  0.00    -0.350 N 
HETATM    7  C12 UNL     1      -4.432   0.601  -0.296  1.00  0.00     0.250 C 
HETATM    8  O1  UNL     1      -5.509   0.713   0.387  1.00  0.00    -0.271 OA
BRANCH   6   9
HETATM    9  C8  UNL     1      -3.931  -1.275   1.199  1.00  0.00     0.127 C 
BRANCH   9  10
HETATM   10  C9  UNL     1      -3.496  -0.635   2.486  1.00  0.00     0.039 C 
BRANCH  10  11
HETATM   11  C10 UNL     1      -3.930  -1.537   3.636  1.00  0.00     0.123 C 
BRANCH  11  12
HETATM   12  N3  UNL     1      -3.307  -2.824   3.475  1.00  0.00    -0.369 N 
ATOM     13  H3  UNL     1      -3.887  -3.626   3.227  1.00  0.00     0.161 HD
BRANCH  12  14
HETATM   14  C11 UNL     1      -1.922  -3.012   3.649  1.00  0.00     0.180 C 
HETATM   15  N4  UNL     1      -1.362  -4.329   3.460  1.00  0.00    -0.070 NA
HETATM   16  S1  UNL     1      -0.863  -1.855   4.074  1.00  0.00    -0.044 SA
ENDBRANCH  12  14
ENDBRANCH  11  12
ENDBRANCH  10  11
ENDBRANCH   9  10
ENDBRANCH   6   9
BRANCH   7  17
HETATM   17  C13 UNL     1      -4.239   1.532  -1.417  1.00  0.00     0.277 C 
HETATM   18  C14 UNL     1      -3.347   2.682  -1.130  1.00  0.00     0.043 C 
HETATM   19  C15 UNL     1      -3.897   4.048  -1.160  1.00  0.00     0.004 C 
HETATM   20  C16 UNL     1      -5.242   4.204  -1.834  1.00  0.00     0.027 C 
HETATM   21  C17 UNL     1      -6.079   3.032  -1.298  1.00  0.00     0.233 C 
HETATM   22  N5  UNL     1      -5.547   1.865  -1.925  1.00  0.00    -0.062 N 
ATOM     23  H52 UNL     1      -5.537   1.961  -2.940  1.00  0.00     0.278 HD
ATOM     24  H51 UNL     1      -6.188   1.076  -1.845  1.00  0.00     0.278 HD
ENDBRANCH   7  17
ENDBRANCH   5   6
ENDBRANCH   4   5
ENDBRANCH   3   4
BRANCH   3  25
HETATM   25  N6  UNL     1       0.926   0.520  -1.532  1.00  0.00    -0.380 N 
ATOM     26  H6  UNL     1       0.516   1.316  -2.020  1.00  0.00     0.160 HD
BRANCH  25  27
HETATM   27  C18 UNL     1       2.346   0.542  -1.387  1.00  0.00     0.121 C 
BRANCH  27  28
HETATM   28  C19 UNL     1       2.709   0.736   0.083  1.00  0.00     0.021 C 
BRANCH  28  29
HETATM   29  C20 UNL     1       4.238   0.766   0.123  1.00  0.00     0.021 C 
BRANCH  29  30
HETATM   30  C21 UNL     1       4.674   0.964   1.536  1.00  0.00     0.126 C 
BRANCH  30  31
HETATM   31  N7  UNL     1       6.146   1.016   1.619  1.00  0.00    -0.349 N 
HETATM   32  C22 UNL     1       6.862  -0.224   1.818  1.00  0.00     0.153 C 
HETATM   33  C23 UNL     1       8.288   0.104   2.188  1.00  0.00     0.252 C 
HETATM   34  N8  UNL     1       8.329   1.287   3.065  1.00  0.00    -0.065 N 
HETATM   35  C24 UNL     1       8.089   2.473   2.265  1.00  0.00     0.334 C 
ATOM     36  H82 UNL     1       7.684   1.211   3.851  1.00  0.00     0.277 HD
ATOM     37  H81 UNL     1       9.197   1.346   3.598  1.00  0.00     0.277 HD
HETATM   38  C25 UNL     1       6.840   2.243   1.500  1.00  0.00     0.245 C 
HETATM   39  O2  UNL     1       6.344   3.118   0.720  1.00  0.00    -0.272 OA
ENDBRANCH  30  31
ENDBRANCH  29  30
ENDBRANCH  28  29
ENDBRANCH  27  28
ENDBRANCH  25  27
ENDBRANCH   3  25
BRANCH   1  40
HETATM   40  C4  UNL     1       0.796  -2.483  -2.216  1.00  0.00     0.121 C 
BRANCH  40  41
HETATM   41  C3  UNL     1       0.513  -2.171  -3.666  1.00  0.00     0.019 C 
BRANCH  41  42
HETATM   42  C2  UNL     1      -0.929  -2.462  -4.015  1.00  0.00    -0.003 C 
HETATM   43  C1  UNL     1      -1.235  -3.923  -3.771  1.00  0.00     0.005 C 
ENDBRANCH  41  42
ENDBRANCH  40  41
ENDBRANCH   1  40
TORSDOF 18
