REMARK  16 active torsions:
REMARK  status: ('A' for Active; 'I' for Inactive)
REMARK    1  A    between atoms: C2_2  and  C3_3 
REMARK    2  A    between atoms: C3_3  and  C4_4 
REMARK    3  A    between atoms: C4_4  and  N1_5 
REMARK       I    between atoms: N2_8  and  C7_9 
REMARK    4  A    between atoms: C7_9  and  C8_11 
REMARK    5  A    between atoms: N3_14  and  C11_15 
REMARK    6  A    between atoms: C11_15  and  C12_16 
REMARK    7  A    between atoms: C12_16  and  C13_17 
REMARK    8  A    between atoms: C13_17  and  C14_18 
REMARK    9  A    between atoms: C14_18  and  C15_19 
REMARK   10  A    between atoms: C15_19  and  C16_20 
REMARK   11  A    between atoms: C16_20  and  C17_21 
REMARK   12  A    between atoms: C17_21  and  C18_22 
REMARK   13  A    between atoms: C20_29  and  C21_30 
REMARK   14  A    between atoms: C21_30  and  C22_31 
REMARK   15  A    between atoms: C22_31  and  C23_32 
REMARK   16  A    between atoms: C23_32  and  N5_33 
ROOT
HETATM    1  N1  UNL     1      -4.614   1.484  -0.348  1.00  0.00    -0.349 N 
HETATM    2  C5  UNL     1      -3.485   1.234  -1.170  1.00  0.00     0.145 C 
HETATM    3  C6  UNL     1      -2.269   0.685  -0.477  1.00  0.00     0.147 C 
HETATM    4  N2  UNL     1      -2.350   0.694   0.943  1.00  0.00    -0.335 N 
HETATM    5  C7  UNL     1      -1.184   0.912   1.717  1.00  0.00     0.243 C 
HETATM    6  O1  UNL     1      -1.233   0.969   2.984  1.00  0.00    -0.271 OA
HETATM    7  C20 UNL     1      -3.582   0.480   1.686  1.00  0.00     0.179 C 
HETATM    8  C25 UNL     1      -4.748   0.833   0.893  1.00  0.00     0.242 C 
HETATM    9  O5  UNL     1      -5.909   0.547   1.333  1.00  0.00    -0.271 OA
ENDROOT
BRANCH   5  10
HETATM   10  C8  UNL     1       0.133   1.083   1.066  1.00  0.00     0.180 C 
HETATM   11  C9  UNL     1       0.570  -0.216   0.416  1.00  0.00     0.055 C 
HETATM   12  C10 UNL     1       2.082  -0.353   0.376  1.00  0.00     0.130 C 
HETATM   13  N3  UNL     1       2.637  -0.333   1.719  1.00  0.00    -0.334 N 
HETATM   14  C19 UNL     1       1.973   0.538   2.629  1.00  0.00     0.319 C 
HETATM   15  O4  UNL     1       2.210   0.455   3.871  1.00  0.00    -0.247 OA
HETATM   16  N4  UNL     1       1.063   1.474   2.112  1.00  0.00    -0.330 N 
ATOM     17  H4  UNL     1       1.055   2.429   2.471  1.00  0.00     0.165 HD
BRANCH  13  18
HETATM   18  C11 UNL     1       3.760  -1.133   2.095  1.00  0.00     0.127 C 
BRANCH  18  19
HETATM   19  C12 UNL     1       5.098  -0.502   1.926  1.00  0.00     0.020 C 
BRANCH  19  20
HETATM   20  C13 UNL     1       5.447  -0.095   0.526  1.00  0.00     0.002 C 
BRANCH  20  21
HETATM   21  C14 UNL     1       6.843   0.511   0.597  1.00  0.00     0.000 C 
BRANCH  21  22
HETATM   22  C15 UNL     1       7.359   0.972  -0.725  1.00  0.00     0.001 C 
BRANCH  22  23
HETATM   23  C16 UNL     1       7.461  -0.099  -1.766  1.00  0.00     0.010 C 
BRANCH  23  24
HETATM   24  C17 UNL     1       8.375  -1.226  -1.304  1.00  0.00     0.113 C 
BRANCH  24  25
HETATM   25  C18 UNL     1       8.422  -2.216  -2.399  1.00  0.00     0.172 C 
HETATM   26  O2  UNL     1       8.759  -1.850  -3.549  1.00  0.00    -0.648 OA
HETATM   27  O3  UNL     1       8.099  -3.535  -2.167  1.00  0.00    -0.648 OA
ENDBRANCH  24  25
ENDBRANCH  23  24
ENDBRANCH  22  23
ENDBRANCH  21  22
ENDBRANCH  20  21
ENDBRANCH  19  20
ENDBRANCH  18  19
ENDBRANCH  13  18
ENDBRANCH   5  10
BRANCH   7  28
HETATM   28  C21 UNL     1      -3.657  -0.817   2.382  1.00  0.00     0.037 C 
BRANCH  28  29
HETATM   29  C22 UNL     1      -3.549  -2.069   1.615  1.00  0.00     0.022 C 
BRANCH  29  30
HETATM   30  C23 UNL     1      -4.618  -2.271   0.578  1.00  0.00     0.122 C 
BRANCH  30  31
HETATM   31  N5  UNL     1      -4.377  -3.572  -0.079  1.00  0.00    -0.367 N 
HETATM   32  C24 UNL     1      -4.591  -3.738  -1.336  1.00  0.00     0.196 C 
HETATM   33  N6  UNL     1      -5.067  -2.729  -2.214  1.00  0.00    -0.067 NA
HETATM   34  N7  UNL     1      -4.333  -5.021  -1.882  1.00  0.00    -0.067 NA
ATOM     35  H5  UNL     1      -4.033  -4.355   0.476  1.00  0.00     0.161 HD
ENDBRANCH  30  31
ENDBRANCH  29  30
ENDBRANCH  28  29
ENDBRANCH   7  28
BRANCH   1  36
HETATM   36  C4  UNL     1      -5.628   2.438  -0.823  1.00  0.00     0.129 C 
BRANCH  36  37
HETATM   37  C3  UNL     1      -5.302   3.853  -0.390  1.00  0.00     0.046 C 
BRANCH  37  38
HETATM   38  C2  UNL     1      -6.367   4.750  -0.890  1.00  0.00    -0.035 C 
HETATM   39  C1  UNL     1      -7.108   5.481  -0.083  1.00  0.00     0.007 C 
ENDBRANCH  37  38
ENDBRANCH  36  37
ENDBRANCH   1  36
TORSDOF 16
