REMARK  1 active torsions:
REMARK  status: ('A' for Active; 'I' for Inactive)
REMARK    1  A    between atoms: C8_8  and  O1_9 
ROOT
HETATM    1  C1  UNL     1      -3.265   2.043   0.043  1.00  0.00     0.016 C 
HETATM    2  C2  UNL     1      -2.530   0.784   0.449  1.00  0.00     0.027 C 
HETATM    3  C3  UNL     1      -2.895  -0.346  -0.483  1.00  0.00     0.010 C 
HETATM    4  C4  UNL     1      -2.170  -1.582   0.068  1.00  0.00     0.006 C 
HETATM    5  C5  UNL     1      -0.700  -1.342  -0.205  1.00  0.00    -0.002 C 
HETATM    6  C6  UNL     1       0.038  -2.613   0.149  1.00  0.00     0.008 C 
HETATM    7  C7  UNL     1       1.349  -2.314   0.844  1.00  0.00     0.034 C 
HETATM    8  C8  UNL     1       2.021  -1.204   0.080  1.00  0.00     0.147 C 
HETATM    9  C9  UNL     1       1.246   0.068   0.353  1.00  0.00     0.090 C 
HETATM   10  S1  UNL     1       1.540   1.283  -0.951  1.00  0.00    -0.144 SA
HETATM   11  C10 UNL     1       2.932   2.254  -0.390  1.00  0.00     0.086 C 
HETATM   12  C11 UNL     1       3.496   1.620   0.841  1.00  0.00     0.086 C 
HETATM   13  S2  UNL     1       2.072   0.901   1.743  1.00  0.00    -0.144 SA
HETATM   14  C12 UNL     1      -0.202  -0.189   0.625  1.00  0.00     0.067 C 
HETATM   15  C13 UNL     1      -1.071   0.977   0.500  1.00  0.00    -0.009 C 
HETATM   16  N1  UNL     1      -0.591   2.138   0.438  1.00  0.00    -0.405 N 
ATOM     17  H11 UNL     1       0.420   2.272   0.473  1.00  0.00     0.155 HD
ATOM     18  H12 UNL     1      -1.198   2.953   0.351  1.00  0.00     0.155 HD
ENDROOT
BRANCH   8  19
HETATM   19  O1  UNL     1       2.086  -1.485  -1.283  1.00  0.00    -0.393 OA
ATOM     20  H1  UNL     1       2.510  -0.785  -1.765  1.00  0.00     0.210 HD
ENDBRANCH   8  19
TORSDOF 1
