REMARK  1 active torsions:
REMARK  status: ('A' for Active; 'I' for Inactive)
REMARK    1  A    between atoms: N1_1  and  N2_4 
ROOT
HETATM    1  N2  UNL     1      -3.327   0.318   0.050  1.00  0.00    -0.236 NA
HETATM    2  C1  UNL     1      -3.092  -0.907  -0.648  1.00  0.00     0.113 C 
HETATM    3  C2  UNL     1      -2.276  -1.822   0.245  1.00  0.00     0.016 C 
HETATM    4  C3  UNL     1      -1.032  -2.232  -0.510  1.00  0.00     0.001 C 
HETATM    5  C4  UNL     1      -0.121  -3.068   0.342  1.00  0.00     0.000 C 
HETATM    6  C5  UNL     1       1.288  -2.939  -0.222  1.00  0.00     0.000 C 
HETATM    7  C6  UNL     1       2.118  -2.185   0.786  1.00  0.00     0.000 C 
HETATM    8  C7  UNL     1       3.363  -1.578   0.172  1.00  0.00     0.000 C 
HETATM    9  C8  UNL     1       3.053  -0.525  -0.848  1.00  0.00     0.000 C 
HETATM   10  C9  UNL     1       3.226   0.867  -0.268  1.00  0.00     0.000 C 
HETATM   11  C10 UNL     1       2.012   1.222   0.535  1.00  0.00     0.000 C 
HETATM   12  C11 UNL     1       1.620   2.678   0.336  1.00  0.00     0.010 C 
HETATM   13  C12 UNL     1       0.718   2.807  -0.881  1.00  0.00     0.111 C 
HETATM   14  C13 UNL     1      -0.453   3.676  -0.612  1.00  0.00     0.258 C 
HETATM   15  O1  UNL     1      -0.604   4.716  -1.302  1.00  0.00    -0.265 OA
HETATM   16  O2  UNL     1      -1.337   3.335   0.368  1.00  0.00    -0.320 OA
HETATM   17  C14 UNL     1      -1.827   2.066   0.658  1.00  0.00     0.195 C 
HETATM   18  C15 UNL     1      -2.605   1.447  -0.495  1.00  0.00     0.139 C 
ENDROOT
BRANCH   1  19
HETATM   19  N1  UNL     1      -4.677   0.591   0.245  1.00  0.00    -0.363 NA
ATOM     20  H12 UNL     1      -5.186  -0.205   0.629  1.00  0.00     0.171 HD
ATOM     21  H11 UNL     1      -4.845   1.465   0.743  1.00  0.00     0.171 HD
ENDBRANCH   1  19
TORSDOF 1
