REMARK  1 active torsions:
REMARK  status: ('A' for Active; 'I' for Inactive)
REMARK    1  A    between atoms: C14_18  and  O2_19 
ROOT
HETATM    1  O1  UNL     1       3.369  -2.355   1.059  1.00  0.00    -0.270 OA
HETATM    2  C1  UNL     1       3.243  -1.236   0.466  1.00  0.00     0.258 C 
HETATM    3  N1  UNL     1       4.264  -0.251   0.408  1.00  0.00    -0.318 N 
ATOM      4  H1  UNL     1       5.268  -0.400   0.508  1.00  0.00     0.169 HD
HETATM    5  C2  UNL     1       3.601   0.982   0.182  1.00  0.00     0.087 C 
HETATM    6  S1  UNL     1       4.270   2.467   0.376  1.00  0.00    -0.065 SA
HETATM    7  C3  UNL     1       2.212   0.694  -0.257  1.00  0.00     0.091 C 
HETATM    8  C4  UNL     1       1.281   1.544   0.538  1.00  0.00     0.015 C 
HETATM    9  C5  UNL     1       0.036   1.963  -0.222  1.00  0.00     0.001 C 
HETATM   10  C6  UNL     1      -1.184   2.019   0.690  1.00  0.00     0.000 C 
HETATM   11  C7  UNL     1      -2.460   1.955  -0.065  1.00  0.00     0.000 C 
HETATM   12  C8  UNL     1      -2.750   0.569  -0.640  1.00  0.00     0.000 C 
HETATM   13  C9  UNL     1      -3.166  -0.421   0.364  1.00  0.00     0.000 C 
HETATM   14  C10 UNL     1      -2.150  -1.499   0.692  1.00  0.00     0.000 C 
HETATM   15  C11 UNL     1      -1.489  -2.106  -0.473  1.00  0.00     0.000 C 
HETATM   16  C12 UNL     1      -0.095  -1.790  -0.775  1.00  0.00     0.004 C 
HETATM   17  C13 UNL     1       0.804  -1.339   0.324  1.00  0.00     0.049 C 
HETATM   18  C14 UNL     1       2.036  -0.743  -0.269  1.00  0.00     0.148 C 
ENDROOT
BRANCH  18  19
HETATM   19  O2  UNL     1       2.191  -1.249  -1.583  1.00  0.00    -0.379 OA
ATOM     20  H2  UNL     1       1.425  -0.936  -2.050  1.00  0.00     0.211 HD
ENDBRANCH  18  19
TORSDOF 1
