REMARK  4 active torsions:
REMARK  status: ('A' for Active; 'I' for Inactive)
REMARK    1  A    between atoms: C5_5  and  N1_6 
REMARK    2  A    between atoms: N1_6  and  C6_8 
REMARK    3  A    between atoms: C6_8  and  O1_10 
REMARK    4  A    between atoms: O1_10  and  C7_11 
ROOT
HETATM    1  C1  UNL     1      -1.663   2.015  -0.970  1.00  0.00     0.037 C 
HETATM    2  C2  UNL     1      -2.195   0.916  -0.036  1.00  0.00     0.021 C 
HETATM    3  C3  UNL     1      -3.232   1.630   0.846  1.00  0.00     0.037 C 
HETATM    4  C4  UNL     1      -1.089   0.432   0.807  1.00  0.00     0.055 C 
HETATM    5  C5  UNL     1      -0.530  -0.907   0.498  1.00  0.00     0.089 C 
HETATM    6  C11 UNL     1      -1.088  -1.560  -0.719  1.00  0.00     0.055 C 
HETATM    7  C12 UNL     1      -2.601  -1.386  -0.662  1.00  0.00     0.021 C 
HETATM    8  C13 UNL     1      -3.257  -2.152  -1.813  1.00  0.00     0.037 C 
HETATM    9  C14 UNL     1      -3.141  -1.977   0.611  1.00  0.00     0.037 C 
HETATM   10  N2  UNL     1      -2.885  -0.013  -0.835  1.00  0.00    -0.405 N 
ATOM     11  H2  UNL     1      -3.573   0.297  -1.522  1.00  0.00     0.154 HD
ENDROOT
BRANCH   5  12
HETATM   12  N1  UNL     1       0.933  -0.885   0.345  1.00  0.00    -0.357 N 
ATOM     13  H1  UNL     1       1.345  -1.165  -0.545  1.00  0.00     0.162 HD
BRANCH  12  14
HETATM   14  C6  UNL     1       1.781  -0.484   1.404  1.00  0.00     0.211 C 
HETATM   15  S1  UNL     1       1.107  -0.042   2.812  1.00  0.00    -0.033 SA
BRANCH  14  16
HETATM   16  O1  UNL     1       3.128  -0.466   1.255  1.00  0.00    -0.317 OA
BRANCH  16  17
HETATM   17  C7  UNL     1       3.893   0.465   0.562  1.00  0.00     0.059 C 
HETATM   18  C8  UNL     1       3.494   0.507  -0.915  1.00  0.00     0.045 C 
HETATM   19  C9  UNL     1       3.796   1.867   1.083  1.00  0.00     0.045 C 
HETATM   20  C10 UNL     1       5.353   0.014   0.654  1.00  0.00     0.045 C 
ENDBRANCH  16  17
ENDBRANCH  14  16
ENDBRANCH  12  14
ENDBRANCH   5  12
TORSDOF 4
