REMARK  5 active torsions:
REMARK  status: ('A' for Active; 'I' for Inactive)
REMARK    1  A    between atoms: C7_7  and  O1_8 
REMARK    2  A    between atoms: O1_8  and  C8_9 
REMARK    3  A    between atoms: C8_9  and  N2_16 
REMARK    4  A    between atoms: N1_10  and  C9_12 
REMARK    5  A    between atoms: N2_16  and  N3_18 
ROOT
HETATM    1  C8  UNL     1      -1.579  -0.227  -1.038  1.00  0.00     0.234 C 
HETATM    2  N1  UNL     1      -2.277  -0.363   0.014  1.00  0.00    -0.347 N 
ATOM      3  H1  UNL     1      -1.839  -0.685   0.877  1.00  0.00     0.163 HD
ENDROOT
BRANCH   1   4
HETATM    4  O1  UNL     1      -0.250  -0.560  -0.829  1.00  0.00    -0.315 OA
BRANCH   4   5
HETATM    5  C7  UNL     1       0.380  -0.478   0.372  1.00  0.00     0.137 C 
HETATM    6  C6  UNL     1       1.829  -0.942   0.138  1.00  0.00     0.023 C 
HETATM    7  C5  UNL     1       2.295  -1.667   1.342  1.00  0.00     0.008 C 
HETATM    8  C15 UNL     1       2.571   0.295  -0.207  1.00  0.00     0.020 C 
HETATM    9  C4  UNL     1       3.773  -1.903   1.305  1.00  0.00     0.005 C 
HETATM   10  C3  UNL     1       4.558  -0.627   1.203  1.00  0.00     0.034 C 
HETATM   11  C2  UNL     1       3.971   0.338   0.233  1.00  0.00    -0.085 C 
HETATM   12  C1  UNL     1       4.764   1.279  -0.251  1.00  0.00     0.014 C 
HETATM   13  C14 UNL     1       1.798   1.473   0.345  1.00  0.00     0.012 C 
HETATM   14  C13 UNL     1       0.625   0.839   1.005  1.00  0.00     0.034 C 
ENDBRANCH   4   5
ENDBRANCH   1   4
BRANCH   1  15
HETATM   15  N2  UNL     1      -2.074   0.213  -2.294  1.00  0.00    -0.272 N 
ATOM     16  H2  UNL     1      -2.819  -0.288  -2.778  1.00  0.00     0.190 HD
BRANCH  15  17
HETATM   17  N3  UNL     1      -1.494   1.367  -2.841  1.00  0.00    -0.342 N 
ATOM     18  H32 UNL     1      -0.750   1.857  -2.345  1.00  0.00     0.176 HD
ATOM     19  H31 UNL     1      -1.850   1.683  -3.743  1.00  0.00     0.176 HD
ENDBRANCH  15  17
ENDBRANCH   1  15
BRANCH   2  20
HETATM   20  C9  UNL     1      -3.681  -0.065  -0.007  1.00  0.00     0.022 C 
HETATM   21  C10 UNL     1      -3.973   1.324  -0.537  1.00  0.00     0.037 C 
HETATM   22  C11 UNL     1      -4.191  -0.169   1.436  1.00  0.00     0.037 C 
HETATM   23  C12 UNL     1      -4.463  -1.063  -0.837  1.00  0.00     0.037 C 
ENDBRANCH   2  20
TORSDOF 5
