REMARK  2 active torsions:
REMARK  status: ('A' for Active; 'I' for Inactive)
REMARK    1  A    between atoms: N1_1  and  C1_5 
REMARK    2  A    between atoms: C1_5  and  C2_6 
ROOT
HETATM    1  C2  UNL     1      -0.882   0.036  -0.096  1.00  0.00    -0.017 C 
HETATM    2  C3  UNL     1      -0.568   1.511  -0.071  1.00  0.00     0.011 C 
HETATM    3  C4  UNL     1       0.796   1.863   0.372  1.00  0.00     0.001 C 
HETATM    4  C5  UNL     1       1.910   1.189  -0.347  1.00  0.00     0.000 C 
HETATM    5  C6  UNL     1       2.350  -0.091   0.264  1.00  0.00     0.004 C 
HETATM    6  C7  UNL     1       1.596  -1.300  -0.122  1.00  0.00    -0.014 C 
HETATM    7  C8  UNL     1       0.581  -1.733   0.934  1.00  0.00     0.005 C 
HETATM    8  C9  UNL     1      -0.468  -0.695   1.131  1.00  0.00     0.011 C 
HETATM    9  C10 UNL     1       0.863  -1.232  -1.417  1.00  0.00     0.005 C 
HETATM   10  C11 UNL     1      -0.473  -0.614  -1.384  1.00  0.00     0.011 C 
ENDROOT
BRANCH   1  11
HETATM   11  C1  UNL     1      -2.428  -0.006  -0.105  1.00  0.00     0.239 C 
BRANCH  11  12
HETATM   12  N1  UNL     1      -2.981   0.623   1.048  1.00  0.00    -0.079 N 
ATOM     13  H13 UNL     1      -2.604   0.222   1.907  1.00  0.00     0.274 HD
ATOM     14  H12 UNL     1      -2.636   1.577   1.152  1.00  0.00     0.274 HD
ATOM     15  H11 UNL     1      -4.001   0.595   1.042  1.00  0.00     0.274 HD
ENDBRANCH  11  12
ENDBRANCH   1  11
TORSDOF 2
