REMARK  2 active torsions:
REMARK  status: ('A' for Active; 'I' for Inactive)
REMARK    1  A    between atoms: N1_1  and  C1_5 
REMARK    2  A    between atoms: C1_5  and  C2_6 
ROOT
HETATM    1  C2  UNL     1       0.979   0.157  -0.242  1.00  0.00    -0.016 C 
HETATM    2  C3  UNL     1       0.990  -1.323  -0.058  1.00  0.00     0.011 C 
HETATM    3  C4  UNL     1      -0.201  -1.941   0.506  1.00  0.00     0.005 C 
HETATM    4  C5  UNL     1      -1.502  -1.227   0.361  1.00  0.00    -0.014 C 
HETATM    5  C6  UNL     1      -1.796  -0.724  -1.008  1.00  0.00     0.009 C 
HETATM    6  C7  UNL     1      -1.233   0.624  -1.319  1.00  0.00    -0.013 C 
HETATM    7  C8  UNL     1      -1.510   1.656  -0.266  1.00  0.00     0.009 C 
HETATM    8  C9  UNL     1      -0.953   1.121   1.045  1.00  0.00    -0.013 C 
HETATM    9  C10 UNL     1      -1.707  -0.132   1.372  1.00  0.00     0.009 C 
HETATM   10  C11 UNL     1       0.519   0.920   0.951  1.00  0.00     0.015 C 
HETATM   11  C12 UNL     1       0.257   0.552  -1.520  1.00  0.00     0.015 C 
ENDROOT
BRANCH   1  12
HETATM   12  C1  UNL     1       2.435   0.580  -0.500  1.00  0.00     0.239 C 
BRANCH  12  13
HETATM   13  N1  UNL     1       3.297   0.240   0.582  1.00  0.00    -0.079 N 
ATOM     14  H13 UNL     1       2.952   0.624   1.462  1.00  0.00     0.274 HD
ATOM     15  H12 UNL     1       3.236  -0.754   0.803  1.00  0.00     0.274 HD
ATOM     16  H11 UNL     1       4.263   0.521   0.411  1.00  0.00     0.274 HD
ENDBRANCH  12  13
ENDBRANCH   1  12
TORSDOF 2
