REMARK  1 active torsions:
REMARK  status: ('A' for Active; 'I' for Inactive)
REMARK    1  A    between atoms: N1_1  and  C1_5 
ROOT
HETATM    1  C1  UNL     1       1.943   0.348   0.546  1.00  0.00     0.188 C 
HETATM    2  C2  UNL     1       2.345  -0.926  -0.164  1.00  0.00     0.033 C 
HETATM    3  C3  UNL     1       1.224  -1.906   0.080  1.00  0.00     0.007 C 
HETATM    4  C4  UNL     1       0.032  -1.049   0.330  1.00  0.00    -0.004 C 
HETATM    5  C5  UNL     1      -0.783  -0.804  -0.937  1.00  0.00    -0.010 C 
HETATM    6  C6  UNL     1      -2.222  -0.808  -0.526  1.00  0.00     0.005 C 
HETATM    7  C7  UNL     1      -2.644   0.284   0.360  1.00  0.00     0.001 C 
HETATM    8  C8  UNL     1      -1.684   1.338   0.700  1.00  0.00     0.005 C 
HETATM    9  C9  UNL     1      -0.342   1.260   0.035  1.00  0.00    -0.008 C 
HETATM   10  C10 UNL     1      -0.415   0.610  -1.323  1.00  0.00     0.010 C 
HETATM   11  C11 UNL     1       0.491   0.282   0.817  1.00  0.00     0.024 C 
ENDROOT
BRANCH   1  12
HETATM   12  N1  UNL     1       2.379   1.490  -0.200  1.00  0.00    -0.075 N 
ATOM     13  H13 UNL     1       3.381   1.460  -0.391  1.00  0.00     0.274 HD
ATOM     14  H12 UNL     1       2.042   1.468  -1.162  1.00  0.00     0.274 HD
ATOM     15  H11 UNL     1       2.108   2.349   0.279  1.00  0.00     0.274 HD
ENDBRANCH   1  12
TORSDOF 1
