REMARK  2 active torsions:
REMARK  status: ('A' for Active; 'I' for Inactive)
REMARK    1  A    between atoms: O1_1  and  C1_3 
REMARK    2  A    between atoms: C1_3  and  C2_4 
ROOT
HETATM    1  C1  UNL     1       0.307  -0.015  -0.213  1.00  0.00     0.061 C 
HETATM    2  C7  UNL     1       1.073   1.256  -0.020  1.00  0.00     0.038 C 
HETATM    3  C8  UNL     1       2.533   1.204  -0.209  1.00  0.00     0.003 C 
HETATM    4  C9  UNL     1       3.175  -0.090   0.223  1.00  0.00     0.000 C 
HETATM    5  C10 UNL     1       2.488  -1.261  -0.447  1.00  0.00     0.003 C 
HETATM    6  C11 UNL     1       1.070  -1.275   0.020  1.00  0.00     0.038 C 
ENDROOT
BRANCH   1   7
HETATM    7  O1  UNL     1      -0.149  -0.028  -1.542  1.00  0.00    -0.389 OA
ATOM      8  H1  UNL     1       0.619  -0.004  -2.100  1.00  0.00     0.210 HD
ENDBRANCH   1   7
BRANCH   1   9
HETATM    9  C2  UNL     1      -0.924  -0.053   0.681  1.00  0.00     0.020 C 
HETATM   10  C3  UNL     1      -1.816   1.147   0.454  1.00  0.00     0.007 C 
HETATM   11  C4  UNL     1      -3.155   0.630  -0.025  1.00  0.00     0.000 C 
HETATM   12  C5  UNL     1      -2.874  -0.747  -0.562  1.00  0.00     0.000 C 
HETATM   13  C6  UNL     1      -1.811  -1.225   0.406  1.00  0.00     0.007 C 
ENDBRANCH   1   9
TORSDOF 2
