REMARK  5 active torsions:
REMARK  status: ('A' for Active; 'I' for Inactive)
REMARK    1  A    between atoms: C2_2  and  N1_3 
REMARK       I    between atoms: C3_5  and  N3_7 
REMARK       I    between atoms: N3_7  and  C4_9 
REMARK       I    between atoms: C4_9  and  N7_17 
REMARK    2  A    between atoms: N4_10  and  N5_12 
REMARK    3  A    between atoms: N5_12  and  C5_14 
REMARK    4  A    between atoms: N7_17  and  S2_19 
REMARK    5  A    between atoms: S2_19  and  N8_20 
ROOT
HETATM    1  N1  UNL     1      -2.068  -1.557  -1.517  1.00  0.00    -0.364 N 
ATOM      2  H1  UNL     1      -1.717  -1.942  -2.394  1.00  0.00     0.162 HD
HETATM    3  C3  UNL     1      -1.426  -0.629  -0.933  1.00  0.00     0.202 C 
HETATM    4  N2  UNL     1      -1.897  -0.089   0.274  1.00  0.00    -0.063 NA
HETATM    5  N3  UNL     1      -0.235  -0.133  -1.492  1.00  0.00    -0.162 N 
ATOM      6  H3  UNL     1      -0.109  -0.129  -2.504  1.00  0.00     0.187 HD
HETATM    7  C4  UNL     1       0.787   0.360  -0.650  1.00  0.00     0.710 C 
HETATM    8  N4  UNL     1       1.826  -0.332  -0.425  1.00  0.00    -0.129 N 
ATOM      9  H4  UNL     1       1.881  -1.245  -0.876  1.00  0.00     0.205 HD
HETATM   10  N7  UNL     1       0.624   1.645  -0.064  1.00  0.00    -0.098 N 
ATOM     11  H7  UNL     1       0.253   1.713   0.884  1.00  0.00     0.199 HD
ENDROOT
BRANCH   8  12
HETATM   12  N5  UNL     1       2.888   0.039   0.374  1.00  0.00    -0.264 N 
ATOM     13  H5  UNL     1       3.667   0.549  -0.042  1.00  0.00     0.189 HD
BRANCH  12  14
HETATM   14  C5  UNL     1       2.927  -0.270   1.765  1.00  0.00     0.200 C 
HETATM   15  N6  UNL     1       1.825  -0.987   2.330  1.00  0.00    -0.068 NA
HETATM   16  S1  UNL     1       4.166   0.159   2.718  1.00  0.00    -0.043 SA
ENDBRANCH  12  14
ENDBRANCH   8  12
BRANCH  10  17
HETATM   17  S2  UNL     1       1.036   3.099  -0.912  1.00  0.00     0.330 S 
HETATM   18  O1  UNL     1       0.225   4.256  -0.455  1.00  0.00    -0.182 OA
HETATM   19  O2  UNL     1       0.858   2.878  -2.380  1.00  0.00    -0.182 OA
BRANCH  17  20
HETATM   20  N8  UNL     1       2.708   3.442  -0.550  1.00  0.00    -0.311 N 
ATOM     21  H82 UNL     1       3.315   2.883   0.049  1.00  0.00     0.170 HD
ATOM     22  H81 UNL     1       2.951   4.298  -1.049  1.00  0.00     0.170 HD
ENDBRANCH  17  20
ENDBRANCH  10  17
BRANCH   1  23
HETATM   23  C2  UNL     1      -3.296  -2.072  -0.945  1.00  0.00     0.118 C 
HETATM   24  C1  UNL     1      -2.899  -3.253  -0.061  1.00  0.00     0.026 C 
ENDBRANCH   1  23
TORSDOF 5
