REMARK  6 active torsions:
REMARK  status: ('A' for Active; 'I' for Inactive)
REMARK    1  A    between atoms: C2_3  and  C3_4 
REMARK    2  A    between atoms: C3_4  and  N4_10 
REMARK    3  A    between atoms: N2_5  and  N3_7 
REMARK       I    between atoms: N4_10  and  C4_12 
REMARK    4  A    between atoms: N6_14  and  C5_16 
REMARK    5  A    between atoms: N7_17  and  N8_19 
REMARK    6  A    between atoms: N8_19  and  C6_21 
ROOT
HETATM    1  N4  UNL     1       0.147  -0.552  -0.409  1.00  0.00    -0.317 N 
ATOM      2  H4  UNL     1       0.497  -0.446  -1.361  1.00  0.00     0.170 HD
HETATM    3  C4  UNL     1       1.053  -0.436   0.683  1.00  0.00     0.194 C 
HETATM    4  N5  UNL     1       0.696   0.172   1.905  1.00  0.00    -0.063 NA
HETATM    5  N6  UNL     1       2.246  -0.898   0.568  1.00  0.00    -0.325 N 
ATOM      6  H6  UNL     1       2.883  -0.807   1.359  1.00  0.00     0.169 HD
ENDROOT
BRANCH   1   7
HETATM    7  C3  UNL     1      -1.236  -0.812  -0.201  1.00  0.00     0.134 C 
HETATM    8  N2  UNL     1      -1.581  -1.947   0.274  1.00  0.00    -0.294 N 
ATOM      9  H2  UNL     1      -2.570  -2.143   0.428  1.00  0.00     0.187 HD
BRANCH   7  10
HETATM   10  C2  UNL     1      -2.186   0.261  -0.553  1.00  0.00     0.329 A 
HETATM   11  N1  UNL     1      -1.942   1.491   0.213  1.00  0.00     0.110 N 
HETATM   12  C1  UNL     1      -1.820   2.672  -0.594  1.00  0.00     0.312 C 
HETATM   13  C7  UNL     1      -3.194   0.790   0.314  1.00  0.00     0.191 A 
HETATM   14  C8  UNL     1      -4.442   1.394  -0.267  1.00  0.00     0.051 C 
HETATM   15  C9  UNL     1      -3.421   0.094   1.655  1.00  0.00     0.051 C 
ENDBRANCH   7  10
BRANCH   8  16
HETATM   16  N3  UNL     1      -0.636  -2.923   0.587  1.00  0.00    -0.344 N 
ATOM     17  H32 UNL     1       0.349  -2.710   0.427  1.00  0.00     0.176 HD
ATOM     18  H31 UNL     1      -0.911  -3.829   0.966  1.00  0.00     0.176 HD
ENDBRANCH   8  16
ENDBRANCH   1   7
BRANCH   5  19
HETATM   19  C5  UNL     1       2.715  -1.528  -0.611  1.00  0.00     0.199 C 
HETATM   20  N7  UNL     1       3.955  -1.787  -0.741  1.00  0.00    -0.294 N 
ATOM     21  H7  UNL     1       4.285  -2.240  -1.593  1.00  0.00     0.187 HD
BRANCH  20  22
HETATM   22  N8  UNL     1       4.868  -1.463   0.258  1.00  0.00    -0.278 N 
ATOM     23  H8  UNL     1       4.935  -2.051   1.089  1.00  0.00     0.189 HD
BRANCH  22  24
HETATM   24  C6  UNL     1       5.704  -0.330   0.137  1.00  0.00     0.199 C 
HETATM   25  N9  UNL     1       5.619   0.496  -1.020  1.00  0.00    -0.068 NA
HETATM   26  S1  UNL     1       6.756   0.034   1.300  1.00  0.00    -0.043 SA
ENDBRANCH  22  24
ENDBRANCH  20  22
ENDBRANCH   5  19
TORSDOF 6
