REMARK  5 active torsions:
REMARK  status: ('A' for Active; 'I' for Inactive)
REMARK    1  A    between atoms: C5_6  and  C6_7 
REMARK    2  A    between atoms: C6_7  and  N1_8 
REMARK       I    between atoms: N1_8  and  C7_10 
REMARK    3  A    between atoms: C7_10  and  C8_12 
REMARK    4  A    between atoms: N2_18  and  C13_19 
REMARK    5  A    between atoms: C13_19  and  C14_20 
ROOT
HETATM    1  C8  UNL     1       0.181   0.844   2.085  1.00  0.00     0.186 C 
HETATM    2  C9  UNL     1      -0.115   2.190   2.672  1.00  0.00     0.111 C 
HETATM    3  S1  UNL     1      -1.056   2.980   1.333  1.00  0.00    -0.141 SA
HETATM    4  C10 UNL     1      -0.720   1.650   0.100  1.00  0.00     0.148 C 
HETATM    5  C11 UNL     1      -1.757   1.596  -0.951  1.00  0.00     0.066 C 
HETATM    6  C12 UNL     1      -2.025   0.175  -1.343  1.00  0.00     0.275 C 
HETATM    7  N2  UNL     1      -3.169  -0.287  -0.610  1.00  0.00     0.093 N 
HETATM    8  C17 UNL     1      -3.043   0.131   0.772  1.00  0.00     0.316 C 
HETATM    9  C18 UNL     1      -1.707  -0.243   1.284  1.00  0.00     0.090 C 
HETATM   10  N3  UNL     1      -0.606   0.551   0.956  1.00  0.00    -0.364 N 
ENDROOT
BRANCH   1  11
HETATM   11  C7  UNL     1       1.659   0.773   1.809  1.00  0.00     0.241 C 
HETATM   12  N1  UNL     1       2.134   0.259   0.580  1.00  0.00    -0.357 N 
ATOM     13  H1  UNL     1       1.466  -0.066  -0.119  1.00  0.00     0.162 HD
HETATM   14  O2  UNL     1       2.498   1.164   2.657  1.00  0.00    -0.271 OA
BRANCH  12  15
HETATM   15  C6  UNL     1       3.550   0.186   0.297  1.00  0.00     0.155 C 
BRANCH  15  16
HETATM   16  C5  UNL     1       3.753  -0.402  -1.080  1.00  0.00     0.143 C 
HETATM   17  C2  UNL     1       5.243  -0.575  -1.374  1.00  0.00     0.014 C 
HETATM   18  C1  UNL     1       6.058   0.536  -0.784  1.00  0.00     0.012 C 
HETATM   19  C3  UNL     1       5.479  -1.904  -0.643  1.00  0.00     0.033 C 
HETATM   20  C4  UNL     1       4.168  -2.595  -0.879  1.00  0.00     0.168 C 
HETATM   21  O1  UNL     1       3.202  -1.655  -1.096  1.00  0.00    -0.384 OA
ENDBRANCH  15  16
ENDBRANCH  12  15
ENDBRANCH   1  11
BRANCH   7  22
HETATM   22  C13 UNL     1      -4.358   0.186  -1.240  1.00  0.00     0.277 C 
BRANCH  22  23
HETATM   23  C14 UNL     1      -5.621  -0.246  -0.545  1.00  0.00     0.014 A 
HETATM   24  C15 UNL     1      -5.947  -1.683  -0.381  1.00  0.00     0.007 A 
HETATM   25  C16 UNL     1      -6.656  -0.939  -1.448  1.00  0.00     0.007 A 
ENDBRANCH  22  23
ENDBRANCH   7  22
TORSDOF 5
