REMARK  5 active torsions:
REMARK  status: ('A' for Active; 'I' for Inactive)
REMARK    1  A    between atoms: C1_2  and  C2_4 
REMARK    2  A    between atoms: C2_4  and  C3_5 
REMARK    3  A    between atoms: C4_6  and  C5_7 
REMARK    4  A    between atoms: C5_7  and  N1_8 
REMARK    5  A    between atoms: C14_18  and  N2_19 
ROOT
HETATM    1  C3  UNL     1      -0.015   0.928   0.324  1.00  0.00     0.010 C 
HETATM    2  C4  UNL     1       1.253   0.420  -0.364  1.00  0.00     0.029 C 
HETATM    3  C10 UNL     1       1.108  -0.750  -1.227  1.00  0.00     0.015 C 
HETATM    4  C11 UNL     1      -0.282  -0.888  -1.897  1.00  0.00    -0.012 C 
HETATM    5  C12 UNL     1      -0.861   0.495  -1.915  1.00  0.00     0.012 C 
HETATM    6  C13 UNL     1      -1.268   0.667  -0.467  1.00  0.00     0.014 C 
HETATM    7  C14 UNL     1      -1.832  -0.671  -0.106  1.00  0.00     0.084 C 
HETATM    8  C19 UNL     1      -1.145  -1.696  -0.936  1.00  0.00     0.030 C 
ENDROOT
BRANCH   2   9
HETATM    9  C5  UNL     1       2.243   0.176   0.746  1.00  0.00     0.063 C 
BRANCH   9  10
HETATM   10  N1  UNL     1       3.483  -0.268   0.339  1.00  0.00    -0.389 N 
HETATM   11  C6  UNL     1       3.782  -1.532  -0.146  1.00  0.00     0.148 C 
HETATM   12  C7  UNL     1       5.282  -1.794   0.195  1.00  0.00     0.187 C 
HETATM   13  O3  UNL     1       6.049  -0.882  -0.481  1.00  0.00    -0.388 OA
HETATM   14  C8  UNL     1       5.666   0.425  -0.311  1.00  0.00     0.187 C 
HETATM   15  C9  UNL     1       4.624   0.480   0.805  1.00  0.00     0.148 C 
ENDBRANCH   9  10
ENDBRANCH   2   9
BRANCH   1  16
HETATM   16  C2  UNL     1       0.160   2.428   0.410  1.00  0.00     0.119 C 
BRANCH  16  17
HETATM   17  C1  UNL     1      -0.902   3.174   1.083  1.00  0.00     0.172 C 
HETATM   18  O1  UNL     1      -1.816   2.622   1.707  1.00  0.00    -0.648 OA
HETATM   19  O2  UNL     1      -0.953   4.584   1.059  1.00  0.00    -0.648 OA
ENDBRANCH  16  17
ENDBRANCH   1  16
BRANCH   7  20
HETATM   20  N2  UNL     1      -3.244  -0.796  -0.080  1.00  0.00    -0.404 N 
HETATM   21  C15 UNL     1      -3.948  -0.035   0.878  1.00  0.00     0.143 C 
HETATM   22  C16 UNL     1      -5.191  -0.742   1.322  1.00  0.00     0.187 C 
HETATM   23  O4  UNL     1      -5.725  -1.509   0.297  1.00  0.00    -0.388 OA
HETATM   24  C17 UNL     1      -5.434  -1.011  -0.954  1.00  0.00     0.187 C 
HETATM   25  C18 UNL     1      -3.932  -1.108  -1.266  1.00  0.00     0.143 C 
ENDBRANCH   7  20
TORSDOF 5
