REMARK  2 active torsions:
REMARK  status: ('A' for Active; 'I' for Inactive)
REMARK    1  A    between atoms: C2_2  and  N1_4 
REMARK    2  A    between atoms: C5_8  and  C6_9 
ROOT
HETATM    1  N1  UNL     1      -1.804   0.019   0.076  1.00  0.00    -0.238 N 
HETATM    2  N2  UNL     1      -0.651  -0.559   0.579  1.00  0.00    -0.289 N 
ATOM      3  H2  UNL     1      -0.737  -1.360   1.205  1.00  0.00     0.187 HD
HETATM    4  C4  UNL     1       0.681  -0.069   0.250  1.00  0.00     0.118 A 
HETATM    5  C5  UNL     1       1.691  -0.695   0.737  1.00  0.00     0.066 C 
HETATM    6  C10 UNL     1       0.770   1.074  -0.645  1.00  0.00     0.277 A 
HETATM    7  O1  UNL     1       1.867   1.585  -1.006  1.00  0.00    -0.266 OA
HETATM    8  N4  UNL     1      -0.459   1.638  -1.139  1.00  0.00    -0.272 N 
ATOM      9  H4  UNL     1      -0.401   2.440  -1.766  1.00  0.00     0.174 HD
HETATM   10  C11 UNL     1      -1.739   1.147  -0.807  1.00  0.00     0.344 A 
HETATM   11  O2  UNL     1      -2.822   1.623  -1.226  1.00  0.00    -0.245 OA
ENDROOT
BRANCH   5  12
HETATM   12  C6  UNL     1       3.100  -0.411   0.572  1.00  0.00     0.034 A 
HETATM   13  C7  UNL     1       3.813   0.718   0.906  1.00  0.00     0.031 A 
HETATM   14  C8  UNL     1       5.120   0.532   0.549  1.00  0.00     0.019 A 
HETATM   15  C9  UNL     1       5.229  -0.705  -0.005  1.00  0.00     0.088 A 
HETATM   16  N3  UNL     1       4.023  -1.259   0.013  1.00  0.00    -0.366 N 
ATOM     17  H3  UNL     1       3.810  -2.191  -0.342  1.00  0.00     0.165 HD
ENDBRANCH   5  12
BRANCH   1  18
HETATM   18  C2  UNL     1      -3.111  -0.531   0.452  1.00  0.00     0.105 C 
HETATM   19  C1  UNL     1      -3.975   0.526   1.101  1.00  0.00     0.034 C 
HETATM   20  C3  UNL     1      -3.784  -1.041  -0.799  1.00  0.00     0.034 C 
ENDBRANCH   1  18
TORSDOF 2
