REMARK  3 active torsions:
REMARK  status: ('A' for Active; 'I' for Inactive)
REMARK    1  A    between atoms: C7_7  and  C8_8 
REMARK    2  A    between atoms: N1_9  and  N2_11 
REMARK       I    between atoms: C9_13  and  N4_15 
REMARK    3  A    between atoms: N4_15  and  C10_17 
ROOT
HETATM    1  N2  UNL     1       0.938   0.870   1.100  1.00  0.00    -0.273 N 
ATOM      2  H2  UNL     1       1.048   1.426   1.948  1.00  0.00     0.189 HD
HETATM    3  C9  UNL     1       2.005   0.397   0.557  1.00  0.00     0.221 C 
HETATM    4  N3  UNL     1       1.995  -0.390  -0.623  1.00  0.00    -0.061 NA
HETATM    5  N4  UNL     1       3.247   0.688   1.182  1.00  0.00    -0.159 N 
ATOM      6  H4  UNL     1       3.256   0.963   2.164  1.00  0.00     0.187 HD
ENDROOT
BRANCH   1   7
HETATM    7  N1  UNL     1      -0.337   0.684   0.626  1.00  0.00    -0.309 N 
HETATM    8  C8  UNL     1      -1.052  -0.344   0.814  1.00  0.00     0.119 C 
ATOM      9  H1  UNL     1      -0.744   1.440   0.074  1.00  0.00     0.186 HD
BRANCH   8  10
HETATM   10  C7  UNL     1      -2.382  -0.620   0.359  1.00  0.00    -0.013 A 
HETATM   11  C2  UNL     1      -3.084   0.276  -0.393  1.00  0.00    -0.050 A 
HETATM   12  C1  UNL     1      -2.525   1.579  -0.785  1.00  0.00     0.049 C 
HETATM   13  C3  UNL     1      -4.382   0.020  -0.844  1.00  0.00     0.007 A 
HETATM   14  C4  UNL     1      -5.002  -1.164  -0.538  1.00  0.00     0.001 A 
HETATM   15  C5  UNL     1      -4.312  -2.082   0.220  1.00  0.00     0.001 A 
HETATM   16  C6  UNL     1      -3.039  -1.819   0.657  1.00  0.00     0.013 A 
ENDBRANCH   8  10
ENDBRANCH   1   7
BRANCH   5  17
HETATM   17  C10 UNL     1       4.357   0.614   0.544  1.00  0.00     0.716 A 
HETATM   18  N5  UNL     1       4.521   0.275  -0.727  1.00  0.00    -0.115 N 
HETATM   19  N6  UNL     1       5.821   0.321  -0.999  1.00  0.00    -0.213 N 
ATOM     20  H5  UNL     1       3.780   0.023  -1.381  1.00  0.00     0.207 HD
HETATM   21  N7  UNL     1       6.448   0.686   0.101  1.00  0.00    -0.213 N 
ATOM     22  H6  UNL     1       6.255   0.111  -1.898  1.00  0.00     0.210 HD
HETATM   23  N8  UNL     1       5.568   0.870   1.058  1.00  0.00    -0.115 N 
ATOM     24  H7  UNL     1       7.457   0.806   0.194  1.00  0.00     0.210 HD
ATOM     25  H8  UNL     1       5.769   1.155   2.016  1.00  0.00     0.207 HD
ENDBRANCH   5  17
TORSDOF 3
