REMARK  3 active torsions:
REMARK  status: ('A' for Active; 'I' for Inactive)
REMARK    1  A    between atoms: C4_5  and  S1_6 
REMARK    2  A    between atoms: S1_6  and  N2_9 
REMARK    3  A    between atoms: N2_9  and  C5_11 
ROOT
HETATM    1  S1  UNL     1       0.778  -0.654   0.404  1.00  0.00     0.276 S 
HETATM    2  O1  UNL     1       1.167  -2.028  -0.068  1.00  0.00    -0.200 OA
HETATM    3  O2  UNL     1       1.175  -0.535   1.866  1.00  0.00    -0.200 OA
ENDROOT
BRANCH   1   4
HETATM    4  C4  UNL     1      -0.959  -0.408   0.233  1.00  0.00     0.080 A 
HETATM    5  C3  UNL     1      -1.660   0.386   1.107  1.00  0.00     0.027 A 
HETATM    6  C2  UNL     1      -3.019   0.578   0.973  1.00  0.00     0.028 A 
HETATM    7  C1  UNL     1      -3.738  -0.024  -0.053  1.00  0.00     0.046 A 
HETATM    8  N1  UNL     1      -5.132   0.167  -0.200  1.00  0.00    -0.102 NA
HETATM    9  C8  UNL     1      -3.010  -0.824  -0.928  1.00  0.00     0.028 A 
HETATM   10  C7  UNL     1      -1.658  -1.013  -0.791  1.00  0.00     0.027 A 
ENDBRANCH   1   4
BRANCH   1  11
HETATM   11  N2  UNL     1       1.567   0.579  -0.508  1.00  0.00    -0.111 N 
ATOM     12  H2  UNL     1       1.027   1.236  -1.072  1.00  0.00     0.197 HD
BRANCH  11  13
HETATM   13  C5  UNL     1       2.870   0.654  -0.461  1.00  0.00     0.707 A 
HETATM   14  N3  UNL     1       3.646   1.546  -1.104  1.00  0.00    -0.185 N 
HETATM   15  C6  UNL     1       4.936   1.272  -0.782  1.00  0.00     0.215 A 
ATOM     16  H3  UNL     1       3.324   2.292  -1.721  1.00  0.00     0.185 HD
HETATM   17  N4  UNL     1       4.955   0.221   0.050  1.00  0.00    -0.281 N 
HETATM   18  N5  UNL     1       3.705  -0.142   0.236  1.00  0.00    -0.130 N 
ATOM     19  H4  UNL     1       5.781  -0.214   0.460  1.00  0.00     0.188 HD
ATOM     20  H5  UNL     1       3.408  -0.919   0.826  1.00  0.00     0.205 HD
ENDBRANCH  11  13
ENDBRANCH   1  11
TORSDOF 3
