REMARK  2 active torsions:
REMARK  status: ('A' for Active; 'I' for Inactive)
REMARK    1  A    between atoms: C5_7  and  C6_8 
REMARK    2  A    between atoms: C6_8  and  N2_10 
ROOT
HETATM    1  N2  UNL     1       1.080  -0.120  -0.251  1.00  0.00    -0.229 N 
HETATM    2  N3  UNL     1       2.193  -0.823  -0.004  1.00  0.00    -0.255 N 
ATOM      3  H3  UNL     1       2.173  -1.839  -0.090  1.00  0.00     0.191 HD
HETATM    4  C8  UNL     1       3.334  -0.213   0.355  1.00  0.00     0.328 A 
HETATM    5  O1  UNL     1       4.367  -0.929   0.579  1.00  0.00    -0.261 OA
HETATM    6  C9  UNL     1       3.407   1.162   0.485  1.00  0.00     0.319 A 
HETATM    7  O2  UNL     1       4.463   1.757   0.819  1.00  0.00    -0.262 OA
HETATM    8  N4  UNL     1       2.276   1.856   0.232  1.00  0.00    -0.269 N 
ATOM      9  H4  UNL     1       2.278   2.873   0.313  1.00  0.00     0.174 HD
HETATM   10  C10 UNL     1       1.134   1.210  -0.130  1.00  0.00     0.344 A 
HETATM   11  O3  UNL     1       0.095   1.861  -0.361  1.00  0.00    -0.245 OA
ENDROOT
BRANCH   1  12
HETATM   12  C6  UNL     1      -0.080  -0.875  -0.631  1.00  0.00     0.159 C 
HETATM   13  C7  UNL     1       0.067  -1.167  -2.125  1.00  0.00     0.041 C 
BRANCH  12  14
HETATM   14  C5  UNL     1      -1.372  -0.267  -0.316  1.00  0.00     0.040 A 
HETATM   15  C2  UNL     1      -1.901  -0.105   0.946  1.00  0.00    -0.036 A 
HETATM   16  C1  UNL     1      -1.296  -0.497   2.261  1.00  0.00     0.050 C 
HETATM   17  C3  UNL     1      -3.156   0.510   0.855  1.00  0.00     0.025 A 
HETATM   18  C4  UNL     1      -3.361   0.709  -0.491  1.00  0.00     0.089 A 
HETATM   19  N1  UNL     1      -2.300   0.245  -1.161  1.00  0.00    -0.367 N 
ATOM     20  H1  UNL     1      -2.202   0.273  -2.176  1.00  0.00     0.165 HD
ENDBRANCH  12  14
ENDBRANCH   1  12
TORSDOF 2
