REMARK  4 active torsions:
REMARK  status: ('A' for Active; 'I' for Inactive)
REMARK    1  A    between atoms: C5_8  and  N3_9 
REMARK    2  A    between atoms: N3_9  and  C6_11 
REMARK    3  A    between atoms: C8_13  and  C9_14 
REMARK    4  A    between atoms: C9_14  and  N4_15 
ROOT
HETATM    1  C6  UNL     1       0.526  -0.857   0.015  1.00  0.00     0.137 A 
HETATM    2  C7  UNL     1       1.528   0.050   0.175  1.00  0.00     0.080 A 
HETATM    3  C8  UNL     1       2.676  -0.462  -0.366  1.00  0.00     0.070 A 
HETATM    4  N5  UNL     1       2.366  -1.670  -0.850  1.00  0.00    -0.300 N 
ATOM      5  H5  UNL     1       3.010  -2.308  -1.318  1.00  0.00     0.186 HD
HETATM    6  N6  UNL     1       1.091  -1.897  -0.621  1.00  0.00    -0.285 N 
ATOM      7  H6  UNL     1       0.597  -2.748  -0.890  1.00  0.00     0.188 HD
ENDROOT
BRANCH   1   8
HETATM    8  N3  UNL     1      -0.836  -0.814   0.393  1.00  0.00    -0.175 N 
ATOM      9  H3  UNL     1      -1.153  -1.480   1.097  1.00  0.00     0.186 HD
BRANCH   8  10
HETATM   10  C5  UNL     1      -1.695  -0.003  -0.083  1.00  0.00     0.685 A 
HETATM   11  N1  UNL     1      -2.963  -0.092   0.388  1.00  0.00    -0.198 N 
HETATM   12  C1  UNL     1      -3.280  -1.099   1.405  1.00  0.00     0.174 C 
HETATM   13  C2  UNL     1      -3.946   0.719  -0.050  1.00  0.00     0.110 A 
HETATM   14  C3  UNL     1      -3.672   1.677  -1.009  1.00  0.00     0.035 A 
HETATM   15  C4  UNL     1      -2.382   1.772  -1.492  1.00  0.00     0.107 A 
HETATM   16  N2  UNL     1      -1.446   0.931  -1.012  1.00  0.00    -0.201 N 
ATOM     17  H2  UNL     1      -0.496   1.009  -1.375  1.00  0.00     0.183 HD
ENDBRANCH   8  10
ENDBRANCH   1   8
BRANCH   3  18
HETATM   18  C9  UNL     1       4.036   0.176  -0.427  1.00  0.00     0.306 C 
HETATM   19  S1  UNL     1       5.229  -1.092  -0.872  1.00  0.00    -0.056 SA
BRANCH  18  20
HETATM   20  N4  UNL     1       4.344   0.770   0.866  1.00  0.00    -0.060 N 
ATOM     21  H43 UNL     1       3.623   1.423   1.174  1.00  0.00     0.276 HD
ATOM     22  H42 UNL     1       4.265   0.098   1.629  1.00  0.00     0.276 HD
ATOM     23  H41 UNL     1       5.267   1.203   0.825  1.00  0.00     0.276 HD
ENDBRANCH  18  20
ENDBRANCH   3  18
TORSDOF 4
