REMARK  4 active torsions:
REMARK  status: ('A' for Active; 'I' for Inactive)
REMARK    1  A    between atoms: N1_1  and  C1_4 
REMARK    2  A    between atoms: C3_10  and  N4_11 
REMARK    3  A    between atoms: N4_11  and  S1_13 
REMARK    4  A    between atoms: S1_13  and  C4_16 
ROOT
HETATM    1  C1  UNL     1       4.123  -0.392   0.620  1.00  0.00     0.691 A 
HETATM    2  N2  UNL     1       4.436  -0.110  -0.658  1.00  0.00    -0.187 N 
ATOM      3  H2  UNL     1       5.404  -0.135  -0.979  1.00  0.00     0.185 HD
HETATM    4  C2  UNL     1       3.426   0.208  -1.507  1.00  0.00     0.215 A 
HETATM    5  N3  UNL     1       2.148   0.240  -1.079  1.00  0.00    -0.186 N 
ATOM      6  H3  UNL     1       1.408   0.483  -1.738  1.00  0.00     0.185 HD
HETATM    7  C3  UNL     1       1.824  -0.042   0.203  1.00  0.00     0.707 A 
HETATM    8  N5  UNL     1       2.863  -0.355   1.020  1.00  0.00    -0.022 N 
ATOM      9  H5  UNL     1       2.660  -0.573   1.995  1.00  0.00     0.203 HD
ENDROOT
BRANCH   7  10
HETATM   10  N4  UNL     1       0.609  -0.020   0.641  1.00  0.00    -0.112 N 
ATOM     11  H4  UNL     1       0.394  -0.237   1.614  1.00  0.00     0.197 HD
BRANCH  10  12
HETATM   12  S1  UNL     1      -0.633   0.389  -0.477  1.00  0.00     0.276 S 
HETATM   13  O1  UNL     1      -0.527  -0.409  -1.744  1.00  0.00    -0.200 OA
HETATM   14  O2  UNL     1      -0.468   1.838  -0.838  1.00  0.00    -0.200 OA
BRANCH  12  15
HETATM   15  C4  UNL     1      -2.215   0.156   0.177  1.00  0.00     0.080 A 
HETATM   16  C5  UNL     1      -2.808   1.214   0.840  1.00  0.00     0.025 A 
HETATM   17  C6  UNL     1      -4.059   1.122   1.391  1.00  0.00     0.002 A 
HETATM   18  C7  UNL     1      -4.753  -0.065   1.281  1.00  0.00     0.000 A 
HETATM   19  C8  UNL     1      -4.201  -1.147   0.628  1.00  0.00     0.002 A 
HETATM   20  C9  UNL     1      -2.940  -1.015   0.088  1.00  0.00     0.025 A 
ENDBRANCH  12  15
ENDBRANCH  10  12
ENDBRANCH   7  10
BRANCH   1  21
HETATM   21  N1  UNL     1       5.097  -0.699   1.443  1.00  0.00    -0.234 N 
ATOM     22  H12 UNL     1       6.069  -0.728   1.134  1.00  0.00     0.174 HD
ATOM     23  H11 UNL     1       4.860  -0.913   2.412  1.00  0.00     0.174 HD
ENDBRANCH   1  21
TORSDOF 4
