REMARK  3 active torsions:
REMARK  status: ('A' for Active; 'I' for Inactive)
REMARK    1  A    between atoms: C2_2  and  N1_3 
REMARK    2  A    between atoms: C2_2  and  C3_7 
REMARK    3  A    between atoms: C2_2  and  C4_9 
ROOT
HETATM    1  C4  UNL     1      -0.406  -0.470  -0.027  1.00  0.00     0.013 A 
HETATM    2  C5  UNL     1      -0.384  -1.853  -0.121  1.00  0.00     0.012 A 
HETATM    3  C6  UNL     1       0.758  -2.588  -0.157  1.00  0.00     0.003 A 
HETATM    4  C7  UNL     1       1.959  -1.938  -0.097  1.00  0.00     0.032 A 
HETATM    5  C8  UNL     1       1.985  -0.565  -0.002  1.00  0.00     0.062 A 
HETATM    6  N2  UNL     1       3.180   0.086   0.065  1.00  0.00    -0.317 N 
ATOM      7  H2  UNL     1       4.052  -0.442   0.039  1.00  0.00     0.169 HD
HETATM    8  C9  UNL     1       3.207   1.423   0.165  1.00  0.00     0.314 A 
HETATM    9  O2  UNL     1       4.318   2.023   0.228  1.00  0.00    -0.262 OA
HETATM   10  C10 UNL     1       2.043   2.156   0.202  1.00  0.00     0.314 A 
HETATM   11  O3  UNL     1       2.027   3.418   0.297  1.00  0.00    -0.262 OA
HETATM   12  N3  UNL     1       0.843   1.531   0.136  1.00  0.00    -0.316 N 
ATOM     13  H3  UNL     1      -0.024   2.068   0.162  1.00  0.00     0.169 HD
HETATM   14  C11 UNL     1       0.815   0.202   0.036  1.00  0.00     0.071 A 
ENDROOT
BRANCH   1  15
HETATM   15  C2  UNL     1      -1.660   0.281  -0.020  1.00  0.00     0.201 C 
HETATM   16  C1  UNL     1      -2.776  -0.760  -0.305  1.00  0.00     0.059 C 
BRANCH  15  17
HETATM   17  N1  UNL     1      -1.855   1.209  -1.114  1.00  0.00    -0.060 N 
ATOM     18  H13 UNL     1      -1.839   0.795  -2.046  1.00  0.00     0.276 HD
ATOM     19  H12 UNL     1      -2.797   1.591  -1.201  1.00  0.00     0.276 HD
ATOM     20  H11 UNL     1      -1.122   1.893  -0.927  1.00  0.00     0.276 HD
ENDBRANCH  15  17
BRANCH  15  21
HETATM   21  C3  UNL     1      -2.060   0.827   1.306  1.00  0.00     0.274 C 
HETATM   22  O1  UNL     1      -2.577   1.917   1.455  1.00  0.00    -0.304 OA
ENDBRANCH  15  21
ENDBRANCH   1  15
TORSDOF 3
