REMARK  4 active torsions:
REMARK  status: ('A' for Active; 'I' for Inactive)
REMARK    1  A    between atoms: C3_4  and  O1_5 
REMARK    2  A    between atoms: C4_11  and  N4_12 
REMARK    3  A    between atoms: N4_12  and  S1_14 
REMARK    4  A    between atoms: S1_14  and  C5_17 
ROOT
HETATM    1  N1  UNL     1      -3.803  -2.812  -0.138  1.00  0.00    -0.191 NA
HETATM    2  C1  UNL     1      -3.751  -1.671   0.002  1.00  0.00     0.108 C 
HETATM    3  C2  UNL     1      -3.727  -0.233   0.180  1.00  0.00     0.142 A 
HETATM    4  C3  UNL     1      -4.865   0.552   0.298  1.00  0.00     0.180 A 
HETATM    5  N2  UNL     1      -4.467   1.808   0.446  1.00  0.00    -0.277 N 
ATOM      6  H2  UNL     1      -5.098   2.602   0.555  1.00  0.00     0.189 HD
HETATM    7  N3  UNL     1      -3.163   1.898   0.434  1.00  0.00    -0.282 N 
ATOM      8  H3  UNL     1      -2.617   2.754   0.531  1.00  0.00     0.188 HD
HETATM    9  C4  UNL     1      -2.656   0.614   0.265  1.00  0.00     0.155 A 
ENDROOT
BRANCH   4  10
HETATM   10  O1  UNL     1      -6.171   0.095   0.266  1.00  0.00    -0.344 OA
ATOM     11  H1  UNL     1      -6.950   0.632   0.347  1.00  0.00     0.219 HD
ENDBRANCH   4  10
BRANCH   9  12
HETATM   12  N4  UNL     1      -1.432   0.355   0.210  1.00  0.00    -0.263 N 
ATOM     13  H4  UNL     1      -0.868   1.200   0.304  1.00  0.00     0.180 HD
BRANCH  12  14
HETATM   14  S1  UNL     1      -0.485  -0.982   0.027  1.00  0.00     0.264 S 
HETATM   15  O2  UNL     1      -0.717  -1.706  -1.271  1.00  0.00    -0.200 OA
HETATM   16  O3  UNL     1      -0.682  -2.001   1.146  1.00  0.00    -0.200 OA
BRANCH  14  17
HETATM   17  C5  UNL     1       1.260  -0.583   0.027  1.00  0.00     0.080 A 
HETATM   18  C6  UNL     1       1.922  -0.287  -1.140  1.00  0.00     0.027 A 
HETATM   19  C7  UNL     1       3.273   0.023  -1.143  1.00  0.00     0.028 A 
HETATM   20  C8  UNL     1       4.008   0.046   0.024  1.00  0.00     0.046 A 
HETATM   21  N5  UNL     1       5.391   0.368  -0.018  1.00  0.00    -0.102 NA
HETATM   22  C9  UNL     1       3.342  -0.251   1.195  1.00  0.00     0.028 A 
HETATM   23  C10 UNL     1       1.990  -0.560   1.191  1.00  0.00     0.027 A 
ENDBRANCH  14  17
ENDBRANCH  12  14
ENDBRANCH   9  12
TORSDOF 4
