REMARK  3 active torsions:
REMARK  status: ('A' for Active; 'I' for Inactive)
REMARK    1  A    between atoms: N1_1  and  C1_4 
REMARK    2  A    between atoms: C2_5  and  S1_6 
REMARK    3  A    between atoms: S1_6  and  C3_9 
ROOT
HETATM    1  C1  UNL     1       1.825   0.778  -0.764  1.00  0.00     0.119 A 
HETATM    2  C2  UNL     1       1.402  -0.495  -0.531  1.00  0.00     0.112 A 
HETATM    3  C9  UNL     1       2.228  -1.369   0.202  1.00  0.00     0.133 A 
HETATM    4  N2  UNL     1       3.391  -0.907   0.637  1.00  0.00    -0.307 N 
ATOM      5  H2  UNL     1       3.989  -1.540   1.168  1.00  0.00     0.186 HD
HETATM    6  N3  UNL     1       3.822   0.320   0.426  1.00  0.00    -0.265 N 
ATOM      7  H3  UNL     1       4.729   0.613   0.790  1.00  0.00     0.190 HD
HETATM    8  C10 UNL     1       3.070   1.178  -0.264  1.00  0.00     0.287 A 
HETATM    9  O3  UNL     1       3.453   2.367  -0.487  1.00  0.00    -0.264 OA
ENDROOT
BRANCH   2  10
HETATM   10  S1  UNL     1      -0.140  -1.054  -1.048  1.00  0.00     0.210 S 
HETATM   11  O1  UNL     1      -0.343  -0.867  -2.543  1.00  0.00    -0.217 OA
HETATM   12  O2  UNL     1      -0.220  -2.552  -0.816  1.00  0.00    -0.217 OA
BRANCH  10  13
HETATM   13  C3  UNL     1      -1.504  -0.345  -0.245  1.00  0.00     0.064 A 
HETATM   14  C4  UNL     1      -1.881  -0.809   1.022  1.00  0.00     0.024 A 
HETATM   15  C5  UNL     1      -2.950  -0.337   1.724  1.00  0.00     0.002 A 
HETATM   16  C6  UNL     1      -3.699   0.665   1.129  1.00  0.00     0.000 A 
HETATM   17  C7  UNL     1      -3.347   1.133  -0.113  1.00  0.00     0.002 A 
HETATM   18  C8  UNL     1      -2.269   0.645  -0.800  1.00  0.00     0.024 A 
ENDBRANCH  10  13
ENDBRANCH   2  10
BRANCH   1  19
HETATM   19  N1  UNL     1       1.192   1.642  -1.454  1.00  0.00    -0.393 N 
ATOM     20  H12 UNL     1       0.285   1.351  -1.818  1.00  0.00     0.156 HD
ATOM     21  H11 UNL     1       1.509   2.596  -1.629  1.00  0.00     0.156 HD
ENDBRANCH   1  19
TORSDOF 3
