REMARK  2 active torsions:
REMARK  status: ('A' for Active; 'I' for Inactive)
REMARK    1  A    between atoms: C6_7  and  C7_8 
REMARK    2  A    between atoms: N4_22  and  O2_23 
ROOT
HETATM    1  C7  UNL     1       0.855   0.262   1.129  1.00  0.00     0.060 A 
HETATM    2  C8  UNL     1      -0.176  -0.086   0.591  1.00  0.00     0.037 A 
HETATM    3  C9  UNL     1      -1.124  -0.664  -0.336  1.00  0.00     0.041 C 
HETATM    4  C10 UNL     1      -2.009  -0.053  -1.074  1.00  0.00     0.045 C 
HETATM    5  C11 UNL     1      -2.775  -1.201  -1.620  1.00  0.00     0.059 C 
HETATM    6  C12 UNL     1      -3.854  -1.603  -0.479  1.00  0.00     0.037 C 
HETATM    7  C13 UNL     1      -3.382  -0.709   0.628  1.00  0.00     0.031 C 
HETATM    8  C14 UNL     1      -3.128   0.552   0.740  1.00  0.00     0.164 C 
HETATM    9  N2  UNL     1      -2.498   0.547   2.073  1.00  0.00    -0.321 N 
ATOM     10  H2  UNL     1      -3.019   0.501   2.949  1.00  0.00     0.169 HD
HETATM   11  C15 UNL     1      -0.924   0.621   1.986  1.00  0.00     0.120 A 
HETATM   12  N3  UNL     1       0.215   0.836   2.259  1.00  0.00    -0.340 N 
ATOM     13  H3  UNL     1       0.617   1.301   3.073  1.00  0.00     0.167 HD
HETATM   14  O1  UNL     1      -3.390   1.553  -0.210  1.00  0.00    -0.214 OA
HETATM   15  N4  UNL     1      -2.409   1.331  -1.371  1.00  0.00    -0.031 NA
ENDROOT
BRANCH   1  16
HETATM   16  C6  UNL     1       2.139  -0.085   0.492  1.00  0.00     0.016 A 
HETATM   17  C1  UNL     1       2.908   0.941   0.086  1.00  0.00     0.059 A 
HETATM   18  N1  UNL     1       2.497   2.307   0.252  1.00  0.00    -0.102 NA
HETATM   19  C2  UNL     1       4.120   0.649  -0.502  1.00  0.00     0.027 A 
HETATM   20  C3  UNL     1       4.562  -0.641  -0.686  1.00  0.00     0.002 A 
HETATM   21  C4  UNL     1       3.756  -1.687  -0.261  1.00  0.00     0.001 A 
HETATM   22  C5  UNL     1       2.547  -1.385   0.326  1.00  0.00     0.015 A 
ENDBRANCH   1  16
BRANCH  15  23
HETATM   23  O2  UNL     1      -2.991   1.627  -2.451  1.00  0.00    -0.284 OA
ATOM     24  H2  UNL     1      -3.249   2.521  -2.643  1.00  0.00     0.240 HD
ENDBRANCH  15  23
TORSDOF 2
