REMARK  3 active torsions:
REMARK  status: ('A' for Active; 'I' for Inactive)
REMARK    1  A    between atoms: C5_11  and  C6_12 
REMARK    2  A    between atoms: C9_15  and  S1_16 
REMARK    3  A    between atoms: S1_16  and  N3_17 
ROOT
HETATM    1  C1  UNL     1      -2.355   2.732   1.319  1.00  0.00     0.019 C 
HETATM    2  C2  UNL     1      -2.639   1.724   0.704  1.00  0.00    -0.057 C 
HETATM    3  C3  UNL     1      -2.988   0.520   0.007  1.00  0.00     0.122 A 
HETATM    4  N1  UNL     1      -4.242   0.151  -0.368  1.00  0.00    -0.250 N 
ATOM      5  H1  UNL     1      -5.091   0.692  -0.207  1.00  0.00     0.195 HD
HETATM    6  O1  UNL     1      -4.183  -1.016  -0.971  1.00  0.00    -0.218 OA
HETATM    7  C4  UNL     1      -2.921  -1.421  -1.001  1.00  0.00     0.178 A 
HETATM    8  N2  UNL     1      -2.510  -2.524  -1.519  1.00  0.00    -0.377 N 
ATOM      9  H21 UNL     1      -1.539  -2.836  -1.542  1.00  0.00     0.158 HD
ATOM     10  H22 UNL     1      -3.098  -3.224  -1.972  1.00  0.00     0.158 HD
HETATM   11  C5  UNL     1      -2.129  -0.477  -0.391  1.00  0.00     0.064 A 
ENDROOT
BRANCH  11  12
HETATM   12  C6  UNL     1      -0.689  -0.447  -0.188  1.00  0.00    -0.019 A 
HETATM   13  C7  UNL     1       0.131  -0.076  -1.241  1.00  0.00     0.014 A 
HETATM   14  C8  UNL     1       1.493  -0.021  -1.105  1.00  0.00     0.026 A 
HETATM   15  C9  UNL     1       2.108  -0.329   0.075  1.00  0.00     0.079 A 
HETATM   16  C10 UNL     1       1.272  -0.699   1.121  1.00  0.00     0.026 A 
HETATM   17  C11 UNL     1      -0.100  -0.765   1.019  1.00  0.00     0.014 A 
BRANCH  15  18
HETATM   18  S1  UNL     1       3.838  -0.264   0.233  1.00  0.00     0.256 S 
HETATM   19  O2  UNL     1       4.443  -0.684  -1.081  1.00  0.00    -0.201 OA
HETATM   20  O3  UNL     1       4.276  -1.253   1.305  1.00  0.00    -0.201 OA
BRANCH  18  21
HETATM   21  N3  UNL     1       4.440   1.257   0.666  1.00  0.00    -0.324 N 
ATOM     22  H32 UNL     1       3.827   2.058   0.818  1.00  0.00     0.169 HD
ATOM     23  H31 UNL     1       5.455   1.295   0.759  1.00  0.00     0.169 HD
ENDBRANCH  18  21
ENDBRANCH  15  18
ENDBRANCH  11  12
TORSDOF 3
