REMARK  3 active torsions:
REMARK  status: ('A' for Active; 'I' for Inactive)
REMARK    1  A    between atoms: C3_9  and  N3_10 
REMARK    2  A    between atoms: N3_10  and  N4_12 
REMARK    3  A    between atoms: C4_14  and  C5_15 
ROOT
HETATM    1  O1  UNL     1      -4.829  -1.884  -0.334  1.00  0.00    -0.246 OA
HETATM    2  C1  UNL     1      -4.133  -0.848  -0.162  1.00  0.00     0.342 A 
HETATM    3  N1  UNL     1      -4.763   0.338   0.027  1.00  0.00    -0.260 N 
ATOM      4  H1  UNL     1      -5.781   0.403   0.032  1.00  0.00     0.175 HD
HETATM    5  C2  UNL     1      -3.994   1.423   0.207  1.00  0.00     0.342 A 
HETATM    6  O2  UNL     1      -4.538   2.555   0.387  1.00  0.00    -0.246 OA
HETATM    7  N2  UNL     1      -2.650   1.372   0.206  1.00  0.00    -0.139 N 
ATOM      8  H2  UNL     1      -2.090   2.213   0.345  1.00  0.00     0.189 HD
HETATM    9  C3  UNL     1      -2.069   0.175   0.015  1.00  0.00     0.704 A 
HETATM   10  N5  UNL     1      -2.809  -0.925  -0.167  1.00  0.00    -0.139 N 
ATOM     11  H5  UNL     1      -2.353  -1.826  -0.310  1.00  0.00     0.189 HD
ENDROOT
BRANCH   9  12
HETATM   12  N3  UNL     1      -0.789   0.051   0.003  1.00  0.00    -0.132 N 
ATOM     13  H3  UNL     1      -0.220   0.886   0.142  1.00  0.00     0.205 HD
BRANCH  12  14
HETATM   14  N4  UNL     1      -0.167  -1.118  -0.183  1.00  0.00    -0.297 N 
HETATM   15  C4  UNL     1       1.026  -1.446  -0.099  1.00  0.00     0.119 C 
ATOM     16  H4  UNL     1      -0.790  -1.883  -0.442  1.00  0.00     0.186 HD
BRANCH  15  17
HETATM   17  C5  UNL     1       2.178  -0.612   0.248  1.00  0.00    -0.019 A 
HETATM   18  C6  UNL     1       2.100   0.714   0.543  1.00  0.00     0.013 A 
HETATM   19  C7  UNL     1       3.267   1.409   0.859  1.00  0.00     0.001 A 
HETATM   20  C8  UNL     1       4.493   0.794   0.882  1.00  0.00     0.000 A 
HETATM   21  C9  UNL     1       4.535  -0.547   0.579  1.00  0.00     0.001 A 
HETATM   22  C10 UNL     1       3.402  -1.245   0.266  1.00  0.00     0.013 A 
ENDBRANCH  15  17
ENDBRANCH  12  14
ENDBRANCH   9  12
TORSDOF 3
