REMARK  3 active torsions:
REMARK  status: ('A' for Active; 'I' for Inactive)
REMARK    1  A    between atoms: C4_9  and  C5_10 
REMARK    2  A    between atoms: C6_11  and  N3_12 
REMARK    3  A    between atoms: N4_18  and  N5_19 
ROOT
HETATM    1  C5  UNL     1      -0.653  -0.055   0.109  1.00  0.00     0.117 A 
HETATM    2  C6  UNL     1      -1.242   0.721   1.070  1.00  0.00     0.134 A 
HETATM    3  C7  UNL     1      -2.536   1.224   0.841  1.00  0.00     0.040 A 
HETATM    4  C8  UNL     1      -3.128   0.903  -0.336  1.00  0.00     0.022 A 
HETATM    5  C9  UNL     1      -2.497   0.123  -1.266  1.00  0.00     0.116 A 
HETATM    6  N4  UNL     1      -1.263  -0.370  -1.075  1.00  0.00    -0.269 N 
ENDROOT
BRANCH   1   7
HETATM    7  C4  UNL     1       0.676  -0.619   0.283  1.00  0.00     0.090 A 
HETATM    8  C2  UNL     1       1.834  -0.013  -0.162  1.00  0.00     0.039 A 
HETATM    9  C1  UNL     1       1.972   1.285  -0.882  1.00  0.00     0.071 C 
HETATM   10  N1  UNL     1       2.830  -0.846   0.190  1.00  0.00    -0.310 N 
HETATM   11  C3  UNL     1       2.326  -1.920   0.824  1.00  0.00     0.325 A 
ATOM     12  H1  UNL     1       3.820  -0.687   0.004  1.00  0.00     0.170 HD
HETATM   13  O1  UNL     1       3.016  -2.878   1.274  1.00  0.00    -0.247 OA
HETATM   14  N2  UNL     1       0.992  -1.760   0.871  1.00  0.00    -0.305 N 
ATOM     15  H2  UNL     1       0.331  -2.413   1.292  1.00  0.00     0.171 HD
ENDBRANCH   1   7
BRANCH   2  16
HETATM   16  N3  UNL     1      -0.584   1.049   2.273  1.00  0.00    -0.113 N 
HETATM   17  O2  UNL     1       0.197   0.270   2.813  1.00  0.00    -0.532 OA
HETATM   18  O3  UNL     1      -0.816   2.262   2.876  1.00  0.00    -0.532 OA
ENDBRANCH   2  16
BRANCH   6  19
HETATM   19  N5  UNL     1      -0.615  -1.165  -2.019  1.00  0.00    -0.338 N 
ATOM     20  H52 UNL     1       0.323  -1.540  -1.874  1.00  0.00     0.177 HD
ATOM     21  H51 UNL     1      -1.070  -1.400  -2.901  1.00  0.00     0.177 HD
ENDBRANCH   6  19
TORSDOF 3
