REMARK  4 active torsions:
REMARK  status: ('A' for Active; 'I' for Inactive)
REMARK    1  A    between atoms: N1_2  and  C2_4 
REMARK    2  A    between atoms: C4_11  and  N4_12 
REMARK    3  A    between atoms: N4_12  and  C5_14 
REMARK    4  A    between atoms: C9_18  and  C10_19 
ROOT
HETATM    1  C2  UNL     1       3.011   0.653  -0.338  1.00  0.00     0.696 A 
HETATM    2  N2  UNL     1       3.109  -0.626  -0.013  1.00  0.00    -0.140 N 
ATOM      3  H2  UNL     1       4.029  -1.047   0.119  1.00  0.00     0.189 HD
HETATM    4  C3  UNL     1       2.006  -1.370   0.144  1.00  0.00     0.352 A 
HETATM    5  O1  UNL     1       2.126  -2.585   0.453  1.00  0.00    -0.246 OA
HETATM    6  N3  UNL     1       0.782  -0.800  -0.034  1.00  0.00    -0.140 N 
ATOM      7  H3  UNL     1      -0.057  -1.368   0.085  1.00  0.00     0.189 HD
HETATM    8  C4  UNL     1       0.659   0.493  -0.363  1.00  0.00     0.701 A 
HETATM    9  N5  UNL     1       1.781   1.213  -0.513  1.00  0.00    -0.022 N 
ATOM     10  H5  UNL     1       1.712   2.199  -0.763  1.00  0.00     0.203 HD
ENDROOT
BRANCH   8  11
HETATM   11  N4  UNL     1      -0.472   1.062  -0.537  1.00  0.00    -0.191 N 
ATOM     12  H4  UNL     1      -0.468   2.051  -0.785  1.00  0.00     0.184 HD
BRANCH  11  13
HETATM   13  C5  UNL     1      -1.726   0.427  -0.412  1.00  0.00     0.050 A 
HETATM   14  C6  UNL     1      -2.176  -0.511  -1.319  1.00  0.00     0.030 A 
HETATM   15  C7  UNL     1      -3.390  -1.145  -1.224  1.00  0.00     0.003 A 
HETATM   16  C8  UNL     1      -4.223  -0.833  -0.159  1.00  0.00     0.014 A 
HETATM   17  C9  UNL     1      -3.804   0.106   0.774  1.00  0.00     0.004 A 
HETATM   18  C11 UNL     1      -2.578   0.723   0.646  1.00  0.00     0.044 A 
BRANCH  17  19
HETATM   19  C10 UNL     1      -4.688   0.425   1.888  1.00  0.00     0.270 C 
HETATM   20  O2  UNL     1      -4.342   1.271   2.752  1.00  0.00    -0.301 OA
ENDBRANCH  17  19
ENDBRANCH  11  13
ENDBRANCH   8  11
BRANCH   1  21
HETATM   21  N1  UNL     1       4.061   1.401  -0.497  1.00  0.00    -0.230 N 
HETATM   22  C1  UNL     1       5.367   0.841  -0.320  1.00  0.00     0.165 C 
ATOM     23  H1  UNL     1       3.956   2.384  -0.747  1.00  0.00     0.177 HD
ENDBRANCH   1  21
TORSDOF 4
