REMARK  11 active torsions:
REMARK  status: ('A' for Active; 'I' for Inactive)
REMARK    1  A    between atoms: N1_1  and  C1_5 
REMARK    2  A    between atoms: C1_5  and  O1_6 
REMARK    3  A    between atoms: C1_5  and  C2_8 
REMARK    4  A    between atoms: N3_12  and  C4_14 
REMARK    5  A    between atoms: N7_24  and  C7_25 
REMARK    6  A    between atoms: C7_25  and  C8_26 
REMARK    7  A    between atoms: C8_26  and  N8_27 
REMARK    8  A    between atoms: C8_26  and  C9_31 
REMARK    9  A    between atoms: C10_34  and  C11_35 
REMARK   10  A    between atoms: C12_45  and  O3_46 
REMARK   11  A    between atoms: C13_48  and  O4_49 
ROOT
HETATM    1  C2  UNL     1      -2.492  -1.931  -0.714  1.00  0.00     0.133 A 
HETATM    2  N2  UNL     1      -2.773  -0.622  -0.569  1.00  0.00    -0.186 N 
ATOM      3  H2  UNL     1      -3.706  -0.213  -0.621  1.00  0.00     0.184 HD
HETATM    4  C3  UNL     1      -1.644   0.063  -0.346  1.00  0.00     0.688 A 
HETATM    5  N3  UNL     1      -1.553   1.325  -0.173  1.00  0.00    -0.169 N 
ATOM      6  H3  UNL     1      -0.614   1.689  -0.013  1.00  0.00     0.186 HD
HETATM    7  N7  UNL     1      -0.630  -0.810  -0.348  1.00  0.00    -0.158 N 
HETATM    8  C13 UNL     1      -1.129  -2.049  -0.573  1.00  0.00     0.185 A 
ENDROOT
BRANCH   7   9
HETATM    9  C7  UNL     1       0.772  -0.540  -0.145  1.00  0.00     0.189 C 
BRANCH   9  10
HETATM   10  C8  UNL     1       1.211  -0.662   1.276  1.00  0.00     0.255 C 
BRANCH  10  11
HETATM   11  N8  UNL     1       0.482   0.266   2.103  1.00  0.00    -0.068 N 
ATOM     12  H83 UNL     1       0.560   1.224   1.761  1.00  0.00     0.275 HD
ATOM     13  H82 UNL     1      -0.527   0.153   2.005  1.00  0.00     0.275 HD
ATOM     14  H81 UNL     1       0.782   0.183   3.074  1.00  0.00     0.275 HD
ENDBRANCH  10  11
BRANCH  10  15
HETATM   15  C9  UNL     1       2.710  -0.473   1.402  1.00  0.00     0.083 A 
HETATM   16  N9  UNL     1       3.442  -0.027   0.424  1.00  0.00    -0.346 N 
HETATM   17  C10 UNL     1       4.736   0.130   0.577  1.00  0.00     0.124 A 
ATOM     18  H9  UNL     1       3.007   0.203  -0.469  1.00  0.00     0.166 HD
HETATM   19  S1  UNL     1       4.977  -0.375   2.191  1.00  0.00    -0.042 SA
HETATM   20  C12 UNL     1       3.351  -0.766   2.580  1.00  0.00     0.134 A 
BRANCH  17  21
HETATM   21  C11 UNL     1       5.713   0.620  -0.404  1.00  0.00     0.171 A 
HETATM   22  N10 UNL     1       5.557   1.024  -1.668  1.00  0.00    -0.266 N 
HETATM   23  N11 UNL     1       6.738   1.390  -2.189  1.00  0.00    -0.227 N 
ATOM     24  H10 UNL     1       4.667   1.050  -2.166  1.00  0.00     0.190 HD
HETATM   25  N12 UNL     1       7.631   1.209  -1.236  1.00  0.00    -0.227 N 
ATOM     26  H11 UNL     1       6.910   1.738  -3.132  1.00  0.00     0.210 HD
HETATM   27  N13 UNL     1       7.030   0.741  -0.144  1.00  0.00    -0.266 N 
ATOM     28  H12 UNL     1       8.630   1.399  -1.322  1.00  0.00     0.210 HD
ATOM     29  H13 UNL     1       7.488   0.513   0.738  1.00  0.00     0.190 HD
ENDBRANCH  17  21
BRANCH  20  30
HETATM   30  O3  UNL     1       2.795  -1.258   3.777  1.00  0.00    -0.352 OA
ATOM     31  H3  UNL     1       3.239  -1.461   4.592  1.00  0.00     0.218 HD
ENDBRANCH  20  30
ENDBRANCH  10  15
ENDBRANCH   9  10
ENDBRANCH   7   9
BRANCH   8  32
HETATM   32  O4  UNL     1      -0.432  -3.253  -0.655  1.00  0.00    -0.344 OA
ATOM     33  H4  UNL     1       0.509  -3.335  -0.558  1.00  0.00     0.219 HD
ENDBRANCH   8  32
BRANCH   5  34
HETATM   34  C4  UNL     1      -2.584   2.266  -0.177  1.00  0.00     0.204 A 
HETATM   35  N4  UNL     1      -3.795   2.135   0.344  1.00  0.00    -0.280 N 
HETATM   36  N5  UNL     1      -4.704   3.102   0.279  1.00  0.00    -0.294 N 
ATOM     37  H4  UNL     1      -4.038   1.261   0.811  1.00  0.00     0.188 HD
HETATM   38  C5  UNL     1      -4.423   4.275  -0.330  1.00  0.00     0.200 A 
ATOM     39  H5  UNL     1      -5.625   2.957   0.694  1.00  0.00     0.187 HD
HETATM   40  N6  UNL     1      -3.207   4.466  -0.878  1.00  0.00    -0.315 N 
HETATM   41  C6  UNL     1      -2.312   3.491  -0.805  1.00  0.00     0.292 A 
ATOM     42  H6  UNL     1      -2.979   5.346  -1.341  1.00  0.00     0.170 HD
HETATM   43  O2  UNL     1      -1.163   3.686  -1.329  1.00  0.00    -0.264 OA
ENDBRANCH   5  34
BRANCH   1  44
HETATM   44  C1  UNL     1      -3.457  -3.022  -0.971  1.00  0.00     0.372 C 
BRANCH  44  45
HETATM   45  N1  UNL     1      -4.617  -2.847  -0.097  1.00  0.00    -0.047 N 
ATOM     46  H13 UNL     1      -5.273  -3.628  -0.125  1.00  0.00     0.277 HD
ATOM     47  H12 UNL     1      -4.395  -2.911   0.897  1.00  0.00     0.277 HD
ATOM     48  H11 UNL     1      -5.030  -1.955  -0.368  1.00  0.00     0.277 HD
ENDBRANCH  44  45
BRANCH  44  49
HETATM   49  O1  UNL     1      -2.893  -4.240  -0.601  1.00  0.00    -0.365 OA
ATOM     50  H1  UNL     1      -2.140  -4.354  -1.169  1.00  0.00     0.212 HD
ENDBRANCH  44  49
ENDBRANCH   1  44
TORSDOF 11
