REMARK  9 active torsions:
REMARK  status: ('A' for Active; 'I' for Inactive)
REMARK       I    between atoms: N1_2  and  C2_4 
REMARK    1  A    between atoms: C2_4  and  C3_6 
REMARK    2  A    between atoms: C4_10  and  C5_11 
REMARK    3  A    between atoms: C5_11  and  N3_12 
REMARK    4  A    between atoms: N3_12  and  C6_13 
REMARK    5  A    between atoms: N3_12  and  N6_25 
REMARK    6  A    between atoms: C7_16  and  O3_17 
REMARK    7  A    between atoms: C9_22  and  O4_23 
REMARK    8  A    between atoms: C10_26  and  N7_27 
REMARK    9  A    between atoms: C12_39  and  N12_40 
ROOT
HETATM    1  N3  UNL     1      -1.066   1.046   0.416  1.00  0.00    -0.230 N 
ENDROOT
BRANCH   1   2
HETATM    2  C5  UNL     1      -0.067   1.466   1.404  1.00  0.00     0.239 C 
BRANCH   2   3
HETATM    3  C4  UNL     1       1.291   1.547   0.783  1.00  0.00     0.168 A 
HETATM    4  O2  UNL     1       2.125   2.570   0.728  1.00  0.00    -0.221 OA
HETATM    5  N2  UNL     1       3.201   2.260   0.110  1.00  0.00    -0.238 N 
HETATM    6  C3  UNL     1       3.123   0.976  -0.285  1.00  0.00     0.196 A 
ATOM      7  H2  UNL     1       3.990   2.885  -0.056  1.00  0.00     0.196 HD
HETATM    8  N14 UNL     1       1.923   0.554   0.147  1.00  0.00    -0.317 N 
ATOM      9  H14 UNL     1       1.549  -0.385   0.010  1.00  0.00     0.169 HD
BRANCH   6  10
HETATM   10  C2  UNL     1       4.135   0.233  -1.018  1.00  0.00     0.287 C 
HETATM   11  N1  UNL     1       3.928  -1.119  -1.382  1.00  0.00    -0.359 N 
HETATM   12  C1  UNL     1       4.905  -1.875  -2.103  1.00  0.00     0.149 C 
ATOM     13  H1  UNL     1       3.051  -1.570  -1.121  1.00  0.00     0.162 HD
HETATM   14  O1  UNL     1       5.218   0.780  -1.344  1.00  0.00    -0.264 OA
ENDBRANCH   6  10
ENDBRANCH   2   3
ENDBRANCH   1   2
BRANCH   1  15
HETATM   15  C6  UNL     1      -1.206   1.985  -0.656  1.00  0.00     0.162 A 
HETATM   16  N4  UNL     1      -0.775   1.710  -1.916  1.00  0.00    -0.305 N 
HETATM   17  C7  UNL     1      -0.847   2.565  -2.933  1.00  0.00     0.222 A 
ATOM     18  H4  UNL     1      -0.371   0.790  -2.093  1.00  0.00     0.171 HD
HETATM   19  N5  UNL     1      -1.379   3.774  -2.688  1.00  0.00    -0.330 N 
HETATM   20  C8  UNL     1      -1.832   4.138  -1.476  1.00  0.00     0.132 A 
ATOM     21  H5  UNL     1      -1.442   4.444  -3.454  1.00  0.00     0.168 HD
HETATM   22  C9  UNL     1      -1.746   3.229  -0.435  1.00  0.00     0.127 A 
BRANCH  17  23
HETATM   23  O3  UNL     1      -0.403   2.267  -4.212  1.00  0.00    -0.332 OA
ATOM     24  H3  UNL     1      -0.454   2.877  -4.938  1.00  0.00     0.220 HD
ENDBRANCH  17  23
BRANCH  22  25
HETATM   25  O4  UNL     1      -2.225   3.643   0.797  1.00  0.00    -0.356 OA
ATOM     26  H4  UNL     1      -2.598   4.503   0.950  1.00  0.00     0.218 HD
ENDBRANCH  22  25
ENDBRANCH   1  15
BRANCH   1  27
HETATM   27  N6  UNL     1      -1.765  -0.147   0.490  1.00  0.00     0.098 N 
HETATM   28  C10 UNL     1      -2.859  -0.480  -0.197  1.00  0.00     0.728 A 
HETATM   29  N8  UNL     1      -3.161  -1.761   0.177  1.00  0.00    -0.094 N 
HETATM   30  N9  UNL     1      -2.289  -2.184   1.052  1.00  0.00     0.107 N 
ATOM     31  H8  UNL     1      -3.949  -2.304  -0.175  1.00  0.00     0.207 HD
HETATM   32  C11 UNL     1      -2.184  -3.384   1.697  1.00  0.00     0.727 A 
HETATM   33  C13 UNL     1      -1.404  -1.198   1.268  1.00  0.00     0.770 A 
HETATM   34  N10 UNL     1      -3.048  -4.309   1.469  1.00  0.00    -0.232 N 
HETATM   35  N11 UNL     1      -1.185  -3.586   2.557  1.00  0.00    -0.020 N 
ATOM     36 2H10 UNL     1      -3.812  -4.154   0.811  1.00  0.00     0.174 HD
ATOM     37 1H10 UNL     1      -2.970  -5.205   1.950  1.00  0.00     0.174 HD
HETATM   38  C12 UNL     1      -0.282  -2.623   2.798  1.00  0.00     0.705 A 
ATOM     39  H11 UNL     1      -1.106  -4.483   3.037  1.00  0.00     0.203 HD
HETATM   40  N13 UNL     1      -0.416  -1.462   2.150  1.00  0.00    -0.017 N 
ATOM     41  H13 UNL     1       0.270  -0.730   2.333  1.00  0.00     0.203 HD
BRANCH  28  42
HETATM   42  N7  UNL     1      -3.598   0.132  -1.042  1.00  0.00    -0.231 N 
ATOM     43  H72 UNL     1      -3.373   1.087  -1.321  1.00  0.00     0.174 HD
ATOM     44  H71 UNL     1      -4.434  -0.123  -1.567  1.00  0.00     0.174 HD
ENDBRANCH  28  42
BRANCH  38  45
HETATM   45  N12 UNL     1       0.663  -2.865   3.637  1.00  0.00    -0.234 N 
ATOM     46 2H12 UNL     1       0.765  -3.751   4.132  1.00  0.00     0.174 HD
ATOM     47 1H12 UNL     1       1.349  -2.133   3.820  1.00  0.00     0.174 HD
ENDBRANCH  38  45
ENDBRANCH   1  27
TORSDOF 9
