REMARK  7 active torsions:
REMARK  status: ('A' for Active; 'I' for Inactive)
REMARK    1  A    between atoms: C2_2  and  C3_3 
REMARK    2  A    between atoms: C3_3  and  C4_4 
REMARK    3  A    between atoms: C4_4  and  N1_5 
REMARK    4  A    between atoms: C10_11  and  N2_12 
REMARK    5  A    between atoms: N2_12  and  C11_13 
REMARK    6  A    between atoms: N2_12  and  C13_15 
REMARK    7  A    between atoms: C13_15  and  C14_16 
ROOT
HETATM    1  N1  UNL     1       1.224   0.255  -0.676  1.00  0.00    -0.344 N 
HETATM    2  C5  UNL     1       0.127  -0.542  -0.655  1.00  0.00     0.054 A 
HETATM    3  C6  UNL     1       0.233  -1.830  -1.150  1.00  0.00    -0.034 A 
HETATM    4  C7  UNL     1       1.425  -2.319  -1.853  1.00  0.00     0.050 C 
HETATM    5  C8  UNL     1      -0.923  -2.639  -1.159  1.00  0.00     0.011 A 
HETATM    6  C9  UNL     1      -2.084  -2.152  -0.707  1.00  0.00     0.031 A 
HETATM    7  C10 UNL     1      -2.238  -0.825  -0.204  1.00  0.00     0.043 A 
HETATM    8  C15 UNL     1      -1.136  -0.028  -0.181  1.00  0.00     0.030 A 
HETATM    9  C16 UNL     1      -1.275   1.322   0.273  1.00  0.00    -0.001 A 
HETATM   10  C17 UNL     1      -2.359   1.925   0.825  1.00  0.00     0.064 A 
HETATM   11  S1  UNL     1      -1.791   3.520   1.251  1.00  0.00    -0.096 SA
HETATM   12  C18 UNL     1      -0.211   3.366   0.721  1.00  0.00     0.061 A 
HETATM   13  C19 UNL     1       0.811   4.333   0.887  1.00  0.00     0.118 C 
HETATM   14  N3  UNL     1       0.375   5.495   1.096  1.00  0.00    -0.384 N 
ATOM     15  H31 UNL     1       1.111   6.191   1.216  1.00  0.00     0.157 HD
ATOM     16  H32 UNL     1      -0.626   5.688   1.114  1.00  0.00     0.157 HD
HETATM   17  N4  UNL     1       2.173   4.070   0.862  1.00  0.00    -0.326 N 
ATOM     18  H4  UNL     1       2.769   4.385   1.627  1.00  0.00     0.169 HD
HETATM   19  C20 UNL     1       2.715   3.385  -0.194  1.00  0.00     0.135 A 
HETATM   20  N5  UNL     1       3.743   3.689  -0.984  1.00  0.00    -0.285 N 
ATOM     21  H5  UNL     1       4.364   4.488  -0.855  1.00  0.00     0.188 HD
HETATM   22  N6  UNL     1       3.842   2.789  -1.976  1.00  0.00    -0.309 N 
ATOM     23  H6  UNL     1       4.546   2.797  -2.714  1.00  0.00     0.186 HD
HETATM   24  C21 UNL     1       2.852   1.864  -1.838  1.00  0.00     0.124 A 
HETATM   25  C22 UNL     1       2.159   2.198  -0.763  1.00  0.00     0.054 A 
HETATM   26  C23 UNL     1       1.030   1.520  -0.264  1.00  0.00     0.063 A 
HETATM   27  C24 UNL     1      -0.148   2.080   0.213  1.00  0.00     0.024 A 
ENDROOT
BRANCH   7  28
HETATM   28  N2  UNL     1      -3.570  -0.563   0.175  1.00  0.00    -0.375 N 
BRANCH  28  29
HETATM   29  C11 UNL     1      -4.000  -0.994   1.500  1.00  0.00     0.119 C 
HETATM   30  C12 UNL     1      -2.916  -1.588   2.332  1.00  0.00     0.026 C 
ENDBRANCH  28  29
BRANCH  28  31
HETATM   31  C13 UNL     1      -4.562  -0.005  -0.704  1.00  0.00     0.194 C 
BRANCH  31  32
HETATM   32  C14 UNL     1      -5.613  -0.906  -1.231  1.00  0.00     0.370 C 
HETATM   33  F1  UNL     1      -5.203  -1.957  -1.998  1.00  0.00    -0.213 F 
HETATM   34  F2  UNL     1      -6.445  -0.134  -2.062  1.00  0.00    -0.213 F 
ENDBRANCH  31  32
ENDBRANCH  28  31
ENDBRANCH   7  28
BRANCH   1  35
HETATM   35  C4  UNL     1       2.448  -0.375  -0.765  1.00  0.00     0.129 C 
BRANCH  35  36
HETATM   36  C3  UNL     1       2.947  -0.902   0.664  1.00  0.00     0.020 C 
BRANCH  36  37
HETATM   37  C2  UNL     1       4.313  -1.552   0.549  1.00  0.00    -0.003 C 
HETATM   38  C1  UNL     1       4.817  -2.054   1.852  1.00  0.00     0.005 C 
ENDBRANCH  36  37
ENDBRANCH  35  36
ENDBRANCH   1  35
TORSDOF 7
