REMARK  9 active torsions:
REMARK  status: ('A' for Active; 'I' for Inactive)
REMARK    1  A    between atoms: C2_2  and  C3_3 
REMARK    2  A    between atoms: C3_3  and  C4_4 
REMARK    3  A    between atoms: C4_4  and  C5_5 
REMARK    4  A    between atoms: N1_6  and  C6_8 
REMARK    5  A    between atoms: C10_13  and  O1_14 
REMARK    6  A    between atoms: C12_18  and  C13_19 
REMARK    7  A    between atoms: C13_19  and  C14_20 
REMARK    8  A    between atoms: C15_22  and  O3_23 
REMARK    9  A    between atoms: C19_28  and  O5_29 
ROOT
HETATM    1  C6  UNL     1       2.435  -1.296   1.305  1.00  0.00     0.033 A 
HETATM    2  C7  UNL     1       2.340  -0.035   1.879  1.00  0.00     0.049 A 
HETATM    3  C8  UNL     1       1.212   0.741   1.831  1.00  0.00     0.027 A 
HETATM    4 BR1  UNL     1       1.124   2.477   2.635  1.00  0.00    -0.050 Br
HETATM    5  C9  UNL     1       0.122   0.221   1.172  1.00  0.00     0.030 A 
HETATM    6  C10 UNL     1      -1.012   0.986   1.119  1.00  0.00     0.113 A 
HETATM    7  C11 UNL     1      -2.119   0.465   0.456  1.00  0.00     0.127 A 
HETATM    8  O2  UNL     1      -3.182   1.206   0.418  1.00  0.00    -0.308 OA
HETATM    9  C12 UNL     1      -4.287   0.834  -0.174  1.00  0.00     0.092 A 
HETATM   10  C15 UNL     1      -4.338  -0.388  -0.783  1.00  0.00     0.149 A 
HETATM   11  C17 UNL     1      -3.228  -1.235  -0.777  1.00  0.00     0.223 A 
HETATM   12  O4  UNL     1      -3.282  -2.349  -1.335  1.00  0.00    -0.284 OA
HETATM   13  C18 UNL     1      -2.091  -0.799  -0.144  1.00  0.00     0.088 A 
HETATM   14  C19 UNL     1      -0.950  -1.569  -0.090  1.00  0.00     0.094 A 
HETATM   15  C20 UNL     1       0.158  -1.016   0.588  1.00  0.00     0.015 A 
HETATM   16  C21 UNL     1       1.315  -1.786   0.649  1.00  0.00     0.044 A 
ENDROOT
BRANCH   1  17
HETATM   17  N1  UNL     1       3.636  -2.043   1.398  1.00  0.00    -0.369 N 
HETATM   18  C5  UNL     1       4.522  -1.984   0.483  1.00  0.00     0.061 C 
ATOM     19  H1  UNL     1       3.794  -2.638   2.211  1.00  0.00     0.165 HD
BRANCH  18  20
HETATM   20  C4  UNL     1       4.308  -1.127  -0.697  1.00  0.00     0.044 C 
BRANCH  20  21
HETATM   21  C3  UNL     1       5.525  -0.248  -0.975  1.00  0.00     0.005 C 
BRANCH  21  22
HETATM   22  C2  UNL     1       5.768   0.638   0.218  1.00  0.00    -0.004 C 
HETATM   23  C1  UNL     1       6.937   1.552   0.069  1.00  0.00     0.005 C 
ENDBRANCH  21  22
ENDBRANCH  20  21
ENDBRANCH  18  20
ENDBRANCH   1  17
BRANCH  14  24
HETATM   24  O5  UNL     1      -0.834  -2.799  -0.642  1.00  0.00    -0.359 OA
ATOM     25  H5  UNL     1      -0.047  -3.330  -0.605  1.00  0.00     0.217 HD
ENDBRANCH  14  24
BRANCH   6  26
HETATM   26  O1  UNL     1      -1.060   2.260   1.713  1.00  0.00    -0.357 OA
ATOM     27  H1  UNL     1      -1.847   2.791   1.676  1.00  0.00     0.217 HD
ENDBRANCH   6  26
BRANCH  10  28
HETATM   28  O3  UNL     1      -5.485  -0.842  -1.424  1.00  0.00    -0.350 OA
HETATM   29  C16 UNL     1      -6.514  -1.576  -0.836  1.00  0.00     0.210 C 
ENDBRANCH  10  28
BRANCH   9  30
HETATM   30  C13 UNL     1      -5.408   1.798  -0.135  1.00  0.00     0.083 C 
BRANCH  30  31
HETATM   31  C14 UNL     1      -5.430   2.642  -1.375  1.00  0.00     0.121 C 
HETATM   32 CL1  UNL     1      -5.617   1.757  -2.882  1.00  0.00    -0.130 Cl
ENDBRANCH  30  31
ENDBRANCH   9  30
TORSDOF 9
