REMARK  9 active torsions:
REMARK  status: ('A' for Active; 'I' for Inactive)
REMARK    1  A    between atoms: C2_2  and  N1_3 
REMARK    2  A    between atoms: N1_3  and  C3_4 
REMARK    3  A    between atoms: N1_3  and  C5_6 
REMARK    4  A    between atoms: C5_6  and  N2_7 
REMARK    5  A    between atoms: C6_8  and  O1_9 
REMARK    6  A    between atoms: C7_11  and  N3_12 
REMARK    7  A    between atoms: N4_14  and  C8_16 
REMARK    8  A    between atoms: C14_24  and  C15_25 
REMARK    9  A    between atoms: C17_29  and  C18_30 
ROOT
HETATM    1  C15 UNL     1       1.418  -2.421  -0.571  1.00  0.00     0.201 C 
HETATM    2  N5  UNL     1       1.016  -3.738  -1.051  1.00  0.00    -0.066 NA
HETATM    3  N6  UNL     1       2.561  -2.493  -0.211  1.00  0.00    -0.413 NA
HETATM    4  C16 UNL     1       3.833  -2.539   0.198  1.00  0.00     0.230 C 
ENDROOT
BRANCH   1   5
HETATM    5  C14 UNL     1       0.566  -1.235  -0.528  1.00  0.00     0.075 A 
HETATM    6  C7  UNL     1       1.133  -0.048   0.009  1.00  0.00     0.116 A 
HETATM    7  C6  UNL     1       0.175   0.907  -0.056  1.00  0.00     0.177 A 
HETATM    8  N2  UNL     1      -0.977   0.432  -0.597  1.00  0.00    -0.288 N 
HETATM    9  C17 UNL     1      -0.720  -0.884  -0.882  1.00  0.00     0.044 A 
BRANCH   6  10
HETATM   10  N3  UNL     1       2.455   0.115   0.521  1.00  0.00    -0.295 N 
HETATM   11  N4  UNL     1       3.053   1.179   0.255  1.00  0.00    -0.299 N 
ATOM     12  H4  UNL     1       2.534   1.848  -0.314  1.00  0.00     0.187 HD
ATOM     13  H3  UNL     1       2.896  -0.612   1.084  1.00  0.00     0.187 HD
BRANCH  11  14
HETATM   14  C8  UNL     1       4.339   1.575   0.634  1.00  0.00     0.070 A 
HETATM   15  C9  UNL     1       4.970   0.982   1.703  1.00  0.00     0.034 A 
HETATM   16  C10 UNL     1       6.258   1.372   2.091  1.00  0.00     0.026 A 
HETATM   17  C11 UNL     1       6.916   2.365   1.400  1.00  0.00     0.035 A 
HETATM   18 CL1  UNL     1       8.523   2.842   1.896  1.00  0.00    -0.084 Cl
HETATM   19  C12 UNL     1       6.296   2.967   0.329  1.00  0.00     0.050 A 
HETATM   20  C13 UNL     1       5.016   2.565  -0.041  1.00  0.00     0.063 A 
HETATM   21 CL2  UNL     1       4.269   3.352  -1.398  1.00  0.00    -0.082 Cl
ENDBRANCH  11  14
ENDBRANCH   6  10
BRANCH   7  22
HETATM   22  O1  UNL     1       0.390   2.219   0.394  1.00  0.00    -0.344 OA
ATOM     23  H1  UNL     1       1.196   2.551   0.772  1.00  0.00     0.219 HD
ENDBRANCH   7  22
BRANCH   8  24
HETATM   24  C5  UNL     1      -2.139   1.238  -0.777  1.00  0.00     0.192 C 
BRANCH  24  25
HETATM   25  N1  UNL     1      -3.085   1.296   0.282  1.00  0.00    -0.357 N 
BRANCH  25  26
HETATM   26  C2  UNL     1      -4.152   2.176  -0.104  1.00  0.00     0.124 C 
HETATM   27  C1  UNL     1      -5.488   1.892   0.505  1.00  0.00     0.027 C 
ENDBRANCH  25  26
BRANCH  25  28
HETATM   28  C3  UNL     1      -2.636   1.389   1.599  1.00  0.00     0.060 C 
HETATM   29  C4  UNL     1      -3.648   0.892   2.604  1.00  0.00     0.055 C 
ENDBRANCH  25  28
ENDBRANCH  24  25
ENDBRANCH   8  24
BRANCH   9  30
HETATM   30  C18 UNL     1      -1.659  -1.811  -1.493  1.00  0.00    -0.007 C 
HETATM   31  C19 UNL     1      -3.043  -1.304  -1.837  1.00  0.00     0.021 C 
HETATM   32  C20 UNL     1      -1.963  -2.976  -0.581  1.00  0.00     0.021 C 
HETATM   33  C21 UNL     1      -1.104  -2.275  -2.834  1.00  0.00     0.021 C 
ENDBRANCH   9  30
ENDBRANCH   1   5
TORSDOF 9
