REMARK  8 active torsions:
REMARK  status: ('A' for Active; 'I' for Inactive)
REMARK    1  A    between atoms: C7_9  and  S1_10 
REMARK    2  A    between atoms: S1_10  and  C8_11 
REMARK    3  A    between atoms: C12_19  and  C13_20 
REMARK    4  A    between atoms: N5_29  and  C18_30 
REMARK    5  A    between atoms: C18_30  and  C19_31 
REMARK    6  A    between atoms: C19_31  and  C20_32 
REMARK    7  A    between atoms: C20_32  and  C21_33 
REMARK    8  A    between atoms: C21_33  and  O1_34 
ROOT
HETATM    1  C8  UNL     1      -1.116  -0.251   0.416  1.00  0.00     0.090 A 
HETATM    2  N1  UNL     1      -1.204  -1.347   1.229  1.00  0.00    -0.346 N 
ATOM      3  H1  UNL     1      -2.117  -1.758   1.424  1.00  0.00     0.167 HD
HETATM    4  C9  UNL     1      -0.109  -1.885   1.770  1.00  0.00     0.182 A 
HETATM    5  N2  UNL     1       1.074  -1.327   1.498  1.00  0.00    -0.338 N 
ATOM      6  H2  UNL     1       1.911  -1.739   1.911  1.00  0.00     0.168 HD
HETATM    7  C10 UNL     1       1.215  -0.259   0.714  1.00  0.00     0.122 A 
HETATM    8  C11 UNL     1       0.108   0.332   0.134  1.00  0.00     0.055 A 
HETATM    9  C12 UNL     1       0.532   1.393  -0.624  1.00  0.00     0.010 A 
HETATM   10  C17 UNL     1       1.929   1.425  -0.490  1.00  0.00     0.106 A 
HETATM   11  N5  UNL     1       2.319   0.430   0.314  1.00  0.00    -0.342 N 
ENDROOT
BRANCH   1  12
HETATM   12  S1  UNL     1      -2.578   0.412  -0.341  1.00  0.00    -0.069 SA
BRANCH  12  13
HETATM   13  C7  UNL     1      -4.006  -0.541   0.129  1.00  0.00     0.034 A 
HETATM   14  C2  UNL     1      -4.710  -0.187   1.260  1.00  0.00    -0.042 A 
HETATM   15  C1  UNL     1      -4.314   0.988   2.111  1.00  0.00     0.049 C 
HETATM   16  C3  UNL     1      -5.818  -0.956   1.598  1.00  0.00     0.032 A 
HETATM   17  C4  UNL     1      -6.239  -2.035   0.872  1.00  0.00     0.036 A 
HETATM   18 CL1  UNL     1      -7.647  -2.984   1.337  1.00  0.00    -0.084 Cl
HETATM   19  C5  UNL     1      -5.526  -2.376  -0.252  1.00  0.00     0.049 A 
HETATM   20  C6  UNL     1      -4.421  -1.638  -0.621  1.00  0.00     0.053 A 
HETATM   21 CL2  UNL     1      -3.530  -2.112  -2.077  1.00  0.00    -0.083 Cl
ENDBRANCH  12  13
ENDBRANCH   1  12
BRANCH   9  22
HETATM   22  C13 UNL     1      -0.270   2.348  -1.352  1.00  0.00     0.017 A 
HETATM   23  C14 UNL     1      -1.230   3.241  -0.899  1.00  0.00     0.121 A 
HETATM   24  N3  UNL     1      -1.676   4.000  -1.890  1.00  0.00    -0.311 N 
HETATM   25  N4  UNL     1      -1.034   3.628  -2.977  1.00  0.00    -0.305 N 
ATOM     26  H3  UNL     1      -2.382   4.733  -1.823  1.00  0.00     0.186 HD
HETATM   27  C15 UNL     1      -0.177   2.641  -2.721  1.00  0.00     0.034 A 
ATOM     28  H4  UNL     1      -1.175   4.043  -3.898  1.00  0.00     0.186 HD
HETATM   29  C16 UNL     1       0.729   1.953  -3.708  1.00  0.00     0.070 C 
ENDBRANCH   9  22
BRANCH  11  30
HETATM   30  C18 UNL     1       3.683   0.106   0.719  1.00  0.00     0.130 C 
BRANCH  30  31
HETATM   31  C19 UNL     1       4.196  -0.867  -0.317  1.00  0.00     0.022 C 
BRANCH  31  32
HETATM   32  C20 UNL     1       5.593  -1.298  -0.028  1.00  0.00     0.028 C 
BRANCH  32  33
HETATM   33  C21 UNL     1       5.664  -1.987   1.319  1.00  0.00     0.164 C 
BRANCH  33  34
HETATM   34  O1  UNL     1       7.015  -2.364   1.504  1.00  0.00    -0.401 OA
ATOM     35  H1  UNL     1       7.060  -2.796   2.349  1.00  0.00     0.209 HD
ENDBRANCH  33  34
ENDBRANCH  32  33
ENDBRANCH  31  32
ENDBRANCH  30  31
ENDBRANCH  11  30
TORSDOF 8
