REMARK  8 active torsions:
REMARK  status: ('A' for Active; 'I' for Inactive)
REMARK    1  A    between atoms: C2_2  and  C3_3 
REMARK    2  A    between atoms: C5_5  and  C6_6 
REMARK    3  A    between atoms: C6_6  and  C7_7 
REMARK    4  A    between atoms: C13_17  and  O2_18 
REMARK    5  A    between atoms: N2_21  and  C15_22 
REMARK    6  A    between atoms: C15_22  and  C16_23 
REMARK    7  A    between atoms: C16_23  and  O3_24 
REMARK    8  A    between atoms: O3_24  and  C17_25 
ROOT
HETATM    1  C7  UNL     1      -2.511  -0.417   1.239  1.00  0.00     0.102 A 
HETATM    2  C8  UNL     1      -2.218  -1.750   1.773  1.00  0.00     0.127 A 
HETATM    3  N1  UNL     1      -3.000  -2.538   2.397  1.00  0.00    -0.383 N 
ATOM      4  H11 UNL     1      -2.796  -3.466   2.769  1.00  0.00     0.158 HD
ATOM      5  H12 UNL     1      -3.974  -2.314   2.603  1.00  0.00     0.158 HD
HETATM    6  O1  UNL     1      -0.888  -2.056   1.492  1.00  0.00    -0.296 OA
HETATM    7  C9  UNL     1      -0.274  -0.963   0.876  1.00  0.00     0.097 A 
HETATM    8  C10 UNL     1       1.026  -0.761   0.418  1.00  0.00     0.021 A 
HETATM    9  C11 UNL     1       1.392   0.416  -0.148  1.00  0.00     0.044 A 
HETATM   10  C12 UNL     1       0.467   1.445  -0.280  1.00  0.00     0.067 A 
HETATM   11  C13 UNL     1      -0.827   1.270   0.164  1.00  0.00     0.077 A 
HETATM   12  C14 UNL     1      -1.166   0.057   0.736  1.00  0.00     0.022 A 
HETATM   13  N2  UNL     1       2.724  -0.019  -0.362  1.00  0.00    -0.374 N 
HETATM   14  C21 UNL     1       2.403  -1.292   0.222  1.00  0.00     0.167 A 
ENDROOT
BRANCH  13  15
HETATM   15  C15 UNL     1       3.934   0.591  -0.940  1.00  0.00     0.150 C 
BRANCH  15  16
HETATM   16  C16 UNL     1       4.946   0.822   0.129  1.00  0.00     0.195 C 
BRANCH  16  17
HETATM   17  O3  UNL     1       6.147   1.372  -0.288  1.00  0.00    -0.345 OA
BRANCH  17  18
HETATM   18  C17 UNL     1       7.032   0.759  -1.218  1.00  0.00     0.119 A 
HETATM   19  C18 UNL     1       7.983  -0.111  -0.833  1.00  0.00     0.076 A 
HETATM   20 CL1  UNL     1       8.245  -0.596   0.867  1.00  0.00    -0.081 Cl
HETATM   21  C19 UNL     1       8.784  -0.644  -1.803  1.00  0.00     0.078 A 
HETATM   22  S1  UNL     1       8.187   0.085  -3.227  1.00  0.00    -0.085 SA
HETATM   23  C20 UNL     1       6.945   1.039  -2.550  1.00  0.00     0.109 A 
HETATM   24 CL2  UNL     1       5.872   2.109  -3.435  1.00  0.00    -0.073 Cl
ENDBRANCH  17  18
ENDBRANCH  16  17
ENDBRANCH  15  16
ENDBRANCH  13  15
BRANCH  11  25
HETATM   25  O2  UNL     1      -1.755   2.312   0.028  1.00  0.00    -0.360 OA
ATOM     26  H2  UNL     1      -2.646   2.191   0.334  1.00  0.00     0.217 HD
ENDBRANCH  11  25
BRANCH   1  27
HETATM   27  C6  UNL     1      -3.397  -0.424   0.009  1.00  0.00     0.045 C 
BRANCH  27  28
HETATM   28  C5  UNL     1      -4.711  -1.031   0.191  1.00  0.00    -0.019 C 
HETATM   29  C3  UNL     1      -5.879  -0.441   0.086  1.00  0.00    -0.067 C 
HETATM   30  C4  UNL     1      -7.116  -1.263   0.317  1.00  0.00     0.048 C 
BRANCH  29  31
HETATM   31  C2  UNL     1      -6.043   0.950  -0.238  1.00  0.00    -0.004 C 
HETATM   32  C1  UNL     1      -7.244   1.516  -0.338  1.00  0.00     0.012 C 
ENDBRANCH  29  31
ENDBRANCH  27  28
ENDBRANCH   1  27
TORSDOF 8
