REMARK  10 active torsions:
REMARK  status: ('A' for Active; 'I' for Inactive)
REMARK    1  A    between atoms: O1_2  and  C2_3 
REMARK    2  A    between atoms: C4_5  and  C5_6 
REMARK    3  A    between atoms: C6_7  and  C7_8 
REMARK    4  A    between atoms: C7_8  and  C8_10 
REMARK    5  A    between atoms: C11_14  and  O4_15 
REMARK    6  A    between atoms: C12_17  and  C13_18 
REMARK    7  A    between atoms: C16_21  and  C17_22 
REMARK    8  A    between atoms: C19_27  and  C20_28 
REMARK    9  A    between atoms: C20_28  and  N1_29 
REMARK   10  A    between atoms: C25_34  and  O5_35 
ROOT
HETATM    1  C8  UNL     1       0.029   0.382  -0.034  1.00  0.00     0.135 A 
HETATM    2  O3  UNL     1      -0.444   1.310  -0.813  1.00  0.00    -0.305 OA
HETATM    3  C9  UNL     1      -1.729   1.372  -0.783  1.00  0.00     0.090 A 
HETATM    4  C10 UNL     1      -2.643   2.165  -1.418  1.00  0.00     0.075 A 
HETATM    5  C11 UNL     1      -3.994   2.040  -1.215  1.00  0.00     0.075 A 
HETATM    6  C12 UNL     1      -4.491   1.052  -0.307  1.00  0.00    -0.005 A 
HETATM    7  C16 UNL     1      -3.555   0.277   0.332  1.00  0.00     0.070 A 
HETATM    8  C18 UNL     1      -2.166   0.378   0.119  1.00  0.00     0.024 A 
HETATM    9  C19 UNL     1      -1.071  -0.282   0.601  1.00  0.00     0.011 A 
ENDROOT
BRANCH   1  10
HETATM   10  C7  UNL     1       1.434   0.043   0.185  1.00  0.00     0.206 C 
HETATM   11  O2  UNL     1       1.722  -0.911   0.988  1.00  0.00    -0.285 OA
BRANCH  10  12
HETATM   12  C6  UNL     1       2.480   0.728  -0.456  1.00  0.00     0.058 C 
HETATM   13  C5  UNL     1       3.692   0.965  -0.678  1.00  0.00     0.015 C 
BRANCH  13  14
HETATM   14  C4  UNL     1       4.915   0.377  -0.132  1.00  0.00    -0.033 A 
HETATM   15  C3  UNL     1       6.148   1.013  -0.516  1.00  0.00     0.051 A 
HETATM   16  C2  UNL     1       7.312   0.487   0.047  1.00  0.00     0.102 A 
HETATM   17  C25 UNL     1       7.278  -0.553   0.894  1.00  0.00     0.099 A 
HETATM   18  C24 UNL     1       6.107  -1.176   1.267  1.00  0.00     0.040 A 
HETATM   19  C23 UNL     1       4.913  -0.655   0.706  1.00  0.00     0.014 A 
BRANCH  16  20
HETATM   20  O1  UNL     1       8.522   1.089  -0.310  1.00  0.00    -0.353 OA
HETATM   21  C1  UNL     1       8.652   2.164  -1.197  1.00  0.00     0.210 C 
ENDBRANCH  16  20
BRANCH  17  22
HETATM   22  O5  UNL     1       8.449  -1.087   1.484  1.00  0.00    -0.358 OA
ATOM     23  H5  UNL     1       8.425  -1.823   2.084  1.00  0.00     0.217 HD
ENDBRANCH  17  22
ENDBRANCH  13  14
ENDBRANCH  10  12
ENDBRANCH   1  10
BRANCH   9  24
HETATM   24  C20 UNL     1      -0.901  -1.364   1.535  1.00  0.00     0.158 C 
BRANCH  24  25
HETATM   25  N1  UNL     1      -0.926  -2.637   0.851  1.00  0.00    -0.417 N 
HETATM   26  C21 UNL     1      -1.836  -2.995  -0.114  1.00  0.00     0.142 C 
HETATM   27  C22 UNL     1      -0.590  -3.707   1.799  1.00  0.00     0.142 C 
ENDBRANCH  24  25
ENDBRANCH   9  24
BRANCH   7  28
HETATM   28  C17 UNL     1      -3.971  -0.374   1.584  1.00  0.00     0.419 C 
HETATM   29  F1  UNL     1      -4.857   0.637   2.201  1.00  0.00    -0.166 F 
HETATM   30  F2  UNL     1      -3.017   0.112   2.649  1.00  0.00    -0.166 F 
HETATM   31  F3  UNL     1      -4.465  -1.490   1.847  1.00  0.00    -0.166 F 
ENDBRANCH   7  28
BRANCH   5  32
HETATM   32  O4  UNL     1      -4.795   2.863  -1.885  1.00  0.00    -0.360 OA
ATOM     33  H4  UNL     1      -5.731   2.776  -1.744  1.00  0.00     0.217 HD
ENDBRANCH   5  32
BRANCH   6  34
HETATM   34  C13 UNL     1      -5.907   0.984  -0.194  1.00  0.00     0.014 C 
HETATM   35  C14 UNL     1      -6.566  -0.349   0.015  1.00  0.00     0.015 C 
HETATM   36  C15 UNL     1      -6.678   1.671  -1.345  1.00  0.00     0.015 C 
ENDBRANCH   6  34
TORSDOF 10
