REMARK  9 active torsions:
REMARK  status: ('A' for Active; 'I' for Inactive)
REMARK    1  A    between atoms: O1_2  and  C2_3 
REMARK    2  A    between atoms: C4_5  and  N1_6 
REMARK    3  A    between atoms: N1_6  and  C5_8 
REMARK    4  A    between atoms: C10_14  and  N2_15 
REMARK    5  A    between atoms: N2_15  and  C11_17 
REMARK    6  A    between atoms: C11_17  and  O3_18 
REMARK    7  A    between atoms: C11_17  and  C12_20 
REMARK    8  A    between atoms: C14_25  and  C15_26 
REMARK    9  A    between atoms: C17_30  and  S2_31 
ROOT
HETATM    1  C11 UNL     1      -0.031   0.330   0.481  1.00  0.00     0.158 C 
ENDROOT
BRANCH   1   2
HETATM    2  N2  UNL     1      -0.787  -0.003  -0.610  1.00  0.00    -0.333 N 
ATOM      3  H2  UNL     1      -0.340  -0.198  -1.506  1.00  0.00     0.168 HD
BRANCH   2   4
HETATM    4  C10 UNL     1      -2.240  -0.077  -0.481  1.00  0.00     0.074 A 
HETATM    5  C2  UNL     1      -2.795  -1.284  -0.126  1.00  0.00     0.097 A 
HETATM    6  C3  UNL     1      -4.177  -1.381   0.003  1.00  0.00     0.069 A 
HETATM    7  C4  UNL     1      -5.020  -0.325  -0.207  1.00  0.00     0.043 A 
HETATM    8  C6  UNL     1      -4.418   0.900  -0.571  1.00  0.00    -0.027 A 
HETATM    9  C7  UNL     1      -5.257   2.087  -0.816  1.00  0.00     0.051 C 
HETATM   10  C8  UNL     1      -3.052   1.004  -0.701  1.00  0.00    -0.024 A 
HETATM   11  C9  UNL     1      -2.471   2.306  -1.082  1.00  0.00     0.051 C 
BRANCH   5  12
HETATM   12  O1  UNL     1      -2.012  -2.389   0.101  1.00  0.00    -0.354 OA
HETATM   13  C1  UNL     1      -2.611  -3.611   0.463  1.00  0.00     0.210 C 
ENDBRANCH   5  12
BRANCH   7  14
HETATM   14  N1  UNL     1      -6.422  -0.361  -0.091  1.00  0.00    -0.334 N 
ATOM     15  H1  UNL     1      -6.927   0.506  -0.275  1.00  0.00     0.168 HD
BRANCH  14  16
HETATM   16  C5  UNL     1      -7.179  -1.478   0.254  1.00  0.00     0.353 C 
HETATM   17  O2  UNL     1      -6.778  -2.617   0.518  1.00  0.00    -0.283 OA
ENDBRANCH  14  16
ENDBRANCH   7  14
ENDBRANCH   2   4
ENDBRANCH   1   2
BRANCH   1  18
HETATM   18  O3  UNL     1      -0.703   0.544   1.592  1.00  0.00    -0.345 OA
ATOM     19  H3  UNL     1      -0.178   0.775   2.349  1.00  0.00     0.219 HD
ENDBRANCH   1  18
BRANCH   1  20
HETATM   20  C12 UNL     1       1.426   0.481   0.607  1.00  0.00     0.064 A 
HETATM   21  S1  UNL     1       2.258   0.766   2.108  1.00  0.00    -0.067 SA
HETATM   22  C13 UNL     1       3.858   0.814   1.532  1.00  0.00     0.087 A 
HETATM   23  N3  UNL     1       5.061   0.987   2.179  1.00  0.00    -0.349 N 
HETATM   24  C19 UNL     1       3.721   0.610   0.182  1.00  0.00     0.022 A 
HETATM   25  C14 UNL     1       6.226   0.965   1.523  1.00  0.00     0.076 A 
ATOM     26  H3  UNL     1       5.064   1.136   3.188  1.00  0.00     0.166 HD
HETATM   27  C16 UNL     1       6.124   0.759   0.176  1.00  0.00     0.050 A 
HETATM   28  C17 UNL     1       4.944   0.581  -0.523  1.00  0.00     0.015 A 
HETATM   29  C20 UNL     1       2.456   0.444  -0.282  1.00  0.00    -0.026 A 
HETATM   30  C21 UNL     1       2.125   0.340  -1.769  1.00  0.00     0.050 C 
BRANCH  25  31
HETATM   31  C15 UNL     1       7.511   1.154   2.233  1.00  0.00     0.403 C 
HETATM   32  F1  UNL     1       7.573   2.349   2.904  1.00  0.00    -0.208 F 
HETATM   33  F2  UNL     1       7.643   0.077   3.113  1.00  0.00    -0.208 F 
ENDBRANCH  25  31
BRANCH  28  34
HETATM   34  S2  UNL     1       5.076   0.251  -2.283  1.00  0.00    -0.133 SA
HETATM   35  C18 UNL     1       5.187  -1.535  -2.595  1.00  0.00     0.095 C 
ENDBRANCH  28  34
ENDBRANCH   1  20
TORSDOF 9
