REMARK  9 active torsions:
REMARK  status: ('A' for Active; 'I' for Inactive)
REMARK    1  A    between atoms: C2_2  and  C3_3 
REMARK    2  A    between atoms: C3_3  and  C4_4 
REMARK    3  A    between atoms: C10_11  and  N1_12 
REMARK       I    between atoms: N1_12  and  C11_13 
REMARK    4  A    between atoms: C11_13  and  C12_15 
REMARK    5  A    between atoms: C12_15  and  S1_16 
REMARK    6  A    between atoms: S1_16  and  C13_17 
REMARK    7  A    between atoms: C16_22  and  C17_23 
REMARK    8  A    between atoms: C17_23  and  O3_25 
REMARK    9  A    between atoms: O3_25  and  C18_26 
ROOT
HETATM    1  S1  UNL     1       0.091  -1.049  -0.294  1.00  0.00    -0.101 SA
ENDROOT
BRANCH   1   2
HETATM    2  C12 UNL     1      -0.840  -2.448   0.256  1.00  0.00     0.200 C 
BRANCH   2   3
HETATM    3  C11 UNL     1      -1.938  -1.932   1.250  1.00  0.00     0.301 C 
HETATM    4  N1  UNL     1      -3.029  -1.363   0.551  1.00  0.00    -0.368 NA
HETATM    5  O1  UNL     1      -1.751  -2.061   2.406  1.00  0.00    -0.256 OA
BRANCH   4   6
HETATM    6  C10 UNL     1      -4.053  -0.829  -0.082  1.00  0.00     0.139 A 
HETATM    7  C4  UNL     1      -4.414   0.505  -0.156  1.00  0.00    -0.015 A 
HETATM    8  C5  UNL     1      -5.405   0.974  -1.022  1.00  0.00     0.017 A 
HETATM    9  C6  UNL     1      -6.068   0.110  -1.824  1.00  0.00    -0.060 A 
HETATM   10  C7  UNL     1      -7.132   0.672  -2.714  1.00  0.00     0.048 C 
HETATM   11  C8  UNL     1      -5.739  -1.224  -1.768  1.00  0.00     0.034 A 
HETATM   12  C9  UNL     1      -4.785  -1.727  -0.956  1.00  0.00     0.075 A 
HETATM   13 CL1  UNL     1      -4.472  -3.428  -0.921  1.00  0.00    -0.081 Cl
BRANCH   7  14
HETATM   14  C3  UNL     1      -3.972   1.550   0.806  1.00  0.00     0.042 C 
BRANCH  14  15
HETATM   15  C2  UNL     1      -4.961   1.900   1.843  1.00  0.00     0.000 C 
HETATM   16  C1  UNL     1      -5.464   0.805   2.719  1.00  0.00     0.005 C 
ENDBRANCH  14  15
ENDBRANCH   7  14
ENDBRANCH   4   6
ENDBRANCH   2   3
ENDBRANCH   1   2
BRANCH   1  17
HETATM   17  C13 UNL     1       1.842  -1.005  -0.072  1.00  0.00     0.078 A 
HETATM   18  N2  UNL     1       2.435  -0.740   1.123  1.00  0.00    -0.353 N 
HETATM   19  C14 UNL     1       3.723  -0.377   1.258  1.00  0.00     0.024 A 
ATOM     20  H2  UNL     1       1.869  -0.821   1.968  1.00  0.00     0.166 HD
HETATM   21  C15 UNL     1       4.373  -0.256   2.583  1.00  0.00     0.069 C 
HETATM   22  C16 UNL     1       4.542  -0.244   0.135  1.00  0.00     0.086 A 
HETATM   23  C20 UNL     1       4.007  -0.531  -1.091  1.00  0.00     0.073 A 
HETATM   24  N3  UNL     1       4.840  -0.486  -2.255  1.00  0.00    -0.101 NA
HETATM   25  C21 UNL     1       2.640  -0.916  -1.219  1.00  0.00    -0.003 A 
HETATM   26  C22 UNL     1       2.040  -1.234  -2.524  1.00  0.00     0.053 C 
BRANCH  22  27
HETATM   27  C17 UNL     1       5.794   0.500   0.314  1.00  0.00     0.297 C 
HETATM   28  O2  UNL     1       6.330   0.769   1.375  1.00  0.00    -0.259 OA
BRANCH  27  29
HETATM   29  O3  UNL     1       6.513   1.037  -0.829  1.00  0.00    -0.318 OA
BRANCH  29  30
HETATM   30  C18 UNL     1       7.597   1.860  -0.654  1.00  0.00     0.174 C 
HETATM   31  C19 UNL     1       8.814   1.528   0.049  1.00  0.00     0.034 C 
ENDBRANCH  29  30
ENDBRANCH  27  29
ENDBRANCH  22  27
ENDBRANCH   1  17
TORSDOF 9
