REMARK  9 active torsions:
REMARK  status: ('A' for Active; 'I' for Inactive)
REMARK    1  A    between atoms: C8_10  and  C9_11 
REMARK    2  A    between atoms: C9_11  and  O2_13 
REMARK    3  A    between atoms: O2_13  and  C10_14 
REMARK    4  A    between atoms: C12_16  and  C13_17 
REMARK    5  A    between atoms: C15_21  and  S1_22 
REMARK    6  A    between atoms: S1_22  and  C16_23 
REMARK    7  A    between atoms: C16_23  and  C17_24 
REMARK    8  A    between atoms: C17_24  and  C18_25 
REMARK    9  A    between atoms: C21_29  and  O4_30 
ROOT
HETATM    1  C1  UNL     1       0.827  -2.763  -0.024  1.00  0.00     0.016 C 
HETATM    2  C2  UNL     1       0.200  -1.597  -0.231  1.00  0.00    -0.071 C 
HETATM    3  C3  UNL     1      -0.672  -1.607  -1.459  1.00  0.00     0.038 C 
HETATM    4  C4  UNL     1      -1.647  -2.703  -1.271  1.00  0.00     0.033 C 
HETATM    5  C5  UNL     1      -3.050  -2.351  -1.073  1.00  0.00    -0.002 C 
HETATM    6  C6  UNL     1      -3.587  -1.571  -0.143  1.00  0.00     0.002 C 
HETATM    7  C7  UNL     1      -5.105  -1.444  -0.250  1.00  0.00     0.068 C 
HETATM    8  N1  UNL     1      -2.933  -0.871   0.888  1.00  0.00    -0.355 N 
ATOM      9  H1  UNL     1      -3.087  -1.293   1.804  1.00  0.00     0.166 HD
HETATM   10  C8  UNL     1      -2.114   0.278   0.954  1.00  0.00     0.116 C 
HETATM   11  C12 UNL     1      -0.697   0.137   1.423  1.00  0.00    -0.005 C 
HETATM   12  C15 UNL     1       0.330  -0.393   0.565  1.00  0.00     0.110 C 
ENDROOT
BRANCH  12  13
HETATM   13  S1  UNL     1       0.978   0.930  -0.545  1.00  0.00    -0.155 SA
BRANCH  13  14
HETATM   14  C16 UNL     1       2.652   0.564  -1.080  1.00  0.00     0.080 C 
BRANCH  14  15
HETATM   15  C17 UNL     1       3.551   0.622   0.141  1.00  0.00     0.054 C 
BRANCH  15  16
HETATM   16  C18 UNL     1       4.964   0.333  -0.211  1.00  0.00     0.003 A 
HETATM   17  C19 UNL     1       5.658  -0.837   0.019  1.00  0.00     0.036 A 
HETATM   18  C20 UNL     1       6.921  -0.629  -0.477  1.00  0.00     0.145 A 
HETATM   19  O3  UNL     1       6.970   0.582  -0.968  1.00  0.00    -0.300 OA
HETATM   20  C21 UNL     1       5.832   1.198  -0.835  1.00  0.00     0.189 A 
BRANCH  20  21
HETATM   21  O4  UNL     1       5.544   2.513  -1.256  1.00  0.00    -0.340 OA
ATOM     22  H4  UNL     1       6.144   3.111  -1.687  1.00  0.00     0.220 HD
ENDBRANCH  20  21
ENDBRANCH  15  16
ENDBRANCH  14  15
ENDBRANCH  13  14
ENDBRANCH  12  13
BRANCH  11  23
HETATM   23  C13 UNL     1      -0.715  -0.120   2.872  1.00  0.00     0.047 C 
HETATM   24  C14 UNL     1      -0.005  -0.722   3.738  1.00  0.00     0.104 C 
HETATM   25 CL1  UNL     1       1.485  -1.615   3.577  1.00  0.00    -0.071 Cl
HETATM   26 CL2  UNL     1      -0.603  -0.671   5.446  1.00  0.00    -0.071 Cl
ENDBRANCH  11  23
BRANCH  10  27
HETATM   27  C9  UNL     1      -2.356   1.359  -0.030  1.00  0.00     0.310 C 
HETATM   28  O1  UNL     1      -3.219   1.283  -0.943  1.00  0.00    -0.258 OA
BRANCH  27  29
HETATM   29  O2  UNL     1      -1.629   2.535   0.010  1.00  0.00    -0.317 OA
BRANCH  29  30
HETATM   30  C10 UNL     1      -1.871   3.586  -0.945  1.00  0.00     0.175 C 
HETATM   31  C11 UNL     1      -3.307   4.026  -0.802  1.00  0.00     0.034 C 
ENDBRANCH  29  30
ENDBRANCH  27  29
ENDBRANCH  10  27
TORSDOF 9
