REMARK  4 active torsions:
REMARK  status: ('A' for Active; 'I' for Inactive)
REMARK    1  A    between atoms: N1_1  and  S1_4 
REMARK    2  A    between atoms: S1_4  and  C1_7 
REMARK    3  A    between atoms: C5_11  and  N2_12 
REMARK    4  A    between atoms: N2_12  and  C6_14 
ROOT
HETATM    1  C1  UNL     1       2.229  -0.039  -0.487  1.00  0.00     0.081 A 
HETATM    2  C2  UNL     1       2.504  -1.308  -0.952  1.00  0.00     0.025 A 
HETATM    3  C3  UNL     1       1.665  -2.381  -0.671  1.00  0.00     0.004 A 
HETATM    4  C4  UNL     1       0.530  -2.137   0.099  1.00  0.00     0.030 A 
HETATM    5  C5  UNL     1       0.228  -0.882   0.578  1.00  0.00     0.050 A 
HETATM    6  C10 UNL     1       1.091   0.148   0.272  1.00  0.00     0.055 A 
ENDROOT
BRANCH   5   7
HETATM    7  N2  UNL     1      -0.929  -0.640   1.362  1.00  0.00    -0.192 N 
ATOM      8  H2  UNL     1      -0.898  -0.875   2.354  1.00  0.00     0.184 HD
BRANCH   7   9
HETATM    9  C6  UNL     1      -2.015  -0.140   0.890  1.00  0.00     0.685 A 
HETATM   10  N3  UNL     1      -3.049   0.044   1.731  1.00  0.00    -0.201 N 
HETATM   11  C7  UNL     1      -4.221   0.554   1.355  1.00  0.00     0.111 A 
ATOM     12  H3  UNL     1      -2.929  -0.221   2.709  1.00  0.00     0.183 HD
HETATM   13  C8  UNL     1      -4.418   0.924   0.040  1.00  0.00     0.092 A 
HETATM   14  C9  UNL     1      -3.363   0.739  -0.830  1.00  0.00     0.260 A 
HETATM   15  O3  UNL     1      -3.511   1.067  -2.037  1.00  0.00    -0.268 OA
HETATM   16  N4  UNL     1      -2.194   0.215  -0.388  1.00  0.00    -0.156 N 
ATOM     17  H4  UNL     1      -1.428   0.087  -1.049  1.00  0.00     0.187 HD
ENDBRANCH   7   9
ENDBRANCH   5   7
BRANCH   1  18
HETATM   18  S1  UNL     1       3.302   1.290  -0.857  1.00  0.00     0.256 S 
HETATM   19  O1  UNL     1       2.472   2.560  -0.872  1.00  0.00    -0.201 OA
HETATM   20  O2  UNL     1       3.891   1.134  -2.223  1.00  0.00    -0.201 OA
BRANCH  18  21
HETATM   21  N1  UNL     1       4.534   1.455   0.358  1.00  0.00    -0.324 N 
ATOM     22  H12 UNL     1       4.664   2.274   0.952  1.00  0.00     0.169 HD
ATOM     23  H11 UNL     1       5.092   0.601   0.368  1.00  0.00     0.169 HD
ENDBRANCH  18  21
ENDBRANCH   1  18
TORSDOF 4
