REMARK  1 active torsions:
REMARK  status: ('A' for Active; 'I' for Inactive)
REMARK    1  A    between atoms: C4_8  and  C5_9 
ROOT
HETATM    1  O1  UNL     1      -4.099   2.731   0.653  1.00  0.00    -0.247 OA
HETATM    2  C1  UNL     1      -3.135   1.929   0.560  1.00  0.00     0.327 A 
HETATM    3  N1  UNL     1      -1.903   2.369   0.283  1.00  0.00    -0.275 N 
ATOM      4  H1  UNL     1      -1.753   3.369   0.146  1.00  0.00     0.173 HD
HETATM    5  C2  UNL     1      -0.856   1.530   0.180  1.00  0.00     0.264 A 
HETATM    6  O2  UNL     1       0.282   1.999  -0.090  1.00  0.00    -0.267 OA
HETATM    7  C3  UNL     1      -1.014   0.177   0.359  1.00  0.00     0.093 A 
HETATM    8  C4  UNL     1      -0.015  -0.737   0.250  1.00  0.00     0.076 A 
HETATM    9  N2  UNL     1      -0.314  -2.042   0.419  1.00  0.00    -0.296 N 
ATOM     10  H2  UNL     1       0.438  -2.726   0.334  1.00  0.00     0.187 HD
HETATM   11  N3  UNL     1      -1.525  -2.477   0.687  1.00  0.00    -0.264 N 
ATOM     12  H3  UNL     1      -1.695  -3.476   0.804  1.00  0.00     0.190 HD
HETATM   13  C11 UNL     1      -2.526  -1.615   0.805  1.00  0.00     0.287 A 
HETATM   14  O3  UNL     1      -3.710  -1.987   1.065  1.00  0.00    -0.264 OA
HETATM   15  C12 UNL     1      -2.307  -0.273   0.647  1.00  0.00     0.124 A 
HETATM   16  N4  UNL     1      -3.334   0.617   0.741  1.00  0.00    -0.303 N 
ATOM     17  H4  UNL     1      -4.272   0.278   0.953  1.00  0.00     0.171 HD
ENDROOT
BRANCH   8  18
HETATM   18  C5  UNL     1       1.346  -0.412  -0.047  1.00  0.00    -0.007 A 
HETATM   19  C6  UNL     1       1.863  -0.866  -1.263  1.00  0.00     0.014 A 
HETATM   20  C7  UNL     1       3.184  -0.701  -1.630  1.00  0.00     0.001 A 
HETATM   21  C8  UNL     1       4.061  -0.064  -0.780  1.00  0.00     0.000 A 
HETATM   22  C9  UNL     1       3.560   0.386   0.421  1.00  0.00     0.001 A 
HETATM   23  C10 UNL     1       2.245   0.219   0.781  1.00  0.00     0.014 A 
ENDBRANCH   8  18
TORSDOF 1
