REMARK  4 active torsions:
REMARK  status: ('A' for Active; 'I' for Inactive)
REMARK    1  A    between atoms: N1_1  and  S1_4 
REMARK    2  A    between atoms: S1_4  and  C1_7 
REMARK    3  A    between atoms: C4_10  and  N2_11 
REMARK    4  A    between atoms: N2_11  and  C5_13 
ROOT
HETATM    1  C1  UNL     1       2.624  -0.234  -0.197  1.00  0.00     0.079 A 
HETATM    2  C2  UNL     1       1.989  -0.904  -1.211  1.00  0.00     0.027 A 
HETATM    3  C3  UNL     1       0.705  -1.362  -1.002  1.00  0.00     0.031 A 
HETATM    4  C4  UNL     1       0.054  -1.157   0.205  1.00  0.00     0.049 A 
HETATM    5  C9  UNL     1       0.698  -0.485   1.217  1.00  0.00     0.031 A 
HETATM    6  C10 UNL     1       1.988  -0.023   1.013  1.00  0.00     0.027 A 
ENDROOT
BRANCH   4   7
HETATM    7  N2  UNL     1      -1.262  -1.617   0.443  1.00  0.00    -0.192 N 
ATOM      8  H2  UNL     1      -1.421  -2.602   0.656  1.00  0.00     0.184 HD
BRANCH   7   9
HETATM    9  C5  UNL     1      -2.278  -0.795   0.393  1.00  0.00     0.685 A 
HETATM   10  N3  UNL     1      -2.142   0.496   0.121  1.00  0.00    -0.201 N 
HETATM   11  C6  UNL     1      -3.192   1.331   0.072  1.00  0.00     0.111 A 
ATOM     12  H3  UNL     1      -1.209   0.867  -0.057  1.00  0.00     0.183 HD
HETATM   13  C7  UNL     1      -4.475   0.854   0.310  1.00  0.00     0.092 A 
HETATM   14  C8  UNL     1      -4.581  -0.494   0.590  1.00  0.00     0.260 A 
HETATM   15  O3  UNL     1      -5.742  -0.967   0.814  1.00  0.00    -0.268 OA
HETATM   16  N4  UNL     1      -3.505  -1.288   0.628  1.00  0.00    -0.156 N 
ATOM     17  H4  UNL     1      -3.618  -2.280   0.838  1.00  0.00     0.187 HD
ENDBRANCH   7   9
ENDBRANCH   4   7
BRANCH   1  18
HETATM   18  S1  UNL     1       4.254   0.396  -0.338  1.00  0.00     0.256 S 
HETATM   19  O1  UNL     1       5.087  -0.410  -1.264  1.00  0.00    -0.201 OA
HETATM   20  O2  UNL     1       4.915   0.503   1.007  1.00  0.00    -0.201 OA
BRANCH  18  21
HETATM   21  N1  UNL     1       4.109   2.024  -0.951  1.00  0.00    -0.324 N 
ATOM     22  H12 UNL     1       4.537   2.355  -1.815  1.00  0.00     0.169 HD
ATOM     23  H11 UNL     1       3.536   2.578  -0.314  1.00  0.00     0.169 HD
ENDBRANCH  18  21
ENDBRANCH   1  18
TORSDOF 4
