REMARK  3 active torsions:
REMARK  status: ('A' for Active; 'I' for Inactive)
REMARK    1  A    between atoms: C5_6  and  N2_7 
REMARK       I    between atoms: N2_7  and  C6_9 
REMARK       I    between atoms: C6_9  and  N3_11 
REMARK    2  A    between atoms: N3_11  and  C7_13 
REMARK    3  A    between atoms: C10_16  and  N4_17 
ROOT
HETATM    1  N2  UNL     1      -2.641  -0.052  -0.058  1.00  0.00    -0.337 N 
ATOM      2  H2  UNL     1      -2.619  -0.746  -0.805  1.00  0.00     0.164 HD
HETATM    3  C6  UNL     1      -1.421   0.370   0.495  1.00  0.00     0.316 C 
HETATM    4  O1  UNL     1      -1.448   1.228   1.419  1.00  0.00    -0.247 OA
HETATM    5  N3  UNL     1      -0.189  -0.126   0.057  1.00  0.00    -0.339 N 
ATOM      6  H3  UNL     1      -0.202  -0.818  -0.692  1.00  0.00     0.164 HD
ENDROOT
BRANCH   5   7
HETATM    7  C7  UNL     1       1.096   0.261   0.577  1.00  0.00     0.086 C 
HETATM    8  C8  UNL     1       1.942   0.943  -0.463  1.00  0.00     0.027 C 
HETATM    9  C9  UNL     1       2.985   0.029  -1.064  1.00  0.00     0.035 C 
HETATM   10  C10 UNL     1       3.902  -0.571  -0.036  1.00  0.00     0.189 C 
HETATM   11  C14 UNL     1       3.288  -0.424   1.364  1.00  0.00     0.035 C 
HETATM   12  C15 UNL     1       1.841  -0.856   1.225  1.00  0.00     0.027 C 
BRANCH  10  13
HETATM   13  N4  UNL     1       5.242  -0.089  -0.089  1.00  0.00    -0.074 N 
HETATM   14  C11 UNL     1       6.156  -1.084  -0.676  1.00  0.00     0.272 C 
HETATM   15  C12 UNL     1       5.424   1.118  -0.835  1.00  0.00     0.272 C 
HETATM   16  C13 UNL     1       5.781   0.160   1.259  1.00  0.00     0.272 C 
ENDBRANCH  10  13
ENDBRANCH   5   7
BRANCH   1  17
HETATM   17  C5  UNL     1      -3.937   0.450   0.380  1.00  0.00     0.103 C 
HETATM   18  C4  UNL     1      -4.550   1.187  -0.760  1.00  0.00     0.028 C 
HETATM   19  C3  UNL     1      -6.033   1.027  -0.891  1.00  0.00     0.021 C 
HETATM   20  C2  UNL     1      -6.665   0.671   0.438  1.00  0.00     0.116 C 
HETATM   21  N1  UNL     1      -6.132  -0.590   0.825  1.00  0.00    -0.415 N 
HETATM   22  C1  UNL     1      -6.768  -1.722   0.241  1.00  0.00     0.143 C 
HETATM   23  C16 UNL     1      -4.727  -0.666   0.951  1.00  0.00     0.141 C 
ENDBRANCH   1  17
TORSDOF 3
