REMARK  6 active torsions:
REMARK  status: ('A' for Active; 'I' for Inactive)
REMARK    1  A    between atoms: O1_2  and  C2_3 
REMARK    2  A    between atoms: C2_3  and  N1_5 
REMARK    3  A    between atoms: C3_7  and  C5_9 
REMARK    4  A    between atoms: C5_9  and  C6_11 
REMARK    5  A    between atoms: C6_11  and  N2_12 
REMARK    6  A    between atoms: C11_17  and  C12_18 
ROOT
HETATM    1  C5  UNL     1       0.378  -0.635  -1.393  1.00  0.00     0.155 C 
HETATM    2 CL1  UNL     1       0.879  -2.160  -2.215  1.00  0.00    -0.117 Cl
ENDROOT
BRANCH   1   3
HETATM    3  C3  UNL     1       1.627   0.099  -1.120  1.00  0.00     0.006 C 
HETATM    4  N1  UNL     1       2.034   0.418   0.046  1.00  0.00    -0.334 N 
ATOM      5  H1  UNL     1       1.440   0.136   0.825  1.00  0.00     0.168 HD
HETATM    6  C4  UNL     1       2.445   0.480  -2.295  1.00  0.00     0.065 C 
BRANCH   4   7
HETATM    7  C2  UNL     1       3.208   1.114   0.378  1.00  0.00     0.213 C 
HETATM    8  S1  UNL     1       3.244   2.732   0.714  1.00  0.00    -0.033 SA
BRANCH   7   9
HETATM    9  O1  UNL     1       4.407   0.414   0.429  1.00  0.00    -0.332 OA
HETATM   10  C1  UNL     1       5.179   0.350   1.631  1.00  0.00     0.212 C 
ENDBRANCH   7   9
ENDBRANCH   4   7
ENDBRANCH   1   3
BRANCH   1  11
HETATM   11  C6  UNL     1      -0.417  -1.011  -0.226  1.00  0.00     0.299 C 
BRANCH  11  12
HETATM   12  N2  UNL     1      -0.957   0.020   0.633  1.00  0.00     0.105 N 
HETATM   13  C7  UNL     1      -1.505  -0.719   1.823  1.00  0.00     0.273 C 
HETATM   14  C8  UNL     1      -2.591  -1.640   1.405  1.00  0.00     0.030 C 
HETATM   15  C9  UNL     1      -3.661  -1.096   0.538  1.00  0.00     0.004 C 
HETATM   16  C10 UNL     1      -3.119  -0.211  -0.549  1.00  0.00     0.047 C 
HETATM   17  C11 UNL     1      -2.116   0.699   0.092  1.00  0.00     0.322 C 
BRANCH  17  18
HETATM   18  C12 UNL     1      -1.898   1.880  -0.696  1.00  0.00     0.207 C 
HETATM   19  O2  UNL     1      -2.874   2.348  -1.406  1.00  0.00    -0.646 OA
HETATM   20  O3  UNL     1      -0.745   2.617  -0.803  1.00  0.00    -0.646 OA
ENDBRANCH  17  18
ENDBRANCH  11  12
ENDBRANCH   1  11
TORSDOF 6
