REMARK  4 active torsions:
REMARK  status: ('A' for Active; 'I' for Inactive)
REMARK    1  A    between atoms: C2_2  and  N1_3 
REMARK    2  A    between atoms: N1_3  and  C3_6 
REMARK    3  A    between atoms: C3_6  and  C4_7 
REMARK    4  A    between atoms: C4_7  and  C5_8 
ROOT
HETATM    1  C5  UNL     1       1.575   0.705   0.662  1.00  0.00     0.165 C 
HETATM    2  C6  UNL     1       0.209   1.040   0.144  1.00  0.00     0.079 C 
HETATM    3  C7  UNL     1      -0.535  -0.266   0.455  1.00  0.00     0.131 C 
HETATM    4  C8  UNL     1      -0.328  -1.323  -0.548  1.00  0.00     0.070 C 
HETATM    5  C9  UNL     1      -1.524  -1.709  -1.373  1.00  0.00     0.171 C 
HETATM    6  O1  UNL     1      -2.680  -1.908  -0.669  1.00  0.00    -0.385 OA
HETATM    7  C10 UNL     1      -3.541  -0.792  -0.794  1.00  0.00     0.128 C 
HETATM    8  C11 UNL     1      -4.784  -1.087  -0.001  1.00  0.00     0.032 C 
HETATM    9  C12 UNL     1      -5.385   0.109   0.662  1.00  0.00     0.002 C 
HETATM   10  C13 UNL     1      -5.085   1.312  -0.216  1.00  0.00     0.001 C 
HETATM   11  C14 UNL     1      -3.622   1.618  -0.077  1.00  0.00     0.010 C 
HETATM   12  C15 UNL     1      -2.780   0.398  -0.320  1.00  0.00     0.052 C 
HETATM   13  C16 UNL     1      -1.936   0.012   0.848  1.00  0.00     0.214 C 
HETATM   14  F1  UNL     1      -2.454  -1.061   1.559  1.00  0.00    -0.246 F 
HETATM   15  O2  UNL     1       0.173  -0.639   1.625  1.00  0.00    -0.226 OA
HETATM   16  O3  UNL     1       1.452  -0.521   1.272  1.00  0.00    -0.234 OA
ENDROOT
BRANCH   1  17
HETATM   17  C4  UNL     1       2.661   0.735  -0.373  1.00  0.00     0.062 C 
BRANCH  17  18
HETATM   18  C3  UNL     1       3.946   0.340   0.323  1.00  0.00     0.235 C 
BRANCH  18  19
HETATM   19  N1  UNL     1       5.070   0.316  -0.603  1.00  0.00    -0.075 N 
ATOM     20  H12 UNL     1       5.261   1.215  -1.046  1.00  0.00     0.277 HD
ATOM     21  H11 UNL     1       4.887  -0.201  -1.463  1.00  0.00     0.277 HD
BRANCH  19  22
HETATM   22  C2  UNL     1       6.189  -0.210   0.180  1.00  0.00     0.228 C 
HETATM   23  C1  UNL     1       7.444  -0.328  -0.625  1.00  0.00     0.034 C 
ENDBRANCH  19  22
ENDBRANCH  18  19
ENDBRANCH  17  18
ENDBRANCH   1  17
TORSDOF 4
