REMARK  4 active torsions:
REMARK  status: ('A' for Active; 'I' for Inactive)
REMARK    1  A    between atoms: C4_7  and  C5_8 
REMARK    2  A    between atoms: C5_8  and  N3_9 
REMARK    3  A    between atoms: N3_9  and  C6_12 
REMARK    4  A    between atoms: N4_15  and  C9_16 
ROOT
HETATM    1  C6  UNL     1       0.989  -0.630   0.029  1.00  0.00     0.221 C 
HETATM    2  C7  UNL     1      -0.052  -0.115   0.883  1.00  0.00     0.066 C 
HETATM    3  C8  UNL     1      -1.225  -1.046   1.081  1.00  0.00     0.275 C 
HETATM    4  N4  UNL     1      -2.097  -1.218  -0.031  1.00  0.00     0.093 N 
HETATM    5  C14 UNL     1      -1.561  -0.642  -1.259  1.00  0.00     0.276 C 
HETATM    6  C15 UNL     1      -0.450  -1.440  -1.860  1.00  0.00     0.069 C 
HETATM    7  C16 UNL     1       0.688  -1.709  -0.976  1.00  0.00     0.202 C 
HETATM    8  F1  UNL     1       0.631  -2.975  -0.436  1.00  0.00    -0.247 F 
ENDROOT
BRANCH   1   9
HETATM    9  N3  UNL     1       1.905   0.299  -0.523  1.00  0.00    -0.063 N 
ATOM     10  H32 UNL     1       1.422   0.983  -1.106  1.00  0.00     0.278 HD
ATOM     11  H31 UNL     1       2.488  -0.145  -1.233  1.00  0.00     0.278 HD
BRANCH   9  12
HETATM   12  C5  UNL     1       2.703   0.944   0.453  1.00  0.00     0.291 C 
BRANCH  12  13
HETATM   13  C4  UNL     1       4.137   0.794   0.030  1.00  0.00     0.055 A 
HETATM   14  N1  UNL     1       5.208   1.215   0.659  1.00  0.00    -0.299 N 
HETATM   15  C1  UNL     1       5.284   1.951   1.935  1.00  0.00     0.177 C 
HETATM   16  N2  UNL     1       6.279   0.858  -0.013  1.00  0.00    -0.310 N 
HETATM   17  C2  UNL     1       5.915   0.200  -1.102  1.00  0.00     0.109 A 
ATOM     18  H2  UNL     1       7.241   1.057   0.262  1.00  0.00     0.186 HD
HETATM   19  C3  UNL     1       4.551   0.136  -1.097  1.00  0.00     0.047 A 
ENDBRANCH  12  13
ENDBRANCH   9  12
ENDBRANCH   1   9
BRANCH   4  20
HETATM   20  C9  UNL     1      -3.344  -0.566   0.257  1.00  0.00     0.223 C 
HETATM   21  C10 UNL     1      -3.342   0.913   0.275  1.00  0.00     0.036 C 
HETATM   22  C11 UNL     1      -4.834   1.230   0.332  1.00  0.00     0.002 C 
HETATM   23  C12 UNL     1      -5.576  -0.062   0.079  1.00  0.00     0.002 C 
HETATM   24  C13 UNL     1      -4.500  -0.938  -0.588  1.00  0.00     0.036 C 
ENDBRANCH   4  20
TORSDOF 4
