REMARK  8 active torsions:
REMARK  status: ('A' for Active; 'I' for Inactive)
REMARK    1  A    between atoms: C7_10  and  C8_11 
REMARK       I    between atoms: C8_11  and  N2_13 
REMARK    2  A    between atoms: N2_13  and  C9_15 
REMARK    3  A    between atoms: C9_15  and  N3_16 
REMARK    4  A    between atoms: C9_15  and  C23_34 
REMARK       I    between atoms: N3_16  and  C10_18 
REMARK    5  A    between atoms: C10_18  and  C11_20 
REMARK    6  A    between atoms: C11_20  and  C12_21 
REMARK    7  A    between atoms: C18_27  and  C19_28 
REMARK    8  A    between atoms: C19_28  and  O3_29 
ROOT
HETATM    1  C9  UNL     1       0.988   1.425  -1.081  1.00  0.00     0.190 C 
ENDROOT
BRANCH   1   2
HETATM    2  N2  UNL     1       1.564   1.340   0.230  1.00  0.00    -0.339 N 
HETATM    3  C8  UNL     1       2.334   0.202   0.632  1.00  0.00     0.228 C 
HETATM    4  O1  UNL     1       2.464  -0.678  -0.246  1.00  0.00    -0.273 OA
ATOM      5  H2  UNL     1       1.422   2.106   0.889  1.00  0.00     0.164 HD
BRANCH   3   6
HETATM    6  C7  UNL     1       2.929   0.031   1.931  1.00  0.00     0.148 C 
HETATM    7  C2  UNL     1       3.687  -1.223   2.155  1.00  0.00     0.134 C 
HETATM    8  C1  UNL     1       3.420  -1.888   3.514  1.00  0.00     0.047 C 
HETATM    9  C3  UNL     1       3.770  -2.286   1.105  1.00  0.00     0.047 C 
HETATM   10  N1  UNL     1       4.971  -0.504   2.181  1.00  0.00    -0.057 N 
HETATM   11  C4  UNL     1       4.173   0.717   2.334  1.00  0.00     0.134 C 
ATOM     12  H12 UNL     1       5.708  -0.748   2.842  1.00  0.00     0.279 HD
ATOM     13  H11 UNL     1       5.657  -0.605   1.433  1.00  0.00     0.279 HD
HETATM   14  C5  UNL     1       4.767   1.801   1.528  1.00  0.00     0.047 C 
HETATM   15  C6  UNL     1       4.151   1.088   3.813  1.00  0.00     0.047 C 
ENDBRANCH   3   6
ENDBRANCH   1   2
BRANCH   1  16
HETATM   16  N3  UNL     1      -0.451   1.499  -0.913  1.00  0.00    -0.340 N 
HETATM   17  C10 UNL     1      -1.312   0.360  -1.118  1.00  0.00     0.220 C 
HETATM   18  O2  UNL     1      -0.736  -0.698  -1.432  1.00  0.00    -0.274 OA
ATOM     19  H3  UNL     1      -0.869   2.388  -0.640  1.00  0.00     0.164 HD
BRANCH  17  20
HETATM   20  C11 UNL     1      -2.751   0.435  -0.969  1.00  0.00     0.112 C 
BRANCH  20  21
HETATM   21  C12 UNL     1      -3.524  -0.831  -0.880  1.00  0.00    -0.031 C 
HETATM   22  C13 UNL     1      -5.000  -0.368  -0.725  1.00  0.00     0.014 C 
HETATM   23  C14 UNL     1      -5.938  -1.515  -0.598  1.00  0.00    -0.013 C 
HETATM   24  C15 UNL     1      -5.795  -2.442  -1.785  1.00  0.00     0.009 C 
HETATM   25  C20 UNL     1      -5.606  -2.263   0.686  1.00  0.00     0.016 C 
HETATM   26  C16 UNL     1      -4.376  -2.920  -1.869  1.00  0.00    -0.013 C 
HETATM   27  C17 UNL     1      -4.068  -3.677  -0.594  1.00  0.00     0.016 C 
HETATM   28  C22 UNL     1      -3.446  -1.732  -2.056  1.00  0.00     0.014 C 
HETATM   29  C18 UNL     1      -4.172  -2.719   0.579  1.00  0.00    -0.018 C 
HETATM   30  C21 UNL     1      -3.210  -1.597   0.395  1.00  0.00     0.021 C 
BRANCH  29  31
HETATM   31  C19 UNL     1      -3.849  -3.496   1.842  1.00  0.00     0.173 C 
BRANCH  31  32
HETATM   32  O3  UNL     1      -3.926  -2.661   2.966  1.00  0.00    -0.400 OA
ATOM     33  H3  UNL     1      -3.724  -3.147   3.757  1.00  0.00     0.209 HD
ENDBRANCH  31  32
ENDBRANCH  29  31
ENDBRANCH  20  21
ENDBRANCH  17  20
ENDBRANCH   1  16
BRANCH   1  34
HETATM   34  C23 UNL     1       1.517   2.487  -1.969  1.00  0.00     0.028 C 
HETATM   35  C24 UNL     1       1.346   3.874  -1.400  1.00  0.00     0.008 C 
HETATM   36  C25 UNL     1       2.673   4.479  -0.978  1.00  0.00     0.001 C 
HETATM   37  C26 UNL     1       3.604   4.630  -2.170  1.00  0.00     0.000 C 
HETATM   38  C27 UNL     1       3.339   3.512  -3.177  1.00  0.00     0.001 C 
HETATM   39  C28 UNL     1       2.954   2.260  -2.362  1.00  0.00     0.008 C 
ENDBRANCH   1  34
TORSDOF 8
