REMARK  9 active torsions:
REMARK  status: ('A' for Active; 'I' for Inactive)
REMARK    1  A    between atoms: C2_2  and  N1_4 
REMARK    2  A    between atoms: C2_2  and  C4_8 
REMARK       I    between atoms: C4_8  and  N2_10 
REMARK    3  A    between atoms: N2_10  and  C5_12 
REMARK    4  A    between atoms: C5_12  and  C6_13 
REMARK    5  A    between atoms: C6_13  and  C7_14 
REMARK    6  A    between atoms: C7_14  and  C8_15 
REMARK    7  A    between atoms: C8_15  and  N3_16 
REMARK       I    between atoms: N3_16  and  C9_18 
REMARK    8  A    between atoms: C9_18  and  C10_20 
REMARK    9  A    between atoms: C20_30  and  O3_31 
ROOT
HETATM    1  C10 UNL     1      -0.790  -1.062   1.289  1.00  0.00     0.086 C 
HETATM    2  C11 UNL     1      -0.951  -2.568   1.287  1.00  0.00     0.015 C 
HETATM    3  C12 UNL     1      -2.468  -2.670   1.086  1.00  0.00     0.011 C 
HETATM    4  C13 UNL     1      -2.708  -1.617   0.032  1.00  0.00    -0.032 C 
HETATM    5  C14 UNL     1      -2.605  -2.362  -1.291  1.00  0.00     0.016 C 
HETATM    6  C15 UNL     1      -4.083  -1.017   0.090  1.00  0.00    -0.001 C 
HETATM    7  C16 UNL     1      -4.590  -0.706   1.451  1.00  0.00     0.007 C 
HETATM    8  C17 UNL     1      -5.369   0.529   1.621  1.00  0.00     0.012 C 
HETATM    9  C18 UNL     1      -6.087   1.070   0.453  1.00  0.00    -0.014 C 
HETATM   10  C19 UNL     1      -6.123   2.605   0.534  1.00  0.00     0.018 C 
HETATM   11  C20 UNL     1      -7.560   0.636   0.466  1.00  0.00     0.126 C 
HETATM   12  C21 UNL     1      -7.889   0.433  -1.022  1.00  0.00     0.033 C 
HETATM   13  C22 UNL     1      -6.575  -0.240  -1.447  1.00  0.00     0.008 C 
HETATM   14  C23 UNL     1      -5.565   0.715  -0.880  1.00  0.00     0.001 C 
HETATM   15  C24 UNL     1      -4.184   0.107  -0.892  1.00  0.00    -0.005 C 
HETATM   16  C25 UNL     1      -3.082   1.116  -0.786  1.00  0.00     0.006 C 
HETATM   17  C26 UNL     1      -2.043   0.799   0.226  1.00  0.00     0.011 C 
HETATM   18  C27 UNL     1      -1.576  -0.635   0.098  1.00  0.00    -0.024 C 
HETATM   19  C28 UNL     1      -0.716  -0.681  -1.141  1.00  0.00     0.017 C 
ENDROOT
BRANCH   1  20
HETATM   20  C9  UNL     1       0.569  -0.584   1.424  1.00  0.00     0.222 C 
HETATM   21  N3  UNL     1       1.712  -1.031   0.693  1.00  0.00    -0.361 N 
ATOM     22  H3  UNL     1       1.581  -1.766  -0.002  1.00  0.00     0.162 HD
HETATM   23  O2  UNL     1       0.841   0.339   2.275  1.00  0.00    -0.273 OA
BRANCH  21  24
HETATM   24  C8  UNL     1       3.039  -0.504   0.880  1.00  0.00     0.122 C 
BRANCH  24  25
HETATM   25  C7  UNL     1       3.990  -1.194  -0.047  1.00  0.00     0.021 C 
BRANCH  25  26
HETATM   26  C6  UNL     1       5.409  -0.732   0.058  1.00  0.00     0.021 C 
BRANCH  26  27
HETATM   27  C5  UNL     1       5.567   0.728  -0.246  1.00  0.00     0.122 C 
BRANCH  27  28
HETATM   28  N2  UNL     1       6.928   1.208  -0.150  1.00  0.00    -0.359 N 
HETATM   29  C4  UNL     1       7.995   0.729  -0.940  1.00  0.00     0.253 C 
HETATM   30  O1  UNL     1       7.796  -0.165  -1.790  1.00  0.00    -0.271 OA
ATOM     31  H2  UNL     1       7.130   1.939   0.532  1.00  0.00     0.162 HD
BRANCH  29  32
HETATM   32  C2  UNL     1       9.352   1.262  -0.785  1.00  0.00     0.196 C 
HETATM   33  C1  UNL     1      10.261   0.134  -0.295  1.00  0.00     0.056 C 
HETATM   34  C3  UNL     1       9.907   1.799  -2.094  1.00  0.00     0.056 C 
BRANCH  32  35
HETATM   35  N1  UNL     1       9.419   2.294   0.244  1.00  0.00    -0.062 N 
ATOM     36  H13 UNL     1       9.186   1.957   1.178  1.00  0.00     0.275 HD
ATOM     37  H12 UNL     1      10.369   2.597   0.459  1.00  0.00     0.275 HD
ATOM     38  H11 UNL     1       8.813   3.046  -0.083  1.00  0.00     0.275 HD
ENDBRANCH  32  35
ENDBRANCH  29  32
ENDBRANCH  27  28
ENDBRANCH  26  27
ENDBRANCH  25  26
ENDBRANCH  24  25
ENDBRANCH  21  24
ENDBRANCH   1  20
BRANCH  11  39
HETATM   39  O3  UNL     1      -8.406   1.606   0.929  1.00  0.00    -0.395 OA
ATOM     40  H3  UNL     1      -9.317   1.338   0.937  1.00  0.00     0.210 HD
ENDBRANCH  11  39
TORSDOF 9
