REMARK  7 active torsions:
REMARK  status: ('A' for Active; 'I' for Inactive)
REMARK    1  A    between atoms: C2_2  and  C3_3 
REMARK       I    between atoms: C3_3  and  N1_5 
REMARK    2  A    between atoms: N1_5  and  C4_7 
REMARK    3  A    between atoms: C4_7  and  C5_8 
REMARK    4  A    between atoms: C4_7  and  C12_15 
REMARK    5  A    between atoms: C5_8  and  C6_9 
REMARK       I    between atoms: C12_15  and  N2_17 
REMARK    6  A    between atoms: N2_17  and  C13_19 
REMARK    7  A    between atoms: C13_19  and  C14_20 
ROOT
HETATM    1  C4  UNL     1      -0.793   0.211  -0.995  1.00  0.00     0.177 C 
ENDROOT
BRANCH   1   2
HETATM    2  N1  UNL     1       0.274   0.371  -0.035  1.00  0.00    -0.347 N 
HETATM    3  C3  UNL     1       1.608   0.005  -0.326  1.00  0.00     0.227 C 
HETATM    4  O1  UNL     1       1.849  -0.470  -1.471  1.00  0.00    -0.273 OA
ATOM      5  H1  UNL     1       0.058   0.761   0.883  1.00  0.00     0.163 HD
BRANCH   3   6
HETATM    6  C2  UNL     1       2.665   0.176   0.685  1.00  0.00     0.048 C 
HETATM    7  C1  UNL     1       2.725   1.642   1.053  1.00  0.00     0.026 C 
HETATM    8  C19 UNL     1       2.305  -0.635   1.915  1.00  0.00     0.047 C 
HETATM    9  C20 UNL     1       3.358  -0.568   2.965  1.00  0.00     0.233 C 
HETATM   10  N3  UNL     1       4.693  -0.786   2.440  1.00  0.00    -0.074 N 
HETATM   11  C21 UNL     1       4.992   0.119   1.368  1.00  0.00     0.243 C 
ATOM     12  H32 UNL     1       5.396  -0.736   3.177  1.00  0.00     0.277 HD
ATOM     13  H31 UNL     1       4.829  -1.757   2.157  1.00  0.00     0.277 HD
HETATM   14  C22 UNL     1       4.032  -0.216   0.217  1.00  0.00    -0.001 C 
HETATM   15  C23 UNL     1       4.514   0.596  -0.960  1.00  0.00     0.012 C 
HETATM   16  C27 UNL     1       4.188  -1.683  -0.052  1.00  0.00     0.012 C 
HETATM   17  C24 UNL     1       5.181  -0.234  -2.020  1.00  0.00     0.001 C 
HETATM   18  C25 UNL     1       6.229  -1.165  -1.424  1.00  0.00     0.000 C 
HETATM   19  C26 UNL     1       5.671  -1.966  -0.275  1.00  0.00     0.001 C 
ENDBRANCH   3   6
ENDBRANCH   1   2
BRANCH   1  20
HETATM   20  C5  UNL     1      -1.363   1.489  -1.387  1.00  0.00     0.039 C 
BRANCH  20  21
HETATM   21  C6  UNL     1      -1.992   2.417  -0.457  1.00  0.00    -0.012 C 
HETATM   22  C7  UNL     1      -3.201   1.851   0.294  1.00  0.00     0.005 C 
HETATM   23  C8  UNL     1      -3.725   2.916   1.243  1.00  0.00     0.000 C 
HETATM   24  C9  UNL     1      -3.323   4.298   0.838  1.00  0.00     0.000 C 
HETATM   25  C10 UNL     1      -1.846   4.533   0.770  1.00  0.00     0.000 C 
HETATM   26  C11 UNL     1      -1.167   3.177   0.506  1.00  0.00     0.005 C 
ENDBRANCH  20  21
ENDBRANCH   1  20
BRANCH   1  27
HETATM   27  C12 UNL     1      -1.719  -0.872  -0.642  1.00  0.00     0.241 C 
HETATM   28  O2  UNL     1      -1.517  -1.526   0.396  1.00  0.00    -0.271 OA
HETATM   29  N2  UNL     1      -2.837  -1.219  -1.422  1.00  0.00    -0.340 N 
ATOM     30  H2  UNL     1      -3.004  -0.676  -2.269  1.00  0.00     0.163 HD
BRANCH  29  31
HETATM   31  C13 UNL     1      -3.769  -2.283  -1.120  1.00  0.00     0.121 C 
HETATM   32  C15 UNL     1      -4.935  -2.289  -2.078  1.00  0.00     0.042 C 
HETATM   33  C16 UNL     1      -6.197  -2.207  -1.275  1.00  0.00     0.003 C 
HETATM   34  C17 UNL     1      -5.788  -2.657   0.105  1.00  0.00     0.003 C 
HETATM   35  C18 UNL     1      -4.402  -2.040   0.230  1.00  0.00     0.042 C 
BRANCH  31  36
HETATM   36  C14 UNL     1      -3.148  -3.620  -1.100  1.00  0.00     0.202 C 
HETATM   37  O3  UNL     1      -1.924  -3.726  -1.359  1.00  0.00    -0.646 OA
HETATM   38  O4  UNL     1      -3.825  -4.780  -0.813  1.00  0.00    -0.646 OA
ENDBRANCH  31  36
ENDBRANCH  29  31
ENDBRANCH   1  27
TORSDOF 7
