REMARK  10 active torsions:
REMARK  status: ('A' for Active; 'I' for Inactive)
REMARK    1  A    between atoms: C3_3  and  C4_4 
REMARK    2  A    between atoms: C4_4  and  O1_5 
REMARK    3  A    between atoms: C4_4  and  C5_7 
REMARK    4  A    between atoms: C4_4  and  S1_10 
REMARK    5  A    between atoms: S1_10  and  C6_13 
REMARK    6  A    between atoms: C7_14  and  C8_15 
REMARK    7  A    between atoms: C8_15  and  C9_16 
REMARK    8  A    between atoms: C12_19  and  C13_20 
REMARK       I    between atoms: C13_20  and  N1_22 
REMARK    9  A    between atoms: N1_22  and  C14_24 
REMARK   10  A    between atoms: C20_30  and  C21_31 
ROOT
HETATM    1  C1  UNL     1      -5.850  -1.287   2.891  1.00  0.00     0.097 C 
HETATM    2  C2  UNL     1      -5.098  -1.211   1.932  1.00  0.00    -0.183 C 
HETATM    3  C3  UNL     1      -4.166  -1.119   0.789  1.00  0.00     0.146 C 
ENDROOT
BRANCH   3   4
HETATM    4  C4  UNL     1      -4.069   0.299   0.272  1.00  0.00     0.264 C 
BRANCH   4   5
HETATM    5  O1  UNL     1      -3.633   1.021   1.376  1.00  0.00    -0.365 OA
ATOM      6  H1  UNL     1      -3.572   1.912   1.051  1.00  0.00     0.212 HD
ENDBRANCH   4   5
BRANCH   4   7
HETATM    7  C5  UNL     1      -5.484   0.702  -0.047  1.00  0.00     0.226 C 
HETATM    8  O2  UNL     1      -6.005   0.139  -1.045  1.00  0.00    -0.645 OA
HETATM    9  O3  UNL     1      -6.201   1.618   0.672  1.00  0.00    -0.645 OA
ENDBRANCH   4   7
BRANCH   4  10
HETATM   10  S1  UNL     1      -3.071   0.424  -1.182  1.00  0.00     0.221 S 
HETATM   11  O4  UNL     1      -3.321   1.712  -1.935  1.00  0.00    -0.219 OA
HETATM   12  O5  UNL     1      -3.858  -0.522  -2.129  1.00  0.00    -0.219 OA
BRANCH  10  13
HETATM   13  C6  UNL     1      -1.469  -0.054  -0.985  1.00  0.00     0.084 A 
HETATM   14  C7  UNL     1      -0.970  -1.246  -1.421  1.00  0.00    -0.016 A 
HETATM   15  C11 UNL     1       0.366  -1.584  -1.078  1.00  0.00     0.030 A 
HETATM   16  C12 UNL     1       1.187  -0.761  -0.332  1.00  0.00     0.043 A 
HETATM   17  C18 UNL     1       0.697   0.437   0.101  1.00  0.00    -0.008 A 
HETATM   18  C19 UNL     1       1.482   1.308   0.828  1.00  0.00     0.021 A 
HETATM   19  C26 UNL     1      -0.623   0.773  -0.235  1.00  0.00    -0.002 A 
HETATM   20  C20 UNL     1       1.024   2.543   1.250  1.00  0.00    -0.052 A 
HETATM   21  C23 UNL     1      -0.244   2.889   0.925  1.00  0.00    -0.055 A 
HETATM   22  C24 UNL     1      -0.815   4.191   1.321  1.00  0.00     0.049 C 
HETATM   23  C25 UNL     1      -1.044   2.001   0.189  1.00  0.00     0.021 A 
BRANCH  14  24
HETATM   24  C8  UNL     1      -1.663  -2.153  -2.305  1.00  0.00    -0.014 C 
BRANCH  24  25
HETATM   25  C9  UNL     1      -2.508  -3.255  -1.855  1.00  0.00     0.023 C 
HETATM   26  C10 UNL     1      -3.036  -3.949  -3.125  1.00  0.00     0.009 C 
ENDBRANCH  24  25
ENDBRANCH  14  24
BRANCH  16  27
HETATM   27  C13 UNL     1       2.549  -1.176  -0.127  1.00  0.00     0.253 C 
HETATM   28  O6  UNL     1       2.687  -2.398   0.248  1.00  0.00    -0.268 OA
HETATM   29  N1  UNL     1       3.744  -0.468  -0.282  1.00  0.00    -0.349 N 
ATOM     30  H1  UNL     1       3.694   0.503  -0.592  1.00  0.00     0.163 HD
BRANCH  29  31
HETATM   31  C14 UNL     1       5.055  -1.042  -0.025  1.00  0.00     0.022 C 
HETATM   32  C15 UNL     1       6.096  -0.009  -0.375  1.00  0.00     0.037 C 
HETATM   33  C16 UNL     1       5.229  -2.261  -0.873  1.00  0.00     0.037 C 
HETATM   34  C17 UNL     1       5.203  -1.413   1.440  1.00  0.00     0.037 C 
ENDBRANCH  29  31
ENDBRANCH  16  27
BRANCH  20  35
HETATM   35  C21 UNL     1       1.928   3.417   2.034  1.00  0.00     0.034 C 
HETATM   36  C22 UNL     1       2.515   4.552   1.245  1.00  0.00     0.010 C 
ENDBRANCH  20  35
ENDBRANCH  10  13
ENDBRANCH   4  10
ENDBRANCH   3   4
TORSDOF 10
