REMARK  9 active torsions:
REMARK  status: ('A' for Active; 'I' for Inactive)
REMARK    1  A    between atoms: C2_2  and  C3_3 
REMARK    2  A    between atoms: C3_3  and  C4_4 
REMARK    3  A    between atoms: C4_4  and  C5_5 
REMARK    4  A    between atoms: C5_5  and  C6_6 
REMARK       I    between atoms: C6_6  and  N1_8 
REMARK    5  A    between atoms: N1_8  and  C7_9 
REMARK    6  A    between atoms: N1_8  and  C10_12 
REMARK    7  A    between atoms: C14_16  and  O2_17 
REMARK    8  A    between atoms: C18_22  and  O3_23 
REMARK    9  A    between atoms: C26_33  and  O5_34 
ROOT
HETATM    1  C10 UNL     1       1.174   0.166  -0.581  1.00  0.00     0.108 C 
HETATM    2  C11 UNL     1       0.411   1.089  -1.468  1.00  0.00     0.013 C 
HETATM    3  C12 UNL     1       0.883   2.528  -1.372  1.00  0.00     0.012 C 
HETATM    4  C13 UNL     1      -1.028   0.944  -1.046  1.00  0.00     0.025 C 
HETATM    5  C14 UNL     1      -1.946   0.895  -2.260  1.00  0.00     0.123 C 
HETATM    6  C15 UNL     1      -3.272   1.422  -1.780  1.00  0.00     0.037 C 
HETATM    7  C16 UNL     1      -4.090   0.310  -1.162  1.00  0.00    -0.001 C 
HETATM    8  C17 UNL     1      -5.498   0.798  -1.090  1.00  0.00     0.037 C 
HETATM    9  C18 UNL     1      -5.691   1.735   0.060  1.00  0.00     0.118 C 
HETATM   10  C19 UNL     1      -5.106   1.296   1.354  1.00  0.00     0.032 C 
HETATM   11  C20 UNL     1      -3.612   0.944   1.195  1.00  0.00     0.012 C 
HETATM   12  C21 UNL     1      -3.536  -0.124   0.181  1.00  0.00    -0.036 C 
HETATM   13  C22 UNL     1      -4.563  -1.181   0.669  1.00  0.00     0.016 C 
HETATM   14  C23 UNL     1      -2.289  -0.939   0.080  1.00  0.00     0.006 C 
HETATM   15  C24 UNL     1      -2.092  -1.746   1.359  1.00  0.00     0.087 C 
HETATM   16  C25 UNL     1      -0.760  -2.373   1.359  1.00  0.00     0.156 C 
HETATM   17  O4  UNL     1      -0.582  -3.588   1.530  1.00  0.00    -0.295 OA
HETATM   18  C26 UNL     1       0.502  -1.582   1.150  1.00  0.00     0.198 C 
HETATM   19  C27 UNL     1       0.182  -0.351   0.437  1.00  0.00     0.015 C 
HETATM   20  C28 UNL     1       0.095   0.752   1.497  1.00  0.00     0.021 C 
HETATM   21  C29 UNL     1      -1.039  -0.427  -0.414  1.00  0.00     0.011 C 
ENDROOT
BRANCH   1  22
HETATM   22  N1  UNL     1       2.092  -0.683  -1.230  1.00  0.00    -0.322 N 
HETATM   23  C6  UNL     1       3.512  -0.613  -0.825  1.00  0.00     0.224 C 
HETATM   24  O1  UNL     1       4.330  -1.224  -1.532  1.00  0.00    -0.273 OA
BRANCH  23  25
HETATM   25  C5  UNL     1       3.967   0.131   0.343  1.00  0.00     0.103 C 
BRANCH  25  26
HETATM   26  C4  UNL     1       5.455  -0.077   0.608  1.00  0.00     0.009 C 
BRANCH  26  27
HETATM   27  C3  UNL     1       5.843   0.733   1.843  1.00  0.00     0.000 C 
BRANCH  27  28
HETATM   28  C2  UNL     1       7.290   0.585   2.175  1.00  0.00    -0.005 C 
HETATM   29  C1  UNL     1       7.554   1.434   3.415  1.00  0.00     0.005 C 
ENDBRANCH  27  28
ENDBRANCH  26  27
ENDBRANCH  25  26
ENDBRANCH  23  25
BRANCH  22  30
HETATM   30  C7  UNL     1       1.882  -1.453  -2.396  1.00  0.00     0.090 C 
HETATM   31  C8  UNL     1       1.779  -2.892  -2.495  1.00  0.00    -0.014 C 
HETATM   32  C9  UNL     1       0.725  -3.708  -1.893  1.00  0.00     0.037 C 
ENDBRANCH  22  30
ENDBRANCH   1  22
BRANCH  18  33
HETATM   33  O5  UNL     1       0.924  -1.308   2.491  1.00  0.00    -0.387 OA
ATOM     34  H5  UNL     1       1.721  -0.808   2.359  1.00  0.00     0.210 HD
ENDBRANCH  18  33
BRANCH   5  35
HETATM   35  O2  UNL     1      -1.436   1.650  -3.321  1.00  0.00    -0.395 OA
ATOM     36  H2  UNL     1      -2.009   1.619  -4.078  1.00  0.00     0.210 HD
ENDBRANCH   5  35
BRANCH   9  37
HETATM   37  O3  UNL     1      -7.019   2.070   0.271  1.00  0.00    -0.396 OA
ATOM     38  H3  UNL     1      -7.142   2.665   1.001  1.00  0.00     0.210 HD
ENDBRANCH   9  37
TORSDOF 9
