REMARK  9 active torsions:
REMARK  status: ('A' for Active; 'I' for Inactive)
REMARK    1  A    between atoms: C2_2  and  C4_4 
REMARK    2  A    between atoms: C4_4  and  N1_5 
REMARK    3  A    between atoms: C4_4  and  C18_27 
REMARK       I    between atoms: N1_5  and  C5_7 
REMARK       I    between atoms: C5_7  and  N3_11 
REMARK    4  A    between atoms: C10_16  and  C11_17 
REMARK    5  A    between atoms: C11_17  and  O1_18 
REMARK    6  A    between atoms: O1_18  and  C12_19 
REMARK    7  A    between atoms: C15_22  and  O2_23 
REMARK    8  A    between atoms: C18_27  and  C19_28 
REMARK    9  A    between atoms: C18_27  and  C26_37 
REMARK       I    between atoms: C19_28  and  N4_30 
ROOT
HETATM    1  N1  UNL     1      -0.831  -0.918  -0.212  1.00  0.00    -0.221 N 
ATOM      2  H1  UNL     1      -0.826  -0.806   0.802  1.00  0.00     0.178 HD
HETATM    3  C5  UNL     1       0.243  -0.347  -0.879  1.00  0.00     0.670 C 
HETATM    4  N2  UNL     1       0.694  -0.615  -2.050  1.00  0.00    -0.235 N 
ATOM      5  H21 UNL     1       1.484  -0.195  -2.540  1.00  0.00     0.174 HD
ATOM      6  H22 UNL     1       0.142  -1.342  -2.505  1.00  0.00     0.174 HD
HETATM    7  N3  UNL     1       1.032   0.692  -0.229  1.00  0.00    -0.212 N 
HETATM    8  C6  UNL     1       0.827   2.072  -0.608  1.00  0.00     0.141 C 
HETATM    9  C7  UNL     1       0.430   2.826   0.639  1.00  0.00     0.020 C 
HETATM   10  C8  UNL     1       1.579   2.701   1.617  1.00  0.00     0.004 C 
HETATM   11  C9  UNL     1       1.878   1.263   1.945  1.00  0.00     0.028 C 
HETATM   12  C10 UNL     1       2.008   0.379   0.758  1.00  0.00     0.126 C 
ENDROOT
BRANCH   1  13
HETATM   13  C4  UNL     1      -1.965  -1.654  -0.753  1.00  0.00     0.116 C 
BRANCH  13  14
HETATM   14  C2  UNL     1      -1.500  -2.799  -1.607  1.00  0.00     0.002 C 
HETATM   15  C1  UNL     1      -2.609  -3.647  -2.168  1.00  0.00     0.011 C 
HETATM   16  C3  UNL     1      -0.678  -3.782  -0.722  1.00  0.00     0.011 C 
ENDBRANCH  13  14
BRANCH  13  17
HETATM   17  C18 UNL     1      -3.021  -0.749  -1.273  1.00  0.00     0.105 C 
BRANCH  17  18
HETATM   18  C19 UNL     1      -3.294   0.242  -0.177  1.00  0.00     0.230 C 
HETATM   19  O3  UNL     1      -2.773   1.410  -0.337  1.00  0.00    -0.273 OA
HETATM   20  N4  UNL     1      -4.033   0.084   1.009  1.00  0.00    -0.331 N 
HETATM   21  C20 UNL     1      -4.027   1.239   1.858  1.00  0.00     0.068 C 
HETATM   22  C25 UNL     1      -4.650  -1.239   1.099  1.00  0.00     0.142 C 
HETATM   23  C21 UNL     1      -5.119   2.246   1.880  1.00  0.00     0.056 C 
HETATM   24  C22 UNL     1      -6.526   1.592   2.131  1.00  0.00     0.085 C 
HETATM   25  C23 UNL     1      -6.367   0.236   1.805  1.00  0.00    -0.181 C 
HETATM   26  C24 UNL     1      -6.172  -1.115   1.498  1.00  0.00     0.100 C 
ENDBRANCH  17  18
BRANCH  17  27
HETATM   27  C26 UNL     1      -2.765   0.051  -2.505  1.00  0.00    -0.008 C 
HETATM   28  C27 UNL     1      -4.072   0.882  -2.701  1.00  0.00     0.010 C 
HETATM   29  C28 UNL     1      -2.625  -0.650  -3.806  1.00  0.00     0.010 C 
ENDBRANCH  17  27
ENDBRANCH  13  17
ENDBRANCH   1  13
BRANCH  12  30
HETATM   30  C11 UNL     1       3.427   0.428   0.176  1.00  0.00     0.194 C 
BRANCH  30  31
HETATM   31  O1  UNL     1       4.361   0.116   1.163  1.00  0.00    -0.384 OA
BRANCH  31  32
HETATM   32  C12 UNL     1       5.653   0.136   0.706  1.00  0.00     0.121 C 
HETATM   33  C13 UNL     1       6.478   1.189   1.381  1.00  0.00     0.034 C 
HETATM   34  C14 UNL     1       7.718   1.480   0.529  1.00  0.00     0.034 C 
HETATM   35  C15 UNL     1       8.148   0.222  -0.152  1.00  0.00     0.118 C 
HETATM   36  C16 UNL     1       7.820  -1.028   0.637  1.00  0.00     0.034 C 
HETATM   37  C17 UNL     1       6.349  -1.201   0.832  1.00  0.00     0.034 C 
BRANCH  35  38
HETATM   38  O2  UNL     1       9.537   0.236  -0.350  1.00  0.00    -0.396 OA
ATOM     39  H2  UNL     1       9.810  -0.564  -0.783  1.00  0.00     0.210 HD
ENDBRANCH  35  38
ENDBRANCH  31  32
ENDBRANCH  30  31
ENDBRANCH  12  30
TORSDOF 9
