REMARK  10 active torsions:
REMARK  status: ('A' for Active; 'I' for Inactive)
REMARK    1  A    between atoms: C2_2  and  C3_3 
REMARK       I    between atoms: C3_3  and  N1_5 
REMARK    2  A    between atoms: N1_5  and  C4_7 
REMARK    3  A    between atoms: C4_7  and  C5_8 
REMARK    4  A    between atoms: C5_8  and  C6_9 
REMARK    5  A    between atoms: C6_9  and  C7_10 
REMARK    6  A    between atoms: C7_10  and  N2_11 
REMARK    7  A    between atoms: N3_27  and  C20_28 
REMARK    8  A    between atoms: C20_28  and  C21_29 
REMARK    9  A    between atoms: C21_29  and  C22_30 
REMARK   10  A    between atoms: C22_30  and  N4_31 
ROOT
HETATM    1  C1  UNL     1       4.527  -0.576   1.389  1.00  0.00     0.030 C 
HETATM    2  C2  UNL     1       3.981  -0.362  -0.014  1.00  0.00     0.056 C 
HETATM    3  C8  UNL     1       2.757   0.460  -0.008  1.00  0.00     0.000 C 
HETATM    4  C9  UNL     1       1.581  -0.099   0.213  1.00  0.00    -0.049 C 
HETATM    5  C10 UNL     1       1.489  -1.531   0.450  1.00  0.00    -0.055 C 
HETATM    6  C11 UNL     1       0.300  -1.842   0.936  1.00  0.00    -0.009 C 
HETATM    7  C12 UNL     1      -0.558  -0.631   1.084  1.00  0.00    -0.014 C 
HETATM    8  C13 UNL     1      -0.453  -0.224   2.550  1.00  0.00     0.021 C 
HETATM    9  C14 UNL     1       0.185   0.401   0.291  1.00  0.00     0.031 C 
HETATM   10  C15 UNL     1      -0.465   0.589  -1.046  1.00  0.00     0.011 C 
HETATM   11  C16 UNL     1      -1.837   1.175  -0.759  1.00  0.00     0.006 C 
HETATM   12  C17 UNL     1      -2.686   0.107  -0.102  1.00  0.00    -0.003 C 
HETATM   13  C18 UNL     1      -3.747   0.839   0.681  1.00  0.00     0.028 C 
HETATM   14  C19 UNL     1      -4.606   1.612  -0.283  1.00  0.00     0.278 C 
HETATM   15  N3  UNL     1      -5.954   1.212  -0.108  1.00  0.00     0.089 N 
HETATM   16  C23 UNL     1      -6.001   0.069   0.749  1.00  0.00     0.282 C 
HETATM   17  C24 UNL     1      -4.665  -0.040   1.447  1.00  0.00    -0.012 C 
HETATM   18  C25 UNL     1      -4.868   0.539   2.845  1.00  0.00     0.017 C 
HETATM   19  C26 UNL     1      -4.158  -1.442   1.512  1.00  0.00     0.012 C 
HETATM   20  C27 UNL     1      -2.703  -1.366   1.922  1.00  0.00     0.007 C 
HETATM   21  C28 UNL     1      -1.943  -0.921   0.658  1.00  0.00     0.002 C 
HETATM   22  C29 UNL     1       2.621  -2.454   0.158  1.00  0.00     0.040 C 
HETATM   23  C30 UNL     1       3.689  -1.728  -0.604  1.00  0.00     0.027 C 
ENDROOT
BRANCH   2  24
HETATM   24  C3  UNL     1       5.005   0.304  -0.834  1.00  0.00     0.229 C 
HETATM   25  O1  UNL     1       4.746   1.431  -1.327  1.00  0.00    -0.272 OA
HETATM   26  N1  UNL     1       6.282  -0.280  -1.092  1.00  0.00    -0.360 N 
ATOM     27  H1  UNL     1       6.510  -1.194  -0.702  1.00  0.00     0.162 HD
BRANCH  26  28
HETATM   28  C4  UNL     1       7.244   0.410  -1.895  1.00  0.00     0.122 C 
BRANCH  28  29
HETATM   29  C5  UNL     1       8.520  -0.338  -2.066  1.00  0.00     0.021 C 
BRANCH  29  30
HETATM   30  C6  UNL     1       9.268  -0.689  -0.836  1.00  0.00     0.029 C 
BRANCH  30  31
HETATM   31  C7  UNL     1       9.721   0.434   0.029  1.00  0.00     0.229 C 
BRANCH  31  32
HETATM   32  N2  UNL     1       8.685   1.261   0.572  1.00  0.00    -0.079 N 
ATOM     33  H23 UNL     1       8.096   1.618  -0.180  1.00  0.00     0.274 HD
ATOM     34  H22 UNL     1       8.010   0.686   1.075  1.00  0.00     0.274 HD
ATOM     35  H21 UNL     1       8.995   2.031   1.165  1.00  0.00     0.274 HD
ENDBRANCH  31  32
ENDBRANCH  30  31
ENDBRANCH  29  30
ENDBRANCH  28  29
ENDBRANCH  26  28
ENDBRANCH   2  24
BRANCH  15  36
HETATM   36  C20 UNL     1      -6.635   0.893  -1.347  1.00  0.00     0.274 C 
BRANCH  36  37
HETATM   37  C21 UNL     1      -8.075   0.475  -1.020  1.00  0.00     0.057 C 
BRANCH  37  38
HETATM   38  C22 UNL     1      -8.803   0.136  -2.311  1.00  0.00     0.231 C 
BRANCH  38  39
HETATM   39  N4  UNL     1      -8.822   1.285  -3.173  1.00  0.00    -0.079 N 
ATOM     40  H43 UNL     1      -9.219   2.104  -2.712  1.00  0.00     0.274 HD
ATOM     41  H42 UNL     1      -7.886   1.652  -3.345  1.00  0.00     0.274 HD
ATOM     42  H41 UNL     1      -9.310   1.058  -4.039  1.00  0.00     0.274 HD
ENDBRANCH  38  39
ENDBRANCH  37  38
ENDBRANCH  36  37
ENDBRANCH  15  36
TORSDOF 10
