REMARK  14 active torsions:
REMARK  status: ('A' for Active; 'I' for Inactive)
REMARK       I    between atoms: C2_2  and  N1_4 
REMARK    1  A    between atoms: C3_6  and  N2_7 
REMARK    2  A    between atoms: C3_6  and  C11_16 
REMARK    3  A    between atoms: N2_7  and  C4_9 
REMARK    4  A    between atoms: C4_9  and  C5_10 
REMARK    5  A    between atoms: C4_9  and  C8_13 
REMARK    6  A    between atoms: N3_21  and  C16_22 
REMARK    7  A    between atoms: C16_22  and  N4_23 
REMARK    8  A    between atoms: C16_22  and  C21_28 
REMARK    9  A    between atoms: N4_23  and  C17_24 
REMARK   10  A    between atoms: C21_28  and  C22_29 
REMARK   11  A    between atoms: C21_28  and  C26_33 
REMARK   12  A    between atoms: C22_29  and  C23_30 
REMARK   13  A    between atoms: C26_33  and  O2_34 
REMARK   14  A    between atoms: N5_36  and  O3_38 
ROOT
HETATM    1  C11 UNL     1       0.298  -0.706  -1.171  1.00  0.00     0.154 C 
HETATM    2  C12 UNL     1       0.769  -1.534  -2.392  1.00  0.00     0.033 C 
HETATM    3  C13 UNL     1       1.422  -2.803  -2.027  1.00  0.00     0.004 C 
HETATM    4  C14 UNL     1       0.669  -3.413  -0.896  1.00  0.00     0.020 C 
HETATM    5  C15 UNL     1      -0.609  -2.821  -0.541  1.00  0.00     0.126 C 
HETATM    6  N3  UNL     1      -0.786  -1.358  -0.629  1.00  0.00    -0.348 N 
ENDROOT
BRANCH   6   7
HETATM    7  C16 UNL     1      -2.089  -0.952  -0.120  1.00  0.00     0.160 C 
BRANCH   7   8
HETATM    8  N4  UNL     1      -2.932  -1.845   0.137  1.00  0.00    -0.424 NA
BRANCH   8   9
HETATM    9  C17 UNL     1      -3.969  -2.603   0.474  1.00  0.00     0.084 C 
HETATM   10  C18 UNL     1      -3.710  -4.150   0.514  1.00  0.00     0.053 C 
HETATM   11  C19 UNL     1      -4.525  -2.380   1.908  1.00  0.00     0.053 C 
HETATM   12  C20 UNL     1      -5.219  -2.603  -0.440  1.00  0.00     0.053 C 
ENDBRANCH   8   9
ENDBRANCH   7   8
BRANCH   7  13
HETATM   13  C21 UNL     1      -2.491   0.437   0.157  1.00  0.00     0.144 C 
BRANCH  13  14
HETATM   14  C22 UNL     1      -1.740   1.535  -0.516  1.00  0.00     0.025 C 
BRANCH  14  15
HETATM   15  C23 UNL     1      -2.240   2.926  -0.192  1.00  0.00    -0.021 C 
HETATM   16  C24 UNL     1      -1.355   3.878  -0.985  1.00  0.00     0.009 C 
HETATM   17  C25 UNL     1      -1.939   3.274   1.275  1.00  0.00     0.009 C 
ENDBRANCH  14  15
ENDBRANCH  13  14
BRANCH  13  18
HETATM   18  C26 UNL     1      -3.902   0.717  -0.286  1.00  0.00     0.148 C 
HETATM   19  N5  UNL     1      -4.867   1.055   0.463  1.00  0.00    -0.250 N 
ATOM     20  H5  UNL     1      -5.754   1.202  -0.018  1.00  0.00     0.196 HD
BRANCH  18  21
HETATM   21  O2  UNL     1      -4.134   0.584  -1.655  1.00  0.00    -0.347 OA
ATOM     22  H2  UNL     1      -5.025   0.761  -1.935  1.00  0.00     0.219 HD
ENDBRANCH  18  21
BRANCH  19  23
HETATM   23  O3  UNL     1      -4.904   1.250   1.790  1.00  0.00    -0.288 OA
ATOM     24  H3  UNL     1      -5.627   1.503   2.351  1.00  0.00     0.244 HD
ENDBRANCH  19  23
ENDBRANCH  13  18
ENDBRANCH   7  13
ENDBRANCH   6   7
BRANCH   1  25
HETATM   25  C3  UNL     1       1.451  -0.584  -0.179  1.00  0.00     0.103 C 
HETATM   26  N1  UNL     1       1.207  -0.894   0.995  1.00  0.00    -0.315 N 
HETATM   27  C2  UNL     1       1.885  -0.948   2.185  1.00  0.00     0.219 C 
ATOM     28  H1  UNL     1       0.237  -1.190   1.107  1.00  0.00     0.170 HD
HETATM   29  C1  UNL     1       1.574   0.056   3.263  1.00  0.00     0.117 C 
HETATM   30  O1  UNL     1       2.791  -1.787   2.505  1.00  0.00    -0.274 OA
BRANCH  25  31
HETATM   31  N2  UNL     1       2.716  -0.134  -0.627  1.00  0.00    -0.373 N 
ATOM     32  H2  UNL     1       3.057  -0.485  -1.522  1.00  0.00     0.161 HD
BRANCH  31  33
HETATM   33  C4  UNL     1       3.570   0.804   0.112  1.00  0.00     0.089 C 
BRANCH  33  34
HETATM   34  C5  UNL     1       2.775   2.083   0.180  1.00  0.00     0.000 C 
HETATM   35  C6  UNL     1       3.449   3.193   0.933  1.00  0.00     0.011 C 
HETATM   36  C7  UNL     1       2.484   2.625  -1.212  1.00  0.00     0.011 C 
ENDBRANCH  33  34
BRANCH  33  37
HETATM   37  C8  UNL     1       4.855   0.934  -0.682  1.00  0.00     0.000 C 
HETATM   38  C9  UNL     1       5.441  -0.493  -0.768  1.00  0.00     0.011 C 
HETATM   39  C10 UNL     1       5.922   1.740  -0.013  1.00  0.00     0.011 C 
ENDBRANCH  33  37
ENDBRANCH  31  33
ENDBRANCH  25  31
ENDBRANCH   1  25
TORSDOF 14
