REMARK  11 active torsions:
REMARK  status: ('A' for Active; 'I' for Inactive)
REMARK    1  A    between atoms: O1_2  and  C2_3 
REMARK    2  A    between atoms: C14_16  and  O2_17 
REMARK    3  A    between atoms: C16_21  and  O3_22 
REMARK    4  A    between atoms: C23_31  and  O4_32 
REMARK    5  A    between atoms: O4_32  and  C24_33 
REMARK    6  A    between atoms: C24_33  and  C25_34 
REMARK    7  A    between atoms: C25_34  and  C26_35 
REMARK    8  A    between atoms: C26_35  and  C27_36 
REMARK    9  A    between atoms: C27_36  and  C28_37 
REMARK   10  A    between atoms: C28_37  and  N3_38 
REMARK   11  A    between atoms: C33_43  and  O5_44 
ROOT
HETATM    1  C2  UNL     1       0.418   3.077  -2.276  1.00  0.00     0.104 A 
HETATM    2  C3  UNL     1      -0.592   2.238  -1.861  1.00  0.00     0.053 A 
HETATM    3  C4  UNL     1      -0.600   1.639  -0.610  1.00  0.00    -0.003 A 
HETATM    4  C5  UNL     1      -1.683   0.801  -0.235  1.00  0.00     0.056 C 
HETATM    5  C6  UNL     1      -1.707  -0.590  -0.751  1.00  0.00     0.006 A 
HETATM    6  C7  UNL     1      -0.552  -1.137  -1.169  1.00  0.00     0.057 A 
HETATM    7  C8  UNL     1      -0.559  -2.447  -1.607  1.00  0.00     0.117 A 
HETATM    8  F1  UNL     1       0.632  -2.997  -2.031  1.00  0.00    -0.206 F 
HETATM    9  C9  UNL     1      -1.722  -3.198  -1.623  1.00  0.00     0.043 A 
HETATM   10  C10 UNL     1      -2.933  -2.640  -1.190  1.00  0.00     0.016 A 
HETATM   11  C11 UNL     1      -2.888  -1.354  -0.770  1.00  0.00    -0.008 A 
HETATM   12  C12 UNL     1      -4.242  -0.905  -0.379  1.00  0.00     0.039 A 
HETATM   13  C13 UNL     1      -4.467   0.113   0.564  1.00  0.00     0.031 A 
HETATM   14  C14 UNL     1      -5.838   0.196   0.615  1.00  0.00     0.153 A 
HETATM   15  N1  UNL     1      -6.377  -0.707  -0.237  1.00  0.00    -0.312 N 
HETATM   16  C15 UNL     1      -7.821  -0.850  -0.400  1.00  0.00     0.160 C 
HETATM   17  C16 UNL     1      -5.397  -1.394  -0.859  1.00  0.00     0.155 A 
HETATM   18  C17 UNL     1      -3.519   0.955   1.328  1.00  0.00     0.127 C 
HETATM   19  C18 UNL     1      -3.777   0.689   2.811  1.00  0.00     0.031 C 
HETATM   20  C19 UNL     1      -3.583  -0.823   3.002  1.00  0.00     0.007 C 
HETATM   21  C20 UNL     1      -2.158  -1.167   2.665  1.00  0.00     0.045 C 
HETATM   22  C21 UNL     1      -1.409  -0.040   2.016  1.00  0.00     0.065 C 
HETATM   23  N2  UNL     1      -2.147   0.714   1.110  1.00  0.00    -0.350 N 
HETATM   24  C22 UNL     1       0.455   1.922   0.210  1.00  0.00     0.053 A 
HETATM   25  C23 UNL     1       1.497   2.770  -0.177  1.00  0.00     0.105 A 
HETATM   26  C33 UNL     1       1.466   3.354  -1.452  1.00  0.00     0.133 A 
ENDROOT
BRANCH   1  27
HETATM   27  O1  UNL     1       0.401   3.671  -3.550  1.00  0.00    -0.353 OA
HETATM   28  C1  UNL     1      -0.701   3.363  -4.381  1.00  0.00     0.210 C 
ENDBRANCH   1  27
BRANCH  25  29
HETATM   29  O4  UNL     1       2.554   3.068   0.618  1.00  0.00    -0.348 OA
BRANCH  29  30
HETATM   30  C24 UNL     1       2.967   2.733   1.863  1.00  0.00     0.176 C 
BRANCH  30  31
HETATM   31  C25 UNL     1       3.309   1.323   2.177  1.00  0.00     0.027 C 
BRANCH  31  32
HETATM   32  C26 UNL     1       4.455   0.755   1.428  1.00  0.00     0.004 C 
BRANCH  32  33
HETATM   33  C27 UNL     1       4.357   0.701  -0.046  1.00  0.00     0.030 C 
BRANCH  33  34
HETATM   34  C28 UNL     1       5.641   0.065  -0.584  1.00  0.00     0.272 C 
BRANCH  34  35
HETATM   35  N3  UNL     1       5.761  -1.234  -0.016  1.00  0.00     0.088 N 
HETATM   36  C29 UNL     1       4.758  -2.122  -0.503  1.00  0.00     0.272 C 
HETATM   37  C30 UNL     1       5.200  -3.444   0.134  1.00  0.00     0.032 C 
HETATM   38  C31 UNL     1       6.718  -3.298   0.286  1.00  0.00     0.032 C 
HETATM   39  C32 UNL     1       6.984  -1.918  -0.322  1.00  0.00     0.272 C 
ENDBRANCH  34  35
ENDBRANCH  33  34
ENDBRANCH  32  33
ENDBRANCH  31  32
ENDBRANCH  30  31
ENDBRANCH  29  30
ENDBRANCH  25  29
BRANCH  26  40
HETATM   40  O5  UNL     1       2.517   4.207  -1.843  1.00  0.00    -0.356 OA
ATOM     41  H5  UNL     1       3.248   4.400  -1.268  1.00  0.00     0.218 HD
ENDBRANCH  26  40
BRANCH  17  42
HETATM   42  O3  UNL     1      -5.621  -2.372  -1.785  1.00  0.00    -0.345 OA
ATOM     43  H3  UNL     1      -6.438  -2.718  -2.125  1.00  0.00     0.219 HD
ENDBRANCH  17  42
BRANCH  14  44
HETATM   44  O2  UNL     1      -6.531   1.083   1.428  1.00  0.00    -0.345 OA
ATOM     45  H2  UNL     1      -7.479   1.140   1.463  1.00  0.00     0.219 HD
ENDBRANCH  14  44
TORSDOF 11
