REMARK  9 active torsions:
REMARK  status: ('A' for Active; 'I' for Inactive)
REMARK    1  A    between atoms: C2_2  and  N1_3 
REMARK    2  A    between atoms: C5_6  and  O1_7 
REMARK    3  A    between atoms: O1_7  and  C6_8 
REMARK    4  A    between atoms: C12_15  and  S1_17 
REMARK    5  A    between atoms: S1_17  and  C14_18 
REMARK    6  A    between atoms: C18_24  and  O2_25 
REMARK    7  A    between atoms: O2_25  and  C19_26 
REMARK    8  A    between atoms: C19_26  and  C20_27 
REMARK    9  A    between atoms: C20_27  and  N3_28 
ROOT
HETATM    1  C6  UNL     1       3.468   0.123   1.217  1.00  0.00     0.110 A 
HETATM    2  C7  UNL     1       3.183  -1.164   0.807  1.00  0.00     0.069 A 
HETATM    3  C8  UNL     1       2.187  -1.901   1.412  1.00  0.00     0.039 A 
HETATM    4  C9  UNL     1       1.423  -1.396   2.456  1.00  0.00    -0.010 A 
HETATM    5  C10 UNL     1       1.691  -0.122   2.876  1.00  0.00     0.056 A 
HETATM    6  C11 UNL     1       2.685   0.616   2.273  1.00  0.00     0.150 A 
HETATM    7  F1  UNL     1       2.945   1.881   2.698  1.00  0.00    -0.203 F 
HETATM    8  C12 UNL     1       0.368  -2.204   3.102  1.00  0.00     0.043 C 
HETATM    9  C13 UNL     1       1.035  -2.900   4.296  1.00  0.00     0.033 C 
HETATM   10  C26 UNL     1      -0.276  -3.208   2.200  1.00  0.00     0.055 C 
HETATM   11  C27 UNL     1       0.600  -3.836   1.173  1.00  0.00     0.025 C 
HETATM   12  C28 UNL     1      -0.117  -3.662  -0.180  1.00  0.00     0.038 C 
HETATM   13  C29 UNL     1       0.736  -5.336   1.356  1.00  0.00     0.038 C 
HETATM   14  N5  UNL     1       1.892  -3.209   0.998  1.00  0.00    -0.381 N 
ATOM     15  H5  UNL     1       2.631  -3.749   0.548  1.00  0.00     0.160 HD
ENDROOT
BRANCH   8  16
HETATM   16  S1  UNL     1      -0.970  -1.180   3.789  1.00  0.00    -0.079 SA
BRANCH  16  17
HETATM   17  C14 UNL     1      -1.907  -0.360   2.493  1.00  0.00     0.146 A 
HETATM   18  N2  UNL     1      -1.725   0.854   1.950  1.00  0.00    -0.335 N 
HETATM   19  C15 UNL     1      -2.658   1.113   1.002  1.00  0.00     0.061 A 
ATOM     20  H2  UNL     1      -0.981   1.498   2.217  1.00  0.00     0.168 HD
HETATM   21  C16 UNL     1      -2.915   2.182   0.171  1.00  0.00     0.035 A 
HETATM   22  C25 UNL     1      -3.469  -0.004   0.949  1.00  0.00     0.063 A 
HETATM   23  C17 UNL     1      -3.976   2.124  -0.700  1.00  0.00     0.039 A 
HETATM   24  C18 UNL     1      -4.809   1.027  -0.783  1.00  0.00     0.071 A 
HETATM   25  C24 UNL     1      -4.541  -0.035   0.053  1.00  0.00     0.068 A 
HETATM   26  N4  UNL     1      -2.995  -0.872   1.855  1.00  0.00    -0.335 N 
ATOM     27  H4  UNL     1      -3.396  -1.791   2.041  1.00  0.00     0.168 HD
BRANCH  24  28
HETATM   28  O2  UNL     1      -5.853   1.054  -1.686  1.00  0.00    -0.349 OA
BRANCH  28  29
HETATM   29  C19 UNL     1      -6.758  -0.022  -1.846  1.00  0.00     0.206 C 
BRANCH  29  30
HETATM   30  C20 UNL     1      -7.809   0.214  -2.871  1.00  0.00     0.301 C 
BRANCH  30  31
HETATM   31  N3  UNL     1      -8.678   1.315  -2.663  1.00  0.00     0.115 N 
HETATM   32  C21 UNL     1      -9.574   1.179  -1.540  1.00  0.00     0.301 C 
HETATM   33  C22 UNL     1      -9.043   2.220  -0.596  1.00  0.00     0.200 C 
HETATM   34  O3  UNL     1      -8.196   3.053  -1.282  1.00  0.00    -0.361 OA
HETATM   35  C23 UNL     1      -8.081   2.603  -2.593  1.00  0.00     0.440 C 
ENDBRANCH  30  31
ENDBRANCH  29  30
ENDBRANCH  28  29
ENDBRANCH  24  28
ENDBRANCH  16  17
ENDBRANCH   8  16
BRANCH   1  36
HETATM   36  O1  UNL     1       4.437   0.940   0.683  1.00  0.00    -0.343 OA
BRANCH  36  37
HETATM   37  C5  UNL     1       5.283   0.627  -0.357  1.00  0.00     0.132 C 
HETATM   38  C4  UNL     1       6.746   0.576   0.065  1.00  0.00     0.062 C 
HETATM   39  C3  UNL     1       7.498   1.780  -0.417  1.00  0.00     0.275 C 
HETATM   40  N1  UNL     1       7.503   1.891  -1.861  1.00  0.00     0.088 N 
HETATM   41  C31 UNL     1       6.323   1.315  -2.456  1.00  0.00     0.275 C 
HETATM   42  C30 UNL     1       5.162   1.625  -1.519  1.00  0.00     0.062 C 
BRANCH  40  43
HETATM   43  C2  UNL     1       7.714   3.231  -2.318  1.00  0.00     0.268 C 
HETATM   44  C1  UNL     1       9.115   3.730  -2.016  1.00  0.00     0.037 C 
ENDBRANCH  40  43
ENDBRANCH  36  37
ENDBRANCH   1  36
TORSDOF 9
