REMARK  11 active torsions:
REMARK  status: ('A' for Active; 'I' for Inactive)
REMARK    1  A    between atoms: C2_2  and  C3_3 
REMARK    2  A    between atoms: C3_3  and  C4_4 
REMARK    3  A    between atoms: N1_6  and  C6_7 
REMARK    4  A    between atoms: C9_12  and  N3_13 
REMARK    5  A    between atoms: N6_29  and  C21_30 
REMARK    6  A    between atoms: C21_30  and  C22_31 
REMARK    7  A    between atoms: C24_33  and  O2_34 
REMARK    8  A    between atoms: O2_34  and  C25_35 
REMARK    9  A    between atoms: C28_38  and  N7_39 
REMARK   10  A    between atoms: N7_39  and  N8_41 
REMARK   11  A    between atoms: N8_41  and  N9_42 
ROOT
HETATM    1  C4  UNL     1       1.283  -2.039  -0.147  1.00  0.00     0.127 C 
HETATM    2  C5  UNL     1       0.210  -1.148  -0.647  1.00  0.00     0.107 C 
HETATM    3  N1  UNL     1      -0.782  -0.619   0.175  1.00  0.00    -0.195 N 
HETATM    4  C18 UNL     1      -0.542   0.150   1.389  1.00  0.00     0.151 C 
HETATM    5  C19 UNL     1       0.879   0.623   1.444  1.00  0.00     0.065 C 
HETATM    6  C20 UNL     1       1.923  -0.428   1.582  1.00  0.00     0.066 C 
HETATM    7  N6  UNL     1       2.296  -1.097   0.460  1.00  0.00    -0.360 N 
ENDROOT
BRANCH   3   8
HETATM    8  C6  UNL     1      -2.119  -0.663  -0.295  1.00  0.00     0.685 A 
HETATM    9  N2  UNL     1      -3.171  -0.005   0.344  1.00  0.00    -0.190 N 
HETATM   10  C7  UNL     1      -4.359   0.187  -0.223  1.00  0.00     0.065 A 
ATOM     11  H2  UNL     1      -3.022   0.345   1.290  1.00  0.00     0.184 HD
HETATM   12  C8  UNL     1      -5.438   0.800   0.241  1.00  0.00     0.060 A 
HETATM   13  C16 UNL     1      -4.541  -0.301  -1.544  1.00  0.00     0.033 A 
HETATM   14  C9  UNL     1      -6.644   1.102  -0.184  1.00  0.00     0.032 A 
HETATM   15  C14 UNL     1      -6.789   0.642  -1.552  1.00  0.00     0.030 A 
HETATM   16  C15 UNL     1      -5.739  -0.060  -2.264  1.00  0.00     0.019 A 
HETATM   17  C17 UNL     1      -3.534  -0.941  -2.098  1.00  0.00     0.144 A 
HETATM   18  N4  UNL     1      -3.759  -1.742  -3.269  1.00  0.00    -0.081 NA
HETATM   19  N5  UNL     1      -2.358  -1.143  -1.544  1.00  0.00    -0.178 N 
ATOM     20  H5  UNL     1      -1.633  -1.655  -2.047  1.00  0.00     0.185 HD
BRANCH  14  21
HETATM   21  N3  UNL     1      -7.771   1.708   0.408  1.00  0.00    -0.377 N 
HETATM   22  C10 UNL     1      -8.813   2.247  -0.492  1.00  0.00     0.149 C 
HETATM   23  C11 UNL     1     -10.146   1.743   0.085  1.00  0.00     0.187 C 
HETATM   24  O1  UNL     1     -10.292   2.470   1.267  1.00  0.00    -0.388 OA
HETATM   25  C12 UNL     1      -9.372   2.176   2.241  1.00  0.00     0.187 C 
HETATM   26  C13 UNL     1      -8.012   1.763   1.828  1.00  0.00     0.149 C 
ENDBRANCH  14  21
ENDBRANCH   3   8
BRANCH   1  27
HETATM   27  C3  UNL     1       0.899  -3.098   0.776  1.00  0.00     0.031 C 
BRANCH  27  28
HETATM   28  C2  UNL     1       2.005  -4.135   0.981  1.00  0.00    -0.002 C 
HETATM   29  C1  UNL     1       2.110  -4.868  -0.387  1.00  0.00     0.005 C 
ENDBRANCH  27  28
ENDBRANCH   1  27
BRANCH   7  30
HETATM   30  C21 UNL     1       3.313  -0.928  -0.420  1.00  0.00     0.105 C 
BRANCH  30  31
HETATM   31  C22 UNL     1       4.239   0.172  -0.536  1.00  0.00     0.021 A 
HETATM   32  C23 UNL     1       5.336   0.538   0.184  1.00  0.00     0.055 A 
HETATM   33  C24 UNL     1       6.222   1.493  -0.212  1.00  0.00     0.099 A 
HETATM   34  C28 UNL     1       6.049   2.204  -1.418  1.00  0.00     0.099 A 
HETATM   35  C29 UNL     1       4.937   1.885  -2.172  1.00  0.00     0.078 A 
HETATM   36  C30 UNL     1       4.083   0.916  -1.759  1.00  0.00     0.130 A 
HETATM   37  F1  UNL     1       3.080   0.541  -2.590  1.00  0.00    -0.205 F 
BRANCH  33  38
HETATM   38  O2  UNL     1       7.354   1.820   0.432  1.00  0.00    -0.344 OA
BRANCH  38  39
HETATM   39  C25 UNL     1       8.049   1.209   1.473  1.00  0.00     0.120 C 
HETATM   40  C26 UNL     1       9.441   1.780   1.470  1.00  0.00     0.040 C 
HETATM   41  C27 UNL     1       8.244  -0.295   1.007  1.00  0.00     0.040 C 
ENDBRANCH  38  39
ENDBRANCH  33  38
BRANCH  34  42
HETATM   42  N7  UNL     1       7.019   3.118  -1.866  1.00  0.00    -0.214 N 
ATOM     43  H7  UNL     1       7.298   3.868  -1.234  1.00  0.00     0.204 HD
BRANCH  42  44
HETATM   44  N8  UNL     1       7.552   3.068  -2.974  1.00  0.00    -0.243 NA
BRANCH  44  45
HETATM   45  N9  UNL     1       7.980   2.884  -4.111  1.00  0.00    -0.260 N 
ATOM     46  H92 UNL     1       7.314   2.113  -4.160  1.00  0.00     0.193 HD
ATOM     47  H91 UNL     1       8.422   2.843  -5.029  1.00  0.00     0.193 HD
ENDBRANCH  44  45
ENDBRANCH  42  44
ENDBRANCH  34  42
ENDBRANCH  30  31
ENDBRANCH   7  30
TORSDOF 11
