REMARK  10 active torsions:
REMARK  status: ('A' for Active; 'I' for Inactive)
REMARK    1  A    between atoms: C2_2  and  N1_3 
REMARK    2  A    between atoms: N1_3  and  C4_5 
REMARK    3  A    between atoms: C7_9  and  C8_10 
REMARK    4  A    between atoms: C11_13  and  O1_14 
REMARK    5  A    between atoms: C13_16  and  C14_17 
REMARK    6  A    between atoms: C14_17  and  C15_18 
REMARK    7  A    between atoms: C15_18  and  O2_19 
REMARK    8  A    between atoms: O2_19  and  C16_20 
REMARK    9  A    between atoms: C19_23  and  C20_24 
REMARK   10  A    between atoms: C22_27  and  N3_28 
ROOT
HETATM    1  C8  UNL     1      -1.433  -0.697  -0.102  1.00  0.00     0.016 A 
HETATM    2  C9  UNL     1      -0.684   0.475   0.030  1.00  0.00    -0.014 A 
HETATM    3  C10 UNL     1      -1.516   1.722  -0.065  1.00  0.00     0.052 C 
HETATM    4  C11 UNL     1       0.623   0.578   0.445  1.00  0.00     0.082 A 
HETATM    5  C13 UNL     1       1.251  -0.579   0.772  1.00  0.00    -0.003 A 
HETATM    6  C25 UNL     1       0.505  -1.803   0.659  1.00  0.00     0.043 A 
HETATM    7  S2  UNL     1       0.904  -3.429   0.967  1.00  0.00    -0.074 SA
HETATM    8  C26 UNL     1      -0.596  -4.165   0.549  1.00  0.00     0.048 A 
HETATM    9  C27 UNL     1      -0.951  -5.613   0.609  1.00  0.00     0.076 C 
HETATM   10  N5  UNL     1      -1.318  -3.116   0.199  1.00  0.00    -0.352 N 
ATOM     11  H5  UNL     1      -2.284  -3.244  -0.103  1.00  0.00     0.166 HD
HETATM   12  C28 UNL     1      -0.798  -1.902   0.237  1.00  0.00     0.063 A 
ENDROOT
BRANCH   5  13
HETATM   13  C14 UNL     1       2.611  -0.860   1.197  1.00  0.00     0.070 C 
BRANCH  13  14
HETATM   14  C15 UNL     1       3.657  -1.164   0.121  1.00  0.00     0.180 C 
BRANCH  14  15
HETATM   15  O2  UNL     1       4.331   0.016  -0.183  1.00  0.00    -0.348 OA
BRANCH  15  16
HETATM   16  C16 UNL     1       5.711   0.143   0.014  1.00  0.00     0.107 A 
HETATM   17  C17 UNL     1       6.570  -0.830   0.416  1.00  0.00     0.041 A 
HETATM   18  C18 UNL     1       7.939  -0.555   0.580  1.00  0.00     0.017 A 
HETATM   19  C19 UNL     1       8.407   0.699   0.341  1.00  0.00    -0.006 A 
HETATM   20  C23 UNL     1       7.569   1.706  -0.073  1.00  0.00     0.059 A 
HETATM   21  C24 UNL     1       6.240   1.410  -0.236  1.00  0.00     0.150 A 
HETATM   22  F1  UNL     1       5.390   2.386  -0.634  1.00  0.00    -0.203 F 
BRANCH  19  23
HETATM   23  C20 UNL     1       9.869   1.008   0.419  1.00  0.00     0.051 A 
HETATM   24  C21 UNL     1      10.293   2.084   1.168  1.00  0.00     0.083 A 
HETATM   25  S1  UNL     1      11.985   1.946   1.037  1.00  0.00    -0.064 SA
HETATM   26  C22 UNL     1      12.061   0.562   0.057  1.00  0.00     0.142 A 
HETATM   27  N4  UNL     1      10.776   0.258  -0.128  1.00  0.00    -0.336 N 
ATOM     28  H4  UNL     1      10.510  -0.551  -0.690  1.00  0.00     0.168 HD
BRANCH  26  29
HETATM   29  N3  UNL     1      13.091  -0.076  -0.475  1.00  0.00    -0.380 N 
ATOM     30  H32 UNL     1      14.074   0.157  -0.333  1.00  0.00     0.158 HD
ATOM     31  H31 UNL     1      13.137  -0.908  -1.064  1.00  0.00     0.158 HD
ENDBRANCH  26  29
ENDBRANCH  19  23
ENDBRANCH  15  16
ENDBRANCH  14  15
ENDBRANCH  13  14
ENDBRANCH   5  13
BRANCH   4  32
HETATM   32  O1  UNL     1       1.197   1.835   0.526  1.00  0.00    -0.355 OA
HETATM   33  C12 UNL     1       1.635   2.617  -0.541  1.00  0.00     0.210 C 
ENDBRANCH   4  32
BRANCH   1  34
HETATM   34  C7  UNL     1      -2.630  -0.480  -0.906  1.00  0.00     0.100 C 
HETATM   35  N2  UNL     1      -3.918  -0.434  -0.593  1.00  0.00    -0.389 N 
HETATM   36  C6  UNL     1      -4.660   0.091  -1.755  1.00  0.00     0.124 C 
HETATM   37  C29 UNL     1      -4.700  -0.903   0.391  1.00  0.00     0.124 C 
HETATM   38  C5  UNL     1      -6.130   0.091  -1.540  1.00  0.00     0.055 C 
HETATM   39  C4  UNL     1      -6.494   0.760  -0.233  1.00  0.00     0.225 C 
HETATM   40  C30 UNL     1      -5.694   0.185   0.869  1.00  0.00     0.055 C 
BRANCH  39  41
HETATM   41  N1  UNL     1      -7.944   0.583  -0.102  1.00  0.00     0.088 N 
HETATM   42  C3  UNL     1      -8.210  -0.405   0.927  1.00  0.00     0.310 C 
BRANCH  41  43
HETATM   43  C2  UNL     1      -8.652   1.810   0.041  1.00  0.00     0.268 C 
HETATM   44  C1  UNL     1      -8.724   2.574  -1.253  1.00  0.00     0.037 C 
ENDBRANCH  41  43
ENDBRANCH  39  41
ENDBRANCH   1  34
TORSDOF 10
