REMARK  14 active torsions:
REMARK  status: ('A' for Active; 'I' for Inactive)
REMARK    1  A    between atoms: C3_3  and  C4_4 
REMARK    2  A    between atoms: C4_4  and  C7_7 
REMARK    3  A    between atoms: C8_8  and  C9_9 
REMARK    4  A    between atoms: N1_14  and  C12_15 
REMARK    5  A    between atoms: C12_15  and  C13_16 
REMARK    6  A    between atoms: C13_16  and  C14_17 
REMARK    7  A    between atoms: C14_17  and  C15_18 
REMARK    8  A    between atoms: C15_18  and  C16_19 
REMARK    9  A    between atoms: C16_19  and  O3_21 
REMARK   10  A    between atoms: O3_21  and  C17_22 
REMARK   11  A    between atoms: C17_22  and  C19_24 
REMARK   12  A    between atoms: C22_27  and  C23_28 
REMARK   13  A    between atoms: C26_35  and  O8_36 
REMARK   14  A    between atoms: C27_38  and  C28_39 
ROOT
HETATM    1  C1  UNL     1      10.367   1.336   1.250  1.00  0.00     0.112 C 
HETATM    2  C2  UNL     1       8.915   1.111   1.078  1.00  0.00    -0.110 C 
HETATM    3  C3  UNL     1       7.728   0.909   0.926  1.00  0.00    -0.093 C 
ENDROOT
BRANCH   3   4
HETATM    4  C4  UNL     1       6.324   0.738   0.719  1.00  0.00     0.048 C 
HETATM    5  C5  UNL     1       5.526   1.769   1.534  1.00  0.00     0.034 C 
HETATM    6  C6  UNL     1       5.982   1.102  -0.765  1.00  0.00     0.034 C 
BRANCH   4   7
HETATM    7  C7  UNL     1       5.797  -0.601   0.891  1.00  0.00     0.019 A 
HETATM    8  C8  UNL     1       4.463  -0.908   0.518  1.00  0.00     0.089 A 
HETATM    9  O7  UNL     1       4.275  -2.171   0.781  1.00  0.00    -0.286 OA
HETATM   10  C26 UNL     1       5.336  -2.717   1.284  1.00  0.00     0.203 A 
HETATM   11  C27 UNL     1       6.355  -1.754   1.381  1.00  0.00     0.087 A 
BRANCH   8  12
HETATM   12  C9  UNL     1       3.465  -0.022  -0.047  1.00  0.00     0.062 C 
HETATM   13  C10 UNL     1       2.679  -0.393  -1.028  1.00  0.00     0.081 C 
HETATM   14  S1  UNL     1       2.649  -2.001  -1.869  1.00  0.00    -0.023 SA
HETATM   15  C25 UNL     1       1.630   0.334  -1.721  1.00  0.00     0.268 C 
HETATM   16  C11 UNL     1       1.980  -1.313  -3.414  1.00  0.00     0.293 C 
HETATM   17  O1  UNL     1       2.161  -1.811  -4.533  1.00  0.00    -0.259 OA
HETATM   18  N1  UNL     1       1.274  -0.167  -2.979  1.00  0.00    -0.274 N 
HETATM   19  O6  UNL     1       1.104   1.367  -1.151  1.00  0.00    -0.266 OA
BRANCH  18  20
HETATM   20  C12 UNL     1       0.245   0.480  -3.810  1.00  0.00     0.136 C 
BRANCH  20  21
HETATM   21  C13 UNL     1      -1.113  -0.079  -3.637  1.00  0.00     0.021 C 
BRANCH  21  22
HETATM   22  C14 UNL     1      -1.671  -0.003  -2.251  1.00  0.00     0.011 C 
BRANCH  22  23
HETATM   23  C15 UNL     1      -3.068  -0.608  -2.236  1.00  0.00     0.111 C 
BRANCH  23  24
HETATM   24  C16 UNL     1      -3.643  -0.549  -0.867  1.00  0.00     0.259 C 
HETATM   25  O2  UNL     1      -3.331  -1.424  -0.025  1.00  0.00    -0.265 OA
BRANCH  24  26
HETATM   26  O3  UNL     1      -4.518   0.437  -0.465  1.00  0.00    -0.316 OA
BRANCH  26  27
HETATM   27  C17 UNL     1      -5.101   0.556   0.801  1.00  0.00     0.132 C 
HETATM   28  C18 UNL     1      -4.671   1.812   1.524  1.00  0.00     0.040 C 
BRANCH  27  29
HETATM   29  C19 UNL     1      -6.583   0.448   0.664  1.00  0.00     0.016 C 
HETATM   30  C20 UNL     1      -6.918  -0.919   0.058  1.00  0.00     0.008 C 
HETATM   31  C21 UNL     1      -8.343  -1.190   0.461  1.00  0.00     0.016 C 
HETATM   32  C22 UNL     1      -8.586  -0.391   1.713  1.00  0.00     0.087 C 
HETATM   33  C24 UNL     1      -7.335   0.428   1.975  1.00  0.00     0.022 C 
BRANCH  32  34
HETATM   34  C23 UNL     1      -9.777   0.505   1.493  1.00  0.00     0.177 C 
HETATM   35  O4  UNL     1     -10.807   0.410   2.185  1.00  0.00    -0.648 OA
HETATM   36  O5  UNL     1      -9.650   1.446   0.464  1.00  0.00    -0.648 OA
ENDBRANCH  32  34
ENDBRANCH  27  29
ENDBRANCH  26  27
ENDBRANCH  24  26
ENDBRANCH  23  24
ENDBRANCH  22  23
ENDBRANCH  21  22
ENDBRANCH  20  21
ENDBRANCH  18  20
ENDBRANCH   8  12
BRANCH  10  37
HETATM   37  O8  UNL     1       5.502  -4.035   1.682  1.00  0.00    -0.340 OA
ATOM     38  H8  UNL     1       6.280  -4.436   2.051  1.00  0.00     0.220 HD
ENDBRANCH  10  37
BRANCH  11  39
HETATM   39  C28 UNL     1       7.663  -2.005   1.911  1.00  0.00    -0.044 C 
HETATM   40  C29 UNL     1       8.738  -2.244   2.370  1.00  0.00     0.010 C 
HETATM   41 CL1  UNL     1      10.309  -2.588   3.055  1.00  0.00    -0.023 Cl
ENDBRANCH  11  39
ENDBRANCH   4   7
ENDBRANCH   3   4
TORSDOF 14
