REMARK  14 active torsions:
REMARK  status: ('A' for Active; 'I' for Inactive)
REMARK    1  A    between atoms: C4_10  and  C5_11 
REMARK    2  A    between atoms: C5_11  and  O2_12 
REMARK    3  A    between atoms: C5_11  and  O3_14 
REMARK    4  A    between atoms: C6_18  and  C7_19 
REMARK    5  A    between atoms: C7_19  and  N5_20 
REMARK    6  A    between atoms: C7_19  and  C12_35 
REMARK    7  A    between atoms: N5_20  and  C8_22 
REMARK    8  A    between atoms: C8_22  and  C9_23 
REMARK    9  A    between atoms: C9_23  and  S1_24 
REMARK   10  A    between atoms: S1_24  and  C10_25 
REMARK   11  A    between atoms: N7_31  and  N8_32 
REMARK   12  A    between atoms: C12_35  and  O4_36 
REMARK   13  A    between atoms: C12_35  and  O5_38 
REMARK   14  A    between atoms: C15_43  and  O7_44 
ROOT
HETATM    1  N1  UNL     1      -4.395   3.792  -1.798  1.00  0.00    -0.080 NA
HETATM    2  C1  UNL     1      -4.198   2.416  -1.453  1.00  0.00     0.153 A 
HETATM    3  N2  UNL     1      -5.251   1.570  -1.596  1.00  0.00    -0.308 N 
ATOM      4  H2  UNL     1      -6.154   1.897  -1.940  1.00  0.00     0.170 HD
HETATM    5  C2  UNL     1      -5.050   0.286  -1.265  1.00  0.00     0.274 A 
HETATM    6  O1  UNL     1      -6.007  -0.532  -1.385  1.00  0.00    -0.266 OA
HETATM    7  C3  UNL     1      -3.858  -0.223  -0.796  1.00  0.00     0.119 A 
HETATM    8  N3  UNL     1      -3.900  -1.553  -0.526  1.00  0.00    -0.337 N 
ATOM      9  H3  UNL     1      -4.797  -2.004  -0.708  1.00  0.00     0.167 HD
HETATM   10  C4  UNL     1      -2.939  -2.363  -0.056  1.00  0.00     0.138 C 
HETATM   11  N4  UNL     1      -1.800  -1.958   0.586  1.00  0.00    -0.340 N 
ATOM     12  H4  UNL     1      -1.419  -2.620   1.262  1.00  0.00     0.167 HD
HETATM   13  C6  UNL     1      -1.115  -0.813   0.451  1.00  0.00     0.089 C 
HETATM   14  C13 UNL     1      -1.536   0.325  -0.203  1.00  0.00     0.212 C 
HETATM   15  O6  UNL     1      -0.686   1.214  -0.440  1.00  0.00    -0.285 OA
HETATM   16  C14 UNL     1      -2.807   0.653  -0.659  1.00  0.00     0.085 A 
HETATM   17  C15 UNL     1      -2.982   1.973  -0.990  1.00  0.00     0.123 A 
ENDROOT
BRANCH  13  18
HETATM   18  C7  UNL     1       0.240  -0.733   1.044  1.00  0.00     0.186 C 
BRANCH  18  19
HETATM   19  N5  UNL     1       1.219  -0.661   0.016  1.00  0.00    -0.407 N 
ATOM     20  H5  UNL     1       0.946  -0.683  -0.967  1.00  0.00     0.154 HD
BRANCH  19  21
HETATM   21  C8  UNL     1       2.580  -0.558   0.387  1.00  0.00     0.125 C 
BRANCH  21  22
HETATM   22  C9  UNL     1       2.942   0.785   1.040  1.00  0.00     0.101 C 
BRANCH  22  23
HETATM   23  S1  UNL     1       4.678   0.827   1.502  1.00  0.00    -0.090 SA
BRANCH  23  24
HETATM   24  C10 UNL     1       5.758   0.762   0.023  1.00  0.00     0.173 A 
HETATM   25  N6  UNL     1       6.115  -0.446  -0.430  1.00  0.00    -0.303 N 
HETATM   26  S2  UNL     1       7.083  -0.098  -1.753  1.00  0.00     0.020 SA
ATOM     27  H6  UNL     1       5.859  -1.361  -0.058  1.00  0.00     0.176 HD
HETATM   28  C11 UNL     1       6.996   1.597  -1.680  1.00  0.00     0.182 A 
HETATM   29  S3  UNL     1       7.692   2.754  -2.646  1.00  0.00    -0.049 SA
HETATM   30  N7  UNL     1       6.211   1.810  -0.620  1.00  0.00    -0.221 N 
BRANCH  30  31
HETATM   31  N8  UNL     1       5.887   3.148  -0.209  1.00  0.00    -0.335 N 
ATOM     32  H82 UNL     1       5.288   3.311   0.600  1.00  0.00     0.177 HD
ATOM     33  H81 UNL     1       6.240   3.964  -0.710  1.00  0.00     0.177 HD
ENDBRANCH  30  31
ENDBRANCH  23  24
ENDBRANCH  22  23
ENDBRANCH  21  22
ENDBRANCH  19  21
ENDBRANCH  18  19
BRANCH  18  34
HETATM   34  C12 UNL     1       0.359  -1.976   1.935  1.00  0.00     0.282 C 
BRANCH  34  35
HETATM   35  O4  UNL     1      -0.707  -1.892   2.873  1.00  0.00    -0.369 OA
ATOM     36  H4  UNL     1      -0.633  -2.662   3.425  1.00  0.00     0.212 HD
ENDBRANCH  34  35
BRANCH  34  37
HETATM   37  O5  UNL     1       1.503  -1.890   2.697  1.00  0.00    -0.369 OA
ATOM     38  H5  UNL     1       1.577  -2.660   3.249  1.00  0.00     0.212 HD
ENDBRANCH  34  37
ENDBRANCH  18  34
ENDBRANCH  13  18
BRANCH  10  39
HETATM   39  C5  UNL     1      -3.088  -3.836  -0.221  1.00  0.00     0.323 C 
BRANCH  39  40
HETATM   40  O2  UNL     1      -1.928  -4.437  -0.698  1.00  0.00    -0.365 OA
ATOM     41  H2  UNL     1      -2.023  -5.376  -0.803  1.00  0.00     0.213 HD
ENDBRANCH  39  40
BRANCH  39  42
HETATM   42  O3  UNL     1      -3.409  -4.341   1.057  1.00  0.00    -0.365 OA
ATOM     43  H3  UNL     1      -3.504  -5.280   0.952  1.00  0.00     0.213 HD
ENDBRANCH  39  42
ENDBRANCH  10  39
BRANCH  17  44
HETATM   44  O7  UNL     1      -1.920   2.853  -0.852  1.00  0.00    -0.356 OA
ATOM     45  H7  UNL     1      -1.080   2.547  -0.532  1.00  0.00     0.218 HD
ENDBRANCH  17  44
TORSDOF 14
