REMARK  16 active torsions:
REMARK  status: ('A' for Active; 'I' for Inactive)
REMARK    1  A    between atoms: O1_2  and  C2_3 
REMARK    2  A    between atoms: C2_3  and  C3_5 
REMARK    3  A    between atoms: C4_8  and  C5_9 
REMARK    4  A    between atoms: C5_9  and  O3_10 
REMARK    5  A    between atoms: C5_9  and  C6_12 
REMARK    6  A    between atoms: C6_12  and  O4_13 
REMARK    7  A    between atoms: C6_12  and  C7_15 
REMARK    8  A    between atoms: C7_15  and  N2_16 
REMARK    9  A    between atoms: C7_15  and  C12_34 
REMARK   10  A    between atoms: N2_16  and  C8_18 
REMARK   11  A    between atoms: C9_19  and  O5_20 
REMARK   12  A    between atoms: C10_24  and  N4_25 
REMARK   13  A    between atoms: C11_30  and  N6_31 
REMARK   14  A    between atoms: C17_47  and  C18_48 
REMARK   15  A    between atoms: C18_48  and  O8_49 
REMARK   16  A    between atoms: C18_48  and  O9_51 
ROOT
HETATM    1  C12 UNL     1      -1.669   1.775  -0.290  1.00  0.00     0.057 A 
HETATM    2  C13 UNL     1      -1.492   2.759   0.660  1.00  0.00     0.064 A 
HETATM    3  C14 UNL     1      -1.918   3.985   0.205  1.00  0.00     0.105 A 
HETATM    4  N7  UNL     1      -2.073   5.289   0.479  1.00  0.00    -0.238 N 
ATOM      5  H7  UNL     1      -1.824   5.759   1.349  1.00  0.00     0.197 HD
HETATM    6  O6  UNL     1      -2.608   5.850  -0.589  1.00  0.00    -0.155 OA
HETATM    7  N8  UNL     1      -2.793   4.950  -1.515  1.00  0.00    -0.222 N 
ATOM      8  H8  UNL     1      -3.194   5.134  -2.435  1.00  0.00     0.198 HD
HETATM    9  C15 UNL     1      -2.377   3.739  -1.081  1.00  0.00     0.172 A 
HETATM   10  N9  UNL     1      -2.224   2.439  -1.356  1.00  0.00    -0.232 N 
HETATM   11  C16 UNL     1      -2.577   1.831  -2.558  1.00  0.00     0.191 C 
HETATM   12  N10 UNL     1      -2.867   1.341  -3.556  1.00  0.00    -0.171 NA
ENDROOT
BRANCH   1  13
HETATM   13  C7  UNL     1      -1.355   0.346  -0.222  1.00  0.00     0.165 C 
BRANCH  13  14
HETATM   14  C6  UNL     1       0.162   0.207  -0.326  1.00  0.00     0.183 C 
BRANCH  14  15
HETATM   15  C5  UNL     1       0.615  -1.125  -0.809  1.00  0.00     0.224 C 
BRANCH  15  16
HETATM   16  C4  UNL     1       2.075  -1.019  -1.092  1.00  0.00     0.156 A 
HETATM   17  N1  UNL     1       3.017  -1.073  -0.140  1.00  0.00    -0.331 N 
HETATM   18  C3  UNL     1       4.263  -0.948  -0.700  1.00  0.00     0.145 A 
ATOM     19  H1  UNL     1       2.834  -1.190   0.857  1.00  0.00     0.168 HD
HETATM   20  C17 UNL     1       4.028  -0.818  -2.027  1.00  0.00     0.142 A 
HETATM   21  O7  UNL     1       2.701  -0.867  -2.208  1.00  0.00    -0.292 OA
BRANCH  18  22
HETATM   22  C2  UNL     1       5.472  -0.957   0.087  1.00  0.00     0.312 C 
HETATM   23  O2  UNL     1       6.619  -0.831  -0.376  1.00  0.00    -0.258 OA
BRANCH  22  24
HETATM   24  O1  UNL     1       5.413  -1.117   1.484  1.00  0.00    -0.321 OA
HETATM   25  C1  UNL     1       6.599  -1.127   2.275  1.00  0.00     0.213 C 
ENDBRANCH  22  24
ENDBRANCH  18  22
BRANCH  20  26
HETATM   26  C18 UNL     1       5.039  -0.655  -3.095  1.00  0.00     0.315 C 
BRANCH  26  27
HETATM   27  O8  UNL     1       6.067  -1.573  -2.970  1.00  0.00    -0.365 OA
ATOM     28  H8  UNL     1       6.716  -1.468  -3.656  1.00  0.00     0.213 HD
ENDBRANCH  26  27
BRANCH  26  29
HETATM   29  O9  UNL     1       5.627   0.615  -2.915  1.00  0.00    -0.365 OA
ATOM     30  H9  UNL     1       6.276   0.720  -3.601  1.00  0.00     0.213 HD
ENDBRANCH  26  29
ENDBRANCH  20  26
ENDBRANCH  15  16
BRANCH  15  31
HETATM   31  O3  UNL     1       0.448  -2.165   0.074  1.00  0.00    -0.385 OA
ATOM     32  H3  UNL     1      -0.482  -2.233   0.254  1.00  0.00     0.210 HD
ENDBRANCH  15  31
ENDBRANCH  14  15
BRANCH  14  33
HETATM   33  O4  UNL     1       0.835   0.580   0.805  1.00  0.00    -0.390 OA
ATOM     34  H4  UNL     1       0.546   1.431   1.113  1.00  0.00     0.210 HD
ENDBRANCH  14  33
ENDBRANCH  13  14
BRANCH  13  35
HETATM   35  N2  UNL     1      -1.898  -0.435   0.819  1.00  0.00    -0.371 N 
ATOM     36  H2  UNL     1      -1.211  -0.922   1.395  1.00  0.00     0.160 HD
BRANCH  35  37
HETATM   37  C8  UNL     1      -3.235  -0.647   1.187  1.00  0.00     0.125 A 
HETATM   38  C9  UNL     1      -3.953  -1.545   0.385  1.00  0.00     0.185 A 
HETATM   39  N3  UNL     1      -5.232  -1.835   0.674  1.00  0.00    -0.168 N 
HETATM   40  C10 UNL     1      -5.861  -1.286   1.722  1.00  0.00     0.679 A 
ATOM     41  H3  UNL     1      -5.738  -2.491   0.079  1.00  0.00     0.186 HD
HETATM   42  N5  UNL     1      -5.208  -0.421   2.514  1.00  0.00    -0.175 N 
HETATM   43  C11 UNL     1      -3.907  -0.109   2.244  1.00  0.00     0.145 A 
ATOM     44  H5  UNL     1      -5.681   0.001   3.313  1.00  0.00     0.186 HD
BRANCH  38  45
HETATM   45  O5  UNL     1      -3.339  -2.147  -0.724  1.00  0.00    -0.344 OA
ATOM     46  H5  UNL     1      -3.826  -2.756  -1.268  1.00  0.00     0.219 HD
ENDBRANCH  38  45
BRANCH  40  47
HETATM   47  N4  UNL     1      -7.110  -1.575   1.995  1.00  0.00    -0.234 N 
ATOM     48  H42 UNL     1      -7.606  -2.232   1.393  1.00  0.00     0.174 HD
ATOM     49  H41 UNL     1      -7.589  -1.157   2.793  1.00  0.00     0.174 HD
ENDBRANCH  40  47
BRANCH  43  50
HETATM   50  N6  UNL     1      -3.313   0.686   3.031  1.00  0.00    -0.383 N 
ATOM     51  H62 UNL     1      -2.341   0.919   2.829  1.00  0.00     0.157 HD
ATOM     52  H61 UNL     1      -3.816   1.089   3.822  1.00  0.00     0.157 HD
ENDBRANCH  43  50
ENDBRANCH  35  37
ENDBRANCH  13  35
ENDBRANCH   1  13
TORSDOF 16
