REMARK  12 active torsions:
REMARK  status: ('A' for Active; 'I' for Inactive)
REMARK    1  A    between atoms: N1_1  and  O1_4 
REMARK    2  A    between atoms: O1_4  and  C1_5 
REMARK       I    between atoms: C1_5  and  N2_7 
REMARK    3  A    between atoms: N2_7  and  C2_9 
REMARK    4  A    between atoms: C5_16  and  N5_17 
REMARK    5  A    between atoms: C6_18  and  C7_19 
REMARK    6  A    between atoms: C9_23  and  N6_24 
REMARK       I    between atoms: N6_24  and  C10_26 
REMARK       I    between atoms: C10_26  and  N7_27 
REMARK       I    between atoms: C10_26  and  N8_31 
REMARK    7  A    between atoms: N8_31  and  C11_33 
REMARK    8  A    between atoms: C11_33  and  O5_34 
REMARK    9  A    between atoms: C11_33  and  C12_36 
REMARK   10  A    between atoms: C14_43  and  C15_44 
REMARK   11  A    between atoms: C15_44  and  O9_45 
REMARK   12  A    between atoms: C15_44  and  O10_47 
ROOT
HETATM    1  N5  UNL     1      -0.413  -0.666   0.124  1.00  0.00    -0.276 N 
HETATM    2  C6  UNL     1      -1.421  -1.133   0.871  1.00  0.00     0.120 A 
HETATM    3  C8  UNL     1      -2.721  -1.006   0.329  1.00  0.00     0.085 A 
HETATM    4  C9  UNL     1      -2.999  -0.450  -0.888  1.00  0.00     0.110 A 
HETATM    5  N9  UNL     1      -1.939  -0.005  -1.584  1.00  0.00    -0.294 N 
ATOM      6  H9  UNL     1      -2.083   0.420  -2.500  1.00  0.00     0.172 HD
HETATM    7  C13 UNL     1      -0.684  -0.111  -1.091  1.00  0.00     0.329 A 
HETATM    8  O8  UNL     1       0.225   0.341  -1.842  1.00  0.00    -0.246 OA
ENDROOT
BRANCH   1   9
HETATM    9  C5  UNL     1       0.969  -0.684   0.536  1.00  0.00     0.193 C 
HETATM   10  S1  UNL     1       1.874  -1.819  -0.599  1.00  0.00    -0.064 SA
HETATM   11  C4  UNL     1       3.602  -1.359  -0.499  1.00  0.00     0.169 A 
HETATM   12  N3  UNL     1       3.827  -0.014  -0.397  1.00  0.00    -0.245 N 
HETATM   13  N4  UNL     1       4.783  -1.973  -0.505  1.00  0.00    -0.320 N 
HETATM   14  C3  UNL     1       5.181   0.164  -0.343  1.00  0.00     0.167 A 
HETATM   15  N10 UNL     1       2.730   0.833  -0.370  1.00  0.00    -0.316 N 
HETATM   16  C2  UNL     1       5.779  -1.055  -0.410  1.00  0.00     0.129 A 
HETATM   17  C14 UNL     1       1.604   0.677   0.480  1.00  0.00     0.188 C 
ATOM     18  H10 UNL     1       2.732   1.628  -1.009  1.00  0.00     0.181 HD
ATOM     19  H4  UNL     1       4.919  -2.982  -0.571  1.00  0.00     0.169 HD
BRANCH  16  20
HETATM   20  N2  UNL     1       7.157  -1.363  -0.388  1.00  0.00    -0.286 N 
HETATM   21  C1  UNL     1       8.191  -0.407  -0.289  1.00  0.00     0.387 C 
HETATM   22  O2  UNL     1       8.036   0.826  -0.207  1.00  0.00    -0.236 OA
ATOM     23  H2  UNL     1       7.424  -2.346  -0.448  1.00  0.00     0.172 HD
BRANCH  21  24
HETATM   24  O1  UNL     1       9.519  -0.846  -0.279  1.00  0.00    -0.188 OA
BRANCH  24  25
HETATM   25  N1  UNL     1      10.562   0.035  -0.185  1.00  0.00    -0.301 N 
ATOM     26  H12 UNL     1      10.349   1.030  -0.122  1.00  0.00     0.184 HD
ATOM     27  H11 UNL     1      11.530  -0.285  -0.178  1.00  0.00     0.184 HD
ENDBRANCH  24  25
ENDBRANCH  21  24
ENDBRANCH  16  20
BRANCH  17  28
HETATM   28  C15 UNL     1       1.967   1.087   1.927  1.00  0.00     0.280 C 
BRANCH  28  29
HETATM   29  O9  UNL     1       2.400   2.419   1.909  1.00  0.00    -0.369 OA
ATOM     30  H9  UNL     1       2.623   2.671   2.798  1.00  0.00     0.212 HD
ENDBRANCH  28  29
BRANCH  28  31
HETATM   31  O10 UNL     1       0.850   1.077   2.752  1.00  0.00    -0.369 OA
ATOM     32  H10 UNL     1       1.073   1.329   3.641  1.00  0.00     0.212 HD
ENDBRANCH  28  31
ENDBRANCH  17  28
ENDBRANCH   1   9
BRANCH   2  33
HETATM   33  C7  UNL     1      -1.296  -1.794   2.145  1.00  0.00     0.227 C 
HETATM   34  O3  UNL     1      -0.251  -2.068   2.717  1.00  0.00    -0.643 OA
HETATM   35  O4  UNL     1      -2.464  -2.172   2.818  1.00  0.00    -0.643 OA
ENDBRANCH   2  33
BRANCH   4  36
HETATM   36  N6  UNL     1      -4.190  -0.348  -1.360  1.00  0.00    -0.333 N 
HETATM   37  C10 UNL     1      -5.353  -0.801  -0.672  1.00  0.00     0.386 C 
HETATM   38  N7  UNL     1      -5.702  -0.013   0.487  1.00  0.00    -0.041 N 
HETATM   39  N8  UNL     1      -6.494  -1.007  -1.525  1.00  0.00    -0.346 N 
ATOM     40  H73 UNL     1      -4.911   0.049   1.127  1.00  0.00     0.279 HD
ATOM     41  H72 UNL     1      -5.798   0.970   0.234  1.00  0.00     0.279 HD
ATOM     42  H71 UNL     1      -6.534  -0.337   0.979  1.00  0.00     0.279 HD
ATOM     43  H8  UNL     1      -6.952  -1.914  -1.618  1.00  0.00     0.160 HD
ATOM     44  H6  UNL     1      -4.309   0.081  -2.278  1.00  0.00     0.164 HD
BRANCH  39  45
HETATM   45  C11 UNL     1      -6.939   0.158  -2.234  1.00  0.00     0.319 C 
BRANCH  45  46
HETATM   46  O5  UNL     1      -6.026   0.625  -3.160  1.00  0.00    -0.367 OA
ATOM     47  H5  UNL     1      -6.321   1.396  -3.630  1.00  0.00     0.212 HD
ENDBRANCH  45  46
BRANCH  45  48
HETATM   48  C12 UNL     1      -7.410   1.260  -1.397  1.00  0.00     0.223 C 
HETATM   49  O6  UNL     1      -6.940   2.414  -1.604  1.00  0.00    -0.645 OA
HETATM   50  O7  UNL     1      -8.339   1.150  -0.384  1.00  0.00    -0.645 OA
ENDBRANCH  45  48
ENDBRANCH  39  45
ENDBRANCH   4  36
TORSDOF 12
