REMARK  12 active torsions:
REMARK  status: ('A' for Active; 'I' for Inactive)
REMARK    1  A    between atoms: C3_4  and  C4_5 
REMARK    2  A    between atoms: C4_5  and  O1_6 
REMARK    3  A    between atoms: N2_8  and  O2_10 
REMARK    4  A    between atoms: C5_14  and  O3_15 
REMARK    5  A    between atoms: C6_17  and  C7_18 
REMARK    6  A    between atoms: C8_19  and  N4_20 
REMARK    7  A    between atoms: C9_25  and  C10_26 
REMARK    8  A    between atoms: C10_26  and  O4_27 
REMARK    9  A    between atoms: O4_27  and  C11_28 
REMARK   10  A    between atoms: C11_28  and  C12_29 
REMARK   11  A    between atoms: N10_36  and  C13_37 
REMARK   12  A    between atoms: C14_43  and  N13_44 
ROOT
HETATM    1  N1  UNL     1      -5.138   1.297  -2.887  1.00  0.00    -0.191 NA
HETATM    2  C1  UNL     1      -4.308   1.151  -2.066  1.00  0.00     0.106 C 
HETATM    3  C2  UNL     1      -3.276   0.943  -1.075  1.00  0.00     0.126 A 
HETATM    4  C3  UNL     1      -3.220   1.794   0.001  1.00  0.00     0.112 A 
HETATM    5  N3  UNL     1      -2.226   1.550   0.906  1.00  0.00    -0.331 N 
ATOM      6  H3  UNL     1      -2.136   2.151   1.725  1.00  0.00     0.168 HD
HETATM    7  C5  UNL     1      -1.369   0.538   0.737  1.00  0.00     0.157 A 
HETATM    8  C6  UNL     1      -1.392  -0.333  -0.329  1.00  0.00     0.099 A 
HETATM    9  C15 UNL     1      -2.382  -0.120  -1.265  1.00  0.00     0.211 A 
HETATM   10  O8  UNL     1      -2.523  -0.820  -2.275  1.00  0.00    -0.286 OA
ENDROOT
BRANCH   4  11
HETATM   11  C4  UNL     1      -4.127   2.902   0.224  1.00  0.00     0.189 C 
HETATM   12  N2  UNL     1      -5.088   3.238  -0.532  1.00  0.00    -0.246 N 
ATOM     13  H2  UNL     1      -5.256   2.694  -1.379  1.00  0.00     0.196 HD
BRANCH  11  14
HETATM   14  O1  UNL     1      -3.934   3.677   1.376  1.00  0.00    -0.343 OA
ATOM     15  H1  UNL     1      -4.529   4.403   1.522  1.00  0.00     0.219 HD
ENDBRANCH  11  14
BRANCH  12  16
HETATM   16  O2  UNL     1      -5.910   4.299  -0.261  1.00  0.00    -0.288 OA
ATOM     17  H2  UNL     1      -6.630   4.551  -0.827  1.00  0.00     0.244 HD
ENDBRANCH  12  16
ENDBRANCH   4  11
BRANCH   8  18
HETATM   18  C7  UNL     1      -0.325  -1.336  -0.528  1.00  0.00     0.125 A 
HETATM   19  C8  UNL     1       1.019  -1.065  -0.397  1.00  0.00     0.173 A 
HETATM   20  N8  UNL     1       1.630  -2.301  -0.456  1.00  0.00    -0.267 N 
HETATM   21  N9  UNL     1       0.716  -3.227  -0.615  1.00  0.00    -0.232 N 
ATOM     22  H8  UNL     1       2.634  -2.468  -0.387  1.00  0.00     0.190 HD
HETATM   23  N10 UNL     1      -0.515  -2.649  -0.663  1.00  0.00    -0.215 N 
ATOM     24  H9  UNL     1       0.899  -4.227  -0.691  1.00  0.00     0.209 HD
BRANCH  19  25
HETATM   25  N4  UNL     1       1.723   0.165  -0.364  1.00  0.00    -0.207 N 
HETATM   26  N5  UNL     1       1.270   1.379  -0.889  1.00  0.00     0.002 NA
HETATM   27  N6  UNL     1       2.420   2.157  -1.091  1.00  0.00    -0.007 NA
HETATM   28  N7  UNL     1       3.372   1.594  -0.248  1.00  0.00    -0.272 N 
HETATM   29  C9  UNL     1       3.012   0.442   0.196  1.00  0.00     0.140 C 
ATOM     30  H7  UNL     1       4.256   2.044  -0.009  1.00  0.00     0.185 HD
BRANCH  29  31
HETATM   31  C10 UNL     1       3.724  -0.454   1.126  1.00  0.00     0.247 C 
BRANCH  31  32
HETATM   32  O4  UNL     1       5.014  -0.081   1.406  1.00  0.00    -0.373 OA
BRANCH  32  33
HETATM   33  C11 UNL     1       5.887  -0.104   0.369  1.00  0.00     0.281 C 
BRANCH  33  34
HETATM   34  C12 UNL     1       7.268   0.305   0.762  1.00  0.00     0.197 C 
HETATM   35  O5  UNL     1       8.131   0.305  -0.154  1.00  0.00    -0.646 OA
HETATM   36  O6  UNL     1       7.605   0.665   2.047  1.00  0.00    -0.646 OA
ENDBRANCH  33  34
ENDBRANCH  32  33
ENDBRANCH  31  32
ENDBRANCH  29  31
ENDBRANCH  19  25
BRANCH  23  37
HETATM   37  C13 UNL     1      -1.709  -3.382  -0.792  1.00  0.00     0.196 A 
HETATM   38  N11 UNL     1      -2.105  -4.191  -1.821  1.00  0.00    -0.220 N 
HETATM   39  O7  UNL     1      -3.248  -4.717  -1.574  1.00  0.00    -0.153 OA
ATOM     40  H11 UNL     1      -1.564  -4.354  -2.670  1.00  0.00     0.198 HD
HETATM   41  N12 UNL     1      -3.668  -4.311  -0.416  1.00  0.00    -0.222 N 
HETATM   42  C14 UNL     1      -2.741  -3.466   0.128  1.00  0.00     0.169 A 
ATOM     43  H12 UNL     1      -4.550  -4.580   0.020  1.00  0.00     0.198 HD
BRANCH  42  44
HETATM   44  N13 UNL     1      -2.853  -2.901   1.261  1.00  0.00    -0.381 N 
ATOM     45 2H13 UNL     1      -2.161  -2.271   1.667  1.00  0.00     0.157 HD
ATOM     46 1H13 UNL     1      -3.613  -2.963   1.939  1.00  0.00     0.157 HD
ENDBRANCH  42  44
ENDBRANCH  23  37
ENDBRANCH   8  18
BRANCH   7  47
HETATM   47  O3  UNL     1      -0.402   0.382   1.744  1.00  0.00    -0.345 OA
ATOM     48  H3  UNL     1       0.207  -0.337   1.624  1.00  0.00     0.219 HD
ENDBRANCH   7  47
TORSDOF 12
