REMARK  8 active torsions:
REMARK  status: ('A' for Active; 'I' for Inactive)
REMARK    1  A    between atoms: C2_2  and  O1_4 
REMARK    2  A    between atoms: C2_2  and  O2_6 
REMARK    3  A    between atoms: O2_6  and  C4_7 
REMARK    4  A    between atoms: C4_7  and  C5_8 
REMARK    5  A    between atoms: C15_18  and  N1_19 
REMARK       I    between atoms: N1_19  and  C16_21 
REMARK    6  A    between atoms: C16_21  and  C17_23 
REMARK    7  A    between atoms: C17_23  and  C18_24 
REMARK    8  A    between atoms: C18_24  and  C19_25 
ROOT
HETATM    1  C5  UNL     1      -3.052  -0.926   0.436  1.00  0.00    -0.008 C 
HETATM    2  C6  UNL     1      -3.755  -1.856   1.450  1.00  0.00    -0.003 C 
HETATM    3  C7  UNL     1      -4.783  -2.415   0.614  1.00  0.00     0.006 C 
HETATM    4  C8  UNL     1      -4.036  -2.639  -0.722  1.00  0.00     0.006 C 
HETATM    5  C9  UNL     1      -2.661  -2.058  -0.511  1.00  0.00    -0.003 C 
HETATM    6  C10 UNL     1      -1.941  -1.508  -1.631  1.00  0.00     0.006 C 
HETATM    7  C11 UNL     1      -0.468  -1.641  -1.699  1.00  0.00     0.010 C 
HETATM    8  C12 UNL     1       0.416  -1.220  -0.627  1.00  0.00    -0.038 C 
HETATM    9  C13 UNL     1       0.812  -2.455   0.200  1.00  0.00     0.015 C 
HETATM   10  C14 UNL     1       1.762  -0.898  -1.361  1.00  0.00     0.034 C 
HETATM   11  C15 UNL     1       1.604   0.520  -1.808  1.00  0.00     0.085 C 
HETATM   12  C23 UNL     1       0.772   1.110  -0.746  1.00  0.00     0.030 C 
HETATM   13  C24 UNL     1       0.245  -0.009   0.131  1.00  0.00    -0.004 C 
HETATM   14  C25 UNL     1      -1.021   0.462   0.697  1.00  0.00     0.011 C 
HETATM   15  C26 UNL     1      -1.938  -0.514   1.313  1.00  0.00    -0.003 C 
HETATM   16  C27 UNL     1      -2.711  -0.048   2.517  1.00  0.00     0.006 C 
HETATM   17  C28 UNL     1      -3.918  -0.973   2.565  1.00  0.00     0.006 C 
ENDROOT
BRANCH  11  18
HETATM   18  N1  UNL     1       2.810   1.258  -1.991  1.00  0.00    -0.356 N 
HETATM   19  C16 UNL     1       3.689   1.523  -0.898  1.00  0.00     0.217 C 
HETATM   20  O3  UNL     1       3.457   1.129   0.263  1.00  0.00    -0.274 OA
ATOM     21  H1  UNL     1       3.049   1.603  -2.921  1.00  0.00     0.162 HD
BRANCH  19  22
HETATM   22  C17 UNL     1       4.899   2.289  -1.190  1.00  0.00     0.103 C 
BRANCH  22  23
HETATM   23  C18 UNL     1       6.007   2.193  -0.215  1.00  0.00     0.015 C 
BRANCH  23  24
HETATM   24  C19 UNL     1       6.733   0.922  -0.047  1.00  0.00     0.013 C 
HETATM   25  C20 UNL     1       7.857   1.097   1.021  1.00  0.00     0.034 C 
HETATM   26  C21 UNL     1       8.104  -0.327   1.466  1.00  0.00     0.232 C 
HETATM   27  N2  UNL     1       7.242  -1.178   0.669  1.00  0.00    -0.075 N 
HETATM   28  C22 UNL     1       6.062  -0.274   0.507  1.00  0.00     0.237 C 
ATOM     29  H22 UNL     1       7.648  -1.538  -0.195  1.00  0.00     0.277 HD
ATOM     30  H21 UNL     1       7.045  -2.100   1.058  1.00  0.00     0.277 HD
ENDBRANCH  23  24
ENDBRANCH  22  23
ENDBRANCH  19  22
ENDBRANCH  11  18
BRANCH   1  31
HETATM   31  C4  UNL     1      -3.941   0.067  -0.145  1.00  0.00     0.182 C 
BRANCH  31  32
HETATM   32  O2  UNL     1      -4.568   0.952   0.692  1.00  0.00    -0.355 OA
BRANCH  32  33
HETATM   33  C2  UNL     1      -5.384   1.855   0.091  1.00  0.00     0.154 C 
HETATM   34  C1  UNL     1      -6.565   1.250  -0.635  1.00  0.00     0.078 C 
HETATM   35  C3  UNL     1      -4.680   2.795  -0.859  1.00  0.00     0.078 C 
BRANCH  33  36
HETATM   36  O1  UNL     1      -5.934   2.672   1.107  1.00  0.00    -0.366 OA
ATOM     37  H1  UNL     1      -5.192   3.052   1.563  1.00  0.00     0.213 HD
ENDBRANCH  33  36
ENDBRANCH  32  33
ENDBRANCH  31  32
ENDBRANCH   1  31
TORSDOF 8
