REMARK  8 active torsions:
REMARK  status: ('A' for Active; 'I' for Inactive)
REMARK    1  A    between atoms: O1_2  and  N1_3 
REMARK    2  A    between atoms: C2_5  and  C3_6 
REMARK    3  A    between atoms: C2_5  and  N2_13 
REMARK    4  A    between atoms: C3_6  and  C4_7 
REMARK    5  A    between atoms: C4_7  and  C5_8 
REMARK    6  A    between atoms: C6_9  and  C7_10 
REMARK    7  A    between atoms: N2_13  and  C8_15 
REMARK    8  A    between atoms: C20_27  and  C21_28 
ROOT
HETATM    1  C8  UNL     1       2.100  -0.953  -0.111  1.00  0.00     0.083 C 
HETATM    2  C9  UNL     1       2.218   0.285  -0.977  1.00  0.00     0.025 C 
HETATM    3  C10 UNL     1       0.846   0.857  -1.265  1.00  0.00     0.007 C 
HETATM    4  C11 UNL     1      -0.053  -0.330  -1.639  1.00  0.00    -0.006 C 
HETATM    5  C12 UNL     1      -1.200   0.184  -2.405  1.00  0.00     0.006 C 
HETATM    6  C13 UNL     1      -2.451  -0.624  -2.249  1.00  0.00     0.006 C 
HETATM    7  C14 UNL     1      -2.842  -0.997  -0.860  1.00  0.00    -0.005 C 
HETATM    8  C15 UNL     1      -1.712  -0.970   0.152  1.00  0.00    -0.002 C 
HETATM    9  C16 UNL     1      -1.802   0.218   1.080  1.00  0.00     0.006 C 
HETATM   10  C17 UNL     1      -3.191   0.199   1.777  1.00  0.00     0.011 C 
HETATM   11  C18 UNL     1      -4.089   0.625   0.675  1.00  0.00    -0.028 C 
HETATM   12  C19 UNL     1      -3.726   1.982   0.204  1.00  0.00     0.016 C 
HETATM   13  C20 UNL     1      -5.568   0.645   0.978  1.00  0.00     0.083 C 
HETATM   14  C22 UNL     1      -6.125   0.732  -0.451  1.00  0.00     0.015 C 
HETATM   15  C23 UNL     1      -5.005   0.259  -1.371  1.00  0.00     0.007 C 
HETATM   16  C24 UNL     1      -4.111  -0.447  -0.382  1.00  0.00    -0.001 C 
HETATM   17  C25 UNL     1      -0.374  -1.161  -0.431  1.00  0.00    -0.035 C 
HETATM   18  C26 UNL     1      -0.244  -2.641  -0.820  1.00  0.00     0.016 C 
HETATM   19  C27 UNL     1       0.723  -0.895   0.572  1.00  0.00     0.035 C 
ENDROOT
BRANCH   1  20
HETATM   20  N2  UNL     1       3.086  -0.884   0.944  1.00  0.00    -0.370 N 
ATOM     21  H2  UNL     1       2.805  -0.894   1.924  1.00  0.00     0.161 HD
BRANCH  20  22
HETATM   22  C2  UNL     1       4.465  -0.801   0.577  1.00  0.00     0.129 C 
HETATM   23  N1  UNL     1       4.962  -1.791  -0.038  1.00  0.00    -0.251 N 
ATOM     24  H1  UNL     1       5.941  -1.718  -0.316  1.00  0.00     0.196 HD
BRANCH  23  25
HETATM   25  O1  UNL     1       4.323  -2.925  -0.358  1.00  0.00    -0.284 OA
HETATM   26  C1  UNL     1       5.127  -3.924  -1.029  1.00  0.00     0.237 C 
ENDBRANCH  23  25
BRANCH  22  27
HETATM   27  C3  UNL     1       5.299   0.377   0.855  1.00  0.00     0.105 C 
BRANCH  27  28
HETATM   28  C4  UNL     1       6.470   0.593   0.549  1.00  0.00    -0.124 C 
BRANCH  28  29
HETATM   29  C5  UNL     1       7.792   0.822   0.197  1.00  0.00     0.062 C 
HETATM   30  C6  UNL     1       8.501   1.938   0.500  1.00  0.00     0.092 C 
BRANCH  30  31
HETATM   31  C7  UNL     1       7.972   3.044   1.234  1.00  0.00     0.199 C 
HETATM   32  O2  UNL     1       8.741   4.047   1.451  1.00  0.00    -0.644 OA
HETATM   33  O3  UNL     1       6.690   3.072   1.706  1.00  0.00    -0.644 OA
ENDBRANCH  30  31
ENDBRANCH  28  29
ENDBRANCH  27  28
ENDBRANCH  22  27
ENDBRANCH  20  22
ENDBRANCH   1  20
BRANCH  13  34
HETATM   34  C21 UNL     1      -6.031   1.794   1.755  1.00  0.00     0.236 C 
HETATM   35  N3  UNL     1      -7.446   1.900   2.005  1.00  0.00    -0.062 NA
HETATM   36  O4  UNL     1      -5.314   2.715   2.231  1.00  0.00    -0.276 OA
ENDBRANCH  13  34
TORSDOF 8
