REMARK  8 active torsions:
REMARK  status: ('A' for Active; 'I' for Inactive)
REMARK    1  A    between atoms: C7_7  and  N1_8 
REMARK       I    between atoms: N1_8  and  C8_10 
REMARK    2  A    between atoms: C8_10  and  C9_12 
REMARK    3  A    between atoms: N2_18  and  C15_19 
REMARK    4  A    between atoms: C15_19  and  O2_20 
REMARK    5  A    between atoms: C15_19  and  C16_22 
REMARK    6  A    between atoms: C16_22  and  N3_23 
REMARK    7  A    between atoms: C16_22  and  C22_31 
REMARK       I    between atoms: N3_23  and  C17_25 
REMARK    8  A    between atoms: C17_25  and  C18_27 
ROOT
HETATM    1  C9  UNL     1       0.392  -0.482   1.411  1.00  0.00     0.179 C 
HETATM    2  C10 UNL     1       0.637  -1.799   2.167  1.00  0.00     0.049 C 
HETATM    3  C11 UNL     1       1.050  -2.796   1.108  1.00  0.00    -0.013 C 
HETATM    4  C12 UNL     1       2.433  -3.354   1.378  1.00  0.00     0.021 C 
HETATM    5  C13 UNL     1       0.012  -3.913   1.086  1.00  0.00     0.021 C 
HETATM    6  C14 UNL     1       0.990  -2.070  -0.214  1.00  0.00     0.070 C 
HETATM    7  N2  UNL     1       0.250  -0.917   0.099  1.00  0.00    -0.352 N 
ENDROOT
BRANCH   7   8
HETATM    8  C15 UNL     1      -0.267  -0.110  -0.892  1.00  0.00     0.243 C 
BRANCH   8   9
HETATM    9  O2  UNL     1      -0.237  -0.785  -2.135  1.00  0.00    -0.374 OA
ATOM     10  H2  UNL     1      -0.593  -0.229  -2.818  1.00  0.00     0.212 HD
ENDBRANCH   8   9
BRANCH   8  11
HETATM   11  C16 UNL     1      -1.700   0.289  -0.649  1.00  0.00     0.137 C 
BRANCH  11  12
HETATM   12  N3  UNL     1      -2.635  -0.783  -0.604  1.00  0.00    -0.351 N 
HETATM   13  C17 UNL     1      -3.471  -1.057   0.509  1.00  0.00     0.225 C 
HETATM   14  O3  UNL     1      -3.434  -0.350   1.551  1.00  0.00    -0.273 OA
ATOM     15  H3  UNL     1      -2.708  -1.390  -1.420  1.00  0.00     0.163 HD
BRANCH  13  16
HETATM   16  C18 UNL     1      -4.439  -2.192   0.507  1.00  0.00     0.030 C 
HETATM   17  C19 UNL     1      -5.155  -2.304   1.846  1.00  0.00     0.024 C 
HETATM   18  C20 UNL     1      -5.503  -1.954  -0.580  1.00  0.00     0.024 C 
HETATM   19  C21 UNL     1      -3.813  -3.515   0.201  1.00  0.00     0.024 C 
ENDBRANCH  13  16
ENDBRANCH  11  12
BRANCH  11  20
HETATM   20  C22 UNL     1      -2.045   1.365  -1.656  1.00  0.00     0.013 C 
HETATM   21  C23 UNL     1      -1.164   2.553  -1.486  1.00  0.00     0.007 C 
HETATM   22  C24 UNL     1      -1.829   3.854  -1.746  1.00  0.00     0.000 C 
HETATM   23  C25 UNL     1      -2.830   3.844  -2.864  1.00  0.00     0.000 C 
HETATM   24  C26 UNL     1      -3.678   2.626  -2.910  1.00  0.00     0.000 C 
HETATM   25  C27 UNL     1      -3.476   1.787  -1.637  1.00  0.00     0.007 C 
ENDBRANCH  11  20
ENDBRANCH   8  11
ENDBRANCH   7   8
BRANCH   1  26
HETATM   26  C8  UNL     1       1.529   0.409   1.717  1.00  0.00     0.241 C 
HETATM   27  N1  UNL     1       2.520   0.761   0.771  1.00  0.00    -0.354 N 
ATOM     28  H1  UNL     1       2.454   0.381  -0.173  1.00  0.00     0.162 HD
HETATM   29  O1  UNL     1       1.654   0.896   2.866  1.00  0.00    -0.271 OA
BRANCH  27  30
HETATM   30  C7  UNL     1       3.649   1.660   1.099  1.00  0.00     0.088 C 
HETATM   31  C2  UNL     1       4.876   0.846   1.221  1.00  0.00     0.004 C 
HETATM   32  C1  UNL     1       5.436   0.995   2.642  1.00  0.00     0.012 C 
HETATM   33  C3  UNL     1       5.993   1.281   0.305  1.00  0.00     0.006 C 
HETATM   34  C4  UNL     1       5.365   1.557  -1.057  1.00  0.00     0.001 C 
HETATM   35  C5  UNL     1       4.666   2.887  -0.891  1.00  0.00     0.002 C 
HETATM   36  C6  UNL     1       3.597   2.762   0.123  1.00  0.00     0.025 C 
ENDBRANCH  27  30
ENDBRANCH   1  26
TORSDOF 8
