REMARK  8 active torsions:
REMARK  status: ('A' for Active; 'I' for Inactive)
REMARK       I    between atoms: C1_2  and  N1_3 
REMARK    1  A    between atoms: C1_2  and  C11_18 
REMARK    2  A    between atoms: N1_3  and  C2_5 
REMARK    3  A    between atoms: C5_8  and  O2_9 
REMARK    4  A    between atoms: C8_13  and  O3_14 
REMARK    5  A    between atoms: C11_18  and  C12_19 
REMARK    6  A    between atoms: C11_18  and  C18_25 
REMARK    7  A    between atoms: C12_19  and  C13_20 
REMARK    8  A    between atoms: N2_28  and  C21_29 
ROOT
HETATM    1  C11 UNL     1      -0.092   1.005  -0.834  1.00  0.00     0.012 C 
ENDROOT
BRANCH   1   2
HETATM    2  C1  UNL     1       0.782   0.207   0.063  1.00  0.00     0.248 C 
HETATM    3  O1  UNL     1       0.622   0.290   1.295  1.00  0.00    -0.268 OA
HETATM    4  N1  UNL     1       1.802  -0.658  -0.411  1.00  0.00    -0.352 N 
ATOM      5  H1  UNL     1       1.937  -0.730  -1.419  1.00  0.00     0.163 HD
BRANCH   4   6
HETATM    6  C2  UNL     1       2.649  -1.432   0.433  1.00  0.00     0.091 C 
HETATM    7  C3  UNL     1       2.463  -2.898   0.019  1.00  0.00     0.028 C 
HETATM    8  C4  UNL     1       3.839  -3.524   0.063  1.00  0.00     0.040 C 
HETATM    9  C5  UNL     1       4.673  -2.493   0.728  1.00  0.00     0.064 C 
HETATM   10  C6  UNL     1       6.148  -2.610   0.459  1.00  0.00     0.041 C 
HETATM   11  C10 UNL     1       4.088  -1.210   0.131  1.00  0.00     0.045 C 
HETATM   12  C7  UNL     1       6.802  -1.434   1.156  1.00  0.00     0.034 C 
HETATM   13  C8  UNL     1       6.244  -0.152   0.601  1.00  0.00     0.118 C 
HETATM   14  C9  UNL     1       4.735  -0.065   0.834  1.00  0.00     0.041 C 
BRANCH   9  15
HETATM   15  O2  UNL     1       4.473  -2.506   2.084  1.00  0.00    -0.389 OA
ATOM     16  H2  UNL     1       5.007  -1.846   2.510  1.00  0.00     0.210 HD
ENDBRANCH   9  15
BRANCH  13  17
HETATM   17  O3  UNL     1       6.918   0.905   1.190  1.00  0.00    -0.396 OA
ATOM     18  H3  UNL     1       6.566   1.715   0.840  1.00  0.00     0.210 HD
ENDBRANCH  13  17
ENDBRANCH   4   6
ENDBRANCH   1   2
BRANCH   1  19
HETATM   19  C12 UNL     1       0.616   1.974  -1.688  1.00  0.00    -0.009 C 
BRANCH  19  20
HETATM   20  C13 UNL     1       1.455   3.041  -1.156  1.00  0.00     0.009 C 
HETATM   21  C14 UNL     1       2.010   3.778  -2.433  1.00  0.00     0.008 C 
HETATM   22  C15 UNL     1       0.792   4.555  -2.911  1.00  0.00     0.001 C 
HETATM   23  C16 UNL     1      -0.109   4.752  -1.703  1.00  0.00     0.001 C 
HETATM   24  C17 UNL     1       0.749   4.236  -0.565  1.00  0.00     0.008 C 
ENDBRANCH  19  20
ENDBRANCH   1  19
BRANCH   1  25
HETATM   25  C18 UNL     1      -1.468   1.250  -0.394  1.00  0.00     0.054 C 
HETATM   26  C19 UNL     1      -1.803   1.934   0.846  1.00  0.00     0.041 C 
HETATM   27  C20 UNL     1      -3.260   1.471   1.067  1.00  0.00     0.273 C 
HETATM   28  N2  UNL     1      -3.166   0.054   0.781  1.00  0.00     0.094 N 
HETATM   29  C29 UNL     1      -2.187  -0.106  -0.249  1.00  0.00     0.282 C 
BRANCH  28  30
HETATM   30  C21 UNL     1      -4.475  -0.381   0.322  1.00  0.00     0.227 C 
HETATM   31  C22 UNL     1      -5.475  -0.170   1.443  1.00  0.00     0.041 C 
HETATM   32  C23 UNL     1      -6.489  -1.270   1.379  1.00  0.00    -0.012 C 
HETATM   33  C24 UNL     1      -6.905  -1.465  -0.061  1.00  0.00     0.005 C 
HETATM   34  C28 UNL     1      -5.811  -2.534   1.897  1.00  0.00     0.005 C 
HETATM   35  C25 UNL     1      -5.771  -2.157  -0.776  1.00  0.00     0.007 C 
HETATM   36  C26 UNL     1      -4.478  -1.842  -0.043  1.00  0.00     0.019 C 
HETATM   37  C27 UNL     1      -4.455  -2.648   1.230  1.00  0.00     0.007 C 
ENDBRANCH  28  30
ENDBRANCH   1  25
TORSDOF 8
