REMARK  8 active torsions:
REMARK  status: ('A' for Active; 'I' for Inactive)
REMARK    1  A    between atoms: C2_2  and  N1_5 
REMARK       I    between atoms: N1_5  and  C5_7 
REMARK    2  A    between atoms: C5_7  and  C6_9 
REMARK    3  A    between atoms: C13_16  and  C14_17 
REMARK    4  A    between atoms: C14_17  and  O2_18 
REMARK    5  A    between atoms: C14_17  and  C15_20 
REMARK    6  A    between atoms: C15_20  and  C16_21 
REMARK    7  A    between atoms: C16_21  and  C17_22 
REMARK    8  A    between atoms: C20_25  and  C21_26 
ROOT
HETATM    1  C6  UNL     1      -3.895   0.252  -0.134  1.00  0.00     0.214 C 
HETATM    2  C7  UNL     1      -3.855  -1.027   0.660  1.00  0.00     0.048 C 
HETATM    3  C8  UNL     1      -2.969  -1.945  -0.162  1.00  0.00     0.018 C 
HETATM    4  C9  UNL     1      -2.076  -2.752   0.685  1.00  0.00     0.008 C 
HETATM    5  C10 UNL     1      -0.727  -2.156   0.984  1.00  0.00     0.010 C 
HETATM    6  C11 UNL     1      -0.145  -1.620  -0.276  1.00  0.00    -0.032 C 
HETATM    7  C12 UNL     1      -0.120  -2.666  -1.371  1.00  0.00     0.016 C 
HETATM    8  C13 UNL     1       1.230  -1.057  -0.184  1.00  0.00     0.023 C 
HETATM    9  C24 UNL     1       1.253  -0.011  -1.250  1.00  0.00     0.008 C 
HETATM   10  C25 UNL     1      -0.176   0.104  -1.818  1.00  0.00     0.008 C 
HETATM   11  C26 UNL     1      -1.020  -0.458  -0.692  1.00  0.00     0.023 C 
HETATM   12  C27 UNL     1      -2.337  -1.006  -1.124  1.00  0.00     0.131 C 
HETATM   13  O5  UNL     1      -3.210   0.065  -1.302  1.00  0.00    -0.370 OA
ENDROOT
BRANCH   8  14
HETATM   14  C14 UNL     1       1.637  -0.593   1.167  1.00  0.00     0.123 C 
BRANCH  14  15
HETATM   15  O2  UNL     1       0.818   0.429   1.591  1.00  0.00    -0.395 OA
ATOM     16  H2  UNL     1       1.078   0.726   2.455  1.00  0.00     0.210 HD
ENDBRANCH  14  15
BRANCH  14  17
HETATM   17  C15 UNL     1       3.103  -0.382   1.346  1.00  0.00     0.032 C 
BRANCH  17  18
HETATM   18  C16 UNL     1       3.770   0.610   0.471  1.00  0.00     0.007 C 
BRANCH  18  19
HETATM   19  C17 UNL     1       5.267   0.729   0.799  1.00  0.00    -0.014 C 
HETATM   20  C18 UNL     1       5.986  -0.569   0.622  1.00  0.00     0.005 C 
HETATM   21  C19 UNL     1       7.474  -0.272   0.597  1.00  0.00     0.015 C 
HETATM   22  C20 UNL     1       7.836   0.461  -0.678  1.00  0.00     0.087 C 
HETATM   23  C22 UNL     1       6.574   1.058  -1.261  1.00  0.00     0.015 C 
HETATM   24  C23 UNL     1       5.831   1.753  -0.157  1.00  0.00     0.005 C 
BRANCH  22  25
HETATM   25  C21 UNL     1       8.761   1.587  -0.401  1.00  0.00     0.177 C 
HETATM   26  O3  UNL     1       9.186   1.892   0.740  1.00  0.00    -0.648 OA
HETATM   27  O4  UNL     1       9.185   2.355  -1.472  1.00  0.00    -0.648 OA
ENDBRANCH  22  25
ENDBRANCH  18  19
ENDBRANCH  17  18
ENDBRANCH  14  17
ENDBRANCH   8  14
BRANCH   1  28
HETATM   28  C5  UNL     1      -5.289   0.653  -0.458  1.00  0.00     0.247 C 
HETATM   29  N1  UNL     1      -6.242   0.918   0.575  1.00  0.00    -0.351 N 
ATOM     30  H1  UNL     1      -5.963   0.831   1.552  1.00  0.00     0.163 HD
HETATM   31  O1  UNL     1      -5.663   0.768  -1.666  1.00  0.00    -0.271 OA
BRANCH  29  32
HETATM   32  C2  UNL     1      -7.593   1.307   0.252  1.00  0.00     0.022 C 
HETATM   33  C1  UNL     1      -8.283   0.247  -0.560  1.00  0.00     0.037 C 
HETATM   34  C3  UNL     1      -7.593   2.644  -0.462  1.00  0.00     0.037 C 
HETATM   35  C4  UNL     1      -8.365   1.493   1.546  1.00  0.00     0.037 C 
ENDBRANCH  29  32
ENDBRANCH   1  28
TORSDOF 8
