REMARK  6 active torsions:
REMARK  status: ('A' for Active; 'I' for Inactive)
REMARK    1  A    between atoms: C5_6  and  N1_7 
REMARK       I    between atoms: N1_7  and  C6_9 
REMARK       I    between atoms: C6_9  and  N2_11 
REMARK    2  A    between atoms: N2_11  and  C7_13 
REMARK    3  A    between atoms: C18_24  and  N3_25 
REMARK    4  A    between atoms: N3_25  and  C19_27 
REMARK    5  A    between atoms: N4_30  and  C22_31 
REMARK    6  A    between atoms: C22_31  and  C23_32 
ROOT
HETATM    1  C1  UNL     1      -0.584  -2.753  -2.320  1.00  0.00     0.046 C 
HETATM    2  C2  UNL     1      -0.104  -2.314  -1.181  1.00  0.00     0.042 C 
HETATM    3  O1  UNL     1      -0.035  -0.976  -0.857  1.00  0.00    -0.341 OA
HETATM    4  C3  UNL     1      -0.164  -0.654   0.553  1.00  0.00     0.109 C 
HETATM    5  C4  UNL     1      -0.259   0.881   0.488  1.00  0.00     0.051 C 
HETATM    6  C5  UNL     1      -1.566  -1.168   0.872  1.00  0.00     0.123 C 
HETATM    7  C13 UNL     1      -1.724  -1.902   2.163  1.00  0.00     0.033 C 
HETATM    8  C14 UNL     1      -0.604  -2.923   2.184  1.00  0.00    -0.009 C 
HETATM    9  C15 UNL     1      -0.522  -3.691   0.895  1.00  0.00     0.016 C 
HETATM   10  C16 UNL     1       0.426  -3.185  -0.098  1.00  0.00     0.044 C 
HETATM   11  C17 UNL     1       1.574  -2.386   0.447  1.00  0.00     0.045 C 
HETATM   12  C18 UNL     1       0.947  -1.196   1.289  1.00  0.00     0.060 C 
HETATM   13  C28 UNL     1       0.558  -2.083   2.527  1.00  0.00     0.038 C 
ENDROOT
BRANCH   6  14
HETATM   14  N1  UNL     1      -2.590  -0.179   0.847  1.00  0.00    -0.335 N 
HETATM   15  C6  UNL     1      -3.654  -0.240  -0.054  1.00  0.00     0.316 C 
HETATM   16  O2  UNL     1      -3.679  -1.225  -0.855  1.00  0.00    -0.247 OA
HETATM   17  N2  UNL     1      -4.697   0.744  -0.108  1.00  0.00    -0.339 N 
ATOM     18  H2  UNL     1      -4.685   1.547   0.521  1.00  0.00     0.164 HD
ATOM     19  H1  UNL     1      -2.545   0.597   1.507  1.00  0.00     0.164 HD
BRANCH  17  20
HETATM   20  C7  UNL     1      -5.756   0.579  -1.061  1.00  0.00     0.086 C 
HETATM   21  C8  UNL     1      -5.756   1.672  -2.131  1.00  0.00     0.025 C 
HETATM   22  C9  UNL     1      -7.011   1.409  -2.970  1.00  0.00     0.002 C 
HETATM   23  C10 UNL     1      -8.210   1.845  -2.135  1.00  0.00     0.000 C 
HETATM   24  C11 UNL     1      -7.870   1.784  -0.644  1.00  0.00     0.002 C 
HETATM   25  C12 UNL     1      -7.116   0.489  -0.397  1.00  0.00     0.025 C 
ENDBRANCH  17  20
ENDBRANCH   6  14
BRANCH  12  26
HETATM   26  N3  UNL     1       1.969  -0.447   1.789  1.00  0.00    -0.405 N 
ATOM     27  H3  UNL     1       1.830  -0.438   2.799  1.00  0.00     0.154 HD
BRANCH  26  28
HETATM   28  C19 UNL     1       3.050   0.269   1.578  1.00  0.00     0.087 C 
HETATM   29  C20 UNL     1       2.958   1.541   0.850  1.00  0.00     0.069 C 
HETATM   30  C21 UNL     1       4.224   2.376   0.800  1.00  0.00     0.065 C 
HETATM   31  N4  UNL     1       5.435   1.703   0.623  1.00  0.00    -0.373 N 
HETATM   32  C26 UNL     1       5.480   0.446   1.245  1.00  0.00     0.065 C 
HETATM   33  C27 UNL     1       4.274  -0.425   0.955  1.00  0.00     0.069 C 
BRANCH  31  34
HETATM   34  C22 UNL     1       6.193   1.924  -0.548  1.00  0.00     0.131 C 
BRANCH  34  35
HETATM   35  C23 UNL     1       7.463   1.100  -0.528  1.00  0.00     0.004 A 
HETATM   36  C24 UNL     1       8.367   1.273  -1.769  1.00  0.00     0.007 A 
HETATM   37  C25 UNL     1       7.646  -0.029  -1.470  1.00  0.00     0.007 A 
ENDBRANCH  34  35
ENDBRANCH  31  34
ENDBRANCH  26  28
ENDBRANCH  12  26
TORSDOF 6
