REMARK  6 active torsions:
REMARK  status: ('A' for Active; 'I' for Inactive)
REMARK    1  A    between atoms: C1_2  and  C2_3 
REMARK       I    between atoms: C1_2  and  N2_16 
REMARK    2  A    between atoms: C2_3  and  N1_4 
REMARK       I    between atoms: N1_4  and  C3_5 
REMARK    3  A    between atoms: N1_4  and  C7_10 
REMARK    4  A    between atoms: C3_5  and  C4_7 
REMARK    5  A    between atoms: N2_16  and  C13_18 
REMARK    6  A    between atoms: C13_18  and  C14_19 
ROOT
HETATM    1  C2  UNL     1      -0.177  -0.881  -1.090  1.00  0.00     0.228 C 
ENDROOT
BRANCH   1   2
HETATM    2  C1  UNL     1       0.853  -0.780  -0.063  1.00  0.00     0.235 C 
HETATM    3  O1  UNL     1       0.528  -0.680   1.156  1.00  0.00    -0.272 OA
HETATM    4  N2  UNL     1       2.213  -0.796  -0.468  1.00  0.00    -0.357 N 
ATOM      5  H2  UNL     1       2.453  -0.877  -1.456  1.00  0.00     0.162 HD
BRANCH   4   6
HETATM    6  C13 UNL     1       3.239  -0.699   0.512  1.00  0.00     0.154 C 
BRANCH   6   7
HETATM    7  C14 UNL     1       4.627  -0.726  -0.024  1.00  0.00     0.139 C 
HETATM    8  C15 UNL     1       4.937   0.335  -1.020  1.00  0.00     0.034 C 
HETATM    9  C16 UNL     1       5.096   1.698  -0.444  1.00  0.00     0.005 C 
HETATM   10  C17 UNL     1       5.252   1.775   1.019  1.00  0.00     0.026 C 
HETATM   11  C18 UNL     1       5.411   0.512   1.758  1.00  0.00     0.168 C 
HETATM   12  O3  UNL     1       5.537  -0.626   1.008  1.00  0.00    -0.384 OA
ENDBRANCH   6   7
ENDBRANCH   4   6
ENDBRANCH   1   2
BRANCH   1  13
HETATM   13  N1  UNL     1      -1.556  -0.822  -0.543  1.00  0.00    -0.338 N 
HETATM   14  C3  UNL     1      -2.090  -2.049  -0.128  1.00  0.00     0.224 C 
HETATM   15  O2  UNL     1      -1.387  -3.123  -0.181  1.00  0.00    -0.273 OA
BRANCH  14  16
HETATM   16  C4  UNL     1      -3.445  -2.234   0.386  1.00  0.00     0.078 A 
HETATM   17  C5  UNL     1      -4.133  -3.547   0.215  1.00  0.00     0.015 A 
HETATM   18  C6  UNL     1      -3.663  -3.128   1.582  1.00  0.00     0.015 A 
ENDBRANCH  14  16
BRANCH  13  19
HETATM   19  C7  UNL     1      -2.207   0.440  -0.525  1.00  0.00     0.087 C 
HETATM   20  C8  UNL     1      -3.382   0.535  -1.498  1.00  0.00     0.025 C 
HETATM   21  C9  UNL     1      -4.487   1.415  -0.979  1.00  0.00     0.002 C 
HETATM   22  C10 UNL     1      -3.859   2.697  -0.495  1.00  0.00     0.000 C 
HETATM   23  C11 UNL     1      -2.863   2.497   0.594  1.00  0.00     0.002 C 
HETATM   24  C12 UNL     1      -2.547   1.002   0.823  1.00  0.00     0.025 C 
ENDBRANCH  13  19
ENDBRANCH   1  13
TORSDOF 6
