REMARK  6 active torsions:
REMARK  status: ('A' for Active; 'I' for Inactive)
REMARK    1  A    between atoms: C4_4  and  C5_5 
REMARK    2  A    between atoms: C8_12  and  C9_13 
REMARK    3  A    between atoms: C9_13  and  C10_14 
REMARK       I    between atoms: C10_14  and  N3_16 
REMARK    4  A    between atoms: N3_16  and  C12_18 
REMARK    5  A    between atoms: C12_18  and  C13_19 
REMARK    6  A    between atoms: C13_19  and  N4_20 
ROOT
HETATM    1  C1  UNL     1      -5.221  -1.977  -0.402  1.00  0.00     0.049 C 
HETATM    2  C2  UNL     1      -3.867  -1.414  -0.341  1.00  0.00    -0.055 A 
HETATM    3  C3  UNL     1      -3.703  -0.051  -0.312  1.00  0.00     0.020 A 
HETATM    4  C4  UNL     1      -2.423   0.550  -0.255  1.00  0.00    -0.015 A 
HETATM    5  C8  UNL     1      -1.344  -0.260  -0.227  1.00  0.00    -0.032 A 
HETATM    6  C16 UNL     1      -1.479  -1.672  -0.256  1.00  0.00    -0.048 A 
HETATM    7  C17 UNL     1      -0.247  -2.515  -0.224  1.00  0.00     0.049 C 
HETATM    8  C18 UNL     1      -2.747  -2.210  -0.312  1.00  0.00    -0.050 A 
HETATM    9  C19 UNL     1      -2.880  -3.710  -0.342  1.00  0.00     0.049 C 
ENDROOT
BRANCH   5  10
HETATM   10  C9  UNL     1       0.028   0.256  -0.129  1.00  0.00     0.142 C 
BRANCH  10  11
HETATM   11  C10 UNL     1       0.418   0.453   1.290  1.00  0.00     0.223 C 
HETATM   12  O1  UNL     1      -0.372   0.147   2.228  1.00  0.00    -0.273 OA
HETATM   13  N3  UNL     1       1.677   0.987   1.662  1.00  0.00    -0.355 N 
HETATM   14  C11 UNL     1       1.999   1.164   3.063  1.00  0.00     0.152 C 
BRANCH  13  15
HETATM   15  C12 UNL     1       2.691   1.373   0.703  1.00  0.00     0.155 C 
BRANCH  15  16
HETATM   16  C13 UNL     1       3.596   0.188   0.425  1.00  0.00     0.291 C 
BRANCH  16  17
HETATM   17  N4  UNL     1       4.620   0.586  -0.548  1.00  0.00     0.081 N 
HETATM   18  C14 UNL     1       5.506  -0.498  -0.852  1.00  0.00     0.309 C 
HETATM   19  C15 UNL     1       3.917   0.956  -1.772  1.00  0.00     0.309 C 
ENDBRANCH  16  17
ENDBRANCH  15  16
ENDBRANCH  13  15
ENDBRANCH  10  11
ENDBRANCH   5  10
BRANCH   4  20
HETATM   20  C5  UNL     1      -2.329   1.994  -0.261  1.00  0.00     0.008 A 
HETATM   21  C6  UNL     1      -2.832   2.699  -1.379  1.00  0.00     0.120 A 
HETATM   22  N1  UNL     1      -2.650   3.987  -1.100  1.00  0.00    -0.311 N 
HETATM   23  N2  UNL     1      -2.087   4.152   0.073  1.00  0.00    -0.311 N 
ATOM     24  H1  UNL     1      -2.915   4.751  -1.721  1.00  0.00     0.186 HD
HETATM   25  C7  UNL     1      -1.889   2.939   0.591  1.00  0.00     0.120 A 
ATOM     26  H2  UNL     1      -1.845   5.042   0.508  1.00  0.00     0.186 HD
ENDBRANCH   4  20
TORSDOF 6
