REMARK  6 active torsions:
REMARK  status: ('A' for Active; 'I' for Inactive)
REMARK    1  A    between atoms: C6_6  and  S1_7 
REMARK    2  A    between atoms: S1_7  and  N1_10 
REMARK    3  A    between atoms: N1_10  and  C7_11 
REMARK    4  A    between atoms: N1_10  and  C9_15 
REMARK    5  A    between atoms: C7_11  and  C8_12 
REMARK    6  A    between atoms: C9_15  and  C11_17 
ROOT
HETATM    1  S1  UNL     1      -0.395   1.109  -1.058  1.00  0.00     0.265 S 
HETATM    2  O1  UNL     1      -0.341   2.610  -1.060  1.00  0.00    -0.200 OA
HETATM    3  O2  UNL     1      -0.711   0.744  -2.496  1.00  0.00    -0.200 OA
ENDROOT
BRANCH   1   4
HETATM    4  C6  UNL     1       1.241   0.537  -0.820  1.00  0.00     0.086 A 
HETATM    5  C4  UNL     1       1.611  -0.778  -0.943  1.00  0.00    -0.038 A 
HETATM    6  C3  UNL     1       2.931  -1.187  -0.736  1.00  0.00     0.015 A 
HETATM    7  C5  UNL     1       0.655  -1.827  -1.302  1.00  0.00     0.050 C 
HETATM    8  C2  UNL     1       3.908  -0.293  -0.402  1.00  0.00    -0.056 A 
HETATM    9  C1  UNL     1       5.327  -0.729  -0.179  1.00  0.00     0.049 C 
HETATM   10  C15 UNL     1       3.550   1.029  -0.276  1.00  0.00    -0.055 A 
HETATM   11  C14 UNL     1       2.264   1.413  -0.480  1.00  0.00     0.033 A 
HETATM   12  C16 UNL     1       4.610   2.002   0.086  1.00  0.00     0.049 C 
ENDBRANCH   1   4
BRANCH   1  13
HETATM   13  N1  UNL     1      -1.400   0.392   0.062  1.00  0.00    -0.271 N 
BRANCH  13  14
HETATM   14  C7  UNL     1      -1.002   0.700   1.364  1.00  0.00     0.188 C 
BRANCH  14  15
HETATM   15  C8  UNL     1      -1.134   2.017   1.942  1.00  0.00     0.215 C 
HETATM   16  O3  UNL     1      -0.829   2.091   3.201  1.00  0.00    -0.643 OA
HETATM   17  O4  UNL     1      -1.517   3.207   1.417  1.00  0.00    -0.643 OA
ENDBRANCH  14  15
ENDBRANCH  13  14
BRANCH  13  18
HETATM   18  C9  UNL     1      -2.722   0.128  -0.162  1.00  0.00     0.100 C 
HETATM   19  C10 UNL     1      -3.609   0.937   0.754  1.00  0.00     0.034 C 
BRANCH  18  20
HETATM   20  C11 UNL     1      -3.279  -1.267  -0.110  1.00  0.00     0.001 C 
HETATM   21  C12 UNL     1      -3.097  -1.984   1.188  1.00  0.00     0.011 C 
HETATM   22  C13 UNL     1      -3.087  -2.111  -1.324  1.00  0.00     0.011 C 
ENDBRANCH  18  20
ENDBRANCH  13  18
ENDBRANCH   1  13
TORSDOF 6
