REMARK  7 active torsions:
REMARK  status: ('A' for Active; 'I' for Inactive)
REMARK    1  A    between atoms: S1_2  and  N1_5 
REMARK    2  A    between atoms: N1_5  and  C2_6 
REMARK    3  A    between atoms: N1_5  and  C6_12 
REMARK    4  A    between atoms: C2_6  and  C3_7 
REMARK    5  A    between atoms: C3_7  and  C4_8 
REMARK    6  A    between atoms: C4_8  and  C5_9 
REMARK    7  A    between atoms: C5_9  and  O3_10 
ROOT
HETATM    1  C6  UNL     1      -0.654   0.732  -0.098  1.00  0.00     0.009 C 
HETATM    2  C7  UNL     1      -0.364   0.707  -1.593  1.00  0.00     0.054 C 
HETATM    3  C8  UNL     1      -0.308  -0.598  -2.255  1.00  0.00     0.006 C 
HETATM    4  C9  UNL     1      -1.686  -0.870  -2.886  1.00  0.00     0.000 C 
HETATM    5  C10 UNL     1      -2.456  -1.445  -1.696  1.00  0.00     0.001 C 
HETATM    6  C11 UNL     1      -2.693  -0.415  -0.639  1.00  0.00     0.016 C 
HETATM    7  C12 UNL     1      -1.566  -0.286   0.385  1.00  0.00     0.006 C 
HETATM    8  C13 UNL     1      -1.201  -1.585   0.948  1.00  0.00     0.001 C 
HETATM    9  C14 UNL     1      -2.544  -2.207   1.334  1.00  0.00     0.006 C 
HETATM   10  C15 UNL     1      -3.182  -1.018   2.025  1.00  0.00     0.006 C 
HETATM   11  C16 UNL     1      -2.077  -0.018   1.794  1.00  0.00     0.001 C 
HETATM   12  C17 UNL     1      -0.934  -0.919   2.284  1.00  0.00     0.011 C 
ENDROOT
BRANCH   1  13
HETATM   13  N1  UNL     1       0.508   1.153   0.558  1.00  0.00    -0.283 N 
BRANCH  13  14
HETATM   14  S1  UNL     1       0.534   2.809   1.061  1.00  0.00     0.228 S 
HETATM   15  C1  UNL     1       0.910   3.872  -0.352  1.00  0.00     0.186 C 
HETATM   16  O1  UNL     1       1.604   3.097   2.067  1.00  0.00    -0.206 OA
HETATM   17  O2  UNL     1      -0.807   3.280   1.528  1.00  0.00    -0.206 OA
ENDBRANCH  13  14
BRANCH  13  18
HETATM   18  C2  UNL     1       1.790   0.753   0.041  1.00  0.00     0.141 C 
BRANCH  18  19
HETATM   19  C3  UNL     1       2.691   0.277   1.153  1.00  0.00     0.023 C 
BRANCH  19  20
HETATM   20  C4  UNL     1       4.069  -0.114   0.716  1.00  0.00     0.028 C 
BRANCH  20  21
HETATM   21  C5  UNL     1       4.196  -1.206  -0.268  1.00  0.00     0.164 C 
BRANCH  21  22
HETATM   22  O3  UNL     1       3.593  -0.916  -1.470  1.00  0.00    -0.401 OA
ATOM     23  H3  UNL     1       3.675  -1.619  -2.104  1.00  0.00     0.209 HD
ENDBRANCH  21  22
ENDBRANCH  20  21
ENDBRANCH  19  20
ENDBRANCH  18  19
ENDBRANCH  13  18
ENDBRANCH   1  13
TORSDOF 7
