REMARK  4 active torsions:
REMARK  status: ('A' for Active; 'I' for Inactive)
REMARK    1  A    between atoms: C3_4  and  C4_5 
REMARK    2  A    between atoms: N2_8  and  C7_9 
REMARK    3  A    between atoms: C7_9  and  C8_10 
REMARK    4  A    between atoms: C12_14  and  C13_15 
ROOT
HETATM    1  N1  UNL     1       5.137   3.551   1.334  1.00  0.00    -0.192 NA
HETATM    2  C1  UNL     1       5.455   2.597   0.720  1.00  0.00     0.087 C 
HETATM    3  C2  UNL     1       5.882   1.479  -0.028  1.00  0.00     0.094 C 
HETATM    4  C3  UNL     1       5.333   0.355  -0.259  1.00  0.00     0.024 C 
ENDROOT
BRANCH   4   5
HETATM    5  C4  UNL     1       4.079  -0.198   0.151  1.00  0.00    -0.017 A 
HETATM    6  C5  UNL     1       3.138   0.411   0.938  1.00  0.00     0.031 A 
HETATM    7  C6  UNL     1       1.968  -0.281   1.238  1.00  0.00     0.111 A 
HETATM    8  N2  UNL     1       1.682  -1.510   0.816  1.00  0.00    -0.299 N 
HETATM    9  N3  UNL     1       2.593  -2.091   0.059  1.00  0.00    -0.309 N 
HETATM   10  C20 UNL     1       3.743  -1.506  -0.281  1.00  0.00     0.118 A 
ATOM     11  H3  UNL     1       2.409  -3.034  -0.283  1.00  0.00     0.186 HD
BRANCH   8  12
HETATM   12  C7  UNL     1       0.455  -2.207   1.143  1.00  0.00     0.186 C 
BRANCH  12  13
HETATM   13  C8  UNL     1      -0.596  -1.921   0.112  1.00  0.00    -0.038 A 
HETATM   14  C9  UNL     1      -0.745  -2.699  -1.006  1.00  0.00     0.009 A 
HETATM   15  C10 UNL     1      -1.721  -2.399  -1.925  1.00  0.00     0.001 A 
HETATM   16  C11 UNL     1      -2.553  -1.301  -1.706  1.00  0.00     0.012 A 
HETATM   17  C12 UNL     1      -2.414  -0.511  -0.587  1.00  0.00    -0.025 A 
HETATM   18  C19 UNL     1      -1.429  -0.834   0.315  1.00  0.00     0.021 A 
BRANCH  17  19
HETATM   19  C13 UNL     1      -3.254   0.644  -0.313  1.00  0.00    -0.026 A 
HETATM   20  C14 UNL     1      -3.552   1.019   0.974  1.00  0.00     0.012 A 
HETATM   21  C15 UNL     1      -4.348   2.113   1.284  1.00  0.00     0.001 A 
HETATM   22  C16 UNL     1      -4.848   2.836   0.217  1.00  0.00     0.000 A 
HETATM   23  C17 UNL     1      -4.582   2.506  -1.101  1.00  0.00     0.001 A 
HETATM   24  C18 UNL     1      -3.777   1.399  -1.345  1.00  0.00     0.012 A 
ENDBRANCH  17  19
ENDBRANCH  12  13
ENDBRANCH   8  12
ENDBRANCH   4   5
TORSDOF 4
