REMARK  4 active torsions:
REMARK  status: ('A' for Active; 'I' for Inactive)
REMARK    1  A    between atoms: O1_2  and  C2_3 
REMARK    2  A    between atoms: C5_6  and  C6_7 
REMARK    3  A    between atoms: C7_8  and  C8_9 
REMARK    4  A    between atoms: C19_21  and  O2_22 
ROOT
HETATM    1  C6  UNL     1       0.457   0.233  -0.009  1.00  0.00     0.014 C 
HETATM    2  C7  UNL     1      -0.496  -0.532  -0.424  1.00  0.00     0.030 C 
ENDROOT
BRANCH   2   3
HETATM    3  C8  UNL     1      -1.927  -0.340  -0.458  1.00  0.00     0.034 A 
HETATM    4  C9  UNL     1      -2.672  -1.124  -1.372  1.00  0.00     0.030 A 
HETATM    5  C10 UNL     1      -4.026  -1.057  -1.508  1.00  0.00     0.016 A 
HETATM    6  C11 UNL     1      -4.732  -0.183  -0.725  1.00  0.00    -0.009 A 
HETATM    7  C12 UNL     1      -6.121  -0.076  -0.859  1.00  0.00     0.014 A 
HETATM    8  C16 UNL     1      -4.029   0.591   0.174  1.00  0.00     0.044 A 
HETATM    9  C13 UNL     1      -6.772   0.833  -0.063  1.00  0.00     0.001 A 
HETATM   10  C14 UNL     1      -6.090   1.618   0.840  1.00  0.00     0.002 A 
HETATM   11  C15 UNL     1      -4.701   1.499   0.963  1.00  0.00     0.030 A 
HETATM   12  N1  UNL     1      -2.661   0.488   0.283  1.00  0.00    -0.351 N 
HETATM   13  C17 UNL     1      -2.055   1.228   1.378  1.00  0.00     0.156 C 
ENDBRANCH   2   3
BRANCH   1  14
HETATM   14  C5  UNL     1       1.856  -0.227  -0.089  1.00  0.00    -0.033 A 
HETATM   15  C4  UNL     1       2.214  -1.441  -0.594  1.00  0.00     0.014 A 
HETATM   16  C3  UNL     1       3.559  -1.826  -0.643  1.00  0.00     0.040 A 
HETATM   17  C2  UNL     1       4.540  -1.001  -0.188  1.00  0.00     0.101 A 
HETATM   18  C19 UNL     1       4.181   0.225   0.322  1.00  0.00     0.102 A 
HETATM   19  C18 UNL     1       2.860   0.614   0.375  1.00  0.00     0.051 A 
BRANCH  17  20
HETATM   20  O1  UNL     1       5.893  -1.343  -0.218  1.00  0.00    -0.353 OA
HETATM   21  C1  UNL     1       6.360  -2.566  -0.718  1.00  0.00     0.210 C 
ENDBRANCH  17  20
BRANCH  18  22
HETATM   22  O2  UNL     1       5.142   1.092   0.794  1.00  0.00    -0.353 OA
HETATM   23  C20 UNL     1       4.880   2.354   1.330  1.00  0.00     0.210 C 
ENDBRANCH  18  22
ENDBRANCH   1  14
TORSDOF 4
