REMARK  6 active torsions:
REMARK  status: ('A' for Active; 'I' for Inactive)
REMARK    1  A    between atoms: C2_2  and  N1_3 
REMARK    2  A    between atoms: N1_3  and  C3_4 
REMARK    3  A    between atoms: N1_3  and  C15_18 
REMARK    4  A    between atoms: C3_4  and  C4_5 
REMARK    5  A    between atoms: C4_5  and  N2_6 
REMARK    6  A    between atoms: C7_9  and  C9_11 
ROOT
HETATM    1  N2  UNL     1       0.336   0.118  -0.701  1.00  0.00    -0.347 N 
HETATM    2  C5  UNL     1       1.111  -1.108  -0.758  1.00  0.00     0.127 C 
HETATM    3  C6  UNL     1       2.594  -0.823  -0.741  1.00  0.00     0.030 C 
HETATM    4  C7  UNL     1       2.970   0.249   0.231  1.00  0.00    -0.028 C 
HETATM    5  C8  UNL     1       2.654  -0.149   1.666  1.00  0.00     0.016 C 
HETATM    6  C13 UNL     1       2.308   1.552  -0.045  1.00  0.00     0.112 C 
HETATM    7  C14 UNL     1       0.862   1.349  -0.297  1.00  0.00     0.220 C 
HETATM    8  O1  UNL     1       0.055   2.321  -0.144  1.00  0.00    -0.273 OA
ENDROOT
BRANCH   1   9
HETATM    9  C4  UNL     1      -1.069   0.044  -1.097  1.00  0.00     0.170 C 
BRANCH   9  10
HETATM   10  C3  UNL     1      -1.949  -0.259   0.110  1.00  0.00     0.083 C 
BRANCH  10  11
HETATM   11  N1  UNL     1      -3.289  -0.318  -0.323  1.00  0.00    -0.364 N 
BRANCH  11  12
HETATM   12  C2  UNL     1      -3.694  -1.381  -1.146  1.00  0.00     0.059 C 
HETATM   13  C1  UNL     1      -3.701  -2.731  -0.466  1.00  0.00     0.055 C 
ENDBRANCH  11  12
BRANCH  11  14
HETATM   14  C15 UNL     1      -4.261   0.464   0.327  1.00  0.00     0.024 C 
HETATM   15  C16 UNL     1      -5.126  -0.260   1.319  1.00  0.00     0.038 C 
HETATM   16  C17 UNL     1      -3.622   1.654   0.992  1.00  0.00     0.038 C 
HETATM   17  C18 UNL     1      -5.218   0.989  -0.756  1.00  0.00     0.038 C 
ENDBRANCH  11  14
ENDBRANCH  10  11
ENDBRANCH   9  10
ENDBRANCH   1   9
BRANCH   4  18
HETATM   18  C9  UNL     1       4.492   0.373   0.161  1.00  0.00    -0.044 C 
HETATM   19  C10 UNL     1       5.093  -0.965   0.543  1.00  0.00     0.015 C 
HETATM   20  C11 UNL     1       4.969   0.690  -1.229  1.00  0.00     0.015 C 
HETATM   21  C12 UNL     1       5.008   1.393   1.131  1.00  0.00     0.015 C 
ENDBRANCH   4  18
TORSDOF 6
