REMARK  6 active torsions:
REMARK  status: ('A' for Active; 'I' for Inactive)
REMARK    1  A    between atoms: C2_2  and  C4_4 
REMARK    2  A    between atoms: N1_9  and  C9_10 
REMARK    3  A    between atoms: C9_10  and  C10_11 
REMARK    4  A    between atoms: C10_11  and  O1_12 
REMARK    5  A    between atoms: C10_11  and  C11_14 
REMARK    6  A    between atoms: C11_14  and  N2_15 
ROOT
HETATM    1  C4  UNL     1      -2.060  -0.884   0.339  1.00  0.00     0.092 C 
HETATM    2  C5  UNL     1      -3.400  -0.315   0.568  1.00  0.00     0.037 C 
HETATM    3  C6  UNL     1      -3.626   1.090   0.167  1.00  0.00    -0.008 C 
HETATM    4  C7  UNL     1      -2.434   1.917  -0.074  1.00  0.00     0.056 C 
HETATM    5  C8  UNL     1      -1.096   1.294   0.203  1.00  0.00     0.064 C 
HETATM    6  N1  UNL     1      -1.054  -0.035  -0.216  1.00  0.00    -0.366 N 
HETATM    7  C17 UNL     1      -4.594   1.814   1.117  1.00  0.00     0.151 C 
HETATM    8  S1  UNL     1      -5.323   2.692  -0.240  1.00  0.00     0.146 S 
HETATM    9  O2  UNL     1      -6.817   2.670  -0.210  1.00  0.00    -0.228 OA
HETATM   10  O3  UNL     1      -4.682   3.975  -0.595  1.00  0.00    -0.228 OA
HETATM   11  C18 UNL     1      -4.618   1.262  -0.997  1.00  0.00     0.151 C 
ENDROOT
BRANCH   6  12
HETATM   12  C9  UNL     1       0.183  -0.699  -0.273  1.00  0.00     0.100 C 
BRANCH  12  13
HETATM   13  C10 UNL     1       1.416   0.182  -0.523  1.00  0.00     0.195 C 
BRANCH  13  14
HETATM   14  O1  UNL     1       1.494   1.053   0.564  1.00  0.00    -0.385 OA
ATOM     15  H1  UNL     1       2.257   1.598   0.409  1.00  0.00     0.210 HD
ENDBRANCH  13  14
BRANCH  13  16
HETATM   16  C11 UNL     1       2.601  -0.739  -0.375  1.00  0.00     0.099 C 
BRANCH  16  17
HETATM   17  N2  UNL     1       3.869  -0.172  -0.363  1.00  0.00    -0.371 N 
HETATM   18  C12 UNL     1       4.931  -1.105  -0.218  1.00  0.00     0.127 C 
HETATM   19  C13 UNL     1       6.242  -0.599  -0.793  1.00  0.00     0.021 C 
HETATM   20  C14 UNL     1       6.592   0.626   0.025  1.00  0.00     0.007 C 
HETATM   21  C15 UNL     1       5.526   1.638  -0.184  1.00  0.00     0.044 C 
HETATM   22  C16 UNL     1       4.114   1.154  -0.046  1.00  0.00     0.063 C 
ENDBRANCH  16  17
ENDBRANCH  13  16
ENDBRANCH  12  13
ENDBRANCH   6  12
BRANCH   1  23
HETATM   23  C2  UNL     1      -2.097  -2.257  -0.306  1.00  0.00     0.001 C 
HETATM   24  C1  UNL     1      -2.867  -3.237   0.600  1.00  0.00     0.011 C 
HETATM   25  C3  UNL     1      -2.840  -2.290  -1.615  1.00  0.00     0.011 C 
ENDBRANCH   1  23
TORSDOF 6
