REMARK  4 active torsions:
REMARK  status: ('A' for Active; 'I' for Inactive)
REMARK    1  A    between atoms: C2_2  and  C3_3 
REMARK    2  A    between atoms: C3_3  and  C4_4 
REMARK    3  A    between atoms: C4_4  and  C5_5 
REMARK    4  A    between atoms: N1_7  and  C7_8 
ROOT
HETATM    1  C5  UNL     1       1.286  -0.247   0.602  1.00  0.00     0.107 C 
HETATM    2  C6  UNL     1       0.120  -0.191  -0.347  1.00  0.00     0.133 C 
HETATM    3  N1  UNL     1      -1.099  -0.680   0.187  1.00  0.00    -0.203 NA
HETATM    4  S1  UNL     1      -1.455  -2.301  -0.180  1.00  0.00     0.227 S 
HETATM    5  O1  UNL     1      -2.858  -2.588   0.337  1.00  0.00    -0.210 OA
HETATM    6  O2  UNL     1      -1.499  -2.573  -1.657  1.00  0.00    -0.210 OA
HETATM    7  C13 UNL     1      -0.378  -3.469   0.561  1.00  0.00     0.320 C 
HETATM    8  S2  UNL     1       1.303  -2.882   0.376  1.00  0.00     0.241 S 
HETATM    9  O3  UNL     1       2.207  -3.939   0.995  1.00  0.00    -0.205 OA
HETATM   10  O4  UNL     1       1.692  -2.759  -1.047  1.00  0.00    -0.205 OA
HETATM   11  N2  UNL     1       1.458  -1.466   1.291  1.00  0.00    -0.313 N 
ATOM     12  H2  UNL     1       1.665  -1.493   2.289  1.00  0.00     0.172 HD
ENDROOT
BRANCH   3  13
HETATM   13  C7  UNL     1      -2.235   0.159   0.048  1.00  0.00     0.074 C 
HETATM   14  C8  UNL     1      -2.143   1.247  -0.973  1.00  0.00     0.021 C 
HETATM   15  C9  UNL     1      -3.550   1.728  -1.276  1.00  0.00     0.002 C 
HETATM   16  C10 UNL     1      -4.505   1.480  -0.151  1.00  0.00     0.000 C 
HETATM   17  C11 UNL     1      -3.756   1.770   1.152  1.00  0.00     0.002 C 
HETATM   18  C12 UNL     1      -2.697   0.716   1.402  1.00  0.00     0.021 C 
ENDBRANCH   3  13
BRANCH   1  19
HETATM   19  C4  UNL     1       2.527   0.122  -0.148  1.00  0.00     0.027 C 
BRANCH  19  20
HETATM   20  C3  UNL     1       3.765   0.094   0.733  1.00  0.00     0.002 C 
BRANCH  20  21
HETATM   21  C2  UNL     1       4.931   0.491  -0.184  1.00  0.00    -0.004 C 
HETATM   22  C1  UNL     1       4.717   1.854  -0.753  1.00  0.00     0.005 C 
ENDBRANCH  20  21
ENDBRANCH  19  20
ENDBRANCH   1  19
TORSDOF 4
