REMARK  6 active torsions:
REMARK  status: ('A' for Active; 'I' for Inactive)
REMARK    1  A    between atoms: C2_2  and  C4_4 
REMARK    2  A    between atoms: C4_4  and  C5_5 
REMARK    3  A    between atoms: N1_7  and  C6_8 
REMARK    4  A    between atoms: N2_11  and  C9_12 
REMARK    5  A    between atoms: C16_22  and  C17_23 
REMARK    6  A    between atoms: C17_23  and  N3_24 
ROOT
HETATM    1  C5  UNL     1      -2.667   0.202   0.146  1.00  0.00     0.152 C 
HETATM    2  O1  UNL     1      -1.348  -0.012  -0.430  1.00  0.00    -0.297 OA
HETATM    3  N1  UNL     1      -0.505  -0.213   0.537  1.00  0.00    -0.192 NA
HETATM    4  C15 UNL     1      -1.162  -0.889   1.597  1.00  0.00     0.130 C 
HETATM    5  C16 UNL     1      -2.662  -0.884   1.144  1.00  0.00     0.057 C 
ENDROOT
BRANCH   3   6
HETATM    6  C6  UNL     1       0.560  -1.123   0.072  1.00  0.00     0.089 C 
HETATM    7  C7  UNL     1       0.985  -0.837  -1.336  1.00  0.00     0.052 C 
HETATM    8  C8  UNL     1       2.512  -1.000  -1.357  1.00  0.00     0.274 C 
HETATM    9  N2  UNL     1       3.022   0.174  -0.686  1.00  0.00     0.094 N 
HETATM   10  C13 UNL     1       2.384   0.403   0.574  1.00  0.00     0.274 C 
HETATM   11  C14 UNL     1       1.721  -0.881   1.045  1.00  0.00     0.052 C 
BRANCH   9  12
HETATM   12  C9  UNL     1       4.440   0.300  -0.682  1.00  0.00     0.237 C 
HETATM   13  C10 UNL     1       4.777   1.735  -0.375  1.00  0.00     0.051 C 
HETATM   14  C11 UNL     1       6.266   1.867  -0.292  1.00  0.00     0.142 C 
HETATM   15  S1  UNL     1       6.721   0.314   0.459  1.00  0.00     0.146 S 
HETATM   16  O2  UNL     1       7.138   0.463   1.876  1.00  0.00    -0.228 OA
HETATM   17  O3  UNL     1       7.736  -0.327  -0.408  1.00  0.00    -0.228 OA
HETATM   18  C12 UNL     1       5.140  -0.543   0.356  1.00  0.00     0.176 C 
ENDBRANCH   9  12
ENDBRANCH   3   6
BRANCH   1  19
HETATM   19  C4  UNL     1      -3.541   0.077  -1.060  1.00  0.00     0.038 C 
BRANCH  19  20
HETATM   20  C2  UNL     1      -4.991   0.288  -1.001  1.00  0.00    -0.020 C 
HETATM   21  C1  UNL     1      -5.388   1.691  -0.533  1.00  0.00     0.009 C 
HETATM   22  C3  UNL     1      -5.440   0.276  -2.518  1.00  0.00     0.009 C 
ENDBRANCH  19  20
ENDBRANCH   1  19
BRANCH   5  23
HETATM   23  C17 UNL     1      -3.472  -0.772   2.387  1.00  0.00     0.238 C 
BRANCH  23  24
HETATM   24  N3  UNL     1      -4.857  -0.670   2.183  1.00  0.00    -0.079 N 
ATOM     25  H33 UNL     1      -5.065   0.107   1.556  1.00  0.00     0.274 HD
ATOM     26  H32 UNL     1      -5.188  -1.450   1.615  1.00  0.00     0.274 HD
ATOM     27  H31 UNL     1      -5.412  -0.593   3.035  1.00  0.00     0.274 HD
ENDBRANCH  23  24
ENDBRANCH   5  23
TORSDOF 6
