REMARK  6 active torsions:
REMARK  status: ('A' for Active; 'I' for Inactive)
REMARK    1  A    between atoms: O1_2  and  C2_3 
REMARK    2  A    between atoms: C2_3  and  C3_5 
REMARK    3  A    between atoms: C10_12  and  C11_13 
REMARK    4  A    between atoms: C16_18  and  C17_19 
REMARK    5  A    between atoms: C16_18  and  C18_21 
REMARK    6  A    between atoms: C18_21  and  O4_22 
ROOT
HETATM    1  C3  UNL     1       4.186  -0.115  -0.007  1.00  0.00     0.052 C 
HETATM    2  C4  UNL     1       3.843  -0.541  -1.403  1.00  0.00     0.020 C 
HETATM    3  C5  UNL     1       2.347  -0.259  -1.597  1.00  0.00     0.004 C 
HETATM    4  C6  UNL     1       1.474  -1.290  -0.991  1.00  0.00     0.031 C 
HETATM    5  C7  UNL     1       0.939  -0.959   0.377  1.00  0.00     0.030 C 
HETATM    6  C8  UNL     1       0.568  -2.278   1.025  1.00  0.00     0.036 C 
HETATM    7  C9  UNL     1      -0.878  -2.427   0.649  1.00  0.00     0.055 C 
HETATM    8  C10 UNL     1      -1.301  -1.003   0.500  1.00  0.00    -0.009 C 
HETATM    9  N1  UNL     1      -0.281  -0.252   0.356  1.00  0.00    -0.386 N 
ATOM     10  H1  UNL     1      -0.341   0.759   0.237  1.00  0.00     0.160 HD
HETATM   11  C20 UNL     1       1.993  -0.284   1.257  1.00  0.00     0.036 C 
HETATM   12  C21 UNL     1       3.294  -0.854   0.924  1.00  0.00     0.006 C 
HETATM   13  C22 UNL     1       4.431  -0.815   1.910  1.00  0.00     0.007 C 
HETATM   14  C23 UNL     1       5.316  -0.937   0.650  1.00  0.00     0.020 C 
ENDROOT
BRANCH   8  15
HETATM   15  C11 UNL     1      -2.728  -0.572   0.523  1.00  0.00    -0.004 C 
HETATM   16  C12 UNL     1      -3.344  -0.961   1.858  1.00  0.00     0.021 C 
HETATM   17  C13 UNL     1      -3.441  -1.382  -0.534  1.00  0.00     0.015 C 
HETATM   18  C14 UNL     1      -4.679  -0.750  -1.062  1.00  0.00     0.002 C 
HETATM   19  C15 UNL     1      -5.200   0.396  -0.267  1.00  0.00     0.019 C 
HETATM   20  C16 UNL     1      -4.163   1.434   0.028  1.00  0.00     0.035 C 
HETATM   21  C19 UNL     1      -2.796   0.895   0.272  1.00  0.00     0.033 C 
BRANCH  20  22
HETATM   22  C17 UNL     1      -4.573   2.293   1.189  1.00  0.00     0.242 C 
HETATM   23  O3  UNL     1      -5.583   2.962   1.129  1.00  0.00    -0.306 OA
ENDBRANCH  20  22
BRANCH  20  24
HETATM   24  C18 UNL     1      -4.131   2.381  -1.181  1.00  0.00     0.180 C 
BRANCH  24  25
HETATM   25  O4  UNL     1      -5.371   2.982  -1.372  1.00  0.00    -0.400 OA
ATOM     26  H4  UNL     1      -5.351   3.568  -2.120  1.00  0.00     0.209 HD
ENDBRANCH  24  25
ENDBRANCH  20  24
ENDBRANCH   8  15
BRANCH   1  27
HETATM   27  C2  UNL     1       4.477   1.292   0.208  1.00  0.00     0.267 C 
HETATM   28  O2  UNL     1       3.880   2.103   0.956  1.00  0.00    -0.264 OA
BRANCH  27  29
HETATM   29  O1  UNL     1       5.564   1.857  -0.496  1.00  0.00    -0.326 OA
HETATM   30  C1  UNL     1       5.917   3.212  -0.348  1.00  0.00     0.213 C 
ENDBRANCH  27  29
ENDBRANCH   1  27
TORSDOF 6
