REMARK  6 active torsions:
REMARK  status: ('A' for Active; 'I' for Inactive)
REMARK    1  A    between atoms: C2_2  and  C3_3 
REMARK    2  A    between atoms: C10_11  and  C11_12 
REMARK    3  A    between atoms: C11_12  and  C12_13 
REMARK    4  A    between atoms: C12_13  and  C13_14 
REMARK    5  A    between atoms: C13_14  and  O2_16 
REMARK    6  A    between atoms: C20_23  and  O3_24 
ROOT
HETATM    1  C3  UNL     1      -3.495   0.401   0.515  1.00  0.00     0.026 C 
HETATM    2  C4  UNL     1      -4.078  -0.966   0.939  1.00  0.00     0.289 C 
HETATM    3  N1  UNL     1      -2.766  -1.432   0.399  1.00  0.00     0.131 N 
HETATM    4  C5  UNL     1      -2.370  -0.250   1.188  1.00  0.00     0.246 C 
HETATM    5  C6  UNL     1      -1.152   0.512   0.795  1.00  0.00    -0.008 C 
HETATM    6  C7  UNL     1      -1.237   1.805   1.647  1.00  0.00     0.018 C 
HETATM    7  C8  UNL     1       0.119  -0.129   1.254  1.00  0.00     0.012 C 
HETATM    8  C9  UNL     1       1.370   0.524   0.795  1.00  0.00     0.005 C 
HETATM    9  C10 UNL     1       2.095  -0.099  -0.330  1.00  0.00    -0.013 C 
HETATM   10  C15 UNL     1       1.417  -1.254  -0.994  1.00  0.00     0.013 C 
HETATM   11  C16 UNL     1       0.190  -0.923  -1.789  1.00  0.00    -0.043 C 
HETATM   12  C17 UNL     1       0.653  -1.007  -3.272  1.00  0.00     0.015 C 
HETATM   13  C18 UNL     1      -0.715  -2.129  -1.674  1.00  0.00     0.014 C 
HETATM   14  C19 UNL     1      -2.093  -1.748  -1.985  1.00  0.00     0.073 C 
HETATM   15  C20 UNL     1      -2.910  -1.095  -0.986  1.00  0.00     0.264 C 
HETATM   16  C21 UNL     1      -2.832   0.402  -0.870  1.00  0.00     0.069 C 
HETATM   17  C22 UNL     1      -1.360   0.788  -0.611  1.00  0.00     0.006 C 
HETATM   18  C23 UNL     1      -0.428   0.374  -1.650  1.00  0.00     0.015 C 
ENDROOT
BRANCH   9  19
HETATM   19  C11 UNL     1       3.506  -0.536   0.028  1.00  0.00     0.014 C 
BRANCH  19  20
HETATM   20  C12 UNL     1       4.384   0.598   0.474  1.00  0.00     0.111 C 
BRANCH  20  21
HETATM   21  C13 UNL     1       5.757   0.133   0.815  1.00  0.00     0.258 C 
HETATM   22  O1  UNL     1       6.144  -1.042   0.745  1.00  0.00    -0.265 OA
BRANCH  21  23
HETATM   23  O2  UNL     1       6.651   1.104   1.241  1.00  0.00    -0.326 OA
HETATM   24  C14 UNL     1       7.986   0.804   1.597  1.00  0.00     0.213 C 
ENDBRANCH  21  23
ENDBRANCH  20  21
ENDBRANCH  19  20
ENDBRANCH   9  19
BRANCH   1  25
HETATM   25  C2  UNL     1      -4.354   1.460   0.869  1.00  0.00     0.009 C 
HETATM   26  C1  UNL     1      -4.670   1.631   2.308  1.00  0.00     0.006 C 
ENDBRANCH   1  25
BRANCH  15  27
HETATM   27  O3  UNL     1      -4.248  -1.292  -1.458  1.00  0.00    -0.362 OA
ATOM     28  H3  UNL     1      -4.343  -1.069  -2.376  1.00  0.00     0.212 HD
ENDBRANCH  15  27
TORSDOF 6
