REMARK  5 active torsions:
REMARK  status: ('A' for Active; 'I' for Inactive)
REMARK    1  A    between atoms: C2_2  and  C3_3 
REMARK    2  A    between atoms: C3_3  and  C5_5 
REMARK    3  A    between atoms: C5_5  and  C6_6 
REMARK    4  A    between atoms: C6_6  and  C7_7 
REMARK    5  A    between atoms: C8_8  and  O1_9 
ROOT
HETATM    1  C7  UNL     1       1.020   1.056  -0.497  1.00  0.00     0.024 C 
HETATM    2  C8  UNL     1       0.059   1.151   0.669  1.00  0.00     0.132 C 
HETATM    3  C9  UNL     1      -1.056   0.191   0.356  1.00  0.00    -0.001 C 
HETATM    4  C10 UNL     1      -0.669  -1.091   1.043  1.00  0.00     0.019 C 
HETATM    5  C11 UNL     1      -1.101   0.227  -1.099  1.00  0.00     0.035 A 
HETATM    6  C12 UNL     1      -1.001  -0.988  -1.882  1.00  0.00     0.127 A 
HETATM    7  C13 UNL     1       0.294  -0.434  -2.483  1.00  0.00     0.042 A 
HETATM    8  C14 UNL     1       0.204   0.783  -1.653  1.00  0.00    -0.029 A 
HETATM    9  C15 UNL     1       0.028   2.007  -2.570  1.00  0.00     0.016 C 
HETATM   10  O2  UNL     1      -2.081  -1.069  -2.745  1.00  0.00    -0.385 OA
HETATM   11  C16 UNL     1      -3.307  -0.757  -2.135  1.00  0.00     0.173 C 
HETATM   12  C17 UNL     1      -3.392  -1.219  -0.701  1.00  0.00     0.020 C 
HETATM   13  C18 UNL     1      -4.656  -2.111  -0.631  1.00  0.00     0.013 C 
HETATM   14  C19 UNL     1      -3.537  -0.203   0.341  1.00  0.00     0.102 C 
HETATM   15  C20 UNL     1      -4.573   0.776  -0.057  1.00  0.00     0.264 C 
HETATM   16  O3  UNL     1      -5.541   0.600  -0.823  1.00  0.00    -0.265 OA
HETATM   17  O4  UNL     1      -4.265   1.944   0.588  1.00  0.00    -0.320 OA
HETATM   18  C21 UNL     1      -2.838   1.977   0.666  1.00  0.00     0.189 C 
HETATM   19  C22 UNL     1      -2.411   0.564   0.892  1.00  0.00     0.001 C 
HETATM   20  C23 UNL     1      -2.294   0.409   2.421  1.00  0.00     0.019 C 
ENDROOT
BRANCH   1  21
HETATM   21  C6  UNL     1       2.234   0.228  -0.257  1.00  0.00     0.008 C 
BRANCH  21  22
HETATM   22  C5  UNL     1       3.113   0.718   0.868  1.00  0.00     0.005 C 
BRANCH  22  23
HETATM   23  C3  UNL     1       4.323  -0.130   1.088  1.00  0.00    -0.019 C 
HETATM   24  C4  UNL     1       4.060  -1.489   1.618  1.00  0.00     0.010 C 
BRANCH  23  25
HETATM   25  C2  UNL     1       5.180  -0.163  -0.154  1.00  0.00    -0.000 C 
HETATM   26  C1  UNL     1       6.516  -0.822   0.224  1.00  0.00     0.005 C 
ENDBRANCH  23  25
ENDBRANCH  22  23
ENDBRANCH  21  22
ENDBRANCH   1  21
BRANCH   2  27
HETATM   27  O1  UNL     1      -0.339   2.454   0.892  1.00  0.00    -0.394 OA
ATOM     28  H1  UNL     1      -0.942   2.514   1.624  1.00  0.00     0.210 HD
ENDBRANCH   2  27
TORSDOF 5
