REMARK  5 active torsions:
REMARK  status: ('A' for Active; 'I' for Inactive)
REMARK    1  A    between atoms: C3_3  and  O1_4 
REMARK    2  A    between atoms: O1_4  and  C4_5 
REMARK    3  A    between atoms: C8_9  and  N1_10 
REMARK       I    between atoms: N1_10  and  C9_12 
REMARK       I    between atoms: C9_12  and  N2_14 
REMARK    4  A    between atoms: N2_14  and  C10_16 
REMARK    5  A    between atoms: C14_21  and  O4_22 
ROOT
HETATM    1  N1  UNL     1      -0.197  -1.116   0.503  1.00  0.00    -0.336 N 
ATOM      2  H1  UNL     1      -0.269  -1.708   1.331  1.00  0.00     0.164 HD
HETATM    3  C9  UNL     1      -1.293  -0.325   0.101  1.00  0.00     0.321 C 
HETATM    4  O2  UNL     1      -1.191   0.396  -0.918  1.00  0.00    -0.247 OA
HETATM    5  N2  UNL     1      -2.484  -0.365   0.859  1.00  0.00    -0.306 N 
ATOM      6  H2  UNL     1      -2.554  -0.955   1.688  1.00  0.00     0.170 HD
ENDROOT
BRANCH   1   7
HETATM    7  C8  UNL     1       1.025  -1.085  -0.261  1.00  0.00     0.115 C 
HETATM    8  C4  UNL     1       2.203  -0.651   0.576  1.00  0.00     0.150 C 
HETATM    9  C5  UNL     1       3.324  -1.476  -0.025  1.00  0.00     0.034 C 
HETATM   10  C6  UNL     1       2.647  -2.854  -0.026  1.00  0.00     0.005 C 
HETATM   11  C7  UNL     1       1.346  -2.496  -0.746  1.00  0.00     0.028 C 
BRANCH   8  12
HETATM   12  O1  UNL     1       2.450   0.720   0.533  1.00  0.00    -0.356 OA
BRANCH  12  13
HETATM   13  C3  UNL     1       2.653   1.436  -0.623  1.00  0.00     0.131 C 
HETATM   14  C2  UNL     1       3.820   2.062  -0.790  1.00  0.00    -0.007 C 
HETATM   15  C1  UNL     1       4.876   1.996   0.236  1.00  0.00     0.038 C 
ENDBRANCH  12  13
ENDBRANCH   8  12
ENDBRANCH   1   7
BRANCH   5  16
HETATM   16  C10 UNL     1      -3.584   0.434   0.443  1.00  0.00     0.069 A 
HETATM   17  C11 UNL     1      -4.041   1.354   1.261  1.00  0.00     0.032 A 
HETATM   18  C12 UNL     1      -5.177   2.211   0.886  1.00  0.00     0.204 A 
HETATM   19  O3  UNL     1      -5.670   1.925  -0.372  1.00  0.00    -0.356 OA
HETATM   20  C13 UNL     1      -5.216   0.987  -1.227  1.00  0.00     0.173 A 
HETATM   21  C14 UNL     1      -4.181   0.221  -0.864  1.00  0.00     0.114 A 
BRANCH  21  22
HETATM   22  O4  UNL     1      -3.703  -0.749  -1.733  1.00  0.00    -0.357 OA
ATOM     23  H4  UNL     1      -4.093  -0.888  -2.588  1.00  0.00     0.218 HD
ENDBRANCH  21  22
ENDBRANCH   5  16
TORSDOF 5
