REMARK  4 active torsions:
REMARK  status: ('A' for Active; 'I' for Inactive)
REMARK    1  A    between atoms: C5_5  and  O1_6 
REMARK    2  A    between atoms: C5_5  and  C6_8 
REMARK    3  A    between atoms: C6_8  and  N1_9 
REMARK       I    between atoms: N1_9  and  C7_11 
REMARK    4  A    between atoms: C7_11  and  C8_13 
ROOT
HETATM    1  N1  UNL     1       0.657   0.995   0.194  1.00  0.00    -0.356 N 
ATOM      2  H1  UNL     1       0.441   1.177   1.174  1.00  0.00     0.162 HD
HETATM    3  C7  UNL     1       1.989   1.095  -0.270  1.00  0.00     0.247 C 
HETATM    4  O2  UNL     1       2.230   0.868  -1.479  1.00  0.00    -0.271 OA
ENDROOT
BRANCH   1   5
HETATM    5  C6  UNL     1      -0.386   0.637  -0.718  1.00  0.00     0.162 C 
BRANCH   5   6
HETATM    6  C5  UNL     1      -1.701   0.597   0.011  1.00  0.00     0.098 C 
HETATM    7  C4  UNL     1      -2.820   0.119  -0.911  1.00  0.00     0.079 C 
HETATM    8  C2  UNL     1      -3.791  -0.403   0.156  1.00  0.00     0.056 C 
HETATM    9  C1  UNL     1      -4.555   0.786   0.735  1.00  0.00     0.045 C 
HETATM   10  C3  UNL     1      -4.748  -1.349  -0.490  1.00  0.00     0.045 C 
HETATM   11  O4  UNL     1      -3.033  -0.940   1.156  1.00  0.00    -0.378 OA
HETATM   12  C14 UNL     1      -1.751  -0.469   1.073  1.00  0.00     0.208 C 
BRANCH   6  13
HETATM   13  O1  UNL     1      -2.029   1.805   0.571  1.00  0.00    -0.386 OA
ATOM     14  H1  UNL     1      -1.333   2.102   1.145  1.00  0.00     0.210 HD
ENDBRANCH   6  13
ENDBRANCH   5   6
ENDBRANCH   1   5
BRANCH   3  15
HETATM   15  C8  UNL     1       3.098   1.466   0.655  1.00  0.00     0.225 C 
HETATM   16  C9  UNL     1       3.341   0.284   1.603  1.00  0.00     0.085 C 
HETATM   17  C10 UNL     1       4.082  -0.630   0.699  1.00  0.00    -0.005 A 
HETATM   18  C11 UNL     1       4.432  -1.934   0.440  1.00  0.00     0.097 A 
HETATM   19  C13 UNL     1       4.652   0.149  -0.280  1.00  0.00     0.093 A 
HETATM   20  N2  UNL     1       5.196  -1.965  -0.666  1.00  0.00    -0.372 N 
HETATM   21  C12 UNL     1       5.343  -0.711  -1.121  1.00  0.00     0.124 A 
ATOM     22  H2  UNL     1       5.597  -2.802  -1.089  1.00  0.00     0.164 HD
HETATM   23  O3  UNL     1       4.321   1.496  -0.057  1.00  0.00    -0.334 OA
ENDBRANCH   3  15
TORSDOF 4
