REMARK  3 active torsions:
REMARK  status: ('A' for Active; 'I' for Inactive)
REMARK    1  A    between atoms: C4_7  and  C5_8 
REMARK    2  A    between atoms: C7_11  and  O2_12 
REMARK    3  A    between atoms: C9_14  and  C10_15 
ROOT
HETATM    1  C5  UNL     1      -0.021  -0.878   0.019  1.00  0.00     0.091 A 
HETATM    2  C6  UNL     1      -0.632   0.219  -0.297  1.00  0.00     0.110 A 
HETATM    3  N2  UNL     1       0.056   1.417  -0.526  1.00  0.00    -0.097 NA
HETATM    4  C7  UNL     1      -2.085   0.270  -0.432  1.00  0.00     0.106 A 
HETATM    5  C9  UNL     1      -2.851  -0.781  -0.244  1.00  0.00     0.039 A 
HETATM    6  C11 UNL     1      -2.217  -2.068   0.119  1.00  0.00     0.220 A 
HETATM    7  O4  UNL     1      -0.838  -2.017   0.222  1.00  0.00    -0.347 OA
ENDROOT
BRANCH   1   8
HETATM    8  C4  UNL     1       1.397  -1.141   0.203  1.00  0.00     0.171 C 
HETATM    9  C3  UNL     1       1.787  -2.200  -0.802  1.00  0.00     0.237 C 
HETATM   10  N1  UNL     1       2.467  -1.520  -1.835  1.00  0.00    -0.326 N 
HETATM   11  O1  UNL     1       1.535  -3.398  -0.688  1.00  0.00    -0.272 OA
HETATM   12  C2  UNL     1       2.855  -0.220  -1.342  1.00  0.00     0.032 C 
ATOM     13  H1  UNL     1       2.652  -1.885  -2.769  1.00  0.00     0.169 HD
HETATM   14  C1  UNL     1       3.503   0.651  -2.062  1.00  0.00     0.043 C 
HETATM   15  C12 UNL     1       2.385  -0.112   0.059  1.00  0.00    -0.017 C 
HETATM   16  C13 UNL     1       2.851   0.748   0.928  1.00  0.00    -0.020 C 
HETATM   17  C14 UNL     1       2.404   0.881   2.336  1.00  0.00     0.036 C 
ENDBRANCH   1   8
BRANCH   4  18
HETATM   18  O2  UNL     1      -2.736   1.466  -0.774  1.00  0.00    -0.353 OA
HETATM   19  C8  UNL     1      -3.225   2.310   0.278  1.00  0.00     0.210 C 
ENDBRANCH   4  18
BRANCH   5  20
HETATM   20  C10 UNL     1      -4.306  -0.722  -0.381  1.00  0.00     0.270 C 
HETATM   21  O3  UNL     1      -4.995  -1.751  -0.192  1.00  0.00    -0.302 OA
ENDBRANCH   5  20
TORSDOF 3
