REMARK  2 active torsions:
REMARK  status: ('A' for Active; 'I' for Inactive)
REMARK    1  A    between atoms: C2_2  and  C3_3 
REMARK    2  A    between atoms: C11_17  and  O3_18 
ROOT
HETATM    1  C3  UNL     1       2.036  -0.149   0.454  1.00  0.00     0.138 C 
HETATM    2  C4  UNL     1       1.316  -1.003  -0.551  1.00  0.00     0.156 C 
HETATM    3  N1  UNL     1       1.073  -0.216  -1.730  1.00  0.00    -0.340 N 
ATOM      4  H1  UNL     1       1.797   0.445  -2.010  1.00  0.00     0.164 HD
HETATM    5  C5  UNL     1      -0.092  -0.285  -2.535  1.00  0.00     0.320 C 
HETATM    6  O1  UNL     1      -0.026   0.367  -3.638  1.00  0.00    -0.247 OA
HETATM    7  N2  UNL     1      -1.286  -0.982  -2.254  1.00  0.00    -0.309 N 
ATOM      8  H2  UNL     1      -1.651  -1.571  -3.002  1.00  0.00     0.170 HD
HETATM    9  C6  UNL     1      -2.036  -0.958  -1.053  1.00  0.00     0.045 A 
HETATM   10  C7  UNL     1      -2.606  -2.102  -0.675  1.00  0.00     0.030 A 
HETATM   11  C8  UNL     1      -3.423  -2.267   0.546  1.00  0.00     0.204 A 
HETATM   12  O2  UNL     1      -3.582  -1.111   1.311  1.00  0.00    -0.359 OA
HETATM   13  C9  UNL     1      -3.005   0.064   0.934  1.00  0.00     0.147 A 
HETATM   14  C10 UNL     1      -2.265   0.178  -0.179  1.00  0.00     0.019 A 
HETATM   15  C11 UNL     1      -1.738   1.551  -0.397  1.00  0.00     0.155 C 
HETATM   16  C12 UNL     1      -0.833   1.929   0.746  1.00  0.00     0.039 C 
HETATM   17  C13 UNL     1       0.371   2.697   0.274  1.00  0.00     0.029 C 
HETATM   18  C14 UNL     1       1.594   2.058   0.904  1.00  0.00     0.168 C 
HETATM   19  O4  UNL     1       2.126   1.167   0.006  1.00  0.00    -0.384 OA
ENDROOT
BRANCH   1  20
HETATM   20  C2  UNL     1       3.458  -0.617   0.707  1.00  0.00     0.029 C 
HETATM   21  C1  UNL     1       3.506  -2.019   1.233  1.00  0.00     0.007 C 
ENDBRANCH   1  20
BRANCH  15  22
HETATM   22  O3  UNL     1      -2.873   2.400  -0.317  1.00  0.00    -0.391 OA
ATOM     23  H3  UNL     1      -2.536   3.277  -0.456  1.00  0.00     0.210 HD
ENDBRANCH  15  22
TORSDOF 2
