REMARK  4 active torsions:
REMARK  status: ('A' for Active; 'I' for Inactive)
REMARK    1  A    between atoms: C1_2  and  C2_4 
REMARK    2  A    between atoms: C2_4  and  N2_5 
REMARK    3  A    between atoms: C5_11  and  O2_12 
REMARK    4  A    between atoms: O2_12  and  C6_13 
ROOT
HETATM    1  C2  UNL     1      -3.004  -0.305  -0.145  1.00  0.00     0.203 C 
HETATM    2  C3  UNL     1      -2.979  -0.024   1.336  1.00  0.00     0.051 C 
HETATM    3  C4  UNL     1      -1.542   0.048   1.752  1.00  0.00     0.035 C 
HETATM    4  C5  UNL     1      -0.761   0.136   0.449  1.00  0.00     0.132 C 
HETATM    5  C13 UNL     1      -1.605  -0.735  -0.470  1.00  0.00     0.081 C 
ENDROOT
BRANCH   4   6
HETATM    6  O2  UNL     1       0.482  -0.468   0.570  1.00  0.00    -0.346 OA
BRANCH   6   7
HETATM    7  C6  UNL     1       1.718   0.048   0.315  1.00  0.00     0.072 A 
HETATM    8  C7  UNL     1       1.877   1.329  -0.127  1.00  0.00     0.039 A 
HETATM    9  C8  UNL     1       3.159   1.813  -0.375  1.00  0.00     0.042 A 
HETATM   10  C9  UNL     1       4.279   1.032  -0.186  1.00  0.00     0.105 A 
HETATM   11  C10 UNL     1       4.116  -0.262   0.261  1.00  0.00     0.107 A 
HETATM   12  O4  UNL     1       5.644   1.265  -0.354  1.00  0.00    -0.323 OA
HETATM   13  C11 UNL     1       2.849  -0.725   0.501  1.00  0.00     0.076 A 
HETATM   14  O3  UNL     1       5.398  -0.826   0.366  1.00  0.00    -0.323 OA
HETATM   15  C12 UNL     1       6.253  -0.007  -0.421  1.00  0.00     0.352 C 
ENDBRANCH   6   7
ENDBRANCH   4   6
BRANCH   1  16
HETATM   16  C1  UNL     1      -3.937  -1.432  -0.456  1.00  0.00     0.267 C 
HETATM   17  N1  UNL     1      -5.004  -1.267  -1.364  1.00  0.00    -0.060 NA
HETATM   18  O1  UNL     1      -3.788  -2.556   0.087  1.00  0.00    -0.274 OA
ENDBRANCH   1  16
BRANCH   1  19
HETATM   19  N2  UNL     1      -3.410   0.854  -0.905  1.00  0.00    -0.062 N 
ATOM     20  H23 UNL     1      -3.472   0.663  -1.905  1.00  0.00     0.275 HD
ATOM     21  H22 UNL     1      -4.387   1.101  -0.748  1.00  0.00     0.275 HD
ATOM     22  H21 UNL     1      -2.774   1.623  -0.693  1.00  0.00     0.275 HD
ENDBRANCH   1  19
TORSDOF 4
