REMARK  4 active torsions:
REMARK  status: ('A' for Active; 'I' for Inactive)
REMARK    1  A    between atoms: O1_2  and  C2_3 
REMARK    2  A    between atoms: C2_3  and  O2_4 
REMARK    3  A    between atoms: C6_8  and  O3_9 
REMARK    4  A    between atoms: C10_14  and  C11_15 
ROOT
HETATM    1  C2  UNL     1       1.266   0.224  -0.083  1.00  0.00     0.167 C 
HETATM    2  C4  UNL     1       0.848  -0.510   1.174  1.00  0.00     0.076 C 
HETATM    3  C5  UNL     1      -0.548  -0.206   1.596  1.00  0.00     0.025 C 
HETATM    4  C6  UNL     1      -1.065   1.148   1.230  1.00  0.00     0.128 C 
HETATM    5  C7  UNL     1      -1.030   1.230  -0.263  1.00  0.00     0.029 C 
HETATM    6  C8  UNL     1      -2.319   0.510  -0.709  1.00  0.00    -0.002 C 
HETATM    7  C9  UNL     1      -1.896  -0.051  -2.044  1.00  0.00     0.011 C 
HETATM    8  C10 UNL     1      -0.641  -0.782  -1.457  1.00  0.00     0.000 C 
HETATM    9  C11 UNL     1      -1.352  -1.606  -0.414  1.00  0.00    -0.000 A 
HETATM   10  C12 UNL     1      -1.484  -1.207   0.975  1.00  0.00     0.002 A 
HETATM   11  C13 UNL     1      -2.515  -0.717   0.088  1.00  0.00    -0.000 A 
HETATM   12  C14 UNL     1       0.056   0.402  -0.924  1.00  0.00     0.059 C 
ENDROOT
BRANCH   1  13
HETATM   13  O1  UNL     1       2.304  -0.243  -0.758  1.00  0.00    -0.359 OA
HETATM   14  C1  UNL     1       2.535  -1.417  -1.286  1.00  0.00     0.205 C 
ENDBRANCH   1  13
BRANCH   1  15
HETATM   15  O2  UNL     1       1.632   1.572   0.249  1.00  0.00    -0.359 OA
HETATM   16  C3  UNL     1       2.785   1.622   0.995  1.00  0.00     0.205 C 
ENDBRANCH   1  15
BRANCH   4  17
HETATM   17  O3  UNL     1      -0.583   2.213   1.925  1.00  0.00    -0.395 OA
ATOM     18  H3  UNL     1      -0.912   3.073   1.692  1.00  0.00     0.210 HD
ENDBRANCH   4  17
TORSDOF 4
