REMARK  2 active torsions:
REMARK  status: ('A' for Active; 'I' for Inactive)
REMARK    1  A    between atoms: N2_4  and  N3_6 
REMARK       I    between atoms: N3_6  and  C3_8 
REMARK    2  A    between atoms: C3_8  and  C4_10 
ROOT
HETATM    1  N1  UNL     1       6.920   2.140  -0.025  1.00  0.00    -0.191 NA
HETATM    2  C1  UNL     1       5.799   1.984   0.201  1.00  0.00     0.106 C 
HETATM    3  C2  UNL     1       4.416   1.772   0.465  1.00  0.00     0.200 C 
HETATM    4  N2  UNL     1       3.918   0.599   0.370  1.00  0.00    -0.299 N 
ATOM      5  H2  UNL     1       4.535  -0.168   0.103  1.00  0.00     0.186 HD
ENDROOT
BRANCH   4   6
HETATM    6  N3  UNL     1       2.585   0.314   0.610  1.00  0.00    -0.269 N 
HETATM    7  C3  UNL     1       1.681   0.133  -0.453  1.00  0.00     0.244 C 
HETATM    8  O1  UNL     1       2.128   0.240  -1.644  1.00  0.00    -0.271 OA
ATOM      9  H3  UNL     1       2.253   0.234   1.571  1.00  0.00     0.190 HD
BRANCH   7  10
HETATM   10  C4  UNL     1       0.255  -0.171  -0.282  1.00  0.00     0.043 C 
HETATM   11  C5  UNL     1      -0.366   0.971   0.503  1.00  0.00     0.024 C 
HETATM   12  C6  UNL     1      -1.862   0.789   0.618  1.00  0.00    -0.013 C 
HETATM   13  C7  UNL     1      -2.093  -0.513   1.371  1.00  0.00     0.009 C 
HETATM   14  C11 UNL     1      -2.433   0.724  -0.784  1.00  0.00     0.009 C 
HETATM   15  C8  UNL     1      -1.474  -1.651   0.595  1.00  0.00    -0.013 C 
HETATM   16  C9  UNL     1      -2.169  -1.726  -0.739  1.00  0.00     0.009 C 
HETATM   17  C13 UNL     1       0.024  -1.477   0.446  1.00  0.00     0.024 C 
HETATM   18  C10 UNL     1      -1.881  -0.460  -1.503  1.00  0.00    -0.013 C 
HETATM   19  C12 UNL     1      -0.389  -0.295  -1.639  1.00  0.00     0.024 C 
ENDBRANCH   7  10
ENDBRANCH   4   6
TORSDOF 2
