REMARK  2 active torsions:
REMARK  status: ('A' for Active; 'I' for Inactive)
REMARK    1  A    between atoms: C2_2  and  O2_4 
REMARK    2  A    between atoms: O2_4  and  C3_5 
ROOT
HETATM    1  C3  UNL     1      -1.118  -0.476  -0.379  1.00  0.00     0.156 C 
HETATM    2  C4  UNL     1      -0.302  -0.928   0.804  1.00  0.00     0.042 C 
HETATM    3  C5  UNL     1       0.921  -0.064   1.031  1.00  0.00     0.105 C 
HETATM    4  C6  UNL     1       1.732   0.120  -0.230  1.00  0.00     0.282 C 
HETATM    5  O3  UNL     1       2.766  -0.783  -0.239  1.00  0.00    -0.331 OA
HETATM    6  C7  UNL     1       3.935  -0.112   0.041  1.00  0.00     0.200 C 
HETATM    7  C8  UNL     1       3.464   1.260   0.457  1.00  0.00     0.200 C 
HETATM    8  O4  UNL     1       2.286   1.400  -0.244  1.00  0.00    -0.331 OA
HETATM    9  O5  UNL     1       0.965  -0.072  -1.375  1.00  0.00    -0.330 OA
HETATM   10  C9  UNL     1      -0.313   0.485  -1.222  1.00  0.00     0.206 C 
ENDROOT
BRANCH   1  11
HETATM   11  O2  UNL     1      -2.380   0.014  -0.039  1.00  0.00    -0.314 OA
BRANCH  11  12
HETATM   12  C2  UNL     1      -3.558  -0.537  -0.451  1.00  0.00     0.255 C 
HETATM   13  C1  UNL     1      -4.908  -0.047  -0.113  1.00  0.00     0.126 C 
HETATM   14  O1  UNL     1      -3.496  -1.566  -1.194  1.00  0.00    -0.266 OA
ENDBRANCH  11  12
ENDBRANCH   1  11
TORSDOF 2
