REMARK  1 active torsions:
REMARK  status: ('A' for Active; 'I' for Inactive)
REMARK    1  A    between atoms: C2_2  and  C3_4 
ROOT
HETATM    1  C3  UNL     1      -0.530   0.638  -0.330  1.00  0.00     0.236 C 
HETATM    2  C4  UNL     1      -0.529   1.999  -0.864  1.00  0.00     0.096 C 
HETATM    3  N1  UNL     1      -0.548   3.092  -1.294  1.00  0.00    -0.195 NA
HETATM    4  C5  UNL     1       0.358   0.638   0.891  1.00  0.00     0.054 C 
HETATM    5  C6  UNL     1       1.803   0.499   0.467  1.00  0.00     0.031 C 
HETATM    6  C7  UNL     1       2.129  -0.881   0.026  1.00  0.00     0.190 C 
HETATM    7  O2  UNL     1       1.389  -1.382  -0.992  1.00  0.00    -0.274 OA
HETATM    8  S1  UNL     1       0.133  -0.484  -1.522  1.00  0.00     0.294 S 
HETATM    9  O3  UNL     1      -0.999  -1.397  -1.952  1.00  0.00    -0.196 OA
HETATM   10  O4  UNL     1       0.544   0.279  -2.750  1.00  0.00    -0.196 OA
ENDROOT
BRANCH   1  11
HETATM   11  C2  UNL     1      -1.892   0.252   0.113  1.00  0.00     0.163 C 
HETATM   12  C1  UNL     1      -2.225  -1.054   0.696  1.00  0.00     0.094 C 
HETATM   13  O1  UNL     1      -2.789   1.066  -0.015  1.00  0.00    -0.295 OA
ENDBRANCH   1  11
TORSDOF 1
