REMARK  1 active torsions:
REMARK  status: ('A' for Active; 'I' for Inactive)
REMARK    1  A    between atoms: C6_8  and  C7_9 
ROOT
HETATM    1  O1  UNL     1      -3.164  -2.141  -1.341  1.00  0.00    -0.265 OA
HETATM    2  C1  UNL     1      -2.766  -1.350  -0.467  1.00  0.00     0.259 C 
HETATM    3  C2  UNL     1      -1.617  -1.500   0.461  1.00  0.00     0.121 C 
HETATM    4  C3  UNL     1      -1.128  -0.078   0.643  1.00  0.00     0.060 C 
HETATM    5  C4  UNL     1      -2.323   0.750   0.303  1.00  0.00     0.162 C 
HETATM    6  C5  UNL     1      -1.855   1.569  -0.880  1.00  0.00     0.201 C 
HETATM    7  O2  UNL     1      -0.494   1.646  -0.684  1.00  0.00    -0.378 OA
HETATM    8  C6  UNL     1      -0.113   0.328  -0.361  1.00  0.00     0.183 C 
HETATM    9  O5  UNL     1      -3.332  -0.120  -0.167  1.00  0.00    -0.313 OA
ENDROOT
BRANCH   8  10
HETATM   10  C7  UNL     1       1.295   0.400   0.175  1.00  0.00     0.289 C 
HETATM   11  O3  UNL     1       2.081   0.947  -0.866  1.00  0.00    -0.357 OA
HETATM   12  C8  UNL     1       3.354   0.522  -0.504  1.00  0.00     0.197 C 
HETATM   13  C9  UNL     1       3.082  -0.912  -0.098  1.00  0.00     0.197 C 
HETATM   14  O4  UNL     1       1.838  -0.816   0.489  1.00  0.00    -0.357 OA
ENDBRANCH   8  10
TORSDOF 1
