REMARK  3 active torsions:
REMARK  status: ('A' for Active; 'I' for Inactive)
REMARK    1  A    between atoms: N3_6  and  N4_8 
REMARK    2  A    between atoms: N5_10  and  O1_11 
REMARK    3  A    between atoms: N5_10  and  N6_13 
ROOT
HETATM    1  N1  UNL     1       5.937  -1.522   0.719  1.00  0.00    -0.189 NA
HETATM    2  C1  UNL     1       4.903  -0.994   0.580  1.00  0.00     0.131 C 
HETATM    3  C2  UNL     1       3.638  -0.328   0.428  1.00  0.00     0.210 C 
HETATM    4  C3  UNL     1       3.527   0.806  -0.446  1.00  0.00     0.131 C 
HETATM    5  N2  UNL     1       3.436   1.713  -1.168  1.00  0.00    -0.189 NA
HETATM    6  N3  UNL     1       2.648  -0.802   1.106  1.00  0.00    -0.264 N 
ATOM      7  H3  UNL     1       2.825  -1.611   1.701  1.00  0.00     0.190 HD
ENDROOT
BRANCH   6   8
HETATM    8  N4  UNL     1       1.363  -0.289   1.082  1.00  0.00    -0.199 N 
HETATM    9  N5  UNL     1       0.521  -0.762   0.266  1.00  0.00    -0.082 N 
ATOM     10  H4  UNL     1       1.098   0.464   1.717  1.00  0.00     0.212 HD
BRANCH   9  11
HETATM   11  O1  UNL     1       0.936  -1.777  -0.567  1.00  0.00    -0.252 OA
ATOM     12  H1  UNL     1       0.303  -2.132  -1.180  1.00  0.00     0.248 HD
ENDBRANCH   9  11
BRANCH   9  13
HETATM   13  N6  UNL     1      -0.766  -0.249   0.242  1.00  0.00    -0.281 N 
HETATM   14  C4  UNL     1      -0.962   1.158   0.380  1.00  0.00     0.172 C 
HETATM   15  C5  UNL     1      -1.953   1.586  -0.706  1.00  0.00     0.189 C 
HETATM   16  O2  UNL     1      -2.164   0.572  -1.628  1.00  0.00    -0.388 OA
HETATM   17  C6  UNL     1      -2.727  -0.558  -1.067  1.00  0.00     0.189 C 
HETATM   18  C7  UNL     1      -1.893  -1.111   0.081  1.00  0.00     0.172 C 
ENDBRANCH   9  13
ENDBRANCH   6   8
TORSDOF 3
