REMARK  12 active torsions:
REMARK  status: ('A' for Active; 'I' for Inactive)
REMARK    1  A    between atoms: O1_2  and  C2_3 
REMARK    2  A    between atoms: C3_4  and  O2_5 
REMARK    3  A    between atoms: C4_7  and  O3_8 
REMARK    4  A    between atoms: C6_11  and  C7_12 
REMARK    5  A    between atoms: C8_13  and  O4_14 
REMARK    6  A    between atoms: N2_20  and  O6_21 
REMARK    7  A    between atoms: C11_27  and  C12_28 
REMARK    8  A    between atoms: C12_28  and  C13_29 
REMARK    9  A    between atoms: C12_28  and  N9_41 
REMARK   10  A    between atoms: C13_29  and  C14_30 
REMARK   11  A    between atoms: C14_30  and  N4_31 
REMARK   12  A    between atoms: N4_31  and  C15_33 
REMARK       I    between atoms: N9_41  and  C17_43 
ROOT
HETATM    1  C2  UNL     1      -3.838  -2.502   0.294  1.00  0.00     0.201 A 
HETATM    2  C3  UNL     1      -4.961  -1.758   0.540  1.00  0.00     0.155 A 
HETATM    3  C4  UNL     1      -4.570  -0.436   0.528  1.00  0.00     0.135 A 
HETATM    4  C5  UNL     1      -3.214  -0.407   0.274  1.00  0.00     0.123 A 
HETATM    5  C6  UNL     1      -2.347   0.670   0.161  1.00  0.00     0.086 A 
HETATM    6  N3  UNL     1      -1.069   0.367  -0.094  1.00  0.00    -0.340 N 
ATOM      7  H3  UNL     1      -0.396   1.128  -0.186  1.00  0.00     0.167 HD
HETATM    8  C11 UNL     1      -0.636  -0.891  -0.234  1.00  0.00     0.120 A 
HETATM    9  N10 UNL     1      -1.500  -1.900  -0.119  1.00  0.00    -0.278 N 
ATOM     10  H10 UNL     1      -1.170  -2.859  -0.226  1.00  0.00     0.189 HD
HETATM   11  N11 UNL     1      -2.772  -1.675   0.131  1.00  0.00    -0.225 N 
ENDROOT
BRANCH   8  12
HETATM   12  C12 UNL     1       0.820  -1.121  -0.518  1.00  0.00     0.155 C 
BRANCH  12  13
HETATM   13  C13 UNL     1       1.587   0.130  -0.134  1.00  0.00     0.053 C 
BRANCH  13  14
HETATM   14  C14 UNL     1       3.054  -0.000  -0.380  1.00  0.00     0.140 C 
BRANCH  14  15
HETATM   15  N4  UNL     1       3.711   1.219   0.006  1.00  0.00    -0.225 N 
ATOM     16  H4  UNL     1       3.171   1.999   0.380  1.00  0.00     0.177 HD
BRANCH  15  17
HETATM   17  C15 UNL     1       5.140   1.328  -0.141  1.00  0.00     0.687 C 
HETATM   18  N5  UNL     1       5.661   2.013  -1.095  1.00  0.00    -0.211 N 
HETATM   19  C16 UNL     1       7.092   2.132  -1.257  1.00  0.00     0.271 C 
ATOM     20  H5  UNL     1       5.047   2.487  -1.757  1.00  0.00     0.179 HD
HETATM   21  N6  UNL     1       7.816   1.079  -0.574  1.00  0.00    -0.106 NA
HETATM   22  N7  UNL     1       7.359   1.019   0.769  1.00  0.00    -0.015 NA
HETATM   23  N8  UNL     1       6.006   0.674   0.777  1.00  0.00    -0.120 N 
ATOM     24  H8  UNL     1       5.649  -0.029   1.424  1.00  0.00     0.202 HD
ENDBRANCH  15  17
ENDBRANCH  14  15
ENDBRANCH  13  14
ENDBRANCH  12  13
BRANCH  12  25
HETATM   25  N9  UNL     1       1.302  -2.189   0.309  1.00  0.00    -0.350 N 
HETATM   26  C17 UNL     1       1.903  -3.371  -0.182  1.00  0.00     0.214 C 
HETATM   27  C18 UNL     1       2.371  -4.421   0.750  1.00  0.00     0.117 C 
HETATM   28  O8  UNL     1       2.039  -3.529  -1.413  1.00  0.00    -0.274 OA
ATOM     29  H9  UNL     1       1.205  -2.089   1.319  1.00  0.00     0.163 HD
ENDBRANCH  12  25
ENDBRANCH   8  12
BRANCH   5  30
HETATM   30  C7  UNL     1      -2.878   2.013   0.323  1.00  0.00     0.114 A 
HETATM   31  C8  UNL     1      -2.921   2.632   1.562  1.00  0.00     0.162 A 
HETATM   32  N1  UNL     1      -3.405   3.872   1.751  1.00  0.00    -0.286 N 
HETATM   33  C9  UNL     1      -3.866   4.527   0.668  1.00  0.00     0.355 A 
ATOM     34  H1  UNL     1      -3.422   4.299   2.677  1.00  0.00     0.172 HD
HETATM   35  O5  UNL     1      -4.315   5.688   0.872  1.00  0.00    -0.244 OA
HETATM   36  N2  UNL     1      -3.851   3.987  -0.544  1.00  0.00    -0.133 N 
HETATM   37  C10 UNL     1      -3.370   2.750  -0.743  1.00  0.00     0.292 A 
HETATM   38  O7  UNL     1      -3.343   2.211  -1.884  1.00  0.00    -0.264 OA
BRANCH  31  39
HETATM   39  O4  UNL     1      -2.439   1.930   2.655  1.00  0.00    -0.345 OA
ATOM     40  H4  UNL     1      -2.468   2.354   3.504  1.00  0.00     0.219 HD
ENDBRANCH  31  39
BRANCH  36  41
HETATM   41  O6  UNL     1      -4.338   4.713  -1.606  1.00  0.00    -0.276 OA
ATOM     42  H6  UNL     1      -4.327   4.326  -2.474  1.00  0.00     0.245 HD
ENDBRANCH  36  41
ENDBRANCH   5  30
BRANCH   1  43
HETATM   43  O1  UNL     1      -3.808  -3.877   0.224  1.00  0.00    -0.337 OA
HETATM   44  C1  UNL     1      -3.903  -4.537  -1.026  1.00  0.00     0.211 C 
ENDBRANCH   1  43
BRANCH   3  45
HETATM   45  O3  UNL     1      -5.377   0.686   0.732  1.00  0.00    -0.356 OA
ATOM     46  H3  UNL     1      -5.108   1.597   0.724  1.00  0.00     0.218 HD
ENDBRANCH   3  45
BRANCH   2  47
HETATM   47  O2  UNL     1      -6.268  -2.210   0.765  1.00  0.00    -0.354 OA
ATOM     48  H2  UNL     1      -7.047  -1.694   0.936  1.00  0.00     0.218 HD
ENDBRANCH   2  47
TORSDOF 12
