REMARK  15 active torsions:
REMARK  status: ('A' for Active; 'I' for Inactive)
REMARK    1  A    between atoms: O1_2  and  C2_3 
REMARK    2  A    between atoms: C2_3  and  C3_5 
REMARK    3  A    between atoms: C4_9  and  N2_10 
REMARK    4  A    between atoms: N2_10  and  C5_13 
REMARK    5  A    between atoms: C5_13  and  O3_15 
REMARK    6  A    between atoms: C7_17  and  N3_18 
REMARK    7  A    between atoms: N3_18  and  C8_20 
REMARK    8  A    between atoms: C11_28  and  N7_29 
REMARK    9  A    between atoms: C12_32  and  C13_33 
REMARK   10  A    between atoms: C13_33  and  O4_34 
REMARK   11  A    between atoms: N8_36  and  O5_38 
REMARK   12  A    between atoms: O5_38  and  C14_39 
REMARK   13  A    between atoms: C15_44  and  O7_45 
REMARK   14  A    between atoms: C15_44  and  C16_47 
REMARK   15  A    between atoms: N11_49  and  O8_51 
ROOT
HETATM    1  C3  UNL     1      -2.055  -0.799  -0.059  1.00  0.00     0.348 C 
HETATM    2  N1  UNL     1      -1.736  -0.111   1.205  1.00  0.00    -0.022 N 
ATOM      3  H11 UNL     1      -2.400  -0.293   1.958  1.00  0.00     0.281 HD
ATOM      4  H12 UNL     1      -1.873   0.899   1.176  1.00  0.00     0.281 HD
HETATM    5  C4  UNL     1      -0.348  -0.525   1.509  1.00  0.00     0.438 C 
HETATM    6  C7  UNL     1       0.611   0.404   0.853  1.00  0.00     0.099 C 
HETATM    7  C12 UNL     1      -0.118   1.474   0.103  1.00  0.00     0.110 C 
HETATM    8  N10 UNL     1      -1.119   1.372  -0.648  1.00  0.00    -0.346 N 
ATOM      9  H10 UNL     1      -1.403   2.274  -1.031  1.00  0.00     0.163 HD
HETATM   10  C15 UNL     1      -1.976   0.287  -1.109  1.00  0.00     0.212 C 
ENDROOT
BRANCH   6  11
HETATM   11  N3  UNL     1       1.729  -0.179   0.262  1.00  0.00    -0.349 N 
ATOM     12  H3  UNL     1       2.556  -0.071   0.849  1.00  0.00     0.166 HD
BRANCH  11  13
HETATM   13  C8  UNL     1       2.027  -0.869  -0.911  1.00  0.00     0.118 A 
HETATM   14  C9  UNL     1       1.922  -2.216  -1.094  1.00  0.00     0.147 A 
HETATM   15  N4  UNL     1       1.508  -3.165  -0.123  1.00  0.00    -0.080 NA
HETATM   16  N5  UNL     1       2.270  -2.810  -2.287  1.00  0.00    -0.339 N 
HETATM   17  C10 UNL     1       2.724  -2.079  -3.303  1.00  0.00     0.183 A 
ATOM     18  H5  UNL     1       2.179  -3.820  -2.393  1.00  0.00     0.167 HD
HETATM   19  N6  UNL     1       2.827  -0.761  -3.114  1.00  0.00    -0.337 N 
HETATM   20  C11 UNL     1       2.509  -0.114  -1.990  1.00  0.00     0.130 A 
ATOM     21  H6  UNL     1       3.177  -0.203  -3.892  1.00  0.00     0.168 HD
BRANCH  20  22
HETATM   22  N7  UNL     1       2.688   1.153  -1.940  1.00  0.00    -0.384 N 
ATOM     23  H72 UNL     1       2.445   1.647  -1.081  1.00  0.00     0.157 HD
ATOM     24  H71 UNL     1       3.039   1.702  -2.725  1.00  0.00     0.157 HD
ENDBRANCH  20  22
ENDBRANCH  11  13
ENDBRANCH   6  11
BRANCH   5  25
HETATM   25  N2  UNL     1      -0.262  -0.504   2.982  1.00  0.00    -0.015 N 
ATOM     26  H22 UNL     1      -0.495   0.418   3.349  1.00  0.00     0.283 HD
ATOM     27  H21 UNL     1      -1.019  -1.044   3.401  1.00  0.00     0.283 HD
BRANCH  25  28
HETATM   28  C5  UNL     1       0.997  -0.938   3.460  1.00  0.00     0.317 C 
HETATM   29  C6  UNL     1       1.025  -0.729   4.978  1.00  0.00     0.070 C 
BRANCH  28  30
HETATM   30  O3  UNL     1       1.245  -2.303   3.260  1.00  0.00    -0.370 OA
ATOM     31  H3  UNL     1       2.090  -2.594   3.581  1.00  0.00     0.212 HD
ENDBRANCH  28  30
ENDBRANCH  25  28
ENDBRANCH   5  25
BRANCH   7  32
HETATM   32  C13 UNL     1       0.362   2.860   0.309  1.00  0.00     0.190 C 
HETATM   33  N8  UNL     1       1.378   3.029   1.058  1.00  0.00    -0.233 N 
ATOM     34  H8  UNL     1       1.774   2.177   1.454  1.00  0.00     0.197 HD
BRANCH  32  35
HETATM   35  O4  UNL     1      -0.267   3.917  -0.284  1.00  0.00    -0.343 OA
ATOM     36  H4  UNL     1       0.041   4.806  -0.152  1.00  0.00     0.219 HD
ENDBRANCH  32  35
BRANCH  33  37
HETATM   37  O5  UNL     1       2.004   4.168   1.402  1.00  0.00    -0.181 OA
BRANCH  37  38
HETATM   38  C14 UNL     1       2.510   5.131   0.551  1.00  0.00     0.394 C 
HETATM   39  N9  UNL     1       3.146   6.276   1.080  1.00  0.00    -0.031 NA
HETATM   40  O6  UNL     1       2.387   4.955  -0.680  1.00  0.00    -0.240 OA
ENDBRANCH  37  38
ENDBRANCH  33  37
ENDBRANCH   7  32
BRANCH   1  41
HETATM   41  C2  UNL     1      -3.493  -1.203   0.064  1.00  0.00     0.295 C 
HETATM   42  O2  UNL     1      -4.094  -0.879   1.147  1.00  0.00    -0.263 OA
BRANCH  41  43
HETATM   43  O1  UNL     1      -4.153  -1.890  -0.926  1.00  0.00    -0.325 OA
HETATM   44  C1  UNL     1      -5.508  -2.244  -0.753  1.00  0.00     0.213 C 
ENDBRANCH  41  43
ENDBRANCH   1  41
BRANCH  10  45
HETATM   45  O7  UNL     1      -3.249   0.825  -1.256  1.00  0.00    -0.364 OA
ATOM     46  H7  UNL     1      -3.199   1.507  -1.915  1.00  0.00     0.213 HD
ENDBRANCH  10  45
BRANCH  10  47
HETATM   47  C16 UNL     1      -1.536  -0.210  -2.426  1.00  0.00     0.063 C 
HETATM   48  C17 UNL     1      -1.860  -1.560  -2.961  1.00  0.00     0.071 C 
HETATM   49  N11 UNL     1      -0.902   0.558  -3.237  1.00  0.00    -0.273 N 
ATOM     50  H11 UNL     1      -0.619   0.161  -4.133  1.00  0.00     0.193 HD
BRANCH  49  51
HETATM   51  O8  UNL     1      -0.578   1.856  -2.999  1.00  0.00    -0.290 OA
ATOM     52  H8  UNL     1      -0.109   2.424  -3.599  1.00  0.00     0.244 HD
ENDBRANCH  49  51
ENDBRANCH  10  47
TORSDOF 15
