REMARK  13 active torsions:
REMARK  status: ('A' for Active; 'I' for Inactive)
REMARK    1  A    between atoms: N1_1  and  C1_4 
REMARK    2  A    between atoms: C2_7  and  S1_8 
REMARK    3  A    between atoms: S1_8  and  C3_9 
REMARK    4  A    between atoms: C3_9  and  C4_10 
REMARK    5  A    between atoms: C4_10  and  N3_11 
REMARK    6  A    between atoms: C5_12  and  C6_13 
REMARK    7  A    between atoms: C8_22  and  O1_23 
REMARK    8  A    between atoms: C9_25  and  N8_26 
REMARK    9  A    between atoms: N8_26  and  C10_28 
REMARK   10  A    between atoms: C10_28  and  O2_29 
REMARK   11  A    between atoms: C10_28  and  C11_31 
REMARK       I    between atoms: C11_31  and  N9_33 
REMARK   12  A    between atoms: N9_33  and  N10_35 
REMARK   13  A    between atoms: N13_48  and  O6_49 
ROOT
HETATM    1  N3  UNL     1      -2.441  -1.610  -0.409  1.00  0.00    -0.327 N 
HETATM    2  C5  UNL     1      -2.891  -2.395   0.573  1.00  0.00     0.085 A 
HETATM    3  C7  UNL     1      -4.004  -1.790   1.096  1.00  0.00     0.074 A 
HETATM    4  C8  UNL     1      -4.222  -0.585   0.387  1.00  0.00     0.112 A 
HETATM    5  C9  UNL     1      -3.228  -0.488  -0.557  1.00  0.00     0.140 A 
ENDROOT
BRANCH   1   6
HETATM    6  C4  UNL     1      -1.274  -1.930  -1.195  1.00  0.00     0.141 C 
BRANCH   6   7
HETATM    7  C3  UNL     1      -0.039  -1.342  -0.554  1.00  0.00     0.102 C 
BRANCH   7   8
HETATM    8  S1  UNL     1       1.453  -1.718  -1.501  1.00  0.00    -0.092 SA
BRANCH   8   9
HETATM    9  C2  UNL     1       2.858  -0.996  -0.690  1.00  0.00     0.147 A 
HETATM   10  N2  UNL     1       3.553  -1.677   0.239  1.00  0.00    -0.322 N 
HETATM   11  C1  UNL     1       4.627  -1.131   0.862  1.00  0.00     0.120 A 
ATOM     12  H2  UNL     1       3.266  -2.625   0.480  1.00  0.00     0.169 HD
HETATM   13  C13 UNL     1       5.044   0.146   0.564  1.00  0.00     0.122 A 
HETATM   14  C12 UNL     1       4.324   0.835  -0.388  1.00  0.00     0.159 A 
HETATM   15  C14 UNL     1       6.129   0.752   1.167  1.00  0.00     0.267 A 
HETATM   16  N11 UNL     1       3.271   0.262  -0.981  1.00  0.00    -0.320 N 
HETATM   17  N13 UNL     1       4.700   2.094  -0.712  1.00  0.00    -0.154 N 
ATOM     18  H11 UNL     1       2.756   0.795  -1.682  1.00  0.00     0.169 HD
HETATM   19  C15 UNL     1       5.758   2.695  -0.129  1.00  0.00     0.355 A 
HETATM   20  N12 UNL     1       6.460   2.023   0.801  1.00  0.00    -0.273 N 
HETATM   21  O5  UNL     1       6.069   3.863  -0.460  1.00  0.00    -0.244 OA
ATOM     22  H12 UNL     1       7.260   2.476   1.243  1.00  0.00     0.173 HD
HETATM   23  O4  UNL     1       6.779   0.132   2.026  1.00  0.00    -0.267 OA
BRANCH  11  24
HETATM   24  N1  UNL     1       5.306  -1.772   1.756  1.00  0.00    -0.384 N 
ATOM     25  H12 UNL     1       4.997  -2.719   1.977  1.00  0.00     0.157 HD
ATOM     26  H11 UNL     1       6.114  -1.361   2.225  1.00  0.00     0.157 HD
ENDBRANCH  11  24
BRANCH  17  27
HETATM   27  O6  UNL     1       3.943   2.727  -1.667  1.00  0.00    -0.277 OA
ATOM     28  H6  UNL     1       4.207   3.611  -1.894  1.00  0.00     0.245 HD
ENDBRANCH  17  27
ENDBRANCH   8   9
ENDBRANCH   7   8
ENDBRANCH   6   7
ENDBRANCH   1   6
BRANCH   2  29
HETATM   29  C6  UNL     1      -2.338  -3.680   1.055  1.00  0.00     0.161 A 
HETATM   30  N4  UNL     1      -1.298  -4.394   0.689  1.00  0.00    -0.265 N 
HETATM   31  N5  UNL     1      -1.203  -5.490   1.425  1.00  0.00    -0.005 NA
ATOM     32  H4  UNL     1      -0.653  -4.139  -0.059  1.00  0.00     0.186 HD
HETATM   33  N6  UNL     1      -2.218  -5.484   2.298  1.00  0.00    -0.225 N 
HETATM   34  N7  UNL     1      -2.903  -4.394   2.076  1.00  0.00    -0.270 N 
ATOM     35  H6  UNL     1      -2.418  -6.195   3.002  1.00  0.00     0.205 HD
ATOM     36  H7  UNL     1      -3.739  -4.115   2.590  1.00  0.00     0.190 HD
ENDBRANCH   2  29
BRANCH   5  37
HETATM   37  N8  UNL     1      -2.957   0.474  -1.557  1.00  0.00    -0.340 N 
ATOM     38  H8  UNL     1      -2.176   0.267  -2.179  1.00  0.00     0.164 HD
BRANCH  37  39
HETATM   39  C10 UNL     1      -3.642   1.693  -1.798  1.00  0.00     0.315 C 
BRANCH  39  40
HETATM   40  O2  UNL     1      -3.428   2.049  -3.203  1.00  0.00    -0.368 OA
ATOM     41  H2  UNL     1      -3.887   2.865  -3.364  1.00  0.00     0.212 HD
ENDBRANCH  39  40
BRANCH  39  42
HETATM   42  C11 UNL     1      -3.134   2.876  -1.066  1.00  0.00     0.284 C 
HETATM   43  O3  UNL     1      -2.755   3.911  -1.734  1.00  0.00    -0.267 OA
HETATM   44  N9  UNL     1      -3.026   2.971   0.330  1.00  0.00    -0.273 N 
ATOM     45  H9  UNL     1      -3.310   2.182   0.911  1.00  0.00     0.189 HD
BRANCH  44  46
HETATM   46  N10 UNL     1      -2.523   4.159   0.949  1.00  0.00    -0.342 N 
ATOM     47 2H10 UNL     1      -2.243   4.938   0.353  1.00  0.00     0.176 HD
ATOM     48 1H10 UNL     1      -2.445   4.228   1.964  1.00  0.00     0.176 HD
ENDBRANCH  44  46
ENDBRANCH  39  42
ENDBRANCH  37  39
ENDBRANCH   5  37
BRANCH   4  49
HETATM   49  O1  UNL     1      -5.259   0.271   0.660  1.00  0.00    -0.357 OA
ATOM     50  H1  UNL     1      -5.405   1.080   0.184  1.00  0.00     0.218 HD
ENDBRANCH   4  49
TORSDOF 13
