REMARK  11 active torsions:
REMARK  status: ('A' for Active; 'I' for Inactive)
REMARK    1  A    between atoms: C2_2  and  C3_3 
REMARK    2  A    between atoms: C4_4  and  C5_5 
REMARK    3  A    between atoms: C9_10  and  O2_12 
REMARK    4  A    between atoms: C17_20  and  C18_21 
REMARK    5  A    between atoms: C19_22  and  C20_23 
REMARK    6  A    between atoms: C22_25  and  C23_26 
REMARK    7  A    between atoms: C23_26  and  O4_28 
REMARK    8  A    between atoms: O4_28  and  C24_29 
REMARK    9  A    between atoms: C25_30  and  O5_31 
REMARK   10  A    between atoms: C27_34  and  O6_35 
REMARK   11  A    between atoms: C28_37  and  C29_38 
ROOT
HETATM    1  C1  UNL     1      -1.489   0.018   3.229  1.00  0.00     0.048 C 
HETATM    2  C2  UNL     1      -1.338   0.093   1.768  1.00  0.00    -0.062 C 
HETATM    3  C17 UNL     1      -0.057   0.042   1.290  1.00  0.00     0.007 C 
ENDROOT
BRANCH   3   4
HETATM    4  C18 UNL     1       1.060  -0.079   2.164  1.00  0.00     0.001 C 
HETATM    5  C19 UNL     1       2.294  -0.150   1.980  1.00  0.00     0.007 C 
BRANCH   5   6
HETATM    6  C20 UNL     1       3.112  -0.141   0.773  1.00  0.00    -0.056 C 
HETATM    7  C21 UNL     1       2.534  -0.082  -0.573  1.00  0.00     0.048 C 
HETATM    8  C22 UNL     1       4.419  -0.220   0.969  1.00  0.00     0.089 C 
BRANCH   8   9
HETATM    9  C23 UNL     1       5.460  -0.231   0.007  1.00  0.00     0.283 C 
HETATM   10  O3  UNL     1       5.326  -0.161  -1.216  1.00  0.00    -0.260 OA
BRANCH   9  11
HETATM   11  O4  UNL     1       6.824  -0.333   0.440  1.00  0.00    -0.309 OA
BRANCH  11  12
HETATM   12  C24 UNL     1       7.882  -0.347  -0.490  1.00  0.00     0.177 C 
HETATM   13  C25 UNL     1       8.641  -1.659  -0.330  1.00  0.00     0.151 C 
HETATM   14  C26 UNL     1      10.059  -1.295   0.008  1.00  0.00     0.067 C 
HETATM   15  C27 UNL     1      10.194   0.112  -0.549  1.00  0.00     0.137 C 
HETATM   16  C28 UNL     1       8.866   0.721  -0.135  1.00  0.00     0.147 C 
BRANCH  13  17
HETATM   17  O5  UNL     1       8.625  -2.361  -1.539  1.00  0.00    -0.393 OA
ATOM     18  H5  UNL     1       9.098  -3.179  -1.439  1.00  0.00     0.210 HD
ENDBRANCH  13  17
BRANCH  15  19
HETATM   19  O6  UNL     1      10.331   0.017  -1.917  1.00  0.00    -0.394 OA
ATOM     20  H6  UNL     1      10.415   0.897  -2.265  1.00  0.00     0.210 HD
ENDBRANCH  15  19
BRANCH  16  21
HETATM   21  C29 UNL     1       8.626   2.017  -0.791  1.00  0.00     0.182 C 
HETATM   22  O7  UNL     1       7.699   2.236  -1.580  1.00  0.00    -0.648 OA
HETATM   23  O8  UNL     1       9.496   3.056  -0.503  1.00  0.00    -0.648 OA
ENDBRANCH  16  21
ENDBRANCH  11  12
ENDBRANCH   9  11
ENDBRANCH   8   9
ENDBRANCH   5   6
ENDBRANCH   3   4
BRANCH   2  24
HETATM   24  C3  UNL     1      -2.418   0.216   0.812  1.00  0.00     0.004 C 
HETATM   25  C4  UNL     1      -3.693   0.277   1.137  1.00  0.00    -0.008 C 
BRANCH  25  26
HETATM   26  C5  UNL     1      -4.777   0.401   0.164  1.00  0.00     0.049 C 
HETATM   27  C6  UNL     1      -4.399   1.161  -1.064  1.00  0.00     0.141 C 
HETATM   28  O1  UNL     1      -3.571   2.042  -1.099  1.00  0.00    -0.297 OA
HETATM   29  C7  UNL     1      -5.209   0.646  -2.200  1.00  0.00     0.088 C 
HETATM   30  C8  UNL     1      -6.130  -0.411  -1.558  1.00  0.00     0.036 C 
HETATM   31  C9  UNL     1      -7.348   0.350  -1.128  1.00  0.00     0.059 C 
HETATM   32  C14 UNL     1      -5.244  -0.878  -0.453  1.00  0.00    -0.022 C 
HETATM   33  C10 UNL     1      -7.951   0.956  -2.407  1.00  0.00     0.046 C 
HETATM   34  C11 UNL     1      -6.980   1.506  -0.249  1.00  0.00     0.043 C 
HETATM   35  C12 UNL     1      -5.916   1.210   0.761  1.00  0.00     0.005 C 
HETATM   36  C13 UNL     1      -6.516   0.649   1.993  1.00  0.00     0.011 C 
HETATM   37  C15 UNL     1      -5.807  -1.885   0.464  1.00  0.00     0.017 C 
HETATM   38  C16 UNL     1      -4.040  -1.534  -1.122  1.00  0.00     0.017 C 
BRANCH  31  39
HETATM   39  O2  UNL     1      -8.341  -0.426  -0.572  1.00  0.00    -0.390 OA
ATOM     40  H2  UNL     1      -9.113   0.056  -0.300  1.00  0.00     0.210 HD
ENDBRANCH  31  39
ENDBRANCH  25  26
ENDBRANCH   2  24
TORSDOF 11
