REMARK  11 active torsions:
REMARK  status: ('A' for Active; 'I' for Inactive)
REMARK    1  A    between atoms: O1_2  and  C2_3 
REMARK    2  A    between atoms: C5_6  and  C6_7 
REMARK    3  A    between atoms: C6_7  and  C7_8 
REMARK    4  A    between atoms: C7_8  and  C8_10 
REMARK    5  A    between atoms: C9_11  and  C10_12 
REMARK    6  A    between atoms: C12_14  and  O3_15 
REMARK    7  A    between atoms: C14_18  and  C16_20 
REMARK    8  A    between atoms: C17_21  and  C18_22 
REMARK    9  A    between atoms: C19_23  and  O4_24 
REMARK   10  A    between atoms: C19_23  and  C20_26 
REMARK   11  A    between atoms: C26_35  and  O8_36 
ROOT
HETATM    1  C8  UNL     1       0.403  -0.760   1.847  1.00  0.00     0.046 C 
HETATM    2  C9  UNL     1       1.080  -0.990   0.740  1.00  0.00    -0.018 C 
ENDROOT
BRANCH   2   3
HETATM    3  C10 UNL     1       2.561  -1.192   0.807  1.00  0.00     0.015 C 
HETATM    4  C11 UNL     1       2.828  -2.605   0.342  1.00  0.00     0.040 C 
HETATM    5  C12 UNL     1       4.276  -2.943   0.234  1.00  0.00     0.119 C 
HETATM    6  C13 UNL     1       5.160  -1.793  -0.137  1.00  0.00     0.045 C 
HETATM    7  C14 UNL     1       4.434  -0.669  -0.802  1.00  0.00    -0.020 C 
HETATM    8  C15 UNL     1       4.064  -1.101  -2.205  1.00  0.00     0.020 C 
HETATM    9  C21 UNL     1       3.281  -0.154  -0.012  1.00  0.00     0.001 C 
HETATM   10  C22 UNL     1       2.311   0.622  -0.900  1.00  0.00     0.011 C 
BRANCH   5  11
HETATM   11  O3  UNL     1       4.406  -4.031  -0.655  1.00  0.00    -0.396 OA
ATOM     12  H3  UNL     1       5.329  -4.246  -0.724  1.00  0.00     0.210 HD
ENDBRANCH   5  11
BRANCH   7  13
HETATM   13  C16 UNL     1       5.411   0.469  -0.948  1.00  0.00    -0.017 C 
HETATM   14  C17 UNL     1       5.943   0.999   0.146  1.00  0.00    -0.000 C 
BRANCH  14  15
HETATM   15  C18 UNL     1       6.889   2.097   0.051  1.00  0.00     0.043 C 
HETATM   16  C19 UNL     1       7.417   2.623   1.138  1.00  0.00     0.142 C 
BRANCH  16  17
HETATM   17  O4  UNL     1       7.067   2.124   2.376  1.00  0.00    -0.355 OA
ATOM     18  H4  UNL     1       7.448   2.503   3.160  1.00  0.00     0.218 HD
ENDBRANCH  16  17
BRANCH  16  19
HETATM   19  C20 UNL     1       8.353   3.710   1.042  1.00  0.00     0.233 C 
HETATM   20  O5  UNL     1       8.854   4.208   2.080  1.00  0.00    -0.642 OA
HETATM   21  O6  UNL     1       8.714   4.222  -0.184  1.00  0.00    -0.642 OA
ENDBRANCH  16  19
ENDBRANCH  14  15
ENDBRANCH   7  13
ENDBRANCH   2   3
BRANCH   1  22
HETATM   22  C7  UNL     1      -1.027  -0.564   1.776  1.00  0.00     0.151 C 
HETATM   23  O2  UNL     1      -1.663  -0.346   2.828  1.00  0.00    -0.293 OA
BRANCH  22  24
HETATM   24  C6  UNL     1      -1.722  -0.621   0.492  1.00  0.00     0.114 C 
BRANCH  24  25
HETATM   25  C5  UNL     1      -3.214  -0.377   0.598  1.00  0.00     0.130 C 
HETATM   26  C4  UNL     1      -3.529   0.987   1.177  1.00  0.00     0.035 C 
HETATM   27  C3  UNL     1      -4.228   1.896   0.236  1.00  0.00     0.034 C 
HETATM   28  C2  UNL     1      -5.695   2.052   0.454  1.00  0.00     0.120 C 
HETATM   29  C28 UNL     1      -6.456   0.787   0.627  1.00  0.00     0.034 C 
HETATM   30  C27 UNL     1      -6.408  -0.080  -0.628  1.00  0.00     0.037 C 
HETATM   31  C26 UNL     1      -5.817  -1.440  -0.322  1.00  0.00     0.152 C 
HETATM   32  C23 UNL     1      -4.464  -1.503  -1.003  1.00  0.00     0.087 A 
HETATM   33  O7  UNL     1      -3.710  -0.399  -0.705  1.00  0.00    -0.372 OA
HETATM   34  C24 UNL     1      -3.944  -2.747  -1.561  1.00  0.00     0.044 A 
HETATM   35  C25 UNL     1      -4.558  -1.779  -2.510  1.00  0.00     0.044 A 
BRANCH  28  36
HETATM   36  O1  UNL     1      -6.227   2.719  -0.649  1.00  0.00    -0.391 OA
HETATM   37  C1  UNL     1      -6.784   3.944  -0.300  1.00  0.00     0.202 C 
ENDBRANCH  28  36
BRANCH  31  38
HETATM   38  O8  UNL     1      -6.589  -2.474  -0.822  1.00  0.00    -0.393 OA
ATOM     39  H8  UNL     1      -7.437  -2.435  -0.395  1.00  0.00     0.210 HD
ENDBRANCH  31  38
ENDBRANCH  24  25
ENDBRANCH  22  24
ENDBRANCH   1  22
TORSDOF 11
