REMARK  10 active torsions:
REMARK  status: ('A' for Active; 'I' for Inactive)
REMARK    1  A    between atoms: C2_2  and  C3_3 
REMARK    2  A    between atoms: C3_3  and  C4_4 
REMARK    3  A    between atoms: C4_4  and  C5_5 
REMARK    4  A    between atoms: C5_5  and  C6_6 
REMARK    5  A    between atoms: C5_5  and  O7_39 
REMARK    6  A    between atoms: C7_7  and  C8_8 
REMARK    7  A    between atoms: C14_15  and  O2_16 
REMARK    8  A    between atoms: C17_20  and  O3_21 
REMARK    9  A    between atoms: C20_25  and  O4_26 
REMARK   10  A    between atoms: C25_32  and  O5_33 
ROOT
HETATM    1  C8  UNL     1       1.380  -0.974   0.021  1.00  0.00    -0.018 C 
HETATM    2  C9  UNL     1       2.134  -0.915  -1.248  1.00  0.00     0.020 C 
HETATM    3  C10 UNL     1       1.212  -2.502   0.486  1.00  0.00     0.031 C 
HETATM    4  C11 UNL     1       0.048  -2.550  -0.393  1.00  0.00     0.029 C 
HETATM    5  C12 UNL     1       0.359  -3.239  -1.611  1.00  0.00     0.024 C 
HETATM    6  C13 UNL     1      -1.269  -3.110   0.094  1.00  0.00     0.173 C 
HETATM    7  O1  UNL     1      -1.292  -3.855   0.997  1.00  0.00    -0.294 OA
HETATM    8  C14 UNL     1      -2.341  -2.536  -0.762  1.00  0.00     0.153 C 
HETATM    9  C15 UNL     1      -3.689  -2.404  -0.138  1.00  0.00     0.055 C 
HETATM   10  C16 UNL     1      -3.846  -3.127   1.195  1.00  0.00     0.016 C 
HETATM   11  C17 UNL     1      -4.468  -1.145  -0.237  1.00  0.00     0.132 C 
HETATM   12  C18 UNL     1      -4.158  -0.005   0.630  1.00  0.00     0.046 C 
HETATM   13  C19 UNL     1      -2.684   0.187   0.915  1.00  0.00     0.051 C 
HETATM   14  C20 UNL     1      -2.069   0.577  -0.350  1.00  0.00     0.099 C 
HETATM   15  C21 UNL     1      -2.037   2.057  -0.207  1.00  0.00    -0.011 C 
HETATM   16  C22 UNL     1      -1.297   2.540   1.032  1.00  0.00     0.018 C 
HETATM   17  C23 UNL     1      -1.463   2.788  -1.379  1.00  0.00     0.018 C 
HETATM   18  C24 UNL     1      -3.522   2.420   0.037  1.00  0.00     0.044 C 
HETATM   19  C25 UNL     1      -4.544   1.364   0.185  1.00  0.00     0.125 C 
HETATM   20  C26 UNL     1      -1.062  -0.337  -0.820  1.00  0.00     0.128 A 
HETATM   21  O6  UNL     1      -0.903  -0.803  -2.110  1.00  0.00    -0.362 OA
HETATM   22  C27 UNL     1      -1.928  -1.388  -1.562  1.00  0.00     0.203 A 
HETATM   23  C28 UNL     1      -0.085  -1.133  -0.022  1.00  0.00     0.053 C 
ENDROOT
BRANCH   1  24
HETATM   24  C7  UNL     1       2.001  -0.367   1.245  1.00  0.00    -0.018 C 
HETATM   25  C6  UNL     1       2.441   0.958   1.446  1.00  0.00     0.001 C 
BRANCH  25  26
HETATM   26  C5  UNL     1       3.570   1.732   0.908  1.00  0.00     0.143 C 
BRANCH  26  27
HETATM   27  C4  UNL     1       4.943   1.275   1.250  1.00  0.00     0.036 C 
BRANCH  27  28
HETATM   28  C3  UNL     1       5.491  -0.002   0.770  1.00  0.00     0.002 C 
BRANCH  28  29
HETATM   29  C2  UNL     1       5.795  -0.004  -0.727  1.00  0.00    -0.004 C 
HETATM   30  C1  UNL     1       6.850   1.057  -1.037  1.00  0.00     0.005 C 
ENDBRANCH  28  29
ENDBRANCH  27  28
ENDBRANCH  26  27
BRANCH  26  31
HETATM   31  O7  UNL     1       3.404   3.083   1.327  1.00  0.00    -0.387 OA
HETATM   32  C29 UNL     1       3.301   3.961   0.282  1.00  0.00     0.202 C 
ENDBRANCH  26  31
ENDBRANCH  25  26
ENDBRANCH   1  24
BRANCH  14  33
HETATM   33  O4  UNL     1      -2.915   0.715  -1.510  1.00  0.00    -0.386 OA
ATOM     34  H4  UNL     1      -2.515   0.969  -2.333  1.00  0.00     0.210 HD
ENDBRANCH  14  33
BRANCH   8  35
HETATM   35  O2  UNL     1      -2.355  -3.556  -1.793  1.00  0.00    -0.379 OA
ATOM     36  H2  UNL     1      -3.040  -3.189  -2.340  1.00  0.00     0.211 HD
ENDBRANCH   8  35
BRANCH  11  37
HETATM   37  O3  UNL     1      -5.801  -1.520   0.160  1.00  0.00    -0.395 OA
ATOM     38  H3  UNL     1      -6.300  -0.714   0.097  1.00  0.00     0.210 HD
ENDBRANCH  11  37
BRANCH  19  39
HETATM   39  O5  UNL     1      -5.447   1.850   1.177  1.00  0.00    -0.395 OA
ATOM     40  H5  UNL     1      -5.693   2.723   0.893  1.00  0.00     0.210 HD
ENDBRANCH  19  39
TORSDOF 10
