REMARK  11 active torsions:
REMARK  status: ('A' for Active; 'I' for Inactive)
REMARK    1  A    between atoms: C2_2  and  C3_3 
REMARK    2  A    between atoms: C2_2  and  C16_21 
REMARK    3  A    between atoms: C3_3  and  C5_5 
REMARK    4  A    between atoms: C5_5  and  O1_6 
REMARK    5  A    between atoms: C5_5  and  C6_8 
REMARK    6  A    between atoms: C6_8  and  C7_9 
REMARK    7  A    between atoms: C8_10  and  C10_12 
REMARK    8  A    between atoms: C10_12  and  O2_13 
REMARK    9  A    between atoms: C10_12  and  C11_15 
REMARK   10  A    between atoms: C20_25  and  O4_26 
REMARK   11  A    between atoms: C22_29  and  O5_30 
ROOT
HETATM    1  C16 UNL     1      -1.892  -1.173  -0.002  1.00  0.00     0.099 C 
HETATM    2  C17 UNL     1      -1.761   0.330  -0.124  1.00  0.00     0.056 C 
HETATM    3  C18 UNL     1      -2.228   1.174   0.971  1.00  0.00    -0.011 C 
HETATM    4  C19 UNL     1      -1.106   1.369   1.979  1.00  0.00     0.018 C 
HETATM    5  C20 UNL     1      -2.503   2.570   0.396  1.00  0.00     0.129 C 
HETATM    6  C21 UNL     1      -3.600   2.540  -0.621  1.00  0.00     0.064 C 
HETATM    7  C22 UNL     1      -4.707   1.585  -0.313  1.00  0.00     0.121 C 
HETATM    8  C23 UNL     1      -4.751   1.192   1.126  1.00  0.00     0.037 C 
HETATM    9  C24 UNL     1      -3.462   0.671   1.676  1.00  0.00    -0.001 C 
HETATM   10  C25 UNL     1      -3.489  -0.793   1.825  1.00  0.00     0.014 C 
HETATM   11  C26 UNL     1      -3.161  -1.616   0.589  1.00  0.00     0.039 C 
HETATM   12  C27 UNL     1      -2.850  -2.988   1.195  1.00  0.00     0.089 C 
HETATM   13  C28 UNL     1      -3.491  -4.144   0.549  1.00  0.00     0.021 C 
HETATM   14  C29 UNL     1      -1.373  -2.978   1.206  1.00  0.00     0.264 C 
HETATM   15  O6  UNL     1      -0.608  -3.939   1.481  1.00  0.00    -0.265 OA
HETATM   16  O7  UNL     1      -0.935  -1.711   0.859  1.00  0.00    -0.305 OA
ENDROOT
BRANCH   1  17
HETATM   17  C2  UNL     1      -1.591  -1.642  -1.399  1.00  0.00    -0.048 C 
HETATM   18  C1  UNL     1      -2.610  -2.141  -2.091  1.00  0.00     0.018 C 
BRANCH  17  19
HETATM   19  C3  UNL     1      -0.324  -1.495  -2.111  1.00  0.00     0.042 C 
HETATM   20  C4  UNL     1      -0.518  -1.645  -3.643  1.00  0.00     0.017 C 
BRANCH  19  21
HETATM   21  C5  UNL     1       0.897  -2.223  -1.780  1.00  0.00     0.129 C 
BRANCH  21  22
HETATM   22  O1  UNL     1       0.677  -3.627  -1.840  1.00  0.00    -0.395 OA
ATOM     23  H1  UNL     1       1.472  -4.101  -1.625  1.00  0.00     0.210 HD
ENDBRANCH  21  22
BRANCH  21  24
HETATM   24  C6  UNL     1       1.800  -1.840  -0.688  1.00  0.00     0.059 C 
BRANCH  24  25
HETATM   25  C7  UNL     1       2.342  -0.459  -0.807  1.00  0.00    -0.019 C 
HETATM   26  C8  UNL     1       3.628  -0.173  -0.894  1.00  0.00    -0.059 C 
HETATM   27  C9  UNL     1       4.688  -1.222  -0.882  1.00  0.00     0.046 C 
BRANCH  26  28
HETATM   28  C10 UNL     1       4.021   1.266  -1.005  1.00  0.00     0.150 C 
BRANCH  28  29
HETATM   29  O2  UNL     1       4.677   1.436  -2.199  1.00  0.00    -0.391 OA
ATOM     30  H2  UNL     1       4.927   2.350  -2.269  1.00  0.00     0.210 HD
ENDBRANCH  28  29
BRANCH  28  31
HETATM   31  C11 UNL     1       4.901   1.555   0.194  1.00  0.00     0.023 C 
HETATM   32  C12 UNL     1       4.126   1.296   1.486  1.00  0.00     0.034 C 
HETATM   33  C13 UNL     1       5.018   1.640   2.638  1.00  0.00     0.168 C 
HETATM   34  O3  UNL     1       6.246   2.166   2.238  1.00  0.00    -0.391 OA
HETATM   35  C14 UNL     1       6.104   3.293   1.462  1.00  0.00     0.168 C 
HETATM   36  C15 UNL     1       5.304   3.005   0.212  1.00  0.00     0.034 C 
ENDBRANCH  28  31
ENDBRANCH  26  28
ENDBRANCH  24  25
ENDBRANCH  21  24
ENDBRANCH  19  21
ENDBRANCH  17  19
ENDBRANCH   1  17
BRANCH   5  37
HETATM   37  O4  UNL     1      -2.806   3.474   1.391  1.00  0.00    -0.395 OA
ATOM     38  H4  UNL     1      -2.976   4.338   1.035  1.00  0.00     0.210 HD
ENDBRANCH   5  37
BRANCH   7  39
HETATM   39  O5  UNL     1      -5.932   2.232  -0.599  1.00  0.00    -0.395 OA
ATOM     40  H5  UNL     1      -6.636   1.625  -0.403  1.00  0.00     0.210 HD
ENDBRANCH   7  39
TORSDOF 11
