REMARK  11 active torsions:
REMARK  status: ('A' for Active; 'I' for Inactive)
REMARK    1  A    between atoms: C2_2  and  C4_4 
REMARK    2  A    between atoms: C7_9  and  O1_10 
REMARK    3  A    between atoms: C13_17  and  O2_18 
REMARK    4  A    between atoms: C14_20  and  C15_21 
REMARK    5  A    between atoms: C19_25  and  O3_26 
REMARK    6  A    between atoms: C23_31  and  O4_32 
REMARK    7  A    between atoms: O4_32  and  C24_33 
REMARK    8  A    between atoms: C24_33  and  C25_35 
REMARK    9  A    between atoms: C25_35  and  C26_36 
REMARK   10  A    between atoms: C26_36  and  C27_37 
REMARK   11  A    between atoms: C27_37  and  C28_38 
ROOT
HETATM    1  C4  UNL     1      -2.686  -1.933  -1.547  1.00  0.00     0.016 C 
HETATM    2  N1  UNL     1      -2.020  -2.397  -2.503  1.00  0.00    -0.393 N 
ATOM      3  H1  UNL     1      -2.491  -3.018  -3.161  1.00  0.00     0.159 HD
HETATM    4  C5  UNL     1      -0.656  -2.109  -2.720  1.00  0.00     0.127 C 
HETATM    5  C6  UNL     1      -0.494  -0.614  -2.388  1.00  0.00     0.039 C 
HETATM    6  C7  UNL     1       0.855  -0.206  -2.845  1.00  0.00     0.125 C 
HETATM    7  C8  UNL     1       1.949  -0.293  -1.816  1.00  0.00     0.042 C 
HETATM    8  C9  UNL     1       1.542   0.210  -0.501  1.00  0.00    -0.031 C 
HETATM    9  C10 UNL     1       1.017   1.642  -0.657  1.00  0.00     0.016 C 
HETATM   10  C11 UNL     1       0.373  -0.724  -0.111  1.00  0.00     0.004 C 
HETATM   11  C12 UNL     1       0.304  -0.500   1.341  1.00  0.00     0.038 C 
HETATM   12  C13 UNL     1       1.776  -0.788   1.710  1.00  0.00     0.124 C 
HETATM   13  C14 UNL     1       2.440   0.087   0.641  1.00  0.00     0.031 C 
HETATM   14  C22 UNL     1      -0.803  -0.366  -0.945  1.00  0.00     0.034 C 
HETATM   15  C23 UNL     1      -2.074  -1.040  -0.557  1.00  0.00     0.182 C 
ENDROOT
BRANCH  13  16
HETATM   16  C15 UNL     1       3.888  -0.164   0.486  1.00  0.00    -0.037 C 
HETATM   17  C16 UNL     1       4.347  -1.367  -0.204  1.00  0.00     0.015 C 
HETATM   18  C17 UNL     1       4.632   1.048  -0.035  1.00  0.00     0.012 C 
HETATM   19  C18 UNL     1       4.861   2.087   1.037  1.00  0.00     0.032 C 
HETATM   20  C19 UNL     1       6.003   1.626   1.899  1.00  0.00     0.118 C 
HETATM   21  C20 UNL     1       5.861   0.106   2.029  1.00  0.00     0.032 C 
HETATM   22  C21 UNL     1       4.400  -0.282   1.945  1.00  0.00     0.012 C 
BRANCH  20  23
HETATM   23  O3  UNL     1       7.238   1.934   1.287  1.00  0.00    -0.396 OA
ATOM     24  H3  UNL     1       7.960   1.643   1.832  1.00  0.00     0.210 HD
ENDBRANCH  20  23
ENDBRANCH  13  16
BRANCH  12  25
HETATM   25  O2  UNL     1       1.959  -2.125   1.523  1.00  0.00    -0.395 OA
ATOM     26  H2  UNL     1       2.864  -2.302   1.750  1.00  0.00     0.210 HD
ENDBRANCH  12  25
BRANCH   6  27
HETATM   27  O1  UNL     1       1.263  -1.051  -3.905  1.00  0.00    -0.395 OA
ATOM     28  H1  UNL     1       2.128  -0.789  -4.198  1.00  0.00     0.210 HD
ENDBRANCH   6  27
BRANCH  15  29
HETATM   29  O4  UNL     1      -3.005  -0.174   0.060  1.00  0.00    -0.310 OA
BRANCH  29  30
HETATM   30  C24 UNL     1      -3.502  -0.246   1.320  1.00  0.00     0.259 C 
HETATM   31  O5  UNL     1      -3.135  -1.170   2.050  1.00  0.00    -0.265 OA
BRANCH  30  32
HETATM   32  C25 UNL     1      -4.479   0.776   1.817  1.00  0.00     0.111 C 
BRANCH  32  33
HETATM   33  C26 UNL     1      -4.722   1.869   0.838  1.00  0.00     0.020 C 
BRANCH  33  34
HETATM   34  C27 UNL     1      -5.695   2.898   1.304  1.00  0.00     0.113 C 
BRANCH  34  35
HETATM   35  C28 UNL     1      -5.309   3.640   2.504  1.00  0.00     0.172 C 
HETATM   36  O6  UNL     1      -4.223   3.496   3.096  1.00  0.00    -0.648 OA
HETATM   37  O7  UNL     1      -6.207   4.564   3.020  1.00  0.00    -0.648 OA
ENDBRANCH  34  35
ENDBRANCH  33  34
ENDBRANCH  32  33
ENDBRANCH  30  32
ENDBRANCH  29  30
ENDBRANCH  15  29
BRANCH   1  38
HETATM   38  C2  UNL     1      -4.127  -2.360  -1.494  1.00  0.00     0.025 C 
HETATM   39  C1  UNL     1      -4.438  -3.356  -2.624  1.00  0.00     0.016 C 
HETATM   40  C3  UNL     1      -5.060  -1.194  -1.742  1.00  0.00     0.016 C 
ENDBRANCH   1  38
TORSDOF 11
