REMARK  11 active torsions:
REMARK  status: ('A' for Active; 'I' for Inactive)
REMARK    1  A    between atoms: C2_2  and  C3_4 
REMARK    2  A    between atoms: C3_4  and  O2_5 
REMARK    3  A    between atoms: O2_5  and  C4_6 
REMARK    4  A    between atoms: C12_16  and  C13_17 
REMARK    5  A    between atoms: C13_17  and  C15_19 
REMARK    6  A    between atoms: C15_19  and  C16_20 
REMARK    7  A    between atoms: C16_20  and  C17_21 
REMARK    8  A    between atoms: C17_21  and  S1_22 
REMARK    9  A    between atoms: S1_22  and  N2_25 
REMARK   10  A    between atoms: N2_25  and  O6_27 
REMARK   11  A    between atoms: C19_30  and  O7_31 
ROOT
HETATM    1  C3  UNL     1      -4.449   0.817   0.051  1.00  0.00     0.139 C 
HETATM    2  C5  UNL     1      -3.482   1.534   0.927  1.00  0.00     0.048 C 
HETATM    3  C6  UNL     1      -2.908   0.359   1.698  1.00  0.00     0.009 C 
HETATM    4  C7  UNL     1      -2.766  -0.783   0.719  1.00  0.00     0.002 C 
HETATM    5  C8  UNL     1      -1.389  -1.180   0.420  1.00  0.00    -0.005 C 
HETATM    6  C9  UNL     1      -0.403  -0.665   1.485  1.00  0.00     0.006 C 
HETATM    7  C10 UNL     1       0.937  -1.398   1.349  1.00  0.00     0.006 C 
HETATM    8  C11 UNL     1       1.416  -1.432  -0.052  1.00  0.00    -0.003 C 
HETATM    9  C12 UNL     1       2.802  -0.784  -0.242  1.00  0.00    -0.004 C 
HETATM   10  C18 UNL     1       2.739  -0.725  -1.799  1.00  0.00     0.037 C 
HETATM   11  C19 UNL     1       1.315  -0.416  -2.148  1.00  0.00     0.123 C 
HETATM   12  C20 UNL     1       0.607  -0.390  -0.837  1.00  0.00     0.023 C 
HETATM   13  C21 UNL     1      -0.823  -0.865  -0.914  1.00  0.00    -0.003 C 
HETATM   14  C22 UNL     1      -1.577   0.171  -1.693  1.00  0.00     0.006 C 
HETATM   15  C23 UNL     1      -3.009  -0.286  -1.727  1.00  0.00     0.013 C 
HETATM   16  C24 UNL     1      -3.666  -0.413  -0.424  1.00  0.00    -0.001 C 
HETATM   17  C25 UNL     1      -4.763  -1.485  -0.640  1.00  0.00     0.019 C 
ENDROOT
BRANCH   9  18
HETATM   18  C13 UNL     1       3.885  -1.643   0.207  1.00  0.00    -0.014 C 
HETATM   19  C14 UNL     1       4.006  -2.957  -0.560  1.00  0.00     0.010 C 
BRANCH  18  20
HETATM   20  C15 UNL     1       5.208  -1.082   0.496  1.00  0.00     0.005 C 
BRANCH  20  21
HETATM   21  C16 UNL     1       5.384  -0.119   1.586  1.00  0.00     0.017 C 
BRANCH  21  22
HETATM   22  C17 UNL     1       4.799   1.219   1.618  1.00  0.00     0.165 C 
BRANCH  22  23
HETATM   23  S1  UNL     1       5.374   2.296   0.357  1.00  0.00     0.248 S 
HETATM   24  O4  UNL     1       5.263   1.741  -0.993  1.00  0.00    -0.204 OA
HETATM   25  O5  UNL     1       4.568   3.775   0.550  1.00  0.00    -0.204 OA
BRANCH  23  26
HETATM   26  N2  UNL     1       6.906   2.625   0.619  1.00  0.00    -0.194 N 
ATOM     27  H2  UNL     1       7.159   3.320   1.322  1.00  0.00     0.207 HD
BRANCH  26  28
HETATM   28  O6  UNL     1       7.900   1.981  -0.094  1.00  0.00    -0.280 OA
ATOM     29  H6  UNL     1       8.816   2.178   0.063  1.00  0.00     0.245 HD
ENDBRANCH  26  28
ENDBRANCH  23  26
ENDBRANCH  22  23
ENDBRANCH  21  22
ENDBRANCH  20  21
ENDBRANCH  18  20
ENDBRANCH   9  18
BRANCH  11  30
HETATM   30  O7  UNL     1       1.312   0.874  -2.725  1.00  0.00    -0.395 OA
ATOM     31  H7  UNL     1       0.409   1.070  -2.946  1.00  0.00     0.210 HD
ENDBRANCH  11  30
BRANCH   1  32
HETATM   32  C2  UNL     1      -5.093   1.599  -0.985  1.00  0.00     0.159 C 
HETATM   33  C1  UNL     1      -4.495   2.558  -1.935  1.00  0.00     0.094 C 
HETATM   34  O1  UNL     1      -6.331   1.470  -1.115  1.00  0.00    -0.295 OA
ENDBRANCH   1  32
BRANCH   1  35
HETATM   35  O2  UNL     1      -5.453   0.249   0.940  1.00  0.00    -0.286 OA
BRANCH  35  36
HETATM   36  C4  UNL     1      -6.333   0.972   1.673  1.00  0.00     0.373 C 
HETATM   37  N1  UNL     1      -7.272   0.294   2.510  1.00  0.00    -0.032 NA
HETATM   38  O3  UNL     1      -6.317   2.228   1.611  1.00  0.00    -0.242 OA
ENDBRANCH  35  36
ENDBRANCH   1  35
TORSDOF 11
