REMARK  11 active torsions:
REMARK  status: ('A' for Active; 'I' for Inactive)
REMARK    1  A    between atoms: C2_2  and  O1_3 
REMARK    2  A    between atoms: O1_3  and  C3_4 
REMARK       I    between atoms: C3_4  and  N1_6 
REMARK    3  A    between atoms: N1_6  and  C4_7 
REMARK    4  A    between atoms: C4_7  and  C5_8 
REMARK    5  A    between atoms: C5_8  and  C6_9 
REMARK    6  A    between atoms: C6_9  and  C7_10 
REMARK    7  A    between atoms: C7_10  and  N2_11 
REMARK    8  A    between atoms: C7_10  and  S1_15 
REMARK    9  A    between atoms: S1_15  and  C8_16 
REMARK   10  A    between atoms: C10_20  and  N4_21 
REMARK       I    between atoms: N4_21  and  C11_23 
REMARK       I    between atoms: C11_23  and  N5_25 
REMARK   11  A    between atoms: N5_25  and  C12_27 
ROOT
HETATM    1  C8  UNL     1       0.607   1.882  -0.354  1.00  0.00     0.062 A 
HETATM    2  C9  UNL     1       1.673   2.460  -0.407  1.00  0.00     0.116 A 
HETATM    3  N3  UNL     1       2.904   2.005  -0.564  1.00  0.00    -0.345 N 
ATOM      4  H3  UNL     1       3.755   2.568  -0.581  1.00  0.00     0.167 HD
HETATM    5  C10 UNL     1       2.830   0.561  -0.708  1.00  0.00     0.153 A 
HETATM    6  S3  UNL     1       1.185   0.195  -0.585  1.00  0.00    -0.045 SA
ENDROOT
BRANCH   5   7
HETATM    7  N4  UNL     1       3.957  -0.012  -0.837  1.00  0.00    -0.288 N 
HETATM    8  C11 UNL     1       3.880  -1.505  -0.979  1.00  0.00     0.328 C 
HETATM    9  O3  UNL     1       2.825  -1.911  -1.369  1.00  0.00    -0.247 OA
HETATM   10  N5  UNL     1       5.029  -2.202  -0.650  1.00  0.00    -0.288 N 
ATOM     11  H5  UNL     1       4.867  -3.209  -0.671  1.00  0.00     0.172 HD
ATOM     12  H4  UNL     1       4.840   0.499  -0.844  1.00  0.00     0.172 HD
BRANCH  10  13
HETATM   13  C12 UNL     1       6.220  -1.941  -0.332  1.00  0.00     0.153 A 
HETATM   14  N6  UNL     1       6.674  -0.589  -0.246  1.00  0.00    -0.335 N 
HETATM   15  C13 UNL     1       7.992  -0.531  -0.035  1.00  0.00     0.052 A 
ATOM     16  H6  UNL     1       6.069   0.228  -0.334  1.00  0.00     0.168 HD
HETATM   17  C14 UNL     1       8.653   0.769   0.008  1.00  0.00     0.031 A 
HETATM   18  C18 UNL     1       8.809  -1.547   0.076  1.00  0.00     0.052 A 
HETATM   19  C15 UNL     1       9.962   0.952   0.145  1.00  0.00     0.004 A 
HETATM   20  C16 UNL     1      10.829  -0.176   0.269  1.00  0.00     0.020 A 
HETATM   21  C17 UNL     1      10.159  -1.366   0.215  1.00  0.00     0.030 A 
HETATM   22 BR1  UNL     1      11.152  -3.029   0.412  1.00  0.00    -0.050 Br
HETATM   23  S2  UNL     1       7.656  -2.843  -0.110  1.00  0.00    -0.050 SA
ENDBRANCH  10  13
ENDBRANCH   5   7
BRANCH   1  24
HETATM   24  S1  UNL     1      -1.060   2.452  -0.173  1.00  0.00    -0.088 SA
BRANCH  24  25
HETATM   25  C7  UNL     1      -2.308   1.321  -0.083  1.00  0.00     0.250 C 
BRANCH  25  26
HETATM   26  C6  UNL     1      -2.757   0.473  -1.292  1.00  0.00     0.046 C 
BRANCH  26  27
HETATM   27  C5  UNL     1      -4.163   0.231  -1.025  1.00  0.00     0.036 C 
BRANCH  27  28
HETATM   28  C4  UNL     1      -5.053  -0.608  -1.821  1.00  0.00     0.224 C 
BRANCH  28  29
HETATM   29  N1  UNL     1      -6.386  -0.291  -1.317  1.00  0.00    -0.391 NA
HETATM   30  C3  UNL     1      -7.573   0.000  -0.873  1.00  0.00     0.434 C 
HETATM   31  O2  UNL     1      -8.425   0.901  -0.957  1.00  0.00    -0.221 OA
BRANCH  30  32
HETATM   32  O1  UNL     1      -8.076  -1.030   0.087  1.00  0.00    -0.293 OA
BRANCH  32  33
HETATM   33  C2  UNL     1      -9.361  -0.708   0.645  1.00  0.00     0.177 C 
HETATM   34  C1  UNL     1      -9.721  -1.558   1.792  1.00  0.00     0.034 C 
ENDBRANCH  32  33
ENDBRANCH  30  32
ENDBRANCH  28  29
ENDBRANCH  27  28
ENDBRANCH  26  27
ENDBRANCH  25  26
BRANCH  25  35
HETATM   35  N2  UNL     1      -2.386   0.524   1.102  1.00  0.00    -0.066 N 
ATOM     36  H23 UNL     1      -3.312   0.117   1.236  1.00  0.00     0.275 HD
ATOM     37  H22 UNL     1      -1.858  -0.345   1.020  1.00  0.00     0.275 HD
ATOM     38  H21 UNL     1      -2.089   1.084   1.901  1.00  0.00     0.275 HD
ENDBRANCH  25  35
ENDBRANCH  24  25
ENDBRANCH   1  24
TORSDOF 11
