REMARK  8 active torsions:
REMARK  status: ('A' for Active; 'I' for Inactive)
REMARK    1  A    between atoms: N2_9  and  C8_10 
REMARK    2  A    between atoms: C8_10  and  C9_11 
REMARK    3  A    between atoms: C10_12  and  C11_13 
REMARK       I    between atoms: C11_13  and  N3_15 
REMARK    4  A    between atoms: N3_15  and  C12_17 
REMARK    5  A    between atoms: C12_17  and  C13_18 
REMARK    6  A    between atoms: N4_21  and  C15_22 
REMARK    7  A    between atoms: C17_24  and  O2_25 
REMARK    8  A    between atoms: C18_27  and  C19_28 
ROOT
HETATM    1  C9  UNL     1       0.182   0.915   0.309  1.00  0.00     0.020 A 
HETATM    2  C10 UNL     1       1.096   1.803  -0.302  1.00  0.00     0.061 A 
HETATM    3  C14 UNL     1       2.215   1.092  -0.619  1.00  0.00     0.116 A 
HETATM    4  N4  UNL     1       2.073  -0.176  -0.252  1.00  0.00    -0.319 N 
HETATM    5  C20 UNL     1       0.838  -0.286   0.311  1.00  0.00     0.026 A 
HETATM    6  C21 UNL     1       0.371  -1.587   0.792  1.00  0.00     0.070 C 
ENDROOT
BRANCH   1   7
HETATM    7  C8  UNL     1      -1.153   1.339   0.740  1.00  0.00     0.117 C 
BRANCH   7   8
HETATM    8  N2  UNL     1      -2.046   0.441   1.341  1.00  0.00    -0.267 N 
HETATM    9  C6  UNL     1      -2.954  -0.325   0.547  1.00  0.00     0.054 A 
HETATM   10  C5  UNL     1      -3.868  -1.214   1.080  1.00  0.00     0.018 A 
HETATM   11  C7  UNL     1      -2.901  -0.122  -0.838  1.00  0.00     0.037 A 
HETATM   12  C4  UNL     1      -4.740  -1.918   0.288  1.00  0.00     0.057 A 
HETATM   13  C23 UNL     1      -3.921  -1.421   2.543  1.00  0.00     0.223 A 
HETATM   14  C3  UNL     1      -4.677  -1.709  -1.071  1.00  0.00     0.034 A 
HETATM   15  N1  UNL     1      -5.655  -2.818   0.886  1.00  0.00    -0.102 NA
HETATM   16  C2  UNL     1      -3.776  -0.829  -1.632  1.00  0.00    -0.058 A 
HETATM   17  C1  UNL     1      -3.724  -0.603  -3.100  1.00  0.00     0.048 C 
HETATM   18  O5  UNL     1      -3.027  -0.634   3.251  1.00  0.00    -0.299 OA
HETATM   19  C22 UNL     1      -2.110   0.257   2.752  1.00  0.00     0.371 A 
HETATM   20  O4  UNL     1      -1.342   0.899   3.496  1.00  0.00    -0.238 OA
ENDBRANCH   7   8
ENDBRANCH   1   7
BRANCH   2  21
HETATM   21  C11 UNL     1       0.895   3.236  -0.502  1.00  0.00     0.254 C 
HETATM   22  O1  UNL     1       1.019   3.710  -1.689  1.00  0.00    -0.268 OA
HETATM   23  N3  UNL     1       0.576   4.155   0.519  1.00  0.00    -0.356 N 
ATOM     24  H3  UNL     1       0.480   3.831   1.481  1.00  0.00     0.162 HD
BRANCH  23  25
HETATM   25  C12 UNL     1       0.385   5.546   0.211  1.00  0.00     0.134 C 
BRANCH  25  26
HETATM   26  C13 UNL     1       1.538   6.233  -0.432  1.00  0.00     0.104 C 
HETATM   27 BR1  UNL     1       3.124   6.150   0.678  1.00  0.00    -0.095 Br
ENDBRANCH  25  26
ENDBRANCH  23  25
ENDBRANCH   2  21
BRANCH   4  28
HETATM   28  C15 UNL     1       3.054  -1.219  -0.412  1.00  0.00     0.084 A 
HETATM   29  C16 UNL     1       2.939  -2.492  -0.846  1.00  0.00     0.075 A 
HETATM   30  C17 UNL     1       4.063  -3.249  -0.881  1.00  0.00     0.090 A 
HETATM   31  C18 UNL     1       5.224  -2.641  -0.469  1.00  0.00     0.105 A 
HETATM   32  S1  UNL     1       4.709  -1.070  -0.056  1.00  0.00    -0.064 SA
BRANCH  30  33
HETATM   33  O2  UNL     1       4.132  -4.606  -1.306  1.00  0.00    -0.359 OA
ATOM     34  H2  UNL     1       4.920  -5.137  -1.331  1.00  0.00     0.217 HD
ENDBRANCH  30  33
BRANCH  31  35
HETATM   35  C19 UNL     1       6.584  -3.225  -0.403  1.00  0.00     0.274 C 
HETATM   36  N5  UNL     1       7.621  -2.386   0.062  1.00  0.00    -0.057 NA
HETATM   37  O3  UNL     1       6.805  -4.397  -0.741  1.00  0.00    -0.270 OA
ENDBRANCH  31  35
ENDBRANCH   4  28
TORSDOF 8
