REMARK  8 active torsions:
REMARK  status: ('A' for Active; 'I' for Inactive)
REMARK    1  A    between atoms: O1_2  and  C2_3 
REMARK    2  A    between atoms: C3_4  and  O2_5 
REMARK    3  A    between atoms: C5_7  and  C6_8 
REMARK    4  A    between atoms: C10_13  and  O4_14 
REMARK    5  A    between atoms: C14_18  and  N1_19 
REMARK    6  A    between atoms: C17_26  and  N4_27 
REMARK    7  A    between atoms: N4_27  and  C18_29 
REMARK    8  A    between atoms: C21_32  and  O5_33 
ROOT
HETATM    1  C2  UNL     1      -4.092   0.212  -1.085  1.00  0.00     0.137 A 
HETATM    2  C3  UNL     1      -4.680  -0.732  -0.278  1.00  0.00     0.118 A 
HETATM    3  C5  UNL     1      -3.930  -1.349   0.695  1.00  0.00     0.053 A 
HETATM    4  C8  UNL     1      -2.607  -1.019   0.859  1.00  0.00    -0.027 A 
HETATM    5  C9  UNL     1      -2.044  -0.056   0.036  1.00  0.00     0.018 A 
HETATM    6  C10 UNL     1      -2.737   0.577  -0.951  1.00  0.00     0.116 A 
HETATM    7  C12 UNL     1      -0.690   0.494   0.160  1.00  0.00    -0.011 A 
HETATM    8  C13 UNL     1      -0.681   1.802  -0.211  1.00  0.00     0.045 A 
HETATM    9  C14 UNL     1       0.556   2.404  -0.417  1.00  0.00     0.076 A 
HETATM   10  C16 UNL     1       1.730   1.674  -0.248  1.00  0.00     0.170 A 
HETATM   11  F1  UNL     1       2.897   2.311  -0.467  1.00  0.00    -0.201 F 
HETATM   12  C17 UNL     1       1.685   0.326   0.139  1.00  0.00     0.078 A 
HETATM   13  C23 UNL     1       0.476  -0.262   0.361  1.00  0.00    -0.013 A 
HETATM   14  C24 UNL     1       0.574  -1.511   1.180  1.00  0.00     0.022 C 
HETATM   15  C25 UNL     1       1.720  -1.271   2.208  1.00  0.00     0.015 C 
HETATM   16  C26 UNL     1      -0.566  -1.551   2.202  1.00  0.00    -0.006 C 
HETATM   17  C27 UNL     1      -0.506  -0.292   3.090  1.00  0.00     0.011 C 
HETATM   18  C28 UNL     1      -1.909  -1.889   1.836  1.00  0.00     0.045 C 
ENDROOT
BRANCH  12  19
HETATM   19  N4  UNL     1       2.864  -0.483   0.065  1.00  0.00    -0.360 N 
ATOM     20  H4  UNL     1       2.708  -1.489   0.126  1.00  0.00     0.161 HD
BRANCH  19  21
HETATM   21  C18 UNL     1       4.225  -0.085  -0.082  1.00  0.00     0.284 C 
HETATM   22  C19 UNL     1       4.672   0.163  -1.500  1.00  0.00     0.057 C 
HETATM   23  C20 UNL     1       5.544  -0.977  -2.013  1.00  0.00     0.037 C 
HETATM   24  C21 UNL     1       6.792  -1.157  -1.203  1.00  0.00     0.144 C 
HETATM   25  C22 UNL     1       6.468  -0.828   0.256  1.00  0.00     0.266 C 
HETATM   26  N5  UNL     1       5.070  -1.171   0.433  1.00  0.00    -0.052 N 
ATOM     27  H52 UNL     1       4.851  -1.402   1.402  1.00  0.00     0.279 HD
ATOM     28  H51 UNL     1       4.839  -2.071   0.012  1.00  0.00     0.279 HD
BRANCH  24  29
HETATM   29  O5  UNL     1       7.122  -2.515  -1.238  1.00  0.00    -0.394 OA
ATOM     30  H5  UNL     1       7.913  -2.629  -0.725  1.00  0.00     0.210 HD
ENDBRANCH  24  29
ENDBRANCH  19  21
ENDBRANCH  12  19
BRANCH   9  31
HETATM   31  N1  UNL     1       0.504   3.768  -0.762  1.00  0.00    -0.330 N 
HETATM   32  C15 UNL     1       1.050   4.714  -0.144  1.00  0.00     0.201 C 
HETATM   33  N2  UNL     1       0.871   6.037  -0.676  1.00  0.00    -0.066 NA
HETATM   34  N3  UNL     1       1.785   4.528   1.037  1.00  0.00    -0.066 NA
ATOM     35  H1  UNL     1      -0.030   4.011  -1.596  1.00  0.00     0.168 HD
ENDBRANCH   9  31
BRANCH   6  36
HETATM   36  O4  UNL     1      -2.233   1.511  -1.822  1.00  0.00    -0.352 OA
HETATM   37  C11 UNL     1      -1.764   1.134  -3.134  1.00  0.00     0.210 C 
ENDBRANCH   6  36
BRANCH   3  38
HETATM   38  C6  UNL     1      -4.481  -2.354   1.578  1.00  0.00     0.159 C 
HETATM   39  C7  UNL     1      -4.435  -3.773   1.203  1.00  0.00     0.097 C 
HETATM   40  O3  UNL     1      -4.994  -2.011   2.658  1.00  0.00    -0.293 OA
ENDBRANCH   3  38
BRANCH   1  41
HETATM   41  O1  UNL     1      -4.867   0.802  -2.040  1.00  0.00    -0.351 OA
HETATM   42  C1  UNL     1      -5.115   0.374  -3.342  1.00  0.00     0.210 C 
ENDBRANCH   1  41
BRANCH   2  43
HETATM   43  O2  UNL     1      -6.027  -1.083  -0.420  1.00  0.00    -0.352 OA
HETATM   44  C4  UNL     1      -7.059  -0.426   0.273  1.00  0.00     0.210 C 
ENDBRANCH   2  43
TORSDOF 8
