REMARK  12 active torsions:
REMARK  status: ('A' for Active; 'I' for Inactive)
REMARK    1  A    between atoms: C2_2  and  O1_3 
REMARK    2  A    between atoms: C2_2  and  C13_21 
REMARK    3  A    between atoms: O1_3  and  C3_4 
REMARK    4  A    between atoms: C3_4  and  C4_5 
REMARK    5  A    between atoms: C4_5  and  N1_6 
REMARK    6  A    between atoms: C6_8  and  O2_9 
REMARK    7  A    between atoms: O2_9  and  C7_10 
REMARK    8  A    between atoms: C10_14  and  O3_15 
REMARK    9  A    between atoms: C11_17  and  C12_18 
REMARK   10  A    between atoms: C12_18  and  O4_19 
REMARK   11  A    between atoms: C13_21  and  O5_22 
REMARK   12  A    between atoms: C23_33  and  O6_34 
ROOT
HETATM    1  C13 UNL     1      -1.137  -1.516   1.129  1.00  0.00     0.084 C 
HETATM    2  C14 UNL     1      -1.311  -0.051   1.363  1.00  0.00     0.041 C 
HETATM    3  C15 UNL     1      -2.739   0.139   1.892  1.00  0.00     0.013 C 
HETATM    4  C16 UNL     1      -3.773  -0.332   0.909  1.00  0.00    -0.033 C 
HETATM    5  C17 UNL     1      -4.552  -1.462   1.585  1.00  0.00     0.016 C 
HETATM    6  C18 UNL     1      -3.069  -0.930  -0.267  1.00  0.00    -0.003 C 
HETATM    7  C19 UNL     1      -4.011  -1.493  -1.309  1.00  0.00     0.006 C 
HETATM    8  C20 UNL     1      -4.859  -0.322  -1.800  1.00  0.00     0.006 C 
HETATM    9  C21 UNL     1      -5.625   0.188  -0.602  1.00  0.00    -0.003 C 
HETATM   10  C22 UNL     1      -6.660   1.223  -1.032  1.00  0.00     0.037 C 
HETATM   11  C23 UNL     1      -6.020   2.487  -1.519  1.00  0.00     0.118 C 
HETATM   12  C24 UNL     1      -5.038   2.982  -0.510  1.00  0.00     0.032 C 
HETATM   13  C25 UNL     1      -4.064   1.962  -0.023  1.00  0.00     0.012 C 
HETATM   14  C26 UNL     1      -4.728   0.724   0.475  1.00  0.00    -0.033 C 
HETATM   15  C27 UNL     1      -5.615   1.061   1.668  1.00  0.00     0.016 C 
HETATM   16  C28 UNL     1      -2.107  -2.025   0.112  1.00  0.00     0.045 C 
ENDROOT
BRANCH   1  17
HETATM   17  C2  UNL     1       0.278  -1.913   0.767  1.00  0.00     0.151 C 
HETATM   18  C1  UNL     1       0.273  -3.448   0.744  1.00  0.00     0.042 C 
BRANCH  17  19
HETATM   19  O1  UNL     1       1.166  -1.531   1.730  1.00  0.00    -0.382 OA
BRANCH  19  20
HETATM   20  C3  UNL     1       2.233  -0.769   1.292  1.00  0.00     0.198 C 
BRANCH  20  21
HETATM   21  C4  UNL     1       3.108  -1.458   0.294  1.00  0.00     0.299 C 
BRANCH  21  22
HETATM   22  N1  UNL     1       4.211  -0.648  -0.144  1.00  0.00     0.102 N 
HETATM   23  C5  UNL     1       5.205  -0.380   0.839  1.00  0.00     0.307 C 
HETATM   24  C6  UNL     1       6.223   0.435   0.030  1.00  0.00     0.183 C 
HETATM   25  C10 UNL     1       6.129  -0.235  -1.325  1.00  0.00     0.184 C 
HETATM   26  C11 UNL     1       4.936  -1.164  -1.255  1.00  0.00     0.277 C 
BRANCH  24  27
HETATM   27  O2  UNL     1       5.756   1.732   0.011  1.00  0.00    -0.356 OA
BRANCH  27  28
HETATM   28  C7  UNL     1       6.635   2.674   0.458  1.00  0.00     0.130 C 
HETATM   29  C8  UNL     1       7.089   2.487   1.877  1.00  0.00     0.064 C 
HETATM   30  C9  UNL     1       5.926   4.026   0.399  1.00  0.00     0.064 C 
HETATM   31 CL1  UNL     1       7.994   2.764  -0.683  1.00  0.00    -0.089 Cl
ENDBRANCH  27  28
ENDBRANCH  24  27
BRANCH  25  32
HETATM   32  O3  UNL     1       5.938   0.740  -2.330  1.00  0.00    -0.391 OA
ATOM     33  H3  UNL     1       5.879   0.320  -3.180  1.00  0.00     0.210 HD
ENDBRANCH  25  32
BRANCH  26  34
HETATM   34  C12 UNL     1       5.400  -2.595  -0.989  1.00  0.00     0.202 C 
BRANCH  34  35
HETATM   35  O4  UNL     1       6.111  -3.071  -2.114  1.00  0.00    -0.399 OA
ATOM     36  H4  UNL     1       6.400  -3.961  -1.949  1.00  0.00     0.209 HD
ENDBRANCH  34  35
ENDBRANCH  26  34
ENDBRANCH  21  22
ENDBRANCH  20  21
ENDBRANCH  19  20
ENDBRANCH  17  19
ENDBRANCH   1  17
BRANCH   1  37
HETATM   37  O5  UNL     1      -1.426  -2.168   2.347  1.00  0.00    -0.387 OA
ATOM     38  H5  UNL     1      -2.314  -1.919   2.574  1.00  0.00     0.210 HD
ENDBRANCH   1  37
BRANCH  11  39
HETATM   39  O6  UNL     1      -5.512   2.396  -2.804  1.00  0.00    -0.396 OA
ATOM     40  H6  UNL     1      -5.106   3.198  -3.113  1.00  0.00     0.210 HD
ENDBRANCH  11  39
TORSDOF 12
