REMARK  10 active torsions:
REMARK  status: ('A' for Active; 'I' for Inactive)
REMARK    1  A    between atoms: C2_2  and  C3_3 
REMARK    2  A    between atoms: C3_3  and  N1_4 
REMARK    3  A    between atoms: C3_3  and  C13_23 
REMARK    4  A    between atoms: N1_4  and  C4_6 
REMARK    5  A    between atoms: C5_9  and  N3_10 
REMARK    6  A    between atoms: N3_10  and  N4_12 
REMARK    7  A    between atoms: C14_26  and  S1_27 
REMARK    8  A    between atoms: C16_31  and  C17_32 
REMARK    9  A    between atoms: C17_32  and  O2_34 
REMARK   10  A    between atoms: O2_34  and  C18_35 
ROOT
HETATM    1  C13 UNL     1      -1.676  -3.337  -0.440  1.00  0.00     0.067 A 
HETATM    2  N6  UNL     1      -1.823  -4.683  -0.579  1.00  0.00    -0.336 N 
ATOM      3  H6  UNL     1      -1.059  -5.356  -0.634  1.00  0.00     0.168 HD
HETATM    4  C14 UNL     1      -3.139  -4.989  -0.633  1.00  0.00     0.144 A 
HETATM    5  N7  UNL     1      -3.814  -3.839  -0.527  1.00  0.00    -0.330 N 
ATOM      6  H7  UNL     1      -4.830  -3.748  -0.535  1.00  0.00     0.168 HD
HETATM    7  C16 UNL     1      -2.923  -2.798  -0.405  1.00  0.00     0.135 A 
ENDROOT
BRANCH   1   8
HETATM    8  C3  UNL     1      -0.389  -2.663  -0.349  1.00  0.00     0.135 C 
BRANCH   8   9
HETATM    9  C2  UNL     1       0.720  -3.724  -0.525  1.00  0.00     0.027 C 
HETATM   10  C1  UNL     1       0.729  -4.248  -1.952  1.00  0.00     0.007 C 
ENDBRANCH   8   9
BRANCH   8  11
HETATM   11  N1  UNL     1      -0.097  -1.649  -1.281  1.00  0.00    -0.364 N 
ATOM     12  H1  UNL     1      -0.627  -1.627  -2.152  1.00  0.00     0.162 HD
BRANCH  11  13
HETATM   13  C4  UNL     1       0.796  -0.754  -1.094  1.00  0.00     0.141 A 
HETATM   14  N2  UNL     1       1.579  -0.626  -0.019  1.00  0.00    -0.174 N 
HETATM   15  C5  UNL     1       2.528   0.341   0.123  1.00  0.00     0.698 A 
ATOM     16  H2  UNL     1       1.459  -1.294   0.743  1.00  0.00     0.186 HD
HETATM   17  N5  UNL     1       2.745   1.252  -0.830  1.00  0.00    -0.199 N 
HETATM   18  C11 UNL     1       1.989   1.173  -1.931  1.00  0.00     0.134 A 
ATOM     19  H5  UNL     1       3.456   1.976  -0.723  1.00  0.00     0.183 HD
HETATM   20  C12 UNL     1       1.027   0.210  -2.100  1.00  0.00     0.094 A 
HETATM   21 CL1  UNL     1       0.041   0.106  -3.537  1.00  0.00    -0.079 Cl
BRANCH  15  22
HETATM   22  N3  UNL     1       3.237   0.389   1.195  1.00  0.00    -0.134 N 
ATOM     23  H3  UNL     1       3.082  -0.299   1.932  1.00  0.00     0.205 HD
BRANCH  22  24
HETATM   24  N4  UNL     1       4.216   1.370   1.363  1.00  0.00    -0.314 N 
HETATM   25  C6  UNL     1       5.593   1.210   0.976  1.00  0.00     0.143 C 
HETATM   26  C7  UNL     1       6.256   2.582   1.075  1.00  0.00     0.021 C 
HETATM   27  C8  UNL     1       6.186   3.110   2.476  1.00  0.00     0.003 C 
HETATM   28  C9  UNL     1       4.782   3.106   3.011  1.00  0.00     0.021 C 
HETATM   29  C10 UNL     1       3.807   2.617   1.963  1.00  0.00     0.143 C 
ENDBRANCH  22  24
ENDBRANCH  15  22
ENDBRANCH  11  13
ENDBRANCH   8  11
ENDBRANCH   1   8
BRANCH   7  30
HETATM   30  C17 UNL     1      -3.309  -1.420  -0.241  1.00  0.00     0.312 C 
HETATM   31  O1  UNL     1      -4.573  -1.178  -0.264  1.00  0.00    -0.258 OA
BRANCH  30  32
HETATM   32  O2  UNL     1      -2.530  -0.327  -0.062  1.00  0.00    -0.311 OA
BRANCH  32  33
HETATM   33  C18 UNL     1      -2.925   0.995   0.096  1.00  0.00     0.136 C 
HETATM   34  C19 UNL     1      -2.597   1.525   1.499  1.00  0.00     0.065 C 
HETATM   35  C20 UNL     1      -3.085   2.927   1.614  1.00  0.00     0.189 C 
HETATM   36  C21 UNL     1      -4.516   3.057   1.165  1.00  0.00     0.035 C 
HETATM   37  N8  UNL     1      -2.344   3.752   0.678  1.00  0.00    -0.067 N 
HETATM   38  C22 UNL     1      -4.393   3.347  -0.300  1.00  0.00     0.035 C 
HETATM   39  C23 UNL     1      -2.912   3.332  -0.594  1.00  0.00     0.189 C 
HETATM   40  C24 UNL     1      -2.435   1.933  -0.964  1.00  0.00     0.065 C 
ATOM     41  H82 UNL     1      -2.379   4.755   0.860  1.00  0.00     0.278 HD
ATOM     42  H81 UNL     1      -1.329   3.681   0.745  1.00  0.00     0.278 HD
ENDBRANCH  32  33
ENDBRANCH  30  32
ENDBRANCH   7  30
BRANCH   4  43
HETATM   43  S1  UNL     1      -3.872  -6.623  -0.813  1.00  0.00    -0.098 SA
HETATM   44  C15 UNL     1      -4.069  -6.952  -2.580  1.00  0.00     0.099 C 
ENDBRANCH   4  43
TORSDOF 10
