REMARK  10 active torsions:
REMARK  status: ('A' for Active; 'I' for Inactive)
REMARK    1  A    between atoms: C15_16  and  O2_17 
REMARK    2  A    between atoms: C15_16  and  C16_19 
REMARK    3  A    between atoms: C16_19  and  C17_20 
REMARK    4  A    between atoms: C16_19  and  C18_26 
REMARK    5  A    between atoms: C17_20  and  O3_21 
REMARK    6  A    between atoms: O3_21  and  S1_22 
REMARK    7  A    between atoms: C18_26  and  O7_27 
REMARK    8  A    between atoms: C18_26  and  C19_29 
REMARK    9  A    between atoms: C19_29  and  C20_30 
REMARK   10  A    between atoms: C24_35  and  O8_36 
ROOT
HETATM    1  C1  UNL     1      -5.080   0.175   0.900  1.00  0.00     0.018 C 
HETATM    2  C2  UNL     1      -4.179  -0.537  -0.113  1.00  0.00    -0.014 C 
HETATM    3  C3  UNL     1      -3.525   0.408  -1.055  1.00  0.00     0.012 C 
HETATM    4  C4  UNL     1      -2.258   1.024  -0.586  1.00  0.00     0.007 C 
HETATM    5  C5  UNL     1      -1.773   0.413   0.702  1.00  0.00    -0.001 C 
HETATM    6  C6  UNL     1      -1.841  -1.090   0.496  1.00  0.00    -0.005 C 
HETATM    7  C7  UNL     1      -0.954  -1.810   1.472  1.00  0.00     0.006 C 
HETATM    8  C8  UNL     1       0.466  -1.485   1.136  1.00  0.00     0.009 C 
HETATM    9  C9  UNL     1       0.634  -0.107   0.523  1.00  0.00     0.037 C 
HETATM   10  C10 UNL     1      -0.383   0.852   1.087  1.00  0.00    -0.033 C 
HETATM   11  C11 UNL     1      -0.337   0.962   2.578  1.00  0.00     0.016 C 
HETATM   12  C12 UNL     1      -0.103   2.229   0.555  1.00  0.00     0.017 C 
HETATM   13  C13 UNL     1       1.207   2.762   1.121  1.00  0.00     0.082 C 
HETATM   14  C14 UNL     1       2.093   1.616   1.468  1.00  0.00     0.162 C 
HETATM   15  O1  UNL     1       2.804   1.697   2.399  1.00  0.00    -0.295 OA
HETATM   16  C15 UNL     1       2.063   0.358   0.616  1.00  0.00     0.130 C 
HETATM   17  C21 UNL     1      -3.270  -1.508   0.548  1.00  0.00     0.001 C 
HETATM   18  C22 UNL     1      -3.500  -2.865  -0.071  1.00  0.00     0.008 C 
HETATM   19  C23 UNL     1      -4.304  -2.628  -1.323  1.00  0.00     0.033 C 
HETATM   20  C24 UNL     1      -5.126  -1.419  -0.942  1.00  0.00     0.126 C 
ENDROOT
BRANCH  16  21
HETATM   21  O2  UNL     1       2.878  -0.560   1.264  1.00  0.00    -0.381 OA
ATOM     22  H2  UNL     1       3.780  -0.267   1.323  1.00  0.00     0.211 HD
ENDBRANCH  16  21
BRANCH  16  23
HETATM   23  C16 UNL     1       2.687   0.699  -0.702  1.00  0.00     0.082 C 
BRANCH  23  24
HETATM   24  C17 UNL     1       4.132   1.146  -0.625  1.00  0.00     0.203 C 
BRANCH  24  25
HETATM   25  O3  UNL     1       4.338   2.275   0.120  1.00  0.00    -0.256 OA
BRANCH  25  26
HETATM   26  S1  UNL     1       5.970   2.628   0.102  1.00  0.00     0.251 S 
HETATM   27  O4  UNL     1       6.325   3.738   1.035  1.00  0.00    -0.572 OA
HETATM   28  O5  UNL     1       6.807   1.431   0.505  1.00  0.00    -0.572 OA
HETATM   29  O6  UNL     1       6.488   3.077  -1.443  1.00  0.00    -0.572 OA
ENDBRANCH  25  26
ENDBRANCH  24  25
ENDBRANCH  23  24
BRANCH  23  30
HETATM   30  C18 UNL     1       2.409  -0.088  -1.895  1.00  0.00     0.128 C 
BRANCH  30  31
HETATM   31  O7  UNL     1       3.152   0.495  -2.992  1.00  0.00    -0.395 OA
ATOM     32  H7  UNL     1       2.971  -0.018  -3.770  1.00  0.00     0.210 HD
ENDBRANCH  30  31
BRANCH  30  33
HETATM   33  C19 UNL     1       2.669  -1.527  -2.005  1.00  0.00     0.047 C 
BRANCH  33  34
HETATM   34  C20 UNL     1       4.102  -1.977  -1.817  1.00  0.00     0.117 C 
HETATM   35 CL1  UNL     1       4.211  -3.768  -2.038  1.00  0.00    -0.130 Cl
ENDBRANCH  33  34
ENDBRANCH  30  33
ENDBRANCH  23  30
ENDBRANCH  16  23
BRANCH  20  36
HETATM   36  O8  UNL     1      -5.533  -0.782  -2.092  1.00  0.00    -0.395 OA
ATOM     37  H8  UNL     1      -6.118  -1.327  -2.604  1.00  0.00     0.210 HD
ENDBRANCH  20  36
TORSDOF 10
