REMARK  8 active torsions:
REMARK  status: ('A' for Active; 'I' for Inactive)
REMARK    1  A    between atoms: C2_2  and  C3_3 
REMARK    2  A    between atoms: C3_3  and  C4_4 
REMARK    3  A    between atoms: C4_4  and  C5_5 
REMARK    4  A    between atoms: C5_5  and  C6_6 
REMARK    5  A    between atoms: C6_6  and  C7_7 
REMARK       I    between atoms: C7_7  and  N1_9 
REMARK    6  A    between atoms: N1_9  and  N2_11 
REMARK       I    between atoms: N2_11  and  C8_13 
REMARK    7  A    between atoms: C8_13  and  C9_15 
REMARK    8  A    between atoms: C19_30  and  C20_31 
ROOT
HETATM    1  C9  UNL     1       0.522   0.503   0.505  1.00  0.00     0.137 C 
HETATM    2  C10 UNL     1       1.078   1.790  -0.017  1.00  0.00     0.191 C 
HETATM    3  O3  UNL     1       2.063   1.599  -0.978  1.00  0.00    -0.330 OA
HETATM    4  C11 UNL     1       3.154   0.888  -0.457  1.00  0.00     0.309 C 
HETATM    5  O4  UNL     1       3.850   1.806   0.347  1.00  0.00    -0.326 OA
HETATM    6  C12 UNL     1       4.425   1.213   1.444  1.00  0.00     0.215 C 
HETATM    7  C13 UNL     1       5.583   0.352   1.137  1.00  0.00    -0.007 A 
HETATM    8  C14 UNL     1       6.402   0.164   2.225  1.00  0.00     0.012 A 
HETATM    9  C15 UNL     1       7.543  -0.606   2.169  1.00  0.00     0.002 A 
HETATM   10  C16 UNL     1       7.870  -1.208   0.969  1.00  0.00     0.021 A 
HETATM   11  C17 UNL     1       7.068  -1.037  -0.139  1.00  0.00     0.037 A 
HETATM   12 BR1  UNL     1       7.518  -1.866  -1.790  1.00  0.00    -0.049 Br
HETATM   13  C18 UNL     1       5.917  -0.249  -0.043  1.00  0.00     0.054 A 
HETATM   14  N3  UNL     1       5.207  -0.177  -1.269  1.00  0.00    -0.372 N 
ATOM     15  H3  UNL     1       5.614  -0.735  -2.020  1.00  0.00     0.160 HD
HETATM   16  C19 UNL     1       4.024   0.536  -1.645  1.00  0.00     0.214 C 
HETATM   17  O5  UNL     1       2.778  -0.172   0.316  1.00  0.00    -0.319 OA
HETATM   18  C21 UNL     1       1.485  -0.604   0.206  1.00  0.00     0.074 C 
HETATM   19  C22 UNL     1       1.250  -1.195  -1.163  1.00  0.00     0.047 C 
HETATM   20  C23 UNL     1       1.320  -1.743   1.225  1.00  0.00     0.047 C 
ENDROOT
BRANCH  16  21
HETATM   21  C20 UNL     1       4.341   1.832  -2.329  1.00  0.00     0.086 C 
HETATM   22  N4  UNL     1       5.283   2.558  -1.907  1.00  0.00    -0.409 N 
ATOM     23  H42 UNL     1       5.820   2.248  -1.097  1.00  0.00     0.155 HD
ATOM     24  H41 UNL     1       5.499   3.440  -2.372  1.00  0.00     0.155 HD
ENDBRANCH  16  21
BRANCH   1  25
HETATM   25  C8  UNL     1      -0.838   0.258  -0.005  1.00  0.00     0.245 C 
HETATM   26  N2  UNL     1      -1.662  -0.824   0.314  1.00  0.00    -0.267 N 
ATOM     27  H2  UNL     1      -1.310  -1.529   0.962  1.00  0.00     0.190 HD
HETATM   28  O2  UNL     1      -1.310   1.118  -0.818  1.00  0.00    -0.271 OA
BRANCH  26  29
HETATM   29  N1  UNL     1      -2.954  -0.986  -0.217  1.00  0.00    -0.268 N 
HETATM   30  C7  UNL     1      -3.974  -0.039  -0.005  1.00  0.00     0.236 C 
HETATM   31  O1  UNL     1      -3.804   1.018   0.674  1.00  0.00    -0.272 OA
ATOM     32  H1  UNL     1      -3.159  -1.816  -0.773  1.00  0.00     0.190 HD
BRANCH  30  33
HETATM   33  C6  UNL     1      -5.318  -0.250  -0.583  1.00  0.00     0.104 C 
BRANCH  33  34
HETATM   34  C5  UNL     1      -6.274   0.848  -0.246  1.00  0.00     0.010 C 
BRANCH  34  35
HETATM   35  C4  UNL     1      -7.641   0.640  -0.839  1.00  0.00     0.004 C 
BRANCH  35  36
HETATM   36  C3  UNL     1      -8.235  -0.649  -0.328  1.00  0.00     0.026 C 
BRANCH  36  37
HETATM   37  C2  UNL     1      -8.362  -0.641   1.147  1.00  0.00    -0.037 C 
HETATM   38  C1  UNL     1      -9.584  -0.775   1.692  1.00  0.00     0.007 C 
ENDBRANCH  36  37
ENDBRANCH  35  36
ENDBRANCH  34  35
ENDBRANCH  33  34
ENDBRANCH  30  33
ENDBRANCH  26  29
ENDBRANCH   1  25
TORSDOF 8
