REMARK  9 active torsions:
REMARK  status: ('A' for Active; 'I' for Inactive)
REMARK    1  A    between atoms: N1_1  and  C1_4 
REMARK    2  A    between atoms: C2_5  and  C3_6 
REMARK       I    between atoms: C3_6  and  N2_8 
REMARK    3  A    between atoms: N2_8  and  C4_10 
REMARK    4  A    between atoms: C4_10  and  C5_11 
REMARK    5  A    between atoms: N4_20  and  C11_21 
REMARK    6  A    between atoms: C11_21  and  C12_22 
REMARK    7  A    between atoms: C12_22  and  O2_23 
REMARK    8  A    between atoms: C14_26  and  N5_27 
REMARK    9  A    between atoms: C20_34  and  N6_35 
ROOT
HETATM    1  C1  UNL     1       1.505   1.350  -0.846  1.00  0.00     0.055 A 
HETATM    2  C2  UNL     1       2.199   0.170  -0.821  1.00  0.00     0.074 A 
HETATM    3  C10 UNL     1       1.482  -0.949  -0.640  1.00  0.00     0.116 A 
HETATM    4  N4  UNL     1       0.105  -1.051  -0.476  1.00  0.00    -0.331 N 
HETATM    5  C13 UNL     1      -0.591   0.087  -0.501  1.00  0.00     0.080 A 
HETATM    6  C14 UNL     1      -1.950   0.123  -0.297  1.00  0.00     0.085 A 
HETATM    7  C20 UNL     1      -2.572   1.396  -0.264  1.00  0.00     0.060 A 
HETATM    8  C26 UNL     1      -1.839   2.544  -0.446  1.00  0.00     0.033 A 
HETATM    9  C27 UNL     1      -0.517   2.526  -0.657  1.00  0.00     0.018 A 
HETATM   10  C28 UNL     1       0.142   1.316  -0.689  1.00  0.00     0.021 A 
ENDROOT
BRANCH   2  11
HETATM   11  C3  UNL     1       3.635   0.157  -0.982  1.00  0.00     0.255 C 
HETATM   12  O1  UNL     1       4.156   0.975  -1.767  1.00  0.00    -0.268 OA
HETATM   13  N2  UNL     1       4.402  -0.777  -0.252  1.00  0.00    -0.356 N 
ATOM     14  H2  UNL     1       3.940  -1.435   0.376  1.00  0.00     0.162 HD
BRANCH  13  15
HETATM   15  C4  UNL     1       5.835  -0.803  -0.393  1.00  0.00     0.127 C 
BRANCH  15  16
HETATM   16  C5  UNL     1       6.469   0.488   0.050  1.00  0.00     0.006 C 
HETATM   17  C6  UNL     1       6.132   0.742   1.507  1.00  0.00     0.034 C 
HETATM   18  C7  UNL     1       7.367   0.641   2.341  1.00  0.00     0.232 C 
HETATM   19  N3  UNL     1       7.955  -0.669   2.125  1.00  0.00    -0.075 N 
HETATM   20  C8  UNL     1       8.516  -0.753   0.787  1.00  0.00     0.232 C 
ATOM     21  H32 UNL     1       8.643  -0.901   2.842  1.00  0.00     0.277 HD
ATOM     22  H31 UNL     1       7.289  -1.420   2.307  1.00  0.00     0.277 HD
HETATM   23  C9  UNL     1       7.996   0.349  -0.103  1.00  0.00     0.034 C 
ENDBRANCH  15  16
ENDBRANCH  13  15
ENDBRANCH   2  11
BRANCH   1  24
HETATM   24  N1  UNL     1       2.121   2.446  -1.015  1.00  0.00    -0.397 N 
ATOM     25  H12 UNL     1       3.134   2.471  -1.132  1.00  0.00     0.156 HD
ATOM     26  H11 UNL     1       1.604   3.325  -1.034  1.00  0.00     0.156 HD
ENDBRANCH   1  24
BRANCH   4  27
HETATM   27  C11 UNL     1      -0.412  -2.336  -0.302  1.00  0.00     0.095 C 
BRANCH  27  28
HETATM   28  C12 UNL     1      -0.527  -3.326  -1.389  1.00  0.00     0.209 C 
BRANCH  28  29
HETATM   29  O2  UNL     1       0.720  -3.662  -1.975  1.00  0.00    -0.396 OA
ATOM     30  H2  UNL     1       0.646  -4.300  -2.675  1.00  0.00     0.209 HD
ENDBRANCH  28  29
ENDBRANCH  27  28
ENDBRANCH   4  27
BRANCH   6  31
HETATM   31  N5  UNL     1      -2.837  -0.961  -0.297  1.00  0.00    -0.376 N 
HETATM   32  C15 UNL     1      -3.364  -1.799   0.722  1.00  0.00     0.123 C 
HETATM   33  C16 UNL     1      -4.862  -2.023   0.675  1.00  0.00     0.021 C 
HETATM   34  C17 UNL     1      -5.130  -2.723  -0.638  1.00  0.00     0.023 C 
HETATM   35  C18 UNL     1      -4.811  -1.706  -1.673  1.00  0.00     0.100 C 
HETATM   36 CL1  UNL     1      -5.055  -2.553  -3.256  1.00  0.00    -0.123 Cl
HETATM   37  C19 UNL     1      -3.461  -1.126  -1.668  1.00  0.00     0.143 C 
ENDBRANCH   6  31
BRANCH   7  38
HETATM   38  N6  UNL     1      -3.941   1.658   0.105  1.00  0.00    -0.361 N 
HETATM   39  C21 UNL     1      -4.250   1.611   1.503  1.00  0.00     0.125 C 
HETATM   40  C22 UNL     1      -5.773   1.733   1.660  1.00  0.00     0.020 C 
HETATM   41  C23 UNL     1      -6.128   3.120   1.235  1.00  0.00     0.005 C 
HETATM   42  C24 UNL     1      -5.750   3.284  -0.189  1.00  0.00     0.041 C 
HETATM   43  C25 UNL     1      -4.985   2.067  -0.767  1.00  0.00     0.181 C 
HETATM   44 CL2  UNL     1      -4.362   2.736  -2.316  1.00  0.00    -0.102 Cl
ENDBRANCH   7  38
TORSDOF 9
