REMARK  9 active torsions:
REMARK  status: ('A' for Active; 'I' for Inactive)
REMARK    1  A    between atoms: C1_2  and  C2_4 
REMARK    2  A    between atoms: C8_10  and  C9_11 
REMARK    3  A    between atoms: C9_11  and  O2_12 
REMARK    4  A    between atoms: C11_15  and  N2_16 
REMARK       I    between atoms: N2_16  and  C12_18 
REMARK    5  A    between atoms: C12_18  and  C13_20 
REMARK    6  A    between atoms: C16_23  and  N3_24 
REMARK    7  A    between atoms: C17_26  and  N4_27 
REMARK    8  A    between atoms: C17_26  and  C18_32 
REMARK    9  A    between atoms: N4_27  and  N5_29 
ROOT
HETATM    1  C13 UNL     1       0.114  -0.970  -1.432  1.00  0.00     0.043 A 
HETATM    2  C14 UNL     1       0.644  -0.016  -2.275  1.00  0.00     0.020 A 
HETATM    3  C15 UNL     1       2.022   0.101  -2.436  1.00  0.00     0.031 A 
HETATM    4  C16 UNL     1       2.898  -0.736  -1.756  1.00  0.00     0.044 A 
HETATM    5  C23 UNL     1       2.361  -1.696  -0.912  1.00  0.00     0.002 A 
HETATM    6  C24 UNL     1       3.215  -2.550  -0.261  1.00  0.00     0.014 A 
HETATM    7  C25 UNL     1       2.754  -3.546   0.572  1.00  0.00     0.001 A 
HETATM    8  C26 UNL     1       1.380  -3.637   0.716  1.00  0.00     0.001 A 
HETATM    9  C27 UNL     1       0.506  -2.791   0.071  1.00  0.00     0.013 A 
HETATM   10  C28 UNL     1       0.978  -1.794  -0.765  1.00  0.00    -0.008 A 
ENDROOT
BRANCH   1  11
HETATM   11  C12 UNL     1      -1.362  -1.031  -1.205  1.00  0.00     0.252 C 
HETATM   12  N2  UNL     1      -1.931  -0.501  -0.063  1.00  0.00    -0.350 N 
ATOM     13  H2  UNL     1      -1.223  -0.079   0.538  1.00  0.00     0.163 HD
HETATM   14  O3  UNL     1      -1.967  -1.580  -2.118  1.00  0.00    -0.268 OA
BRANCH  12  15
HETATM   15  C11 UNL     1      -3.218  -0.379   0.507  1.00  0.00     0.112 C 
HETATM   16  C2  UNL     1      -4.423  -0.730  -0.305  1.00  0.00     0.060 C 
HETATM   17  C3  UNL     1      -4.790   0.184  -1.405  1.00  0.00     0.025 C 
HETATM   18  C29 UNL     1      -5.620  -0.622   0.711  1.00  0.00     0.025 C 
HETATM   19  C4  UNL     1      -4.927   1.605  -0.915  1.00  0.00    -0.012 C 
HETATM   20  C5  UNL     1      -6.131   1.677   0.007  1.00  0.00     0.009 C 
HETATM   21  C10 UNL     1      -3.682   1.966  -0.178  1.00  0.00     0.018 C 
HETATM   22  C6  UNL     1      -5.832   0.771   1.173  1.00  0.00    -0.012 C 
HETATM   23  C7  UNL     1      -4.605   1.183   1.932  1.00  0.00     0.018 C 
HETATM   24  C8  UNL     1      -3.404   1.014   0.998  1.00  0.00     0.003 C 
BRANCH  16  25
HETATM   25  C1  UNL     1      -4.537  -2.172  -0.665  1.00  0.00     0.242 C 
HETATM   26  N1  UNL     1      -4.028  -3.128   0.236  1.00  0.00    -0.061 NA
HETATM   27  O1  UNL     1      -5.071  -2.513  -1.730  1.00  0.00    -0.276 OA
ENDBRANCH  16  25
BRANCH  24  28
HETATM   28  C9  UNL     1      -2.250   1.625   1.740  1.00  0.00     0.175 C 
BRANCH  28  29
HETATM   29  O2  UNL     1      -2.661   2.981   1.954  1.00  0.00    -0.400 OA
ATOM     30  H2  UNL     1      -1.931   3.367   2.423  1.00  0.00     0.209 HD
ENDBRANCH  28  29
ENDBRANCH  24  28
ENDBRANCH  12  15
ENDBRANCH   1  11
BRANCH   4  31
HETATM   31  N3  UNL     1       4.271  -0.541  -1.963  1.00  0.00    -0.344 N 
HETATM   32  C17 UNL     1       5.145   0.022  -1.264  1.00  0.00     0.106 C 
ATOM     33  H3  UNL     1       4.621  -0.927  -2.840  1.00  0.00     0.167 HD
BRANCH  32  34
HETATM   34  N4  UNL     1       6.498   0.103  -1.685  1.00  0.00    -0.229 N 
ATOM     35  H4  UNL     1       7.228  -0.065  -0.993  1.00  0.00     0.194 HD
BRANCH  34  36
HETATM   36  N5  UNL     1       6.885   0.399  -2.991  1.00  0.00    -0.038 N 
HETATM   37  O4  UNL     1       7.057   1.581  -3.356  1.00  0.00    -0.516 OA
HETATM   38  O5  UNL     1       7.092  -0.593  -3.929  1.00  0.00    -0.516 OA
ENDBRANCH  34  36
ENDBRANCH  32  34
BRANCH  32  39
HETATM   39  C18 UNL     1       4.889   0.668   0.086  1.00  0.00     0.061 C 
HETATM   40  C19 UNL     1       5.637  -0.057   1.157  1.00  0.00     0.018 C 
HETATM   41  C20 UNL     1       6.048   0.982   2.153  1.00  0.00     0.080 C 
HETATM   42  C21 UNL     1       5.977   2.301   1.458  1.00  0.00     0.244 C 
HETATM   43  F1  UNL     1       5.180   3.166   2.204  1.00  0.00    -0.206 F 
HETATM   44  F2  UNL     1       7.227   2.925   1.402  1.00  0.00    -0.206 F 
HETATM   45  C22 UNL     1       5.440   2.063   0.083  1.00  0.00     0.091 C 
ENDBRANCH  32  39
ENDBRANCH   4  31
TORSDOF 9
