REMARK  9 active torsions:
REMARK  status: ('A' for Active; 'I' for Inactive)
REMARK    1  A    between atoms: C10_12  and  O1_13 
REMARK    2  A    between atoms: C12_16  and  O2_17 
REMARK    3  A    between atoms: O2_17  and  C13_18 
REMARK    4  A    between atoms: C13_18  and  C14_19 
REMARK    5  A    between atoms: C14_19  and  N1_20 
REMARK       I    between atoms: N1_20  and  C15_22 
REMARK    6  A    between atoms: C15_22  and  C16_24 
REMARK    7  A    between atoms: C20_28  and  O4_29 
REMARK    8  A    between atoms: C20_28  and  C21_31 
REMARK    9  A    between atoms: C21_31  and  C22_33 
ROOT
HETATM    1  C1  UNL     1      -6.221  -2.368   0.267  1.00  0.00     0.015 C 
HETATM    2  C2  UNL     1      -5.910  -1.038   0.978  1.00  0.00    -0.038 C 
HETATM    3  C3  UNL     1      -6.082  -1.357   2.444  1.00  0.00     0.015 C 
HETATM    4  C4  UNL     1      -6.891  -0.035   0.447  1.00  0.00     0.061 C 
HETATM    5  C5  UNL     1      -6.272   1.143  -0.194  1.00  0.00     0.031 C 
HETATM    6 CL1  UNL     1      -7.322   2.105  -1.250  1.00  0.00    -0.087 Cl
HETATM    7  C6  UNL     1      -5.025   1.543  -0.057  1.00  0.00     0.043 C 
HETATM    8 CL2  UNL     1      -4.406   2.953  -0.868  1.00  0.00    -0.086 Cl
HETATM    9  C7  UNL     1      -4.123   0.762   0.842  1.00  0.00     0.030 C 
HETATM   10  C8  UNL     1      -4.445   1.265   2.210  1.00  0.00     0.027 C 
HETATM   11  C9  UNL     1      -2.704   0.918   0.439  1.00  0.00    -0.004 A 
HETATM   12  C10 UNL     1      -1.746   1.567   1.180  1.00  0.00     0.076 A 
HETATM   13  C11 UNL     1      -0.428   1.684   0.737  1.00  0.00     0.073 A 
HETATM   14  C12 UNL     1      -0.036   1.146  -0.471  1.00  0.00     0.072 A 
HETATM   15  C23 UNL     1      -1.012   0.502  -1.194  1.00  0.00     0.044 A 
HETATM   16  C24 UNL     1      -2.326   0.375  -0.772  1.00  0.00    -0.045 A 
HETATM   17  C25 UNL     1      -3.307  -0.351  -1.614  1.00  0.00     0.040 C 
HETATM   18  C26 UNL     1      -4.355  -1.055  -0.847  1.00  0.00     0.011 C 
HETATM   19  C27 UNL     1      -4.487  -0.684   0.612  1.00  0.00     0.012 C 
ENDROOT
BRANCH  14  20
HETATM   20  O2  UNL     1       1.276   1.259  -0.918  1.00  0.00    -0.349 OA
BRANCH  20  21
HETATM   21  C13 UNL     1       1.619   0.700  -2.143  1.00  0.00     0.195 C 
BRANCH  21  22
HETATM   22  C14 UNL     1       3.022   0.832  -2.601  1.00  0.00     0.149 C 
BRANCH  22  23
HETATM   23  N1  UNL     1       3.965   0.236  -1.733  1.00  0.00    -0.359 N 
HETATM   24  C15 UNL     1       4.258   0.618  -0.431  1.00  0.00     0.225 C 
HETATM   25  O3  UNL     1       3.699   1.586   0.128  1.00  0.00    -0.273 OA
ATOM     26  H1  UNL     1       4.486  -0.559  -2.103  1.00  0.00     0.162 HD
BRANCH  24  27
HETATM   27  C16 UNL     1       5.272  -0.105   0.408  1.00  0.00     0.120 C 
HETATM   28  C17 UNL     1       4.808  -1.520   0.531  1.00  0.00     0.018 C 
HETATM   29  C18 UNL     1       5.974  -2.399   0.137  1.00  0.00     0.004 C 
HETATM   30  C19 UNL     1       6.888  -1.525  -0.685  1.00  0.00     0.047 C 
HETATM   31  C20 UNL     1       6.626  -0.093  -0.238  1.00  0.00     0.141 C 
BRANCH  31  32
HETATM   32  O4  UNL     1       6.681   0.727  -1.355  1.00  0.00    -0.381 OA
ATOM     33  H4  UNL     1       7.538   0.735  -1.764  1.00  0.00     0.211 HD
ENDBRANCH  31  32
BRANCH  31  34
HETATM   34  C21 UNL     1       7.636   0.336   0.763  1.00  0.00     0.259 C 
HETATM   35  O5  UNL     1       7.702  -0.321   1.838  1.00  0.00    -0.282 OA
BRANCH  34  36
HETATM   36  C22 UNL     1       8.509   1.459   0.519  1.00  0.00     0.250 C 
HETATM   37  O6  UNL     1       8.431   2.097  -0.546  1.00  0.00    -0.642 OA
HETATM   38  O7  UNL     1       9.432   1.826   1.472  1.00  0.00    -0.642 OA
ENDBRANCH  34  36
ENDBRANCH  31  34
ENDBRANCH  24  27
ENDBRANCH  22  23
ENDBRANCH  21  22
ENDBRANCH  20  21
ENDBRANCH  14  20
BRANCH  12  39
HETATM   39  O1  UNL     1      -2.018   2.140   2.398  1.00  0.00    -0.360 OA
ATOM     40  H1  UNL     1      -1.356   2.589   2.910  1.00  0.00     0.217 HD
ENDBRANCH  12  39
TORSDOF 9
