REMARK  11 active torsions:
REMARK  status: ('A' for Active; 'I' for Inactive)
REMARK    1  A    between atoms: C5_8  and  N2_9 
REMARK    2  A    between atoms: C7_13  and  N4_14 
REMARK    3  A    between atoms: C10_22  and  C11_23 
REMARK    4  A    between atoms: C11_23  and  S1_24 
REMARK    5  A    between atoms: S1_24  and  C12_25 
REMARK    6  A    between atoms: N6_29  and  C16_30 
REMARK    7  A    between atoms: C18_32  and  C19_33 
REMARK    8  A    between atoms: C19_33  and  O2_34 
REMARK    9  A    between atoms: O2_34  and  C20_35 
REMARK   10  A    between atoms: C20_35  and  C21_37 
REMARK   11  A    between atoms: C25_41  and  C26_42 
ROOT
HETATM    1  C1  UNL     1      -0.638   6.982  -2.282  1.00  0.00     0.012 C 
HETATM    2  C2  UNL     1      -1.287   6.272  -1.582  1.00  0.00    -0.111 C 
HETATM    3  C3  UNL     1      -2.051   5.405  -0.724  1.00  0.00     0.093 C 
HETATM    4  C4  UNL     1      -3.381   5.019  -1.356  1.00  0.00     0.252 C 
HETATM    5  N1  UNL     1      -3.607   3.645  -1.033  1.00  0.00    -0.053 N 
ATOM      6  H11 UNL     1      -3.593   3.039  -1.853  1.00  0.00     0.279 HD
ATOM      7  H12 UNL     1      -4.567   3.460  -0.744  1.00  0.00     0.279 HD
HETATM    8  C5  UNL     1      -2.625   3.254  -0.022  1.00  0.00     0.290 C 
HETATM    9  C27 UNL     1      -1.421   4.027  -0.574  1.00  0.00     0.073 C 
ENDROOT
BRANCH   8  10
HETATM   10  N2  UNL     1      -2.368   1.863   0.040  1.00  0.00    -0.311 N 
HETATM   11  C6  UNL     1      -3.349   0.930  -0.423  1.00  0.00     0.136 A 
HETATM   12  N3  UNL     1      -4.651   1.155  -0.271  1.00  0.00    -0.176 N 
HETATM   13  C9  UNL     1      -2.932  -0.252  -1.054  1.00  0.00     0.078 A 
HETATM   14  C7  UNL     1      -5.593   0.315  -0.690  1.00  0.00     0.680 A 
ATOM     15  H3  UNL     1      -4.942   2.017   0.191  1.00  0.00     0.186 HD
HETATM   16  N5  UNL     1      -5.203  -0.811  -1.293  1.00  0.00    -0.156 N 
HETATM   17  C8  UNL     1      -3.885  -1.126  -1.491  1.00  0.00     0.271 A 
ATOM     18  H5  UNL     1      -5.916  -1.463  -1.619  1.00  0.00     0.187 HD
HETATM   19  O1  UNL     1      -3.664  -2.226  -2.077  1.00  0.00    -0.267 OA
HETATM   20  C10 UNL     1      -1.498  -0.511  -1.223  1.00  0.00     0.138 C 
HETATM   21  N6  UNL     1      -0.642   0.279  -0.354  1.00  0.00    -0.349 N 
HETATM   22  C25 UNL     1      -1.130   1.279   0.581  1.00  0.00     0.256 C 
BRANCH  14  23
HETATM   23  N4  UNL     1      -6.845   0.597  -0.512  1.00  0.00    -0.234 N 
ATOM     24  H42 UNL     1      -7.143   1.457  -0.051  1.00  0.00     0.174 HD
ATOM     25  H41 UNL     1      -7.568  -0.047  -0.833  1.00  0.00     0.174 HD
ENDBRANCH  14  23
BRANCH  20  26
HETATM   26  C11 UNL     1      -1.104  -1.943  -1.330  1.00  0.00     0.105 C 
BRANCH  26  27
HETATM   27  S1  UNL     1      -1.567  -2.948   0.104  1.00  0.00    -0.158 SA
BRANCH  27  28
HETATM   28  C12 UNL     1      -1.031  -4.645  -0.108  1.00  0.00    -0.003 C 
HETATM   29  C13 UNL     1       0.482  -4.769  -0.114  1.00  0.00     0.026 C 
HETATM   30  C14 UNL     1      -1.579  -5.210  -1.419  1.00  0.00     0.026 C 
HETATM   31  C15 UNL     1      -1.556  -5.527   1.003  1.00  0.00     0.026 C 
ENDBRANCH  27  28
ENDBRANCH  26  27
ENDBRANCH  20  26
BRANCH  21  32
HETATM   32  C16 UNL     1       0.756   0.125  -0.430  1.00  0.00     0.004 C 
HETATM   33  C17 UNL     1       1.456   1.088  -1.363  1.00  0.00     0.068 C 
HETATM   34  C18 UNL     1       1.514  -0.728   0.192  1.00  0.00     0.024 C 
BRANCH  34  35
HETATM   35  C19 UNL     1       3.009  -0.762   0.000  1.00  0.00     0.208 C 
BRANCH  35  36
HETATM   36  O2  UNL     1       3.672  -0.536   1.217  1.00  0.00    -0.314 OA
BRANCH  36  37
HETATM   37  C20 UNL     1       5.066  -0.524   1.278  1.00  0.00     0.283 C 
HETATM   38  O3  UNL     1       5.659  -0.722   0.210  1.00  0.00    -0.260 OA
BRANCH  37  39
HETATM   39  C21 UNL     1       5.786  -0.298   2.502  1.00  0.00     0.084 C 
HETATM   40  C22 UNL     1       7.089  -0.279   2.604  1.00  0.00    -0.082 C 
HETATM   41  C23 UNL     1       7.936  -0.497   1.426  1.00  0.00     0.043 C 
HETATM   42  C24 UNL     1       7.724  -0.029   3.955  1.00  0.00     0.043 C 
ENDBRANCH  37  39
ENDBRANCH  36  37
ENDBRANCH  35  36
ENDBRANCH  34  35
ENDBRANCH  21  32
BRANCH  22  43
HETATM   43  C26 UNL     1      -1.452   0.794   1.945  1.00  0.00     0.395 C 
HETATM   44  F1  UNL     1      -0.395   0.227   2.584  1.00  0.00    -0.210 F 
HETATM   45  F2  UNL     1      -2.608   0.041   2.036  1.00  0.00    -0.210 F 
ENDBRANCH  22  43
ENDBRANCH   8  10
TORSDOF 11
