REMARK  10 active torsions:
REMARK  status: ('A' for Active; 'I' for Inactive)
REMARK    1  A    between atoms: O1_1  and  C1_3 
REMARK    2  A    between atoms: C1_3  and  C2_4 
REMARK    3  A    between atoms: C2_4  and  C3_5 
REMARK    4  A    between atoms: C2_4  and  N1_12 
REMARK    5  A    between atoms: C3_5  and  C4_6 
REMARK    6  A    between atoms: C11_14  and  C12_15 
REMARK    7  A    between atoms: N2_19  and  C16_21 
REMARK    8  A    between atoms: C16_21  and  N3_23 
REMARK    9  A    between atoms: N8_38  and  C22_39 
REMARK   10  A    between atoms: C22_39  and  C23_40 
ROOT
HETATM    1  C12 UNL     1      -0.050  -1.255   0.331  1.00  0.00     0.050 A 
HETATM    2  C13 UNL     1      -0.796  -0.061   0.146  1.00  0.00     0.050 A 
HETATM    3  C14 UNL     1      -2.077  -0.269   0.577  1.00  0.00     0.055 A 
HETATM    4  C15 UNL     1      -3.207   0.557   0.615  1.00  0.00     0.122 A 
HETATM    5  N2  UNL     1      -3.227   1.720   0.261  1.00  0.00    -0.318 N 
ATOM      6  H2  UNL     1      -4.201   1.968   0.433  1.00  0.00     0.170 HD
HETATM    7  N6  UNL     1      -4.329  -0.031   1.117  1.00  0.00    -0.338 N 
ATOM      8  H6  UNL     1      -5.189   0.515   1.173  1.00  0.00     0.168 HD
HETATM    9  C20 UNL     1      -4.341  -1.306   1.541  1.00  0.00     0.183 A 
HETATM   10  N7  UNL     1      -3.223  -2.076   1.490  1.00  0.00    -0.338 N 
ATOM     11  H7  UNL     1      -3.246  -3.042   1.817  1.00  0.00     0.168 HD
HETATM   12  C21 UNL     1      -2.103  -1.557   1.011  1.00  0.00     0.123 A 
HETATM   13  N8  UNL     1      -0.858  -2.152   0.855  1.00  0.00    -0.331 N 
ENDROOT
BRANCH   1  14
HETATM   14  C11 UNL     1       1.366  -1.276  -0.023  1.00  0.00     0.025 A 
HETATM   15  C10 UNL     1       2.086  -0.198  -0.557  1.00  0.00     0.125 A 
HETATM   16  N1  UNL     1       3.362  -0.580  -0.728  1.00  0.00    -0.296 N 
HETATM   17  N9  UNL     1       3.535  -1.820  -0.350  1.00  0.00    -0.309 N 
HETATM   18  C27 UNL     1       2.310  -2.255   0.086  1.00  0.00     0.122 A 
ATOM     19  H9  UNL     1       4.404  -2.354  -0.375  1.00  0.00     0.186 HD
BRANCH  16  20
HETATM   20  C2  UNL     1       4.382   0.297  -1.265  1.00  0.00     0.135 C 
BRANCH  20  21
HETATM   21  C1  UNL     1       3.756   1.446  -2.032  1.00  0.00     0.191 C 
BRANCH  21  22
HETATM   22  O1  UNL     1       2.931   0.905  -3.040  1.00  0.00    -0.399 OA
ATOM     23  H1  UNL     1       2.539   1.625  -3.520  1.00  0.00     0.209 HD
ENDBRANCH  21  22
ENDBRANCH  20  21
BRANCH  20  24
HETATM   24  C3  UNL     1       5.290   0.781  -0.162  1.00  0.00     0.068 C 
BRANCH  24  25
HETATM   25  C4  UNL     1       4.612   1.591   0.844  1.00  0.00    -0.056 A 
HETATM   26  C5  UNL     1       4.512   2.953   0.673  1.00  0.00     0.007 A 
HETATM   27  C6  UNL     1       3.880   3.770   1.602  1.00  0.00     0.001 A 
HETATM   28  C7  UNL     1       3.340   3.192   2.724  1.00  0.00     0.000 A 
HETATM   29  C8  UNL     1       3.436   1.838   2.901  1.00  0.00     0.001 A 
HETATM   30  C9  UNL     1       4.064   1.032   1.976  1.00  0.00     0.007 A 
ENDBRANCH  24  25
ENDBRANCH  20  24
ENDBRANCH  16  20
ENDBRANCH   1  14
BRANCH  13  31
HETATM   31  C22 UNL     1      -0.625  -3.533   1.184  1.00  0.00     0.136 C 
BRANCH  31  32
HETATM   32  C23 UNL     1      -1.093  -4.511   0.171  1.00  0.00     0.015 C 
HETATM   33  C24 UNL     1      -0.785  -5.936   0.699  1.00  0.00     0.085 C 
HETATM   34  C25 UNL     1      -0.470  -6.370  -0.745  1.00  0.00     0.244 C 
HETATM   35  F1  UNL     1       0.690  -7.091  -0.863  1.00  0.00    -0.206 F 
HETATM   36  F2  UNL     1      -1.560  -6.884  -1.385  1.00  0.00    -0.206 F 
HETATM   37  C26 UNL     1      -0.260  -4.876  -1.010  1.00  0.00     0.085 C 
ENDBRANCH  31  32
ENDBRANCH  13  31
BRANCH   5  38
HETATM   38  C16 UNL     1      -2.750   2.848  -0.209  1.00  0.00     0.192 C 
HETATM   39  S1  UNL     1      -1.551   3.702   0.554  1.00  0.00    -0.040 SA
BRANCH  38  40
HETATM   40  N3  UNL     1      -3.277   3.422  -1.434  1.00  0.00    -0.166 N 
HETATM   41  C17 UNL     1      -4.461   3.936  -1.338  1.00  0.00     0.684 A 
HETATM   42  N4  UNL     1      -5.241   3.993  -0.245  1.00  0.00    -0.200 N 
HETATM   43  N5  UNL     1      -5.140   4.529  -2.364  1.00  0.00    -0.200 N 
HETATM   44  C18 UNL     1      -6.387   4.598  -0.536  1.00  0.00     0.123 A 
ATOM     45  H4  UNL     1      -4.990   3.626   0.673  1.00  0.00     0.183 HD
HETATM   46  C19 UNL     1      -6.329   4.937  -1.863  1.00  0.00     0.123 A 
ATOM     47  H5  UNL     1      -4.814   4.643  -3.324  1.00  0.00     0.183 HD
ATOM     48  H3  UNL     1      -2.752   3.420  -2.308  1.00  0.00     0.186 HD
ENDBRANCH  38  40
ENDBRANCH   5  38
TORSDOF 10
