REMARK  11 active torsions:
REMARK  status: ('A' for Active; 'I' for Inactive)
REMARK    1  A    between atoms: C2_2  and  C4_4 
REMARK    2  A    between atoms: C4_4  and  O1_5 
REMARK    3  A    between atoms: C4_4  and  C5_7 
REMARK    4  A    between atoms: C4_4  and  C26_39 
REMARK    5  A    between atoms: C5_7  and  N1_8 
REMARK    6  A    between atoms: N1_8  and  C6_10 
REMARK    7  A    between atoms: C9_13  and  C10_14 
REMARK       I    between atoms: C10_14  and  N2_16 
REMARK    8  A    between atoms: N2_16  and  C11_18 
REMARK    9  A    between atoms: C14_22  and  C15_23 
REMARK       I    between atoms: N4_28  and  C18_29 
REMARK   10  A    between atoms: C18_29  and  O5_31 
REMARK   11  A    between atoms: O5_31  and  C19_32 
ROOT
HETATM    1  C10 UNL     1      -0.534  -0.968   0.313  1.00  0.00     0.226 C 
HETATM    2  O2  UNL     1       0.266  -1.885   0.583  1.00  0.00    -0.273 OA
HETATM    3  N2  UNL     1      -0.002   0.365   0.109  1.00  0.00    -0.320 N 
ATOM      4  H2  UNL     1      -0.607   1.153  -0.120  1.00  0.00     0.169 HD
ENDROOT
BRANCH   1   5
HETATM    5  C9  UNL     1      -1.982  -1.138   0.186  1.00  0.00     0.078 C 
HETATM    6  C8  UNL     1      -2.533  -0.688  -1.173  1.00  0.00     0.016 C 
HETATM    7  C7  UNL     1      -3.957  -1.148  -1.213  1.00  0.00     0.026 C 
HETATM    8  C6  UNL     1      -4.788  -0.390  -0.250  1.00  0.00     0.081 C 
HETATM    9  C25 UNL     1      -3.891   0.384   0.713  1.00  0.00     0.026 C 
HETATM   10  C24 UNL     1      -2.769  -0.433   1.269  1.00  0.00     0.016 C 
BRANCH   8  11
HETATM   11  N1  UNL     1      -5.662   0.569  -0.825  1.00  0.00    -0.395 N 
ATOM     12  H1  UNL     1      -5.545   1.557  -0.599  1.00  0.00     0.159 HD
BRANCH  11  13
HETATM   13  C5  UNL     1      -6.676   0.178  -1.692  1.00  0.00     0.103 C 
BRANCH  13  14
HETATM   14  C4  UNL     1      -7.857  -0.589  -1.111  1.00  0.00     0.190 C 
BRANCH  14  15
HETATM   15  C2  UNL     1      -8.645   0.223  -0.132  1.00  0.00     0.026 C 
HETATM   16  C1  UNL     1      -7.821   0.603   1.092  1.00  0.00     0.013 C 
HETATM   17  C3  UNL     1      -9.817  -0.565   0.418  1.00  0.00     0.013 C 
ENDBRANCH  14  15
BRANCH  14  18
HETATM   18  O1  UNL     1      -7.442  -1.758  -0.482  1.00  0.00    -0.376 OA
ATOM     19  H1  UNL     1      -6.942  -2.274  -1.104  1.00  0.00     0.211 HD
ENDBRANCH  14  18
BRANCH  14  20
HETATM   20  C26 UNL     1      -8.800  -0.939  -2.275  1.00  0.00     0.423 C 
HETATM   21  F1  UNL     1      -9.883  -1.667  -1.908  1.00  0.00    -0.167 F 
HETATM   22  F2  UNL     1      -9.230   0.228  -2.886  1.00  0.00    -0.167 F 
HETATM   23  F3  UNL     1      -8.120  -1.661  -3.251  1.00  0.00    -0.167 F 
ENDBRANCH  14  20
ENDBRANCH  13  14
ENDBRANCH  11  13
ENDBRANCH   8  11
ENDBRANCH   1   5
BRANCH   3  24
HETATM   24  C11 UNL     1       1.431   0.522   0.247  1.00  0.00     0.093 A 
HETATM   25  S1  UNL     1       2.541  -0.725   0.654  1.00  0.00    -0.074 SA
HETATM   26  C12 UNL     1       3.978   0.167   0.638  1.00  0.00     0.010 A 
HETATM   27  C13 UNL     1       3.571   1.437   0.311  1.00  0.00    -0.024 A 
HETATM   28  C23 UNL     1       5.429  -0.187   0.920  1.00  0.00     0.174 C 
HETATM   29  C14 UNL     1       2.236   1.622   0.107  1.00  0.00     0.070 A 
HETATM   30  C16 UNL     1       4.726   2.426   0.218  1.00  0.00     0.061 C 
HETATM   31  C17 UNL     1       5.770   1.742  -0.667  1.00  0.00     0.133 C 
HETATM   32  N4  UNL     1       6.268   0.551   0.028  1.00  0.00    -0.323 N 
HETATM   33  C18 UNL     1       7.605   0.168  -0.207  1.00  0.00     0.363 C 
HETATM   34  O4  UNL     1       8.311   0.841  -0.989  1.00  0.00    -0.238 OA
BRANCH  29  35
HETATM   35  C15 UNL     1       1.625   2.940  -0.243  1.00  0.00     0.268 C 
HETATM   36  N3  UNL     1       2.362   4.139  -0.390  1.00  0.00    -0.057 NA
HETATM   37  O3  UNL     1       0.390   3.068  -0.430  1.00  0.00    -0.271 OA
ENDBRANCH  29  35
BRANCH  33  38
HETATM   38  O5  UNL     1       8.161  -0.935   0.404  1.00  0.00    -0.294 OA
BRANCH  38  39
HETATM   39  C19 UNL     1       9.500  -1.347   0.195  1.00  0.00     0.061 C 
HETATM   40  C20 UNL     1      10.477  -0.274   0.605  1.00  0.00     0.046 C 
HETATM   41  C21 UNL     1       9.781  -1.670  -1.256  1.00  0.00     0.046 C 
HETATM   42  C22 UNL     1       9.752  -2.611   0.987  1.00  0.00     0.046 C 
ENDBRANCH  38  39
ENDBRANCH  33  38
ENDBRANCH   3  24
TORSDOF 11
