REMARK  13 active torsions:
REMARK  status: ('A' for Active; 'I' for Inactive)
REMARK    1  A    between atoms: C2_2  and  C3_3 
REMARK    2  A    between atoms: C2_2  and  C10_11 
REMARK    3  A    between atoms: C3_3  and  C4_4 
REMARK    4  A    between atoms: C10_11  and  O1_12 
REMARK    5  A    between atoms: C13_16  and  O2_17 
REMARK    6  A    between atoms: C17_23  and  C18_24 
REMARK    7  A    between atoms: C18_24  and  C19_25 
REMARK    8  A    between atoms: C19_25  and  C20_26 
REMARK    9  A    between atoms: C20_26  and  O4_27 
REMARK   10  A    between atoms: C24_32  and  O5_33 
REMARK   11  A    between atoms: O5_33  and  C25_34 
REMARK   12  A    between atoms: C25_34  and  C26_36 
REMARK   13  A    between atoms: C30_41  and  C31_42 
ROOT
HETATM    1  C10 UNL     1       1.793  -0.992   0.569  1.00  0.00     0.113 C 
HETATM    2  C11 UNL     1       0.902  -1.752  -0.219  1.00  0.00    -0.142 C 
HETATM    3  C12 UNL     1       0.138  -2.660  -0.955  1.00  0.00     0.122 C 
HETATM    4  C13 UNL     1      -1.309  -2.136  -1.086  1.00  0.00     0.089 C 
HETATM    5  C14 UNL     1      -1.394  -0.671  -1.400  1.00  0.00     0.079 C 
HETATM    6  C15 UNL     1      -1.365   0.078  -0.047  1.00  0.00     0.075 C 
HETATM    7  O3  UNL     1      -2.192   1.223  -0.299  1.00  0.00    -0.379 OA
HETATM    8  C16 UNL     1      -1.989   2.031   0.819  1.00  0.00     0.174 C 
HETATM    9  C17 UNL     1      -0.494   2.053   0.872  1.00  0.00     0.016 C 
HETATM   10  C21 UNL     1      -0.120   0.694   0.251  1.00  0.00     0.031 C 
HETATM   11  C22 UNL     1       1.050   0.255   1.026  1.00  0.00     0.059 C 
HETATM   12  C23 UNL     1      -2.180  -0.833   0.750  1.00  0.00     0.074 A 
HETATM   13  C24 UNL     1      -3.649  -0.864   0.523  1.00  0.00     0.149 A 
HETATM   14  C27 UNL     1      -3.613  -2.282   0.013  1.00  0.00     0.001 A 
HETATM   15  C28 UNL     1      -4.363  -3.127   1.074  1.00  0.00     0.019 C 
HETATM   16  C29 UNL     1      -4.255  -2.610  -1.260  1.00  0.00     0.019 C 
HETATM   17  C30 UNL     1      -2.129  -2.247   0.140  1.00  0.00     0.098 A 
ENDROOT
BRANCH   1  18
HETATM   18  C2  UNL     1       3.106  -0.640  -0.170  1.00  0.00     0.032 C 
HETATM   19  C1  UNL     1       3.730  -1.972  -0.454  1.00  0.00     0.014 C 
BRANCH  18  20
HETATM   20  C3  UNL     1       3.913   0.214   0.713  1.00  0.00     0.048 C 
BRANCH  20  21
HETATM   21  C4  UNL     1       5.286   0.401   0.121  1.00  0.00    -0.036 A 
HETATM   22  C5  UNL     1       5.414   1.146  -1.036  1.00  0.00     0.009 A 
HETATM   23  C6  UNL     1       6.606   1.259  -1.712  1.00  0.00     0.001 A 
HETATM   24  C7  UNL     1       7.726   0.627  -1.247  1.00  0.00     0.002 A 
HETATM   25  C8  UNL     1       7.595  -0.117  -0.084  1.00  0.00     0.024 A 
HETATM   26  C9  UNL     1       6.397  -0.231   0.594  1.00  0.00     0.040 A 
HETATM   27 CL1  UNL     1       6.366  -1.107   2.128  1.00  0.00    -0.084 Cl
ENDBRANCH  20  21
ENDBRANCH  18  20
ENDBRANCH   1  18
BRANCH   1  28
HETATM   28  O1  UNL     1       2.262  -1.687   1.717  1.00  0.00    -0.378 OA
ATOM     29  H1  UNL     1       1.456  -1.903   2.171  1.00  0.00     0.211 HD
ENDBRANCH   1  28
BRANCH   4  30
HETATM   30  O2  UNL     1      -1.833  -2.841  -2.177  1.00  0.00    -0.387 OA
ATOM     31  H2  UNL     1      -2.723  -2.519  -2.258  1.00  0.00     0.210 HD
ENDBRANCH   4  30
BRANCH   9  32
HETATM   32  C18 UNL     1       0.108   3.196   0.110  1.00  0.00     0.009 C 
BRANCH  32  33
HETATM   33  C19 UNL     1      -0.305   4.533   0.587  1.00  0.00     0.027 C 
BRANCH  33  34
HETATM   34  C20 UNL     1       0.371   5.587  -0.290  1.00  0.00     0.164 C 
BRANCH  34  35
HETATM   35  O4  UNL     1      -0.002   6.873   0.114  1.00  0.00    -0.401 OA
ATOM     36  H4  UNL     1       0.418   7.528  -0.431  1.00  0.00     0.209 HD
ENDBRANCH  34  35
ENDBRANCH  33  34
ENDBRANCH  32  33
ENDBRANCH   9  32
BRANCH  17  37
HETATM   37  C31 UNL     1      -1.823  -3.348   1.107  1.00  0.00     0.186 C 
HETATM   38  O7  UNL     1      -1.567  -3.193   2.320  1.00  0.00    -0.647 OA
HETATM   39  O8  UNL     1      -1.825  -4.633   0.634  1.00  0.00    -0.647 OA
ENDBRANCH  17  37
BRANCH  13  40
HETATM   40  O5  UNL     1      -4.287  -0.047  -0.391  1.00  0.00    -0.314 OA
BRANCH  40  41
HETATM   41  C25 UNL     1      -5.417   0.740  -0.139  1.00  0.00     0.273 C 
HETATM   42  O6  UNL     1      -5.845   0.645   1.055  1.00  0.00    -0.264 OA
BRANCH  41  43
HETATM   43  C26 UNL     1      -6.072   1.606  -1.143  1.00  0.00     0.225 C 
HETATM   44 CL2  UNL     1      -7.464   2.421  -0.424  1.00  0.00    -0.120 Cl
ENDBRANCH  41  43
ENDBRANCH  40  41
ENDBRANCH  13  40
TORSDOF 13
