REMARK  7 active torsions:
REMARK  status: ('A' for Active; 'I' for Inactive)
REMARK    1  A    between atoms: C2_7  and  S1_8 
REMARK    2  A    between atoms: S1_8  and  S2_9 
REMARK    3  A    between atoms: S2_9  and  C3_10 
REMARK    4  A    between atoms: C4_11  and  O1_12 
REMARK    5  A    between atoms: N4_18  and  O3_19 
REMARK    6  A    between atoms: C6_25  and  N7_26 
REMARK    7  A    between atoms: C7_33  and  N11_34 
ROOT
HETATM    1  N1  UNL     1      -2.772   2.542   0.084  1.00  0.00    -0.382 N 
ATOM      2  H11 UNL     1      -3.700   2.328  -0.280  1.00  0.00     0.157 HD
ATOM      3  H12 UNL     1      -2.480   3.498   0.286  1.00  0.00     0.157 HD
HETATM    4  C1  UNL     1      -1.917   1.583   0.305  1.00  0.00     0.149 A 
HETATM    5  N2  UNL     1      -0.685   1.867   0.788  1.00  0.00    -0.318 N 
ATOM      6  H2  UNL     1      -0.419   2.832   0.982  1.00  0.00     0.169 HD
HETATM    7  C2  UNL     1       0.191   0.859   1.012  1.00  0.00     0.172 A 
HETATM    8  N5  UNL     1      -0.193  -0.392   0.747  1.00  0.00    -0.277 N 
ATOM      9  H5  UNL     1       0.464  -1.154   0.914  1.00  0.00     0.189 HD
HETATM   10  N6  UNL     1      -1.410  -0.680   0.270  1.00  0.00    -0.278 N 
ATOM     11  H6  UNL     1      -1.658  -1.652   0.084  1.00  0.00     0.189 HD
HETATM   12  C6  UNL     1      -2.312   0.289   0.032  1.00  0.00     0.205 A 
ENDROOT
BRANCH   7  13
HETATM   13  S1  UNL     1       1.790   1.290   1.644  1.00  0.00    -0.013 SA
BRANCH  13  14
HETATM   14  S2  UNL     1       3.089   1.636  -0.005  1.00  0.00    -0.025 SA
BRANCH  14  15
HETATM   15  C3  UNL     1       3.866   0.089  -0.425  1.00  0.00     0.166 A 
HETATM   16  C4  UNL     1       5.067  -0.321   0.150  1.00  0.00     0.182 A 
HETATM   17  N3  UNL     1       5.359  -1.518  -0.389  1.00  0.00    -0.285 N 
HETATM   18  C5  UNL     1       4.392  -1.862  -1.267  1.00  0.00     0.353 A 
ATOM     19  H3  UNL     1       6.182  -2.079  -0.169  1.00  0.00     0.172 HD
HETATM   20  O2  UNL     1       4.342  -2.927  -1.959  1.00  0.00    -0.244 OA
HETATM   21  N4  UNL     1       3.489  -0.862  -1.272  1.00  0.00    -0.161 N 
BRANCH  16  22
HETATM   22  O1  UNL     1       5.839   0.344   1.091  1.00  0.00    -0.344 OA
ATOM     23  H1  UNL     1       6.658   0.064   1.483  1.00  0.00     0.219 HD
ENDBRANCH  16  22
BRANCH  21  24
HETATM   24  O3  UNL     1       2.336  -0.812  -2.036  1.00  0.00    -0.278 OA
ATOM     25  H3  UNL     1       2.066  -1.492  -2.642  1.00  0.00     0.245 HD
ENDBRANCH  21  24
ENDBRANCH  14  15
ENDBRANCH  13  14
ENDBRANCH   7  13
BRANCH  12  26
HETATM   26  N7  UNL     1      -3.608  -0.007  -0.475  1.00  0.00    -0.048 N 
HETATM   27  N8  UNL     1      -4.189   0.540  -1.546  1.00  0.00    -0.205 N 
HETATM   28  N9  UNL     1      -5.389   0.022  -1.714  1.00  0.00    -0.213 N 
ATOM     29  H8  UNL     1      -3.768   1.251  -2.144  1.00  0.00     0.211 HD
HETATM   30  N10 UNL     1      -5.632  -0.872  -0.769  1.00  0.00    -0.115 N 
ATOM     31  H9  UNL     1      -6.035   0.273  -2.462  1.00  0.00     0.210 HD
HETATM   32  C7  UNL     1      -4.513  -0.882  -0.002  1.00  0.00     0.716 A 
ATOM     33  H10 UNL     1      -6.476  -1.431  -0.645  1.00  0.00     0.207 HD
BRANCH  32  34
HETATM   34  N11 UNL     1      -4.330  -1.622   1.040  1.00  0.00    -0.231 N 
ATOM     35 2H11 UNL     1      -3.489  -1.630   1.617  1.00  0.00     0.174 HD
ATOM     36 1H11 UNL     1      -5.016  -2.286   1.399  1.00  0.00     0.174 HD
ENDBRANCH  32  34
ENDBRANCH  12  26
TORSDOF 7
