REMARK  7 active torsions:
REMARK  status: ('A' for Active; 'I' for Inactive)
REMARK    1  A    between atoms: N1_2  and  S1_4 
REMARK    2  A    between atoms: S1_4  and  C3_7 
REMARK    3  A    between atoms: C3_7  and  C4_8 
REMARK    4  A    between atoms: C4_8  and  O2_9 
REMARK    5  A    between atoms: O2_9  and  C5_10 
REMARK    6  A    between atoms: C9_20  and  N5_21 
REMARK    7  A    between atoms: N6_23  and  C10_25 
ROOT
HETATM    1  C5  UNL     1      -0.443   0.723  -0.221  1.00  0.00     0.162 C 
HETATM    2  N2  UNL     1       0.329   1.753  -0.271  1.00  0.00    -0.344 N 
ATOM      3  H2  UNL     1       1.206   1.742  -0.791  1.00  0.00     0.164 HD
HETATM    4  C6  UNL     1      -0.115   2.930   0.452  1.00  0.00     0.111 C 
HETATM    5  C7  UNL     1       0.625   4.114  -0.186  1.00  0.00     0.064 C 
HETATM    6  C8  UNL     1       0.331   2.854   1.888  1.00  0.00     0.064 C 
HETATM    7  N3  UNL     1      -1.511   3.178   0.299  1.00  0.00    -0.310 N 
ATOM      8  H3  UNL     1      -1.875   4.102   0.066  1.00  0.00     0.182 HD
HETATM    9  N4  UNL     1      -2.334   2.097   0.485  1.00  0.00    -0.306 N 
ATOM     10  H4  UNL     1      -3.346   2.196   0.568  1.00  0.00     0.182 HD
HETATM   11  C9  UNL     1      -1.693   0.828   0.555  1.00  0.00     0.286 C 
ENDROOT
BRANCH   1  12
HETATM   12  O2  UNL     1      -0.027  -0.402  -0.908  1.00  0.00    -0.335 OA
BRANCH  12  13
HETATM   13  C4  UNL     1       1.343  -0.750  -1.053  1.00  0.00     0.190 C 
BRANCH  13  14
HETATM   14  C3  UNL     1       1.915  -0.944   0.314  1.00  0.00     0.143 C 
BRANCH  14  15
HETATM   15  S1  UNL     1       3.624  -1.384   0.299  1.00  0.00     0.018 S 
HETATM   16  C2  UNL     1       4.628  -0.153  -0.477  1.00  0.00     0.136 C 
HETATM   17  O1  UNL     1       4.073  -1.522   1.726  1.00  0.00    -0.250 OA
BRANCH  15  18
HETATM   18  N1  UNL     1       3.840  -2.771  -0.379  1.00  0.00    -0.356 N 
HETATM   19  C1  UNL     1       5.069  -3.461  -0.042  1.00  0.00     0.156 C 
ATOM     20  H1  UNL     1       3.156  -3.170  -1.022  1.00  0.00     0.168 HD
ENDBRANCH  15  18
ENDBRANCH  14  15
ENDBRANCH  13  14
ENDBRANCH  12  13
ENDBRANCH   1  12
BRANCH  11  21
HETATM   21  N5  UNL     1      -2.589  -0.251   0.222  1.00  0.00    -0.306 N 
HETATM   22  N6  UNL     1      -3.816  -0.056   0.381  1.00  0.00    -0.302 N 
ATOM     23  H6  UNL     1      -4.124   0.849   0.736  1.00  0.00     0.183 HD
ATOM     24  H5  UNL     1      -2.237  -1.141  -0.130  1.00  0.00     0.182 HD
BRANCH  22  25
HETATM   25  C10 UNL     1      -4.800  -1.043   0.088  1.00  0.00     0.321 C 
HETATM   26  N7  UNL     1      -4.217  -2.363   0.278  1.00  0.00    -0.083 NA
HETATM   27  N8  UNL     1      -5.129  -3.161  -0.442  1.00  0.00    -0.018 NA
HETATM   28  N9  UNL     1      -5.542  -2.415  -1.535  1.00  0.00    -0.018 NA
HETATM   29  N10 UNL     1      -5.187  -1.084  -1.295  1.00  0.00    -0.083 NA
ENDBRANCH  22  25
ENDBRANCH  11  21
TORSDOF 7
