REMARK  8 active torsions:
REMARK  status: ('A' for Active; 'I' for Inactive)
REMARK    1  A    between atoms: O1_2  and  C2_3 
REMARK       I    between atoms: C2_3  and  N1_5 
REMARK    2  A    between atoms: N1_5  and  N2_6 
REMARK    3  A    between atoms: N1_5  and  O5_30 
REMARK    4  A    between atoms: C3_8  and  C4_9 
REMARK    5  A    between atoms: C3_8  and  C5_12 
REMARK    6  A    between atoms: N4_16  and  N5_18 
REMARK    7  A    between atoms: N7_24  and  N8_25 
REMARK    8  A    between atoms: O5_30  and  N10_31 
ROOT
HETATM    1  N5  UNL     1      -4.391  -0.483   0.408  1.00  0.00    -0.281 N 
ATOM      2  H5  UNL     1      -4.058  -1.332   0.865  1.00  0.00     0.188 HD
HETATM    3  C7  UNL     1      -5.526  -0.467  -0.182  1.00  0.00     0.102 C 
HETATM    4  C8  UNL     1      -6.024   0.745  -0.845  1.00  0.00     0.082 C 
HETATM    5  C9  UNL     1      -6.318  -1.658  -0.188  1.00  0.00     0.114 C 
HETATM    6  N6  UNL     1      -6.975  -2.612  -0.181  1.00  0.00    -0.190 NA
ENDROOT
BRANCH   1   7
HETATM    7  N4  UNL     1      -3.619   0.672   0.417  1.00  0.00    -0.129 N 
HETATM    8  C6  UNL     1      -2.339   0.605   0.305  1.00  0.00     0.719 A 
HETATM    9  N3  UNL     1      -1.634  -0.550   0.170  1.00  0.00    -0.183 N 
HETATM   10  N7  UNL     1      -1.449   1.603   0.287  1.00  0.00    -0.075 N 
HETATM   11  C5  UNL     1      -0.338  -0.265   0.070  1.00  0.00     0.128 A 
ATOM     12  H3  UNL     1      -2.035  -1.487   0.149  1.00  0.00     0.184 HD
HETATM   13  C10 UNL     1      -0.201   1.131   0.144  1.00  0.00     0.185 A 
HETATM   14  N9  UNL     1       0.984   1.912   0.090  1.00  0.00    -0.077 NA
ATOM     15  H4  UNL     1      -4.071   1.581   0.513  1.00  0.00     0.205 HD
BRANCH  11  16
HETATM   16  C3  UNL     1       0.817  -1.168  -0.113  1.00  0.00     0.158 C 
HETATM   17  N2  UNL     1       1.934  -0.610  -0.241  1.00  0.00    -0.259 N 
ATOM     18  H2  UNL     1       1.840   0.405  -0.202  1.00  0.00     0.190 HD
BRANCH  17  19
HETATM   19  N1  UNL     1       3.211  -0.963  -0.414  1.00  0.00    -0.073 N 
HETATM   20  C2  UNL     1       4.252  -0.382   0.420  1.00  0.00     0.408 C 
HETATM   21  O2  UNL     1       5.470  -0.731   0.253  1.00  0.00    -0.234 OA
BRANCH  20  22
HETATM   22  O1  UNL     1       4.001   0.543   1.396  1.00  0.00    -0.306 OA
HETATM   23  C1  UNL     1       4.949   1.148   2.233  1.00  0.00     0.215 C 
ENDBRANCH  20  22
BRANCH  19  24
HETATM   24  O5  UNL     1       3.606  -1.849  -1.371  1.00  0.00    -0.136 OA
BRANCH  24  25
HETATM   25  N10 UNL     1       4.200  -1.288  -2.420  1.00  0.00    -0.284 N 
ATOM     26 2H10 UNL     1       4.340  -0.280  -2.487  1.00  0.00     0.186 HD
ATOM     27 1H10 UNL     1       4.496  -1.951  -3.136  1.00  0.00     0.186 HD
ENDBRANCH  24  25
ENDBRANCH  19  24
ENDBRANCH  17  19
BRANCH  16  28
HETATM   28  C4  UNL     1       0.613  -2.595  -0.126  1.00  0.00     0.230 C 
HETATM   29  O3  UNL     1      -0.570  -3.047   0.012  1.00  0.00    -0.643 OA
HETATM   30  O4  UNL     1       1.670  -3.454  -0.282  1.00  0.00    -0.643 OA
ENDBRANCH  16  28
ENDBRANCH  11  16
BRANCH  10  31
HETATM   31  N8  UNL     1      -1.842   2.948   0.409  1.00  0.00    -0.323 N 
ATOM     32  H82 UNL     1      -2.791   3.307   0.518  1.00  0.00     0.178 HD
ATOM     33  H81 UNL     1      -1.163   3.709   0.395  1.00  0.00     0.178 HD
ENDBRANCH  10  31
ENDBRANCH   1   7
TORSDOF 8
