REMARK  3 active torsions:
REMARK  status: ('A' for Active; 'I' for Inactive)
REMARK    1  A    between atoms: N1_1  and  N2_4 
REMARK    2  A    between atoms: N2_4  and  N3_6 
REMARK    3  A    between atoms: N3_6  and  C1_8 
ROOT
HETATM    1  C1  UNL     1      -0.267   0.017  -0.517  1.00  0.00     0.194 C 
HETATM    2  N4  UNL     1       0.596  -0.719  -1.274  1.00  0.00    -0.289 N 
ATOM      3  H4  UNL     1       0.225  -0.987  -2.186  1.00  0.00     0.172 HD
HETATM    4  C2  UNL     1       1.837  -1.154  -1.042  1.00  0.00     0.330 C 
HETATM    5  O1  UNL     1       2.346  -2.016  -1.798  1.00  0.00    -0.246 OA
HETATM    6  N5  UNL     1       2.638  -0.736  -0.021  1.00  0.00    -0.260 N 
ATOM      7  H5  UNL     1       3.586  -1.112  -0.036  1.00  0.00     0.175 HD
HETATM    8  C3  UNL     1       2.373   0.094   1.003  1.00  0.00     0.331 C 
HETATM    9  O2  UNL     1       3.266   0.146   1.869  1.00  0.00    -0.246 OA
HETATM   10  N6  UNL     1       1.276   0.852   1.185  1.00  0.00    -0.272 N 
ATOM     11  H6  UNL     1       1.366   1.597   1.876  1.00  0.00     0.174 HD
HETATM   12  C4  UNL     1       0.063   0.762   0.575  1.00  0.00     0.295 C 
HETATM   13  O3  UNL     1      -0.871   1.430   1.051  1.00  0.00    -0.264 OA
ENDROOT
BRANCH   1  14
HETATM   14  N3  UNL     1      -1.463  -0.053  -0.930  1.00  0.00    -0.267 N 
ATOM     15  H3  UNL     1      -1.623  -0.635  -1.753  1.00  0.00     0.190 HD
BRANCH  14  16
HETATM   16  N2  UNL     1      -2.568   0.563  -0.399  1.00  0.00    -0.248 N 
ATOM     17  H2  UNL     1      -2.705   1.559  -0.571  1.00  0.00     0.207 HD
BRANCH  16  18
HETATM   18  N1  UNL     1      -3.513  -0.124   0.369  1.00  0.00    -0.331 N 
ATOM     19  H12 UNL     1      -3.360  -1.119   0.531  1.00  0.00     0.178 HD
ATOM     20  H11 UNL     1      -4.334   0.334   0.764  1.00  0.00     0.178 HD
ENDBRANCH  16  18
ENDBRANCH  14  16
ENDBRANCH   1  14
TORSDOF 3
