REMARK  2 active torsions:
REMARK  status: ('A' for Active; 'I' for Inactive)
REMARK       I    between atoms: C1_4  and  N2_5 
REMARK       I    between atoms: C1_4  and  N4_10 
REMARK    1  A    between atoms: N2_5  and  N3_7 
REMARK    2  A    between atoms: N5_13  and  N6_14 
ROOT
HETATM    1  N1  UNL     1       1.871  -1.827  -1.145  1.00  0.00    -0.232 N 
ATOM      2  H11 UNL     1       1.007  -2.197  -1.541  1.00  0.00     0.174 HD
ATOM      3  H12 UNL     1       2.792  -2.197  -1.382  1.00  0.00     0.174 HD
HETATM    4  C1  UNL     1       1.791  -0.849  -0.307  1.00  0.00     0.707 C 
HETATM    5  N2  UNL     1       2.995  -0.333   0.245  1.00  0.00    -0.138 N 
ATOM      6  H2  UNL     1       3.550  -0.938   0.850  1.00  0.00     0.205 HD
HETATM    7  N4  UNL     1       0.506  -0.333   0.024  1.00  0.00    -0.117 N 
HETATM    8  C2  UNL     1      -0.379   0.072  -1.077  1.00  0.00     0.190 C 
HETATM    9  C3  UNL     1      -1.775  -0.438  -0.785  1.00  0.00     0.176 C 
HETATM   10  N5  UNL     1      -2.207   0.210   0.442  1.00  0.00    -0.246 N 
HETATM   11  C4  UNL     1      -1.322   0.076   1.550  1.00  0.00     0.355 C 
HETATM   12  O1  UNL     1      -1.808   0.210   2.706  1.00  0.00    -0.244 OA
HETATM   13  N7  UNL     1       0.065  -0.202   1.343  1.00  0.00    -0.234 N 
ATOM     14  H7  UNL     1       0.708  -0.301   2.129  1.00  0.00     0.192 HD
ENDROOT
BRANCH   5  15
HETATM   15  N3  UNL     1       3.451   0.956  -0.001  1.00  0.00    -0.331 N 
ATOM     16  H32 UNL     1       2.883   1.547  -0.608  1.00  0.00     0.177 HD
ATOM     17  H31 UNL     1       4.315   1.326   0.395  1.00  0.00     0.177 HD
ENDBRANCH   5  15
BRANCH  10  18
HETATM   18  N6  UNL     1      -3.419   0.921   0.525  1.00  0.00    -0.339 N 
ATOM     19  H62 UNL     1      -4.053   1.017  -0.268  1.00  0.00     0.177 HD
ATOM     20  H61 UNL     1      -3.722   1.376   1.386  1.00  0.00     0.177 HD
ENDBRANCH  10  18
TORSDOF 2
