REMARK  1 active torsions:
REMARK  status: ('A' for Active; 'I' for Inactive)
REMARK    1  A    between atoms: N1_1  and  N2_4 
REMARK       I    between atoms: N2_4  and  C1_6 
REMARK       I    between atoms: C1_6  and  N3_8 
ROOT
HETATM    1  N2  UNL     1      -2.332   0.140  -0.368  1.00  0.00    -0.257 N 
ATOM      2  H2  UNL     1      -2.267   1.097  -0.022  1.00  0.00     0.191 HD
HETATM    3  C1  UNL     1      -1.159  -0.602  -0.529  1.00  0.00     0.352 C 
HETATM    4  O1  UNL     1      -1.280  -1.815  -0.971  1.00  0.00    -0.244 OA
HETATM    5  N3  UNL     1       0.166  -0.215  -0.275  1.00  0.00    -0.163 N 
HETATM    6  C2  UNL     1       0.513   0.982   0.182  1.00  0.00     0.342 A 
HETATM    7  O2  UNL     1      -0.309   1.900   0.436  1.00  0.00    -0.246 OA
HETATM    8  N4  UNL     1       1.814   1.334   0.421  1.00  0.00    -0.260 N 
ATOM      9  H4  UNL     1       2.031   2.267   0.771  1.00  0.00     0.175 HD
HETATM   10  C3  UNL     1       2.795   0.468   0.200  1.00  0.00     0.332 A 
HETATM   11  O3  UNL     1       4.009   0.720   0.396  1.00  0.00    -0.246 OA
HETATM   12  N5  UNL     1       2.485  -0.764  -0.266  1.00  0.00    -0.260 N 
ATOM     13  H5  UNL     1       3.223  -1.445  -0.443  1.00  0.00     0.175 HD
HETATM   14  C4  UNL     1       1.207  -1.084  -0.493  1.00  0.00     0.342 A 
HETATM   15  O4  UNL     1       0.957  -2.236  -0.925  1.00  0.00    -0.246 OA
ENDROOT
BRANCH   1  16
HETATM   16  N1  UNL     1      -3.606  -0.394  -0.670  1.00  0.00    -0.341 N 
ATOM     17  H12 UNL     1      -3.653  -1.353  -1.015  1.00  0.00     0.177 HD
ATOM     18  H11 UNL     1      -4.462   0.148  -0.552  1.00  0.00     0.177 HD
ENDBRANCH   1  16
TORSDOF 1
