REMARK  5 active torsions:
REMARK  status: ('A' for Active; 'I' for Inactive)
REMARK    1  A    between atoms: N1_1  and  N2_4 
REMARK    2  A    between atoms: N2_4  and  C1_6 
REMARK    3  A    between atoms: C1_6  and  N3_7 
REMARK    4  A    between atoms: N3_7  and  N4_9 
REMARK    5  A    between atoms: N4_9  and  C2_11 
ROOT
HETATM    1  C2  UNL     1      -1.010  -0.554  -0.067  1.00  0.00     0.204 A 
HETATM    2  N5  UNL     1      -2.181  -1.197  -0.173  1.00  0.00    -0.276 N 
ATOM      3  H5  UNL     1      -2.176  -2.201  -0.351  1.00  0.00     0.189 HD
HETATM    4  N6  UNL     1      -3.351  -0.572  -0.054  1.00  0.00    -0.250 N 
ATOM      5  H6  UNL     1      -4.231  -1.080  -0.137  1.00  0.00     0.192 HD
HETATM    6  C3  UNL     1      -3.332   0.747   0.179  1.00  0.00     0.341 A 
HETATM    7  O1  UNL     1      -4.446   1.360   0.295  1.00  0.00    -0.245 OA
HETATM    8  N7  UNL     1      -2.195   1.467   0.298  1.00  0.00    -0.271 N 
ATOM      9  H7  UNL     1      -2.219   2.471   0.476  1.00  0.00     0.174 HD
HETATM   10  C4  UNL     1      -1.026   0.804   0.172  1.00  0.00     0.296 A 
HETATM   11  O2  UNL     1       0.069   1.406   0.271  1.00  0.00    -0.264 OA
ENDROOT
BRANCH   1  12
HETATM   12  N4  UNL     1       0.119  -1.190  -0.188  1.00  0.00    -0.279 N 
ATOM     13  H4  UNL     1       0.120  -2.194  -0.366  1.00  0.00     0.189 HD
BRANCH  12  14
HETATM   14  N3  UNL     1       1.327  -0.502  -0.075  1.00  0.00    -0.293 N 
ATOM     15  H3  UNL     1       1.362   0.499  -0.267  1.00  0.00     0.187 HD
BRANCH  14  16
HETATM   16  C1  UNL     1       2.395  -1.125   0.270  1.00  0.00     0.213 C 
BRANCH  16  17
HETATM   17  N2  UNL     1       3.624  -0.406   0.381  1.00  0.00    -0.301 N 
ATOM     18  H2  UNL     1       4.501  -0.901   0.220  1.00  0.00     0.187 HD
BRANCH  17  19
HETATM   19  N1  UNL     1       3.665   0.954   0.703  1.00  0.00    -0.344 N 
ATOM     20  H12 UNL     1       2.779   1.434   0.861  1.00  0.00     0.176 HD
ATOM     21  H11 UNL     1       4.543   1.468   0.782  1.00  0.00     0.176 HD
ENDBRANCH  17  19
ENDBRANCH  16  17
ENDBRANCH  14  16
ENDBRANCH  12  14
ENDBRANCH   1  12
TORSDOF 5
