REMARK  3 active torsions:
REMARK  status: ('A' for Active; 'I' for Inactive)
REMARK    1  A    between atoms: N1_3  and  N2_5 
REMARK    2  A    between atoms: N2_5  and  C3_7 
REMARK    3  A    between atoms: C3_7  and  C4_8 
ROOT
HETATM    1  C3  UNL     1      -0.153   0.439   0.088  1.00  0.00     0.172 C 
ENDROOT
BRANCH   1   2
HETATM    2  N2  UNL     1       0.858   0.248   1.105  1.00  0.00    -0.335 N 
ATOM      3  H2  UNL     1       0.564   0.105   2.071  1.00  0.00     0.180 HD
BRANCH   2   4
HETATM    4  N1  UNL     1       2.218   0.253   0.809  1.00  0.00    -0.320 N 
HETATM    5  C2  UNL     1       2.609   0.011  -0.416  1.00  0.00     0.075 C 
HETATM    6  C1  UNL     1       4.075   0.021  -0.716  1.00  0.00     0.056 C 
ATOM      7  H1  UNL     1       2.903   0.443   1.540  1.00  0.00     0.185 HD
ENDBRANCH   2   4
ENDBRANCH   1   2
BRANCH   1   8
HETATM    8  C4  UNL     1      -1.546   0.389   0.668  1.00  0.00     0.206 A 
HETATM    9  C5  UNL     1      -2.662   0.576  -0.298  1.00  0.00     0.062 A 
HETATM   10  C6  UNL     1      -3.096  -0.857  -0.042  1.00  0.00     0.235 A 
HETATM   11  N3  UNL     1      -2.021  -0.959   0.924  1.00  0.00    -0.069 N 
ATOM     12  H32 UNL     1      -1.361  -1.732   0.839  1.00  0.00     0.277 HD
ATOM     13  H31 UNL     1      -2.251  -1.221   1.883  1.00  0.00     0.277 HD
ENDBRANCH   1   8
TORSDOF 3
