REMARK  5 active torsions:
REMARK  status: ('A' for Active; 'I' for Inactive)
REMARK    1  A    between atoms: C8_8  and  C9_9 
REMARK    2  A    between atoms: C9_9  and  N2_29 
REMARK    3  A    between atoms: N1_10  and  S1_12 
REMARK    4  A    between atoms: S1_12  and  C10_15 
REMARK       I    between atoms: N2_29  and  C24_31 
REMARK    5  A    between atoms: C27_38  and  O3_39 
ROOT
HETATM    1  C9  UNL     1      -1.568  -1.208  -0.887  1.00  0.00     0.128 C 
HETATM    2  N1  UNL     1      -1.283  -0.632  -1.952  1.00  0.00    -0.265 N 
ATOM      3  H1  UNL     1      -2.110  -0.306  -2.452  1.00  0.00     0.180 HD
ENDROOT
BRANCH   1   4
HETATM    4  C8  UNL     1      -2.960  -1.353  -0.477  1.00  0.00     0.020 A 
HETATM    5  C7  UNL     1      -3.482  -2.624  -0.303  1.00  0.00     0.016 A 
HETATM    6  C6  UNL     1      -4.786  -2.779   0.097  1.00  0.00     0.002 A 
HETATM    7  C5  UNL     1      -5.560  -1.665   0.320  1.00  0.00     0.012 A 
HETATM    8  C4  UNL     1      -5.037  -0.394   0.146  1.00  0.00    -0.024 A 
HETATM    9  C3  UNL     1      -5.803   0.733   0.378  1.00  0.00     0.022 A 
HETATM   10  C25 UNL     1      -3.709  -0.219  -0.261  1.00  0.00    -0.009 A 
HETATM   11  C2  UNL     1      -5.322   2.023   0.229  1.00  0.00    -0.028 A 
HETATM   12  C1  UNL     1      -6.227   3.171   0.506  1.00  0.00     0.051 C 
HETATM   13  C27 UNL     1      -4.019   2.197  -0.169  1.00  0.00     0.072 A 
HETATM   14  C26 UNL     1      -3.244   1.066  -0.404  1.00  0.00     0.050 A 
BRANCH  13  15
HETATM   15  O3  UNL     1      -3.540   3.484  -0.317  1.00  0.00    -0.360 OA
ATOM     16  H3  UNL     1      -2.639   3.604  -0.592  1.00  0.00     0.217 HD
ENDBRANCH  13  15
ENDBRANCH   1   4
BRANCH   1  17
HETATM   17  N2  UNL     1      -0.570  -1.733  -0.035  1.00  0.00    -0.316 N 
HETATM   18  C24 UNL     1      -0.253  -3.124   0.079  1.00  0.00     0.187 C 
HETATM   19  N3  UNL     1       0.165  -3.774  -0.932  1.00  0.00    -0.373 N 
HETATM   20  N4  UNL     1      -0.411  -3.756   1.327  1.00  0.00    -0.064 NA
ATOM     21  H32 UNL     1       0.279  -3.316  -1.836  1.00  0.00     0.158 HD
ATOM     22  H31 UNL     1       0.391  -4.765  -0.851  1.00  0.00     0.158 HD
ATOM     23  H2  UNL     1      -0.040  -1.076   0.537  1.00  0.00     0.170 HD
ENDBRANCH   1  17
BRANCH   2  24
HETATM   24  S1  UNL     1       0.139  -0.265  -2.759  1.00  0.00     0.264 S 
HETATM   25  O1  UNL     1      -0.072   0.824  -3.815  1.00  0.00    -0.200 OA
HETATM   26  O2  UNL     1       0.516  -1.480  -3.607  1.00  0.00    -0.200 OA
BRANCH  24  27
HETATM   27  C10 UNL     1       1.489   0.185  -1.736  1.00  0.00     0.080 A 
HETATM   28  C11 UNL     1       1.665   1.473  -1.294  1.00  0.00     0.026 A 
HETATM   29  C12 UNL     1       2.756   1.842  -0.487  1.00  0.00     0.014 A 
HETATM   30  C13 UNL     1       3.701   0.907  -0.106  1.00  0.00    -0.015 A 
HETATM   31  C14 UNL     1       3.517  -0.390  -0.555  1.00  0.00    -0.024 A 
HETATM   32  C22 UNL     1       4.769   1.267   0.685  1.00  0.00    -0.015 A 
HETATM   33  C15 UNL     1       4.431  -1.359  -0.203  1.00  0.00     0.013 A 
HETATM   34  C23 UNL     1       2.433  -0.737  -1.352  1.00  0.00     0.037 A 
HETATM   35  C16 UNL     1       5.515  -1.014   0.594  1.00  0.00     0.013 A 
HETATM   36  C17 UNL     1       5.690   0.278   1.036  1.00  0.00    -0.025 A 
HETATM   37  C18 UNL     1       6.777   0.572   1.819  1.00  0.00     0.012 A 
HETATM   38  C19 UNL     1       6.966   1.858   2.268  1.00  0.00     0.001 A 
HETATM   39  C20 UNL     1       6.041   2.833   1.910  1.00  0.00     0.001 A 
HETATM   40  C21 UNL     1       4.945   2.560   1.126  1.00  0.00     0.013 A 
ENDBRANCH  24  27
ENDBRANCH   2  24
TORSDOF 5
