REMARK  3 active torsions:
REMARK  status: ('A' for Active; 'I' for Inactive)
REMARK    1  A    between atoms: C1_6  and  C2_7 
REMARK    2  A    between atoms: C6_11  and  O3_12 
REMARK    3  A    between atoms: N4_32  and  C21_34 
ROOT
HETATM    1  O1  UNL     1       0.960  -2.348  -1.650  1.00  0.00    -0.200 OA
HETATM    2  S1  UNL     1       1.139  -1.683  -0.400  1.00  0.00     0.265 S 
HETATM    3  O2  UNL     1       1.936  -2.603   0.523  1.00  0.00    -0.200 OA
HETATM    4  N1  UNL     1      -0.503  -1.613   0.537  1.00  0.00    -0.279 N 
ATOM      5  H1  UNL     1      -0.669  -2.330   1.244  1.00  0.00     0.179 HD
HETATM    6  C1  UNL     1      -1.502  -0.667   0.343  1.00  0.00     0.068 C 
HETATM    7  C8  UNL     1      -1.996   0.579   1.126  1.00  0.00     0.049 A 
HETATM    8  C9  UNL     1      -1.610   1.802   1.672  1.00  0.00     0.119 A 
HETATM    9  N2  UNL     1      -2.674   2.431   2.192  1.00  0.00    -0.341 N 
ATOM     10  H2  UNL     1      -2.640   3.345   2.644  1.00  0.00     0.167 HD
HETATM   11  C10 UNL     1      -3.771   1.713   2.043  1.00  0.00     0.045 A 
HETATM   12  C11 UNL     1      -5.085   1.979   2.448  1.00  0.00     0.030 A 
HETATM   13  C12 UNL     1      -6.073   1.084   2.205  1.00  0.00     0.002 A 
HETATM   14  C13 UNL     1      -5.754  -0.064   1.565  1.00  0.00     0.001 A 
HETATM   15  C14 UNL     1      -4.459  -0.294   1.182  1.00  0.00     0.015 A 
HETATM   16  C15 UNL     1      -3.408   0.607   1.414  1.00  0.00     0.007 A 
HETATM   17  N3  UNL     1      -0.307   2.548   1.914  1.00  0.00    -0.342 N 
ATOM     18  H3  UNL     1      -0.300   3.534   2.175  1.00  0.00     0.167 HD
HETATM   19  C16 UNL     1       0.880   1.828   1.765  1.00  0.00     0.033 C 
HETATM   20  C17 UNL     1       0.543   0.549   1.445  1.00  0.00     0.031 C 
HETATM   21  C18 UNL     1       0.676   0.549  -0.042  1.00  0.00     0.030 C 
HETATM   22  C19 UNL     1       1.831  -0.142  -0.220  1.00  0.00     0.106 C 
HETATM   23  C20 UNL     1       3.055   0.443   0.038  1.00  0.00     0.056 C 
HETATM   24  N4  UNL     1       3.903  -0.210  -0.443  1.00  0.00    -0.355 N 
ATOM     25  H4  UNL     1       3.420  -0.991  -0.888  1.00  0.00     0.166 HD
HETATM   26  C27 UNL     1       3.231   1.638   0.895  1.00  0.00     0.033 C 
HETATM   27  C28 UNL     1       2.186   2.277   1.690  1.00  0.00     0.032 C 
ENDROOT
BRANCH   6  28
HETATM   28  C2  UNL     1      -2.231  -0.754  -0.990  1.00  0.00    -0.005 A 
HETATM   29  C3  UNL     1      -2.787   0.329  -1.623  1.00  0.00     0.014 A 
HETATM   30  C4  UNL     1      -3.405   0.182  -2.845  1.00  0.00     0.004 A 
HETATM   31  C5  UNL     1      -3.485  -1.062  -3.473  1.00  0.00     0.036 A 
HETATM   32  C6  UNL     1      -2.931  -2.146  -2.844  1.00  0.00     0.066 A 
HETATM   33  C7  UNL     1      -2.315  -1.997  -1.626  1.00  0.00     0.050 A 
BRANCH  32  34
HETATM   34  O3  UNL     1      -2.986  -3.390  -3.426  1.00  0.00    -0.361 OA
ATOM     35  H3  UNL     1      -2.602  -4.142  -2.990  1.00  0.00     0.217 HD
ENDBRANCH  32  34
ENDBRANCH   6  28
BRANCH  24  36
HETATM   36  C21 UNL     1       5.201  -0.416  -0.684  1.00  0.00     0.032 A 
HETATM   37  C22 UNL     1       6.132  -0.659   0.316  1.00  0.00     0.029 A 
HETATM   38  C23 UNL     1       7.452  -0.871   0.021  1.00  0.00     0.002 A 
HETATM   39  C24 UNL     1       7.945  -0.860  -1.263  1.00  0.00     0.000 A 
HETATM   40  C25 UNL     1       7.037  -0.621  -2.265  1.00  0.00     0.002 A 
HETATM   41  C26 UNL     1       5.711  -0.406  -1.997  1.00  0.00     0.029 A 
ENDBRANCH  24  36
TORSDOF 3
