REMARK  5 active torsions:
REMARK  status: ('A' for Active; 'I' for Inactive)
REMARK    1  A    between atoms: N1_2  and  C2_4 
REMARK    2  A    between atoms: C2_4  and  N2_6 
REMARK    3  A    between atoms: N2_6  and  N3_8 
REMARK    4  A    between atoms: C7_14  and  C8_15 
REMARK    5  A    between atoms: C17_26  and  O1_27 
ROOT
HETATM    1  N3  UNL     1      -0.804   1.794  -1.318  1.00  0.00    -0.302 N 
ATOM      2  H3  UNL     1      -0.001   2.133  -1.848  1.00  0.00     0.186 HD
HETATM    3  C3  UNL     1      -0.880   0.541  -1.038  1.00  0.00     0.040 C 
HETATM    4  C4  UNL     1       0.297  -0.263  -1.578  1.00  0.00     0.100 C 
HETATM    5  C5  UNL     1       1.392  -0.413  -0.593  1.00  0.00    -0.025 A 
HETATM    6  C6  UNL     1       2.410   0.553  -0.726  1.00  0.00     0.022 A 
HETATM    7  C7  UNL     1       3.502   0.642   0.088  1.00  0.00    -0.025 A 
HETATM    8  C14 UNL     1       3.631  -0.260   1.108  1.00  0.00     0.014 A 
HETATM    9  C15 UNL     1       2.660  -1.197   1.249  1.00  0.00     0.031 A 
HETATM   10  C16 UNL     1       1.503  -1.331   0.422  1.00  0.00     0.040 A 
HETATM   11  N4  UNL     1       0.644  -2.393   0.787  1.00  0.00    -0.340 N 
ATOM     12  H4  UNL     1       0.271  -2.218   1.720  1.00  0.00     0.167 HD
HETATM   13  C17 UNL     1       0.139  -3.584   0.311  1.00  0.00     0.115 C 
HETATM   14  C18 UNL     1      -0.391  -4.080  -0.954  1.00  0.00     0.085 C 
HETATM   15  C19 UNL     1      -1.828  -4.597  -0.884  1.00  0.00     0.027 C 
HETATM   16  C20 UNL     1      -2.474  -4.498   0.452  1.00  0.00     0.123 C 
HETATM   17  N5  UNL     1      -3.901  -4.164   0.385  1.00  0.00    -0.357 N 
ATOM     18  H5  UNL     1      -4.567  -4.891   0.124  1.00  0.00     0.162 HD
HETATM   19  C21 UNL     1      -4.394  -2.832   0.678  1.00  0.00     0.251 C 
HETATM   20  O2  UNL     1      -5.605  -2.710   1.097  1.00  0.00    -0.268 OA
HETATM   21  C22 UNL     1      -3.601  -1.582   0.535  1.00  0.00     0.032 A 
HETATM   22  C23 UNL     1      -3.684  -0.855   1.750  1.00  0.00     0.017 A 
HETATM   23  C24 UNL     1      -2.933   0.263   1.991  1.00  0.00     0.002 A 
HETATM   24  C25 UNL     1      -2.087   0.648   0.986  1.00  0.00     0.013 A 
HETATM   25  C26 UNL     1      -1.984  -0.056  -0.239  1.00  0.00    -0.011 A 
HETATM   26  C27 UNL     1      -2.752  -1.177  -0.476  1.00  0.00     0.030 A 
ENDROOT
BRANCH   1  27
HETATM   27  N2  UNL     1      -1.771   2.693  -0.925  1.00  0.00    -0.276 N 
ATOM     28  H2  UNL     1      -2.736   2.370  -0.851  1.00  0.00     0.189 HD
BRANCH  27  29
HETATM   29  C2  UNL     1      -1.482   4.063  -0.615  1.00  0.00     0.186 C 
HETATM   30  S1  UNL     1       0.032   4.666  -0.704  1.00  0.00    -0.040 SA
BRANCH  29  31
HETATM   31  N1  UNL     1      -2.509   4.955  -0.214  1.00  0.00    -0.370 N 
HETATM   32  C1  UNL     1      -3.882   4.466  -0.118  1.00  0.00     0.148 C 
ATOM     33  H1  UNL     1      -2.291   5.927   0.005  1.00  0.00     0.161 HD
ENDBRANCH  29  31
ENDBRANCH  27  29
ENDBRANCH   1  27
BRANCH   7  34
HETATM   34  C8  UNL     1       4.541   1.645  -0.070  1.00  0.00    -0.026 A 
HETATM   35  C9  UNL     1       5.848   1.367   0.280  1.00  0.00     0.012 A 
HETATM   36  C10 UNL     1       6.857   2.294   0.143  1.00  0.00     0.001 A 
HETATM   37  C11 UNL     1       6.576   3.542  -0.358  1.00  0.00     0.000 A 
HETATM   38  C12 UNL     1       5.273   3.854  -0.720  1.00  0.00     0.001 A 
HETATM   39  C13 UNL     1       4.271   2.900  -0.571  1.00  0.00     0.012 A 
ENDBRANCH   7  34
BRANCH  13  40
HETATM   40  O1  UNL     1       0.083  -4.614   1.180  1.00  0.00    -0.349 OA
ATOM     41  H1  UNL     1      -0.265  -5.435   0.852  1.00  0.00     0.219 HD
ENDBRANCH  13  40
TORSDOF 5
