REMARK  7 active torsions:
REMARK  status: ('A' for Active; 'I' for Inactive)
REMARK    1  A    between atoms: C6_6  and  N1_7 
REMARK    2  A    between atoms: N1_7  and  C7_8 
REMARK    3  A    between atoms: C10_11  and  N2_12 
REMARK    4  A    between atoms: C15_19  and  N4_20 
REMARK    5  A    between atoms: N4_20  and  C16_22 
REMARK    6  A    between atoms: C19_25  and  C20_26 
REMARK    7  A    between atoms: C21_27  and  C22_28 
ROOT
HETATM    1  C1  UNL     1      -0.920   6.016  -0.127  1.00  0.00     0.048 C 
HETATM    2  C2  UNL     1      -1.303   4.603  -0.093  1.00  0.00    -0.060 A 
HETATM    3  C3  UNL     1      -2.632   4.235  -0.110  1.00  0.00     0.008 A 
HETATM    4  C4  UNL     1      -2.968   2.886  -0.073  1.00  0.00     0.019 A 
HETATM    5  C5  UNL     1      -2.010   1.894  -0.020  1.00  0.00     0.050 A 
HETATM    6  C6  UNL     1      -2.412   0.557   0.025  1.00  0.00     0.206 A 
HETATM    7  N3  UNL     1      -1.409  -0.376   0.087  1.00  0.00    -0.163 N 
ATOM      8  H3  UNL     1      -1.645  -1.368   0.120  1.00  0.00     0.187 HD
HETATM    9  C15 UNL     1      -0.094   0.007   0.105  1.00  0.00     0.685 A 
HETATM   10  N6  UNL     1       0.235   1.299   0.060  1.00  0.00    -0.191 N 
ATOM     11  H6  UNL     1       1.223   1.552   0.073  1.00  0.00     0.184 HD
HETATM   12  C30 UNL     1      -0.676   2.276  -0.002  1.00  0.00     0.064 A 
HETATM   13  C31 UNL     1      -0.334   3.633  -0.040  1.00  0.00     0.038 A 
ENDROOT
BRANCH   9  14
HETATM   14  N4  UNL     1       0.743  -0.909   0.097  1.00  0.00    -0.190 N 
ATOM     15  H4  UNL     1       0.353  -1.851   0.071  1.00  0.00     0.184 HD
BRANCH  14  16
HETATM   16  C16 UNL     1       2.141  -0.845   0.118  1.00  0.00     0.073 A 
HETATM   17  C17 UNL     1       2.875  -0.622   1.270  1.00  0.00     0.033 A 
HETATM   18  C18 UNL     1       4.251  -0.626   1.264  1.00  0.00     0.023 A 
HETATM   19  C19 UNL     1       4.988  -0.851   0.114  1.00  0.00     0.020 A 
HETATM   20  C28 UNL     1       4.254  -1.074  -1.045  1.00  0.00     0.049 A 
HETATM   21  C29 UNL     1       2.878  -1.073  -1.051  1.00  0.00     0.075 A 
HETATM   22  N5  UNL     1       2.140  -1.303  -2.237  1.00  0.00    -0.100 NA
BRANCH  19  23
HETATM   23  C20 UNL     1       6.428  -0.875   0.098  1.00  0.00    -0.061 C 
HETATM   24  C21 UNL     1       7.638  -0.924   0.094  1.00  0.00    -0.061 C 
BRANCH  24  25
HETATM   25  C22 UNL     1       9.075  -1.009   0.110  1.00  0.00     0.018 A 
HETATM   26  C23 UNL     1       9.715  -1.534   1.193  1.00  0.00     0.020 A 
HETATM   27  C24 UNL     1      11.096  -1.621   1.223  1.00  0.00     0.001 A 
HETATM   28  C25 UNL     1      11.871  -1.181   0.155  1.00  0.00     0.000 A 
HETATM   29  C26 UNL     1      11.232  -0.655  -0.929  1.00  0.00     0.001 A 
HETATM   30  C27 UNL     1       9.851  -0.563  -0.970  1.00  0.00     0.020 A 
ENDBRANCH  24  25
ENDBRANCH  19  23
ENDBRANCH  14  16
ENDBRANCH   9  14
BRANCH   6  31
HETATM   31  N1  UNL     1      -3.544   0.209  -0.029  1.00  0.00    -0.386 NA
BRANCH  31  32
HETATM   32  C7  UNL     1      -4.758  -0.298  -0.077  1.00  0.00     0.109 A 
HETATM   33  C8  UNL     1      -5.626  -0.216  -1.182  1.00  0.00     0.047 A 
HETATM   34  C9  UNL     1      -6.857  -0.812  -1.174  1.00  0.00     0.033 A 
HETATM   35  C10 UNL     1      -7.300  -1.526  -0.068  1.00  0.00     0.029 A 
HETATM   36  C13 UNL     1      -6.477  -1.629   1.039  1.00  0.00     0.033 A 
HETATM   37  C14 UNL     1      -5.260  -1.026   1.004  1.00  0.00     0.047 A 
BRANCH  35  38
HETATM   38  N2  UNL     1      -8.566  -2.160  -0.082  1.00  0.00    -0.390 N 
HETATM   39  C11 UNL     1      -9.056  -2.879   1.077  1.00  0.00     0.149 C 
HETATM   40  C12 UNL     1      -9.415  -2.118  -1.280  1.00  0.00     0.149 C 
ENDBRANCH  35  38
ENDBRANCH  31  32
ENDBRANCH   6  31
TORSDOF 7
