REMARK  5 active torsions:
REMARK  status: ('A' for Active; 'I' for Inactive)
REMARK    1  A    between atoms: C2_4  and  C3_5 
REMARK    2  A    between atoms: C3_5  and  N2_6 
REMARK    3  A    between atoms: C3_5  and  N7_23 
REMARK    4  A    between atoms: C11_18  and  N6_19 
REMARK    5  A    between atoms: N6_19  and  O1_21 
ROOT
HETATM    1  N2  UNL     1      -0.398  -0.196  -0.051  1.00  0.00    -0.300 N 
HETATM    2  C4  UNL     1      -0.482   1.121   0.214  1.00  0.00     0.143 A 
HETATM    3  N3  UNL     1      -1.663   1.896   0.328  1.00  0.00    -0.081 NA
HETATM    4  C5  UNL     1       0.792   1.613   0.362  1.00  0.00     0.101 A 
HETATM    5  C6  UNL     1       1.244   2.938   0.649  1.00  0.00     0.104 C 
HETATM    6  N4  UNL     1       1.604   4.013   0.897  1.00  0.00    -0.191 NA
HETATM    7  C7  UNL     1       1.642   0.544   0.176  1.00  0.00     0.046 A 
HETATM    8  C8  UNL     1       0.867  -0.591  -0.084  1.00  0.00     0.068 A 
HETATM    9  C9  UNL     1       1.518  -1.883  -0.323  1.00  0.00     0.118 C 
HETATM   10  N5  UNL     1       2.907  -1.846  -0.502  1.00  0.00    -0.371 N 
ATOM     11  H5  UNL     1       3.358  -2.484  -1.157  1.00  0.00     0.164 HD
HETATM   12  C10 UNL     1       3.671  -0.925   0.227  1.00  0.00     0.119 C 
HETATM   13  C11 UNL     1       3.097   0.444   0.210  1.00  0.00     0.083 C 
ENDROOT
BRANCH   1  14
HETATM   14  C3  UNL     1      -1.556  -1.040  -0.266  1.00  0.00     0.301 C 
BRANCH  14  15
HETATM   15  C2  UNL     1      -2.764  -0.503   0.415  1.00  0.00     0.108 C 
HETATM   16  N1  UNL     1      -3.868  -0.373  -0.188  1.00  0.00    -0.403 N 
HETATM   17  C1  UNL     1      -5.061   0.128   0.383  1.00  0.00     0.145 C 
ATOM     18  H1  UNL     1      -3.901  -0.653  -1.168  1.00  0.00     0.158 HD
ENDBRANCH  14  15
BRANCH  14  19
HETATM   19  N7  UNL     1      -1.817  -1.276  -1.652  1.00  0.00    -0.125 N 
HETATM   20  O2  UNL     1      -1.164  -0.693  -2.527  1.00  0.00    -0.534 OA
HETATM   21  O3  UNL     1      -2.795  -2.150  -2.050  1.00  0.00    -0.534 OA
ENDBRANCH  14  19
ENDBRANCH   1  14
BRANCH  13  22
HETATM   22  N6  UNL     1       3.788   1.515   0.222  1.00  0.00    -0.267 N 
ATOM     23  H6  UNL     1       3.280   2.399   0.207  1.00  0.00     0.194 HD
BRANCH  22  24
HETATM   24  O1  UNL     1       5.142   1.578   0.253  1.00  0.00    -0.289 OA
ATOM     25  H1  UNL     1       5.657   2.376   0.262  1.00  0.00     0.244 HD
ENDBRANCH  22  24
ENDBRANCH  13  22
TORSDOF 5
