REMARK  4 active torsions:
REMARK  status: ('A' for Active; 'I' for Inactive)
REMARK    1  A    between atoms: C3_4  and  C4_5 
REMARK    2  A    between atoms: C3_4  and  C5_8 
REMARK    3  A    between atoms: C7_12  and  N3_13 
REMARK    4  A    between atoms: C9_22  and  N6_23 
ROOT
HETATM    1  N1  UNL     1       4.961   0.035  -1.514  1.00  0.00    -0.192 NA
HETATM    2  C1  UNL     1       3.973   0.193  -0.892  1.00  0.00     0.089 C 
HETATM    3  C2  UNL     1       2.791   0.405  -0.106  1.00  0.00     0.114 C 
HETATM    4  C3  UNL     1       1.612  -0.031  -0.454  1.00  0.00     0.081 C 
ENDROOT
BRANCH   4   5
HETATM    5  C4  UNL     1       1.424  -0.776  -1.708  1.00  0.00     0.212 C 
HETATM    6  O1  UNL     1       0.299  -1.189  -2.011  1.00  0.00    -0.644 OA
HETATM    7  O2  UNL     1       2.465  -1.028  -2.558  1.00  0.00    -0.644 OA
ENDBRANCH   4   5
BRANCH   4   8
HETATM    8  C5  UNL     1       0.424   0.078   0.406  1.00  0.00     0.094 A 
HETATM    9  N2  UNL     1      -0.756   0.150  -0.251  1.00  0.00    -0.347 N 
HETATM   10  C6  UNL     1      -1.945   0.223   0.420  1.00  0.00     0.119 A 
ATOM     11  H2  UNL     1      -0.759   0.150  -1.271  1.00  0.00     0.166 HD
HETATM   12  C7  UNL     1      -3.196   0.312  -0.106  1.00  0.00     0.209 A 
HETATM   13  C8  UNL     1      -1.854   0.217   1.783  1.00  0.00     0.123 A 
HETATM   14  N4  UNL     1      -4.210   0.382   0.759  1.00  0.00    -0.304 N 
HETATM   15  S1  UNL     1      -3.505   0.332   2.264  1.00  0.00     0.008 SA
ATOM     16  H4  UNL     1      -5.204   0.451   0.543  1.00  0.00     0.176 HD
HETATM   17  N5  UNL     1      -0.683   0.143   2.434  1.00  0.00    -0.332 N 
HETATM   18  C9  UNL     1       0.521   0.067   1.746  1.00  0.00     0.128 A 
ATOM     19  H5  UNL     1      -0.677   0.143   3.454  1.00  0.00     0.168 HD
BRANCH  12  20
HETATM   20  N3  UNL     1      -3.493   0.355  -1.535  1.00  0.00    -0.095 N 
HETATM   21  O3  UNL     1      -2.826  -0.251  -2.373  1.00  0.00    -0.530 OA
HETATM   22  O4  UNL     1      -4.554   1.080  -1.989  1.00  0.00    -0.530 OA
ENDBRANCH  12  20
BRANCH  18  23
HETATM   23  N6  UNL     1       1.513  -0.092   2.460  1.00  0.00    -0.384 N 
ATOM     24  H62 UNL     1       2.397  -0.148   1.955  1.00  0.00     0.157 HD
ATOM     25  H61 UNL     1       1.587  -0.100   3.477  1.00  0.00     0.157 HD
ENDBRANCH  18  23
ENDBRANCH   4   8
TORSDOF 4
