REMARK  7 active torsions:
REMARK  status: ('A' for Active; 'I' for Inactive)
REMARK    1  A    between atoms: C3_4  and  N2_5 
REMARK    2  A    between atoms: C4_8  and  N3_9 
REMARK    3  A    between atoms: N3_9  and  N4_11 
REMARK    4  A    between atoms: C5_13  and  C6_14 
REMARK    5  A    between atoms: C9_17  and  O3_18 
REMARK    6  A    between atoms: N6_22  and  N7_23 
REMARK    7  A    between atoms: N7_23  and  O4_27 
ROOT
HETATM    1  C1  UNL     1      -5.011   0.684   0.312  1.00  0.00     0.179 C 
HETATM    2  N1  UNL     1      -3.563   0.663   0.006  1.00  0.00    -0.279 N 
HETATM    3  C2  UNL     1      -2.809   1.677  -0.390  1.00  0.00     0.152 A 
HETATM    4  C3  UNL     1      -1.464   1.260  -0.559  1.00  0.00     0.168 A 
HETATM    5  C4  UNL     1      -1.473  -0.063  -0.240  1.00  0.00     0.199 A 
HETATM    6  N6  UNL     1      -2.779  -0.387   0.099  1.00  0.00    -0.133 N 
ENDROOT
BRANCH   5   7
HETATM    7  N3  UNL     1      -0.544  -0.908  -0.155  1.00  0.00    -0.281 N 
ATOM      8  H3  UNL     1      -0.837  -1.850   0.105  1.00  0.00     0.188 HD
BRANCH   7   9
HETATM    9  N4  UNL     1       0.789  -0.754  -0.357  1.00  0.00    -0.308 N 
HETATM   10  C5  UNL     1       1.612  -0.793   0.670  1.00  0.00     0.136 C 
ATOM     11  H4  UNL     1       1.151  -0.609  -1.299  1.00  0.00     0.186 HD
BRANCH  10  12
HETATM   12  C6  UNL     1       3.038  -0.639   0.534  1.00  0.00     0.051 A 
HETATM   13  C7  UNL     1       3.913  -0.652   1.642  1.00  0.00     0.035 A 
HETATM   14  C8  UNL     1       5.171  -0.486   1.158  1.00  0.00     0.058 A 
HETATM   15  C9  UNL     1       5.097  -0.372  -0.217  1.00  0.00     0.140 A 
HETATM   16  N5  UNL     1       3.792  -0.468  -0.556  1.00  0.00    -0.336 N 
ATOM     17  H5  UNL     1       3.433  -0.417  -1.509  1.00  0.00     0.168 HD
BRANCH  15  18
HETATM   18  O3  UNL     1       6.109  -0.196  -1.128  1.00  0.00    -0.346 OA
ATOM     19  H3  UNL     1       6.058  -0.118  -2.073  1.00  0.00     0.219 HD
ENDBRANCH  15  18
ENDBRANCH  10  12
ENDBRANCH   7   9
ENDBRANCH   5   7
BRANCH   4  20
HETATM   20  N2  UNL     1      -0.423   2.127  -0.978  1.00  0.00    -0.110 N 
HETATM   21  O1  UNL     1      -0.523   3.363  -0.685  1.00  0.00    -0.532 OA
HETATM   22  O2  UNL     1       0.686   1.797  -1.683  1.00  0.00    -0.532 OA
ENDBRANCH   4  20
BRANCH   6  23
HETATM   23  N7  UNL     1      -3.195  -1.661   0.464  1.00  0.00    -0.078 N 
HETATM   24  N8  UNL     1      -3.328  -2.617  -0.334  1.00  0.00    -0.302 N 
ATOM     25  H82 UNL     1      -3.127  -2.434  -1.317  1.00  0.00     0.181 HD
ATOM     26  H81 UNL     1      -3.633  -3.553  -0.066  1.00  0.00     0.181 HD
BRANCH  23  27
HETATM   27  O4  UNL     1      -3.471  -1.912   1.811  1.00  0.00    -0.252 OA
ATOM     28  H4  UNL     1      -3.756  -2.783   2.061  1.00  0.00     0.248 HD
ENDBRANCH  23  27
ENDBRANCH   6  23
TORSDOF 7
