REMARK  5 active torsions:
REMARK  status: ('A' for Active; 'I' for Inactive)
REMARK    1  A    between atoms: C2_2  and  O2_4 
REMARK    2  A    between atoms: O2_4  and  C3_5 
REMARK    3  A    between atoms: C3_5  and  N1_6 
REMARK    4  A    between atoms: C4_7  and  C5_8 
REMARK    5  A    between atoms: C8_16  and  N4_17 
ROOT
HETATM    1  N1  UNL     1       1.175  -1.094   0.434  1.00  0.00    -0.196 N 
HETATM    2  C4  UNL     1       0.984  -2.101  -0.423  1.00  0.00     0.224 A 
HETATM    3  N2  UNL     1      -0.268  -1.918  -0.932  1.00  0.00    -0.255 N 
ATOM      4  H2  UNL     1      -0.725  -2.516  -1.621  1.00  0.00     0.191 HD
HETATM    5  N3  UNL     1      -0.786  -0.842  -0.385  1.00  0.00    -0.175 N 
HETATM    6  C6  UNL     1      -1.933  -0.098  -0.415  1.00  0.00     0.065 A 
HETATM    7  C7  UNL     1      -1.780   0.955   0.459  1.00  0.00     0.015 A 
HETATM    8  C8  UNL     1      -0.505   0.783   0.986  1.00  0.00     0.150 A 
HETATM    9  N5  UNL     1       0.075  -0.312   0.459  1.00  0.00    -0.148 N 
HETATM   10  C9  UNL     1      -2.829   1.989   0.698  1.00  0.00     0.044 C 
HETATM   11  C10 UNL     1      -4.104   1.647   0.020  1.00  0.00     0.005 C 
HETATM   12  C11 UNL     1      -4.315   0.181  -0.225  1.00  0.00     0.006 C 
HETATM   13  C12 UNL     1      -3.204  -0.252  -1.186  1.00  0.00     0.062 C 
ENDROOT
BRANCH   1  14
HETATM   14  C3  UNL     1       2.359  -0.774   1.211  1.00  0.00     0.266 C 
BRANCH  14  15
HETATM   15  O2  UNL     1       3.184   0.201   0.741  1.00  0.00    -0.272 OA
BRANCH  15  16
HETATM   16  C2  UNL     1       3.903   0.420  -0.362  1.00  0.00     0.260 C 
HETATM   17  C1  UNL     1       4.749   1.646  -0.590  1.00  0.00     0.126 C 
HETATM   18  O1  UNL     1       3.900  -0.419  -1.282  1.00  0.00    -0.265 OA
ENDBRANCH  15  16
ENDBRANCH  14  15
ENDBRANCH   1  14
BRANCH   2  19
HETATM   19  C5  UNL     1       1.859  -3.241  -0.764  1.00  0.00     0.248 C 
HETATM   20  O3  UNL     1       1.460  -4.061  -1.626  1.00  0.00    -0.642 OA
HETATM   21  O4  UNL     1       3.086  -3.475  -0.202  1.00  0.00    -0.642 OA
ENDBRANCH   2  19
BRANCH   8  22
HETATM   22  N4  UNL     1      -0.025   1.603   1.847  1.00  0.00    -0.382 N 
ATOM     23  H42 UNL     1      -0.464   2.432   2.246  1.00  0.00     0.157 HD
ATOM     24  H41 UNL     1       0.910   1.477   2.234  1.00  0.00     0.157 HD
ENDBRANCH   8  22
TORSDOF 5
