REMARK  5 active torsions:
REMARK  status: ('A' for Active; 'I' for Inactive)
REMARK    1  A    between atoms: C2_2  and  C4_5 
REMARK    2  A    between atoms: C4_5  and  O1_6 
REMARK    3  A    between atoms: C4_5  and  N2_8 
REMARK    4  A    between atoms: C8_16  and  S1_17 
REMARK    5  A    between atoms: S1_17  and  C9_18 
ROOT
HETATM    1  C1  UNL     1       2.593   2.340  -0.147  1.00  0.00     0.040 C 
HETATM    2  C2  UNL     1       3.278   1.258  -0.170  1.00  0.00     0.087 C 
HETATM    3  C3  UNL     1       4.762   1.410  -0.193  1.00  0.00     0.103 C 
HETATM    4  N1  UNL     1       5.911   1.508  -0.218  1.00  0.00    -0.191 NA
ENDROOT
BRANCH   2   5
HETATM    5  C4  UNL     1       2.788  -0.082  -0.210  1.00  0.00     0.179 C 
BRANCH   5   6
HETATM    6  O1  UNL     1       3.702  -1.039  -0.173  1.00  0.00    -0.344 OA
ATOM      7  H1  UNL     1       3.376  -1.931  -0.200  1.00  0.00     0.219 HD
ENDBRANCH   5   6
BRANCH   5   8
HETATM    8  N2  UNL     1       1.497  -0.588  -0.280  1.00  0.00    -0.250 N 
HETATM    9  C5  UNL     1       1.338  -2.059  -0.153  1.00  0.00     0.273 C 
HETATM   10  N3  UNL     1       0.312  -2.279   0.855  1.00  0.00    -0.364 N 
HETATM   11  C6  UNL     1      -0.919  -1.576   0.679  1.00  0.00     0.144 A 
ATOM     12  H3  UNL     1       0.464  -2.903   1.647  1.00  0.00     0.161 HD
HETATM   13  C7  UNL     1      -0.903  -0.381   0.007  1.00  0.00     0.154 A 
HETATM   14  C10 UNL     1      -2.103  -2.109   1.185  1.00  0.00     0.277 A 
HETATM   15  N4  UNL     1      -2.088   0.271  -0.150  1.00  0.00    -0.319 N 
HETATM   16  N6  UNL     1       0.321   0.148  -0.499  1.00  0.00    -0.278 N 
HETATM   17  C8  UNL     1      -3.241  -0.226   0.331  1.00  0.00     0.155 A 
ATOM     18  H4  UNL     1      -2.101   1.162  -0.647  1.00  0.00     0.169 HD
HETATM   19  N5  UNL     1      -3.234  -1.408   0.992  1.00  0.00    -0.301 N 
ATOM     20  H5  UNL     1      -4.113  -1.777   1.354  1.00  0.00     0.171 HD
ATOM     21  H6  UNL     1       0.342   1.034  -1.004  1.00  0.00     0.189 HD
HETATM   22  O3  UNL     1      -2.047  -3.211   1.793  1.00  0.00    -0.265 OA
BRANCH  17  23
HETATM   23  S1  UNL     1      -4.803   0.603   0.141  1.00  0.00    -0.025 SA
BRANCH  23  24
HETATM   24  C9  UNL     1      -4.673   2.124  -0.733  1.00  0.00     0.312 C 
HETATM   25  O2  UNL     1      -4.263   3.115  -0.177  1.00  0.00    -0.295 OA
ENDBRANCH  23  24
ENDBRANCH  17  23
ENDBRANCH   5   8
ENDBRANCH   2   5
TORSDOF 5
