REMARK  12 active torsions:
REMARK  status: ('A' for Active; 'I' for Inactive)
REMARK    1  A    between atoms: C2_2  and  C3_3 
REMARK    2  A    between atoms: C3_3  and  C4_4 
REMARK    3  A    between atoms: C4_4  and  N1_5 
REMARK       I    between atoms: N1_5  and  C5_7 
REMARK       I    between atoms: C5_7  and  N2_9 
REMARK    4  A    between atoms: N2_9  and  N3_11 
REMARK       I    between atoms: N3_11  and  C6_13 
REMARK    5  A    between atoms: C6_13  and  C7_15 
REMARK    6  A    between atoms: C7_15  and  O3_16 
REMARK    7  A    between atoms: O3_16  and  C8_17 
REMARK    8  A    between atoms: C9_18  and  N4_19 
REMARK    9  A    between atoms: C11_24  and  N5_25 
REMARK   10  A    between atoms: C12_29  and  O4_30 
REMARK   11  A    between atoms: O4_30  and  C13_31 
REMARK   12  A    between atoms: C19_37  and  O5_38 
ROOT
HETATM    1  C8  UNL     1      -0.416   1.222   1.220  1.00  0.00     0.188 C 
HETATM    2  C9  UNL     1      -1.335   2.445   1.110  1.00  0.00     0.217 C 
HETATM    3  C10 UNL     1      -2.767   2.193   1.380  1.00  0.00     0.071 C 
HETATM    4  C11 UNL     1      -2.966   0.787   1.803  1.00  0.00     0.217 C 
HETATM    5  C12 UNL     1      -2.504  -0.129   0.699  1.00  0.00     0.183 C 
HETATM    6  C19 UNL     1      -1.025   0.029   0.491  1.00  0.00     0.180 C 
ENDROOT
BRANCH   1   7
HETATM    7  O3  UNL     1       0.120   0.999   2.339  1.00  0.00    -0.329 OA
BRANCH   7   8
HETATM    8  C7  UNL     1       0.707   0.795   3.423  1.00  0.00     0.348 A 
HETATM    9  O6  UNL     1      -0.041   0.269   4.576  1.00  0.00    -0.260 OA
HETATM   10  C20 UNL     1       0.406   1.546   4.673  1.00  0.00     0.336 A 
HETATM   11  O7  UNL     1       0.549   2.644   5.267  1.00  0.00    -0.258 OA
BRANCH   8  12
HETATM   12  C6  UNL     1       2.176   0.410   3.456  1.00  0.00     0.310 C 
HETATM   13  N3  UNL     1       2.864   0.398   2.216  1.00  0.00    -0.261 N 
ATOM     14  H3  UNL     1       2.336   0.632   1.375  1.00  0.00     0.190 HD
HETATM   15  O2  UNL     1       2.772   0.120   4.512  1.00  0.00    -0.265 OA
BRANCH  13  16
HETATM   16  N2  UNL     1       4.199   0.091   2.074  1.00  0.00    -0.249 N 
HETATM   17  C5  UNL     1       4.721  -0.806   1.072  1.00  0.00     0.338 C 
HETATM   18  N1  UNL     1       6.114  -1.031   1.004  1.00  0.00    -0.321 N 
HETATM   19  O1  UNL     1       3.945  -1.369   0.278  1.00  0.00    -0.245 OA
ATOM     20  H1  UNL     1       6.655  -0.538   1.714  1.00  0.00     0.169 HD
ATOM     21  H2  UNL     1       4.860   0.525   2.718  1.00  0.00     0.192 HD
BRANCH  18  22
HETATM   22  C4  UNL     1       6.884  -1.816   0.129  1.00  0.00     0.065 C 
BRANCH  22  23
HETATM   23  C3  UNL     1       7.019  -1.462  -1.300  1.00  0.00     0.044 C 
BRANCH  23  24
HETATM   24  C2  UNL     1       5.813  -1.367  -2.152  1.00  0.00     0.001 C 
HETATM   25  C1  UNL     1       6.226  -1.066  -3.612  1.00  0.00     0.005 C 
ENDBRANCH  23  24
ENDBRANCH  22  23
ENDBRANCH  18  22
ENDBRANCH  13  16
ENDBRANCH   8  12
ENDBRANCH   7   8
ENDBRANCH   1   7
BRANCH   2  26
HETATM   26  N4  UNL     1      -1.116   3.194  -0.112  1.00  0.00    -0.072 N 
ATOM     27  H43 UNL     1      -0.136   3.461  -0.209  1.00  0.00     0.274 HD
ATOM     28  H42 UNL     1      -1.204   2.593  -0.932  1.00  0.00     0.274 HD
ATOM     29  H41 UNL     1      -1.727   4.007  -0.185  1.00  0.00     0.274 HD
ENDBRANCH   2  26
BRANCH   6  30
HETATM   30  O5  UNL     1      -0.306  -1.091   0.981  1.00  0.00    -0.390 OA
ATOM     31  H5  UNL     1      -0.685  -1.834   0.527  1.00  0.00     0.210 HD
ENDBRANCH   6  30
BRANCH   5  32
HETATM   32  O4  UNL     1      -3.109   0.048  -0.514  1.00  0.00    -0.376 OA
BRANCH  32  33
HETATM   33  C13 UNL     1      -3.875  -0.977  -0.999  1.00  0.00     0.122 C 
HETATM   34  C14 UNL     1      -3.398  -1.660  -2.210  1.00  0.00     0.032 C 
HETATM   35  C15 UNL     1      -4.256  -1.675  -3.421  1.00  0.00     0.002 C 
HETATM   36  C16 UNL     1      -5.720  -1.735  -3.027  1.00  0.00     0.000 C 
HETATM   37  C17 UNL     1      -5.952  -0.402  -2.339  1.00  0.00     0.002 C 
HETATM   38  C18 UNL     1      -5.310  -0.523  -0.981  1.00  0.00     0.032 C 
ENDBRANCH  32  33
ENDBRANCH   5  32
BRANCH   4  39
HETATM   39  N5  UNL     1      -4.289   0.467   2.288  1.00  0.00    -0.072 N 
ATOM     40  H53 UNL     1      -4.546   1.100   3.045  1.00  0.00     0.274 HD
ATOM     41  H52 UNL     1      -4.989   0.725   1.592  1.00  0.00     0.274 HD
ATOM     42  H51 UNL     1      -4.426  -0.501   2.579  1.00  0.00     0.274 HD
ENDBRANCH   4  39
TORSDOF 12
