REMARK  12 active torsions:
REMARK  status: ('A' for Active; 'I' for Inactive)
REMARK    1  A    between atoms: C1_2  and  S2_4 
REMARK    2  A    between atoms: S2_4  and  C2_5 
REMARK    3  A    between atoms: C2_5  and  C3_6 
REMARK    4  A    between atoms: C3_6  and  O1_7 
REMARK    5  A    between atoms: C4_10  and  C5_11 
REMARK    6  A    between atoms: C5_11  and  O3_12 
REMARK    7  A    between atoms: C6_14  and  O4_15 
REMARK    8  A    between atoms: C7_17  and  O5_18 
REMARK    9  A    between atoms: O5_18  and  C8_19 
REMARK   10  A    between atoms: C8_19  and  C9_21 
REMARK   11  A    between atoms: C9_21  and  C10_22 
REMARK   12  A    between atoms: C19_34  and  O7_35 
ROOT
HETATM    1  C2  UNL     1      -3.994   0.278   0.937  1.00  0.00     0.165 C 
HETATM    2  O2  UNL     1      -4.756   0.070  -0.159  1.00  0.00    -0.354 OA
HETATM    3  C4  UNL     1      -4.232  -0.290  -1.323  1.00  0.00     0.178 C 
HETATM    4  C6  UNL     1      -2.964  -1.095  -1.292  1.00  0.00     0.181 C 
HETATM    5  C7  UNL     1      -1.977  -0.282  -0.474  1.00  0.00     0.195 C 
HETATM    6  C19 UNL     1      -2.590  -0.217   0.909  1.00  0.00     0.198 C 
ENDROOT
BRANCH   5   7
HETATM    7  O5  UNL     1      -0.779  -1.028  -0.431  1.00  0.00    -0.310 OA
BRANCH   7   8
HETATM    8  C8  UNL     1       0.393  -0.463  -0.883  1.00  0.00     0.261 C 
HETATM    9  O6  UNL     1       0.361   0.713  -1.326  1.00  0.00    -0.265 OA
BRANCH   8  10
HETATM   10  C9  UNL     1       1.644  -1.270  -0.827  1.00  0.00     0.144 C 
BRANCH  10  11
HETATM   11  C10 UNL     1       2.412  -0.893   0.403  1.00  0.00     0.198 A 
HETATM   12  C11 UNL     1       2.843   0.530   0.530  1.00  0.00     0.072 A 
HETATM   13  C12 UNL     1       4.272   0.084   0.386  1.00  0.00     0.129 A 
HETATM   14  C13 UNL     1       4.896   0.484  -0.921  1.00  0.00     0.043 C 
HETATM   15  C18 UNL     1       5.149   0.282   1.568  1.00  0.00     0.043 C 
HETATM   16  N2  UNL     1       3.784  -1.295   0.347  1.00  0.00    -0.061 N 
HETATM   17  C14 UNL     1       6.386   0.493  -0.851  1.00  0.00    -0.012 C 
HETATM   18  C15 UNL     1       6.778   1.537   0.204  1.00  0.00     0.009 C 
HETATM   19  C17 UNL     1       6.929  -0.552   0.109  1.00  0.00     0.009 C 
HETATM   20  C16 UNL     1       6.596   0.415   1.227  1.00  0.00    -0.012 C 
ATOM     21  H22 UNL     1       4.129  -1.956   1.043  1.00  0.00     0.278 HD
ATOM     22  H21 UNL     1       4.086  -1.900  -0.417  1.00  0.00     0.278 HD
ENDBRANCH  10  11
ENDBRANCH   8  10
ENDBRANCH   7   8
ENDBRANCH   5   7
BRANCH   4  23
HETATM   23  O4  UNL     1      -2.506  -1.309  -2.576  1.00  0.00    -0.390 OA
ATOM     24  H4  UNL     1      -1.704  -1.818  -2.556  1.00  0.00     0.210 HD
ENDBRANCH   4  23
BRANCH   6  25
HETATM   25  O7  UNL     1      -2.432  -1.490   1.460  1.00  0.00    -0.389 OA
ATOM     26  H7  UNL     1      -1.536  -1.806   1.442  1.00  0.00     0.210 HD
ENDBRANCH   6  25
BRANCH   3  27
HETATM   27  C5  UNL     1      -5.247  -1.052  -2.152  1.00  0.00     0.198 C 
BRANCH  27  28
HETATM   28  O3  UNL     1      -6.335  -0.205  -2.360  1.00  0.00    -0.398 OA
ATOM     29  H3  UNL     1      -6.971  -0.683  -2.880  1.00  0.00     0.209 HD
ENDBRANCH  27  28
ENDBRANCH   3  27
BRANCH   1  30
HETATM   30  S2  UNL     1      -3.904   2.084   1.169  1.00  0.00    -0.060 SA
BRANCH  30  31
HETATM   31  C1  UNL     1      -5.457   2.890   1.030  1.00  0.00     0.152 C 
HETATM   32  N1  UNL     1      -6.636   2.171   0.737  1.00  0.00    -0.082 NA
HETATM   33  S1  UNL     1      -5.534   4.503   1.244  1.00  0.00    -0.056 SA
ENDBRANCH  30  31
ENDBRANCH   1  30
BRANCH   1  34
HETATM   34  C3  UNL     1      -4.775  -0.233   2.139  1.00  0.00     0.216 C 
BRANCH  34  35
HETATM   35  O1  UNL     1      -5.082  -1.560   2.072  1.00  0.00    -0.397 OA
ATOM     36  H1  UNL     1      -5.570  -1.879   2.822  1.00  0.00     0.209 HD
ENDBRANCH  34  35
ENDBRANCH   1  34
TORSDOF 12
