REMARK  12 active torsions:
REMARK  status: ('A' for Active; 'I' for Inactive)
REMARK    1  A    between atoms: N1_2  and  C2_4 
REMARK    2  A    between atoms: C4_6  and  N2_7 
REMARK    3  A    between atoms: C5_11  and  O1_12 
REMARK    4  A    between atoms: C6_14  and  O2_15 
REMARK    5  A    between atoms: C7_17  and  O3_18 
REMARK    6  A    between atoms: O3_18  and  C8_19 
REMARK    7  A    between atoms: C11_22  and  O4_23 
REMARK    8  A    between atoms: O4_23  and  S1_24 
REMARK    9  A    between atoms: S1_24  and  N3_25 
REMARK   10  A    between atoms: S1_24  and  C12_29 
REMARK   11  A    between atoms: C15_32  and  O6_33 
REMARK   12  A    between atoms: C20_38  and  N4_39 
ROOT
HETATM    1  C8  UNL     1      -1.027  -0.978   0.224  1.00  0.00     0.152 C 
HETATM    2  C9  UNL     1       0.117  -0.209   0.960  1.00  0.00     0.036 C 
HETATM    3  C10 UNL     1       1.115  -1.175   1.517  1.00  0.00     0.036 C 
HETATM    4  C11 UNL     1       1.694  -2.108   0.509  1.00  0.00     0.143 C 
HETATM    5  C19 UNL     1       0.552  -2.808  -0.196  1.00  0.00     0.068 C 
HETATM    6  C20 UNL     1      -0.273  -1.713  -0.848  1.00  0.00     0.214 C 
ENDROOT
BRANCH   1   7
HETATM    7  O3  UNL     1      -1.890  -0.108  -0.341  1.00  0.00    -0.374 OA
BRANCH   7   8
HETATM    8  C7  UNL     1      -3.162  -0.023   0.189  1.00  0.00     0.175 C 
HETATM    9  C2  UNL     1      -3.445   1.266   0.888  1.00  0.00     0.109 C 
HETATM   10  C3  UNL     1      -4.549   2.104   0.355  1.00  0.00     0.062 C 
HETATM   11  C4  UNL     1      -5.614   1.398  -0.414  1.00  0.00     0.216 C 
HETATM   12  C5  UNL     1      -4.855   0.662  -1.531  1.00  0.00     0.179 C 
HETATM   13  C6  UNL     1      -4.171  -0.475  -0.791  1.00  0.00     0.179 C 
BRANCH   9  14
HETATM   14  N1  UNL     1      -3.575   1.167   2.311  1.00  0.00    -0.419 N 
HETATM   15  C1  UNL     1      -4.746   0.541   2.797  1.00  0.00     0.140 C 
ATOM     16  H1  UNL     1      -2.860   1.529   2.941  1.00  0.00     0.153 HD
ENDBRANCH   9  14
BRANCH  11  17
HETATM   17  N2  UNL     1      -6.454   2.370  -1.065  1.00  0.00    -0.072 N 
ATOM     18  H23 UNL     1      -6.837   3.051  -0.409  1.00  0.00     0.274 HD
ATOM     19  H22 UNL     1      -5.920   3.015  -1.647  1.00  0.00     0.274 HD
ATOM     20  H21 UNL     1      -7.182   1.887  -1.591  1.00  0.00     0.274 HD
ENDBRANCH  11  17
BRANCH  12  21
HETATM   21  O1  UNL     1      -5.778   0.142  -2.402  1.00  0.00    -0.391 OA
ATOM     22  H1  UNL     1      -5.309  -0.313  -3.092  1.00  0.00     0.210 HD
ENDBRANCH  12  21
BRANCH  13  23
HETATM   23  O2  UNL     1      -5.250  -1.165  -0.168  1.00  0.00    -0.390 OA
ATOM     24  H2  UNL     1      -4.822  -1.876   0.295  1.00  0.00     0.210 HD
ENDBRANCH  13  23
ENDBRANCH   7   8
ENDBRANCH   1   7
BRANCH   6  25
HETATM   25  N4  UNL     1      -1.023  -2.168  -1.961  1.00  0.00    -0.072 N 
ATOM     26  H43 UNL     1      -1.801  -2.742  -1.636  1.00  0.00     0.274 HD
ATOM     27  H42 UNL     1      -1.528  -1.385  -2.375  1.00  0.00     0.274 HD
ATOM     28  H41 UNL     1      -0.511  -2.667  -2.689  1.00  0.00     0.274 HD
ENDBRANCH   6  25
BRANCH   4  29
HETATM   29  O4  UNL     1       2.416  -1.447  -0.498  1.00  0.00    -0.282 OA
BRANCH  29  30
HETATM   30  S1  UNL     1       3.998  -1.944  -0.589  1.00  0.00     0.172 S 
HETATM   31  O5  UNL     1       4.279  -3.111   0.326  1.00  0.00    -0.216 OA
BRANCH  30  32
HETATM   32  N3  UNL     1       4.307  -2.434  -2.034  1.00  0.00    -0.336 N 
ATOM     33  H32 UNL     1       3.630  -2.442  -2.797  1.00  0.00     0.168 HD
ATOM     34  H31 UNL     1       5.279  -2.739  -2.090  1.00  0.00     0.168 HD
ENDBRANCH  30  32
BRANCH  30  35
HETATM   35  C12 UNL     1       5.084  -0.629  -0.233  1.00  0.00     0.064 A 
HETATM   36  C13 UNL     1       5.497  -0.400   1.059  1.00  0.00     0.027 A 
HETATM   37  C14 UNL     1       6.367   0.650   1.360  1.00  0.00     0.038 A 
HETATM   38  C15 UNL     1       6.823   1.477   0.345  1.00  0.00     0.068 A 
HETATM   39  C17 UNL     1       6.399   1.233  -0.944  1.00  0.00     0.038 A 
HETATM   40  C18 UNL     1       5.531   0.185  -1.245  1.00  0.00     0.027 A 
BRANCH  38  41
HETATM   41  O6  UNL     1       7.691   2.531   0.621  1.00  0.00    -0.356 OA
HETATM   42  C16 UNL     1       8.130   3.349  -0.445  1.00  0.00     0.210 C 
ENDBRANCH  38  41
ENDBRANCH  30  35
ENDBRANCH  29  30
ENDBRANCH   4  29
TORSDOF 12
