REMARK  10 active torsions:
REMARK  status: ('A' for Active; 'I' for Inactive)
REMARK    1  A    between atoms: C2_2  and  S1_3 
REMARK    2  A    between atoms: S1_3  and  C3_4 
REMARK    3  A    between atoms: C3_4  and  C4_6 
REMARK    4  A    between atoms: C5_10  and  C6_11 
REMARK       I    between atoms: C6_11  and  N2_13 
REMARK    5  A    between atoms: N2_13  and  C7_15 
REMARK    6  A    between atoms: C8_17  and  C9_18 
REMARK    7  A    between atoms: C10_21  and  N4_22 
REMARK    8  A    between atoms: N4_22  and  C11_25 
REMARK    9  A    between atoms: C18_32  and  O6_33 
REMARK   10  A    between atoms: C19_35  and  O7_36 
ROOT
HETATM    1  C7  UNL     1       0.194  -2.260   0.656  1.00  0.00     0.255 C 
HETATM    2  O4  UNL     1      -0.284  -2.663   1.852  1.00  0.00    -0.348 OA
HETATM    3  C8  UNL     1      -1.435  -1.973   2.226  1.00  0.00     0.246 C 
HETATM    4  C10 UNL     1      -1.922  -1.311   0.950  1.00  0.00     0.256 C 
HETATM    5  C18 UNL     1      -0.575  -0.973   0.335  1.00  0.00     0.200 C 
ENDROOT
BRANCH   1   6
HETATM    6  N2  UNL     1       1.624  -1.981   0.703  1.00  0.00    -0.330 N 
HETATM    7  C6  UNL     1       2.480  -2.556  -0.268  1.00  0.00     0.254 C 
HETATM    8  O3  UNL     1       2.045  -3.309  -1.184  1.00  0.00    -0.270 OA
ATOM      9  H2  UNL     1       2.006  -1.376   1.430  1.00  0.00     0.165 HD
BRANCH   7  10
HETATM   10  C5  UNL     1       3.931  -2.272  -0.220  1.00  0.00     0.278 C 
HETATM   11  O2  UNL     1       4.187  -1.455   0.903  1.00  0.00    -0.262 OA
HETATM   12  N1  UNL     1       4.990  -0.412   0.578  1.00  0.00    -0.263 N 
HETATM   13  C4  UNL     1       5.138  -0.317  -0.697  1.00  0.00     0.120 C 
ATOM     14  H1  UNL     1       5.421   0.216   1.256  1.00  0.00     0.194 HD
HETATM   15  C19 UNL     1       4.362  -1.397  -1.352  1.00  0.00     0.215 C 
BRANCH  13  16
HETATM   16  C3  UNL     1       5.938   0.692  -1.415  1.00  0.00     0.235 C 
HETATM   17  O1  UNL     1       5.971   0.637  -2.658  1.00  0.00    -0.278 OA
BRANCH  16  18
HETATM   18  S1  UNL     1       6.797   1.908  -0.442  1.00  0.00    -0.086 SA
BRANCH  18  19
HETATM   19  C2  UNL     1       7.642   3.085  -1.528  1.00  0.00     0.078 C 
HETATM   20  C1  UNL     1       8.722   2.346  -2.276  1.00  0.00     0.016 C 
ENDBRANCH  18  19
ENDBRANCH  16  18
ENDBRANCH  13  16
BRANCH  15  21
HETATM   21  O7  UNL     1       3.304  -0.854  -2.083  1.00  0.00    -0.386 OA
ATOM     22  H7  UNL     1       2.807  -1.546  -2.503  1.00  0.00     0.210 HD
ENDBRANCH  15  21
ENDBRANCH   7  10
ENDBRANCH   1   6
BRANCH   5  23
HETATM   23  O6  UNL     1       0.037   0.081   0.963  1.00  0.00    -0.389 OA
ATOM     24  H6  UNL     1      -0.439   0.878   0.764  1.00  0.00     0.210 HD
ENDBRANCH   5  23
BRANCH   3  25
HETATM   25  C9  UNL     1      -1.057  -1.021   3.284  1.00  0.00     0.262 C 
HETATM   26  N3  UNL     1      -1.942  -0.137   3.945  1.00  0.00    -0.060 NA
HETATM   27  O5  UNL     1       0.159  -0.971   3.653  1.00  0.00    -0.274 OA
ENDBRANCH   3  25
BRANCH   4  28
HETATM   28  N4  UNL     1      -2.759  -0.208   1.236  1.00  0.00    -0.061 N 
ATOM     29  H42 UNL     1      -3.372  -0.402   2.028  1.00  0.00     0.278 HD
ATOM     30  H41 UNL     1      -2.229   0.568   1.632  1.00  0.00     0.278 HD
BRANCH  28  31
HETATM   31  C11 UNL     1      -3.524   0.213   0.059  1.00  0.00     0.186 C 
HETATM   32  C12 UNL     1      -3.901   1.659   0.228  1.00  0.00     0.033 C 
HETATM   33  C13 UNL     1      -4.429   2.207  -1.084  1.00  0.00     0.002 C 
HETATM   34  C14 UNL     1      -5.678   1.476  -1.448  1.00  0.00     0.000 C 
HETATM   35  C15 UNL     1      -6.538   1.078  -0.279  1.00  0.00     0.000 C 
HETATM   36  C16 UNL     1      -5.969  -0.039   0.542  1.00  0.00     0.002 C 
HETATM   37  C17 UNL     1      -4.747  -0.666  -0.080  1.00  0.00     0.033 C 
ENDBRANCH  28  31
ENDBRANCH   4  28
TORSDOF 10
