REMARK  7 active torsions:
REMARK  status: ('A' for Active; 'I' for Inactive)
REMARK    1  A    between atoms: C10_10  and  C11_11 
REMARK    2  A    between atoms: C11_11  and  N1_12 
REMARK    3  A    between atoms: C15_16  and  C16_17 
REMARK    4  A    between atoms: C15_16  and  C17_20 
REMARK    5  A    between atoms: C16_17  and  O1_18 
REMARK    6  A    between atoms: C17_20  and  C18_21 
REMARK    7  A    between atoms: C18_21  and  O2_22 
ROOT
HETATM    1  N1  UNL     1      -0.708   0.155   0.180  1.00  0.00     0.090 N 
HETATM    2  C12 UNL     1      -1.084   0.456   1.512  1.00  0.00     0.272 C 
HETATM    3  C13 UNL     1      -2.280   1.384   1.476  1.00  0.00     0.031 C 
HETATM    4  C14 UNL     1      -3.442   0.554   0.976  1.00  0.00     0.015 C 
HETATM    5  C15 UNL     1      -3.132  -0.104  -0.346  1.00  0.00     0.009 C 
HETATM    6  C19 UNL     1      -1.721   0.148  -0.805  1.00  0.00     0.284 C 
ENDROOT
BRANCH   1   7
HETATM    7  C11 UNL     1       0.394   0.927  -0.328  1.00  0.00     0.285 C 
BRANCH   7   8
HETATM    8  C10 UNL     1       1.710   0.625   0.329  1.00  0.00     0.065 C 
HETATM    9  C2  UNL     1       2.737   1.488  -0.291  1.00  0.00    -0.078 C 
HETATM   10  C1  UNL     1       2.244   2.542  -1.241  1.00  0.00     0.044 C 
HETATM   11  C3  UNL     1       4.052   1.451  -0.084  1.00  0.00    -0.023 C 
HETATM   12  C4  UNL     1       4.837   0.510   0.807  1.00  0.00     0.036 C 
HETATM   13  C5  UNL     1       4.686  -0.827   0.153  1.00  0.00     0.018 C 
HETATM   14  C6  UNL     1       5.056  -2.051   0.946  1.00  0.00     0.014 C 
HETATM   15  C8  UNL     1       3.293  -1.325   0.169  1.00  0.00    -0.079 C 
HETATM   16  C7  UNL     1       3.927  -2.706   0.112  1.00  0.00     0.035 C 
HETATM   17  C9  UNL     1       2.090  -0.786   0.236  1.00  0.00    -0.013 C 
ENDBRANCH   7   8
ENDBRANCH   1   7
BRANCH   5  18
HETATM   18  C16 UNL     1      -4.017   0.565  -1.380  1.00  0.00     0.175 C 
BRANCH  18  19
HETATM   19  O1  UNL     1      -3.674   1.944  -1.382  1.00  0.00    -0.400 OA
ATOM     20  H1  UNL     1      -4.228   2.363  -2.030  1.00  0.00     0.209 HD
ENDBRANCH  18  19
ENDBRANCH   5  18
BRANCH   5  21
HETATM   21  C17 UNL     1      -3.312  -1.574  -0.233  1.00  0.00     0.039 C 
BRANCH  21  22
HETATM   22  C18 UNL     1      -4.657  -2.070   0.143  1.00  0.00     0.165 C 
BRANCH  22  23
HETATM   23  O2  UNL     1      -5.685  -1.740  -0.725  1.00  0.00    -0.401 OA
ATOM     24  H2  UNL     1      -6.547  -2.058  -0.484  1.00  0.00     0.209 HD
ENDBRANCH  22  23
ENDBRANCH  21  22
ENDBRANCH   5  21
TORSDOF 7
