REMARK  5 active torsions:
REMARK  status: ('A' for Active; 'I' for Inactive)
REMARK    1  A    between atoms: C2_7  and  S1_8 
REMARK    2  A    between atoms: S1_8  and  C3_9 
REMARK    3  A    between atoms: C9_15  and  C10_16 
REMARK    4  A    between atoms: C10_16  and  C11_17 
REMARK    5  A    between atoms: C11_17  and  C12_18 
ROOT
HETATM    1  O1  UNL     1       1.029   1.172   3.802  1.00  0.00    -0.266 OA
HETATM    2  C1  UNL     1       0.142   0.970   2.916  1.00  0.00     0.268 A 
HETATM    3  N1  UNL     1      -1.148   0.769   3.187  1.00  0.00    -0.265 N 
ATOM      4  H1  UNL     1      -1.542   0.758   4.128  1.00  0.00     0.190 HD
HETATM    5  N2  UNL     1      -1.858   0.584   2.072  1.00  0.00    -0.291 N 
ATOM      6  H2  UNL     1      -2.861   0.412   2.009  1.00  0.00     0.187 HD
HETATM    7  C2  UNL     1      -0.992   0.669   1.048  1.00  0.00     0.096 A 
HETATM    8  C9  UNL     1       0.282   0.913   1.546  1.00  0.00     0.046 A 
ENDROOT
BRANCH   8   9
HETATM    9  C10 UNL     1       1.559   1.087   0.808  1.00  0.00     0.048 C 
BRANCH   9  10
HETATM   10  C11 UNL     1       2.420  -0.147   0.911  1.00  0.00     0.009 C 
BRANCH  10  11
HETATM   11  C12 UNL     1       3.717  -0.017   0.181  1.00  0.00    -0.011 C 
HETATM   12  C13 UNL     1       3.494   0.234  -1.290  1.00  0.00     0.032 C 
HETATM   13  C14 UNL     1       4.785   0.215  -2.071  1.00  0.00     0.232 C 
HETATM   14  N3  UNL     1       5.897  -0.254  -1.271  1.00  0.00    -0.075 N 
HETATM   15  C15 UNL     1       5.572  -1.500  -0.617  1.00  0.00     0.232 C 
ATOM     16  H32 UNL     1       6.752  -0.329  -1.822  1.00  0.00     0.277 HD
ATOM     17  H31 UNL     1       6.205   0.453  -0.603  1.00  0.00     0.277 HD
HETATM   18  C16 UNL     1       4.549  -1.229   0.448  1.00  0.00     0.032 C 
ENDBRANCH  10  11
ENDBRANCH   9  10
ENDBRANCH   8   9
BRANCH   7  19
HETATM   19  S1  UNL     1      -1.338   0.507  -0.666  1.00  0.00    -0.105 SA
BRANCH  19  20
HETATM   20  C3  UNL     1      -3.041   0.153  -1.070  1.00  0.00     0.054 C 
HETATM   21  C4  UNL     1      -4.006   1.255  -0.717  1.00  0.00     0.015 C 
HETATM   22  C5  UNL     1      -5.250   0.733  -0.010  1.00  0.00     0.001 C 
HETATM   23  C6  UNL     1      -5.901  -0.340  -0.818  1.00  0.00     0.000 C 
HETATM   24  C7  UNL     1      -4.906  -1.385  -1.250  1.00  0.00     0.001 C 
HETATM   25  C8  UNL     1      -3.557  -1.159  -0.552  1.00  0.00     0.015 C 
ENDBRANCH  19  20
ENDBRANCH   7  19
TORSDOF 5
