REMARK  8 active torsions:
REMARK  status: ('A' for Active; 'I' for Inactive)
REMARK    1  A    between atoms: C1_2  and  N1_3 
REMARK    2  A    between atoms: C1_2  and  N6_14 
REMARK    3  A    between atoms: N1_3  and  C2_5 
REMARK    4  A    between atoms: N6_14  and  C3_16 
REMARK    5  A    between atoms: C3_16  and  C4_17 
REMARK    6  A    between atoms: C4_17  and  C5_18 
REMARK    7  A    between atoms: C5_18  and  C6_19 
REMARK    8  A    between atoms: C6_19  and  C7_20 
ROOT
HETATM    1  S1  UNL     1       4.001   0.286  -1.339  1.00  0.00    -0.040 SA
HETATM    2  C1  UNL     1       3.906  -0.120   0.228  1.00  0.00     0.186 C 
ENDROOT
BRANCH   2   3
HETATM    3  N1  UNL     1       4.804   0.467   1.135  1.00  0.00    -0.164 N 
ATOM      4  H1  UNL     1       4.405   0.912   1.962  1.00  0.00     0.186 HD
BRANCH   3   5
HETATM    5  C2  UNL     1       6.095   0.493   1.014  1.00  0.00     0.716 A 
HETATM    6  N2  UNL     1       6.952   1.070   1.907  1.00  0.00    -0.115 N 
HETATM    7  N3  UNL     1       8.158   0.877   1.428  1.00  0.00    -0.213 N 
ATOM      8  H2  UNL     1       6.705   1.553   2.771  1.00  0.00     0.207 HD
HETATM    9  N4  UNL     1       8.123   0.220   0.294  1.00  0.00    -0.213 N 
ATOM     10  H3  UNL     1       9.014   1.197   1.880  1.00  0.00     0.210 HD
HETATM   11  N5  UNL     1       6.838  -0.024   0.028  1.00  0.00    -0.115 N 
ATOM     12  H4  UNL     1       8.924  -0.052  -0.276  1.00  0.00     0.210 HD
ATOM     13  H5  UNL     1       6.482  -0.521  -0.789  1.00  0.00     0.207 HD
ENDBRANCH   3   5
ENDBRANCH   2   3
BRANCH   2  14
HETATM   14  N6  UNL     1       2.938  -1.065   0.647  1.00  0.00    -0.367 N 
ATOM     15  H6  UNL     1       2.918  -1.316   1.635  1.00  0.00     0.161 HD
BRANCH  14  16
HETATM   16  C3  UNL     1       1.986  -1.692  -0.218  1.00  0.00     0.122 C 
BRANCH  16  17
HETATM   17  C4  UNL     1       0.921  -0.743  -0.702  1.00  0.00     0.020 C 
BRANCH  17  18
HETATM   18  C5  UNL     1       0.203  -0.211   0.507  1.00  0.00     0.002 C 
BRANCH  18  19
HETATM   19  C6  UNL     1      -0.877   0.752   0.208  1.00  0.00     0.005 C 
BRANCH  19  20
HETATM   20  C7  UNL     1      -2.000   0.265  -0.650  1.00  0.00    -0.014 C 
HETATM   21  C8  UNL     1      -2.955   1.444  -0.803  1.00  0.00     0.004 C 
HETATM   22  C9  UNL     1      -4.317   1.066  -1.263  1.00  0.00     0.000 C 
HETATM   23  C10 UNL     1      -5.291   0.904  -0.109  1.00  0.00     0.000 C 
HETATM   24  C11 UNL     1      -5.029  -0.322   0.704  1.00  0.00     0.000 C 
HETATM   25  C12 UNL     1      -3.603  -0.475   1.140  1.00  0.00     0.000 C 
HETATM   26  C13 UNL     1      -2.733  -0.891  -0.008  1.00  0.00     0.004 C 
ENDBRANCH  19  20
ENDBRANCH  18  19
ENDBRANCH  17  18
ENDBRANCH  16  17
ENDBRANCH  14  16
ENDBRANCH   2  14
TORSDOF 8
