REMARK  6 active torsions:
REMARK  status: ('A' for Active; 'I' for Inactive)
REMARK    1  A    between atoms: C2_2  and  N1_3 
REMARK       I    between atoms: N1_3  and  C4_5 
REMARK    2  A    between atoms: C4_5  and  O2_7 
REMARK    3  A    between atoms: O2_7  and  C5_8 
REMARK    4  A    between atoms: C8_11  and  C9_12 
REMARK    5  A    between atoms: C9_12  and  N2_13 
REMARK       I    between atoms: N2_13  and  C10_15 
REMARK       I    between atoms: C10_15  and  N4_19 
REMARK    6  A    between atoms: N4_19  and  C11_21 
ROOT
HETATM    1  C5  UNL     1      -1.911  -0.784  -0.693  1.00  0.00     0.138 C 
HETATM    2  C6  UNL     1      -1.253  -1.701   0.297  1.00  0.00     0.034 C 
HETATM    3  C7  UNL     1       0.246  -1.736   0.176  1.00  0.00     0.014 C 
HETATM    4  C8  UNL     1       0.747  -0.400  -0.255  1.00  0.00    -0.023 C 
HETATM    5  C14 UNL     1      -0.123   0.721   0.200  1.00  0.00     0.018 C 
HETATM    6  C15 UNL     1      -1.038   0.397  -0.990  1.00  0.00     0.017 C 
HETATM    7  C16 UNL     1       0.223  -0.152  -1.672  1.00  0.00     0.018 C 
ENDROOT
BRANCH   4   8
HETATM    8  C9  UNL     1       2.220  -0.229  -0.102  1.00  0.00     0.147 C 
BRANCH   8   9
HETATM    9  N2  UNL     1       2.722   1.038  -0.507  1.00  0.00    -0.226 N 
HETATM   10  C10 UNL     1       4.102   1.315  -0.407  1.00  0.00     0.667 C 
HETATM   11  N3  UNL     1       4.478   2.524  -0.169  1.00  0.00    -0.235 N 
HETATM   12  N4  UNL     1       5.112   0.330  -0.557  1.00  0.00    -0.222 N 
ATOM     13  H32 UNL     1       3.752   3.232  -0.061  1.00  0.00     0.174 HD
ATOM     14  H31 UNL     1       5.476   2.724  -0.097  1.00  0.00     0.174 HD
ATOM     15  H4  UNL     1       4.880  -0.643  -0.359  1.00  0.00     0.178 HD
ATOM     16  H2  UNL     1       2.085   1.747  -0.870  1.00  0.00     0.177 HD
BRANCH  12  17
HETATM   17  C11 UNL     1       6.457   0.650  -0.979  1.00  0.00     0.099 A 
HETATM   18  C12 UNL     1       7.283   1.574  -0.174  1.00  0.00     0.028 A 
HETATM   19  C13 UNL     1       7.619   0.114  -0.122  1.00  0.00     0.028 A 
ENDBRANCH  12  17
ENDBRANCH   8   9
ENDBRANCH   4   8
BRANCH   1  20
HETATM   20  O2  UNL     1      -3.151  -0.363  -0.159  1.00  0.00    -0.298 OA
BRANCH  20  21
HETATM   21  C4  UNL     1      -4.369  -0.658  -0.737  1.00  0.00     0.362 C 
HETATM   22  N1  UNL     1      -5.552  -0.191  -0.126  1.00  0.00    -0.333 N 
HETATM   23  C3  UNL     1      -6.819  -0.511  -0.746  1.00  0.00     0.155 C 
HETATM   24  O1  UNL     1      -4.395  -1.333  -1.787  1.00  0.00    -0.238 OA
BRANCH  22  25
HETATM   25  C2  UNL     1      -5.569   0.594   1.090  1.00  0.00     0.123 C 
HETATM   26  C1  UNL     1      -5.650  -0.333   2.281  1.00  0.00     0.026 C 
ENDBRANCH  22  25
ENDBRANCH  20  21
ENDBRANCH   1  20
TORSDOF 6
