REMARK  6 active torsions:
REMARK  status: ('A' for Active; 'I' for Inactive)
REMARK    1  A    between atoms: C2_2  and  C3_3 
REMARK    2  A    between atoms: C2_2  and  C6_12 
REMARK    3  A    between atoms: C3_3  and  C4_4 
REMARK    4  A    between atoms: N1_5  and  N2_7 
REMARK    5  A    between atoms: C10_16  and  C12_18 
REMARK    6  A    between atoms: C12_18  and  O1_19 
ROOT
HETATM    1  C6  UNL     1      -0.086   1.280  -0.084  1.00  0.00    -0.002 C 
HETATM    2  C7  UNL     1      -0.761   1.870  -1.334  1.00  0.00     0.006 C 
HETATM    3  C8  UNL     1      -1.937   0.969  -1.549  1.00  0.00     0.007 C 
HETATM    4  C9  UNL     1      -2.310   0.582  -0.136  1.00  0.00     0.004 C 
HETATM    5  C10 UNL     1      -3.372  -0.409   0.007  1.00  0.00    -0.018 C 
HETATM    6  C11 UNL     1      -4.381   0.120   1.046  1.00  0.00     0.018 C 
HETATM    7  C13 UNL     1      -3.024  -1.801   0.402  1.00  0.00     0.012 C 
HETATM    8  C14 UNL     1      -1.666  -2.014   0.955  1.00  0.00     0.002 C 
HETATM    9  C15 UNL     1      -0.693  -1.198   0.077  1.00  0.00     0.010 C 
HETATM   10  C16 UNL     1      -0.934   0.212   0.409  1.00  0.00    -0.036 C 
HETATM   11  C17 UNL     1      -1.074   0.318   1.935  1.00  0.00     0.016 C 
ENDROOT
BRANCH   1  12
HETATM   12  C2  UNL     1       1.342   1.153  -0.372  1.00  0.00    -0.009 C 
HETATM   13  C1  UNL     1       1.798   0.276  -1.489  1.00  0.00     0.011 C 
BRANCH  12  14
HETATM   14  C3  UNL     1       2.328   1.286   0.739  1.00  0.00     0.050 C 
BRANCH  14  15
HETATM   15  C4  UNL     1       2.667  -0.013   1.331  1.00  0.00     0.080 C 
HETATM   16  N1  UNL     1       3.865  -0.495   1.388  1.00  0.00    -0.314 N 
ATOM     17  H1  UNL     1       4.010  -1.408   1.819  1.00  0.00     0.185 HD
BRANCH  16  18
HETATM   18  N2  UNL     1       4.969   0.195   0.877  1.00  0.00    -0.277 N 
HETATM   19  C5  UNL     1       6.077  -0.456   0.752  1.00  0.00     0.215 C 
HETATM   20  N3  UNL     1       7.245   0.208   0.230  1.00  0.00    -0.065 NA
HETATM   21  N4  UNL     1       6.225  -1.817   1.101  1.00  0.00    -0.065 NA
ATOM     22  H2  UNL     1       4.901   1.178   0.612  1.00  0.00     0.189 HD
ENDBRANCH  16  18
ENDBRANCH  14  15
ENDBRANCH  12  14
ENDBRANCH   1  12
BRANCH   5  23
HETATM   23  C12 UNL     1      -4.212  -0.534  -1.259  1.00  0.00     0.173 C 
BRANCH  23  24
HETATM   24  O1  UNL     1      -4.851   0.619  -1.628  1.00  0.00    -0.400 OA
ATOM     25  H1  UNL     1      -5.374   0.541  -2.417  1.00  0.00     0.209 HD
ENDBRANCH  23  24
ENDBRANCH   5  23
TORSDOF 6
