REMARK  9 active torsions:
REMARK  status: ('A' for Active; 'I' for Inactive)
REMARK    1  A    between atoms: C2_2  and  C3_5 
REMARK    2  A    between atoms: C3_5  and  N1_6 
REMARK       I    between atoms: N1_6  and  C4_8 
REMARK    3  A    between atoms: C4_8  and  C5_10 
REMARK    4  A    between atoms: C12_17  and  C13_18 
REMARK    5  A    between atoms: C13_18  and  O3_20 
REMARK    6  A    between atoms: O3_20  and  C14_21 
REMARK    7  A    between atoms: C14_21  and  C15_22 
REMARK    8  A    between atoms: C15_22  and  O4_23 
REMARK    9  A    between atoms: O4_23  and  C16_24 
REMARK       I    between atoms: C16_24  and  N2_26 
ROOT
HETATM    1  C5  UNL     1      -3.562  -1.081   0.496  1.00  0.00     0.043 C 
HETATM    2  C6  UNL     1      -3.385  -2.130   1.543  1.00  0.00     0.024 C 
HETATM    3  C7  UNL     1      -2.310  -3.115   1.127  1.00  0.00    -0.012 C 
HETATM    4  C8  UNL     1      -2.613  -3.765  -0.186  1.00  0.00     0.009 C 
HETATM    5  C9  UNL     1      -2.815  -2.683  -1.223  1.00  0.00    -0.012 C 
HETATM    6  C10 UNL     1      -3.895  -1.715  -0.839  1.00  0.00     0.024 C 
HETATM    7  C11 UNL     1      -1.527  -1.933  -1.360  1.00  0.00     0.024 C 
HETATM    8  C12 UNL     1      -1.197  -1.226  -0.055  1.00  0.00     0.050 C 
HETATM    9  C21 UNL     1      -1.024  -2.330   0.986  1.00  0.00     0.024 C 
HETATM   10  C22 UNL     1      -2.282  -0.282   0.351  1.00  0.00     0.039 C 
ENDROOT
BRANCH   8  11
HETATM   11  C13 UNL     1       0.126  -0.550  -0.154  1.00  0.00     0.267 C 
HETATM   12  O2  UNL     1       0.189   0.691   0.000  1.00  0.00    -0.264 OA
BRANCH  11  13
HETATM   13  O3  UNL     1       1.302  -1.165  -0.401  1.00  0.00    -0.319 OA
BRANCH  13  14
HETATM   14  C14 UNL     1       2.524  -0.562  -0.491  1.00  0.00     0.205 C 
BRANCH  14  15
HETATM   15  C15 UNL     1       3.083   0.147   0.660  1.00  0.00     0.207 C 
BRANCH  15  16
HETATM   16  O4  UNL     1       4.307   0.744   0.554  1.00  0.00    -0.302 OA
BRANCH  16  17
HETATM   17  C16 UNL     1       5.495   0.140   0.289  1.00  0.00     0.362 C 
HETATM   18  O5  UNL     1       5.447  -1.101   0.131  1.00  0.00    -0.238 OA
HETATM   19  N2  UNL     1       6.742   0.790   0.183  1.00  0.00    -0.324 N 
HETATM   20  C17 UNL     1       7.927   0.048  -0.099  1.00  0.00     0.154 C 
HETATM   21  C20 UNL     1       6.783   2.224   0.368  1.00  0.00     0.154 C 
HETATM   22  C18 UNL     1       8.811   0.873  -1.006  1.00  0.00     0.187 C 
HETATM   23  O6  UNL     1       9.081   2.067  -0.332  1.00  0.00    -0.388 OA
HETATM   24  C19 UNL     1       7.970   2.874  -0.272  1.00  0.00     0.187 C 
ENDBRANCH  16  17
ENDBRANCH  15  16
ENDBRANCH  14  15
ENDBRANCH  13  14
ENDBRANCH  11  13
ENDBRANCH   8  11
BRANCH   1  25
HETATM   25  C4  UNL     1      -4.628  -0.134   0.877  1.00  0.00     0.226 C 
HETATM   26  N1  UNL     1      -4.969   0.966   0.008  1.00  0.00    -0.357 N 
ATOM     27  H1  UNL     1      -4.472   1.090  -0.874  1.00  0.00     0.162 HD
HETATM   28  O1  UNL     1      -5.231  -0.286   1.949  1.00  0.00    -0.273 OA
BRANCH  26  29
HETATM   29  C3  UNL     1      -6.010   1.890   0.383  1.00  0.00     0.164 C 
BRANCH  29  30
HETATM   30  C2  UNL     1      -6.156   2.923  -0.688  1.00  0.00     0.125 C 
HETATM   31  C1  UNL     1      -7.234   3.935  -0.370  1.00  0.00     0.052 C 
HETATM   32 CL1  UNL     1      -4.619   3.804  -0.829  1.00  0.00    -0.100 Cl
HETATM   33 CL2  UNL     1      -6.487   2.103  -2.237  1.00  0.00    -0.100 Cl
ENDBRANCH  29  30
ENDBRANCH  26  29
ENDBRANCH   1  25
TORSDOF 9
