REMARK  5 active torsions:
REMARK  status: ('A' for Active; 'I' for Inactive)
REMARK    1  A    between atoms: C3_3  and  C4_4 
REMARK    2  A    between atoms: C4_4  and  N1_5 
REMARK    3  A    between atoms: C15_25  and  C16_26 
REMARK    4  A    between atoms: C16_26  and  C17_27 
REMARK    5  A    between atoms: C17_27  and  N3_28 
ROOT
HETATM    1  C1  UNL     1       0.284   1.106  -0.347  1.00  0.00     0.049 C 
HETATM    2  C2  UNL     1       0.274  -0.349  -0.489  1.00  0.00    -0.041 A 
HETATM    3  C3  UNL     1      -0.908  -1.010  -0.223  1.00  0.00    -0.037 A 
HETATM    4  C11 UNL     1      -0.923  -2.379  -0.393  1.00  0.00     0.011 A 
HETATM    5  C12 UNL     1       0.178  -3.082  -0.811  1.00  0.00     0.031 A 
HETATM    6  C13 UNL     1       1.347  -2.411  -1.072  1.00  0.00     0.043 A 
HETATM    7  N2  UNL     1       2.567  -2.823  -1.502  1.00  0.00    -0.365 N 
ATOM      8  H2  UNL     1       2.837  -3.784  -1.711  1.00  0.00     0.165 HD
HETATM    9  C14 UNL     1       3.347  -1.753  -1.603  1.00  0.00     0.096 A 
HETATM   10  C15 UNL     1       2.637  -0.591  -1.231  1.00  0.00    -0.028 A 
HETATM   11  C22 UNL     1       1.383  -1.025  -0.903  1.00  0.00     0.005 A 
ENDROOT
BRANCH   3  12
HETATM   12  C4  UNL     1      -2.125  -0.333   0.216  1.00  0.00     0.148 C 
BRANCH  12  13
HETATM   13  N1  UNL     1      -3.172  -1.312   0.412  1.00  0.00    -0.178 NA
HETATM   14  C5  UNL     1      -4.174  -0.839   1.355  1.00  0.00     0.179 C 
HETATM   15  C6  UNL     1      -5.158  -0.028   0.566  1.00  0.00     0.196 C 
HETATM   16  C7  UNL     1      -6.380   0.173   1.473  1.00  0.00     0.077 C 
HETATM   17  O1  UNL     1      -4.686   1.264   0.291  1.00  0.00    -0.347 OA
HETATM   18  O2  UNL     1      -5.529  -0.709  -0.560  1.00  0.00    -0.223 OA
HETATM   19  C8  UNL     1      -7.443   0.805   0.608  1.00  0.00     0.087 C 
HETATM   20  C9  UNL     1      -6.946   2.042  -0.097  1.00  0.00     0.265 C 
HETATM   21  F1  UNL     1      -7.145   3.187   0.684  1.00  0.00    -0.204 F 
HETATM   22  F2  UNL     1      -7.765   2.213  -1.215  1.00  0.00    -0.204 F 
HETATM   23  C10 UNL     1      -5.531   1.933  -0.556  1.00  0.00     0.250 C 
HETATM   24  S1  UNL     1      -4.139  -1.553  -0.983  1.00  0.00     0.343 S 
HETATM   25  O3  UNL     1      -4.551  -3.012  -1.120  1.00  0.00    -0.180 OA
HETATM   26  O4  UNL     1      -3.521  -1.081  -2.237  1.00  0.00    -0.180 OA
ENDBRANCH  12  13
ENDBRANCH   3  12
BRANCH  10  27
HETATM   27  C16 UNL     1       3.270   0.708  -1.177  1.00  0.00     0.060 C 
BRANCH  27  28
HETATM   28  C17 UNL     1       3.878   1.062   0.185  1.00  0.00     0.121 C 
BRANCH  28  29
HETATM   29  N3  UNL     1       4.890   0.148   0.607  1.00  0.00    -0.409 N 
HETATM   30  C18 UNL     1       6.112   0.140  -0.101  1.00  0.00     0.144 C 
HETATM   31  C19 UNL     1       7.185   1.008   0.527  1.00  0.00     0.251 C 
HETATM   32  N4  UNL     1       7.323   0.678   1.934  1.00  0.00    -0.072 N 
HETATM   33  C20 UNL     1       6.071   1.048   2.574  1.00  0.00     0.251 C 
ATOM     34  H42 UNL     1       7.586  -0.294   2.096  1.00  0.00     0.277 HD
ATOM     35  H41 UNL     1       8.140   1.106   2.370  1.00  0.00     0.277 HD
HETATM   36  C21 UNL     1       4.999   0.128   2.028  1.00  0.00     0.144 C 
ENDBRANCH  28  29
ENDBRANCH  27  28
ENDBRANCH  10  27
TORSDOF 5
