REMARK  7 active torsions:
REMARK  status: ('A' for Active; 'I' for Inactive)
REMARK    1  A    between atoms: C2_2  and  N1_3 
REMARK    2  A    between atoms: N1_3  and  C4_5 
REMARK    3  A    between atoms: C4_5  and  C5_6 
REMARK    4  A    between atoms: C5_6  and  O1_7 
REMARK    5  A    between atoms: C5_6  and  C6_9 
REMARK    6  A    between atoms: C6_9  and  N2_10 
REMARK    7  A    between atoms: C9_13  and  N3_14 
ROOT
HETATM    1  N2  UNL     1      -0.117  -0.449   0.836  1.00  0.00     0.091 N 
HETATM    2  C7  UNL     1       0.121  -1.347  -0.225  1.00  0.00     0.274 C 
HETATM    3  C8  UNL     1       1.425  -2.006  -0.347  1.00  0.00     0.056 C 
HETATM    4  C9  UNL     1       2.514  -1.319   0.396  1.00  0.00     0.094 C 
HETATM    5  C16 UNL     1       2.148  -0.786   1.725  1.00  0.00     0.056 C 
HETATM    6  C17 UNL     1       0.696  -0.602   1.993  1.00  0.00     0.274 C 
ENDROOT
BRANCH   4   7
HETATM    7  N3  UNL     1       3.195  -0.321  -0.420  1.00  0.00    -0.332 N 
HETATM    8  C10 UNL     1       2.723   0.359  -1.460  1.00  0.00     0.184 A 
HETATM    9  N4  UNL     1       3.687   1.164  -1.903  1.00  0.00    -0.349 N 
HETATM   10  C11 UNL     1       4.791   1.017  -1.159  1.00  0.00     0.086 A 
ATOM     11  H4  UNL     1       3.597   1.801  -2.695  1.00  0.00     0.166 HD
HETATM   12  C12 UNL     1       6.049   1.580  -1.169  1.00  0.00     0.074 A 
HETATM   13  C15 UNL     1       4.472   0.061  -0.207  1.00  0.00     0.133 A 
HETATM   14 BR1  UNL     1       6.417   2.887  -2.508  1.00  0.00    -0.046 Br
HETATM   15  C13 UNL     1       6.955   1.178  -0.231  1.00  0.00     0.102 A 
HETATM   16 BR2  UNL     1       8.697   1.987  -0.277  1.00  0.00    -0.030 Br
HETATM   17  N5  UNL     1       6.664   0.255   0.699  1.00  0.00    -0.314 N 
HETATM   18  C14 UNL     1       5.443  -0.312   0.732  1.00  0.00     0.275 A 
ATOM     19  H5  UNL     1       7.370  -0.018   1.383  1.00  0.00     0.170 HD
HETATM   20  O2  UNL     1       5.218  -1.172   1.620  1.00  0.00    -0.266 OA
ENDBRANCH   4   7
BRANCH   1  21
HETATM   21  C6  UNL     1      -1.518  -0.444   1.231  1.00  0.00     0.305 C 
BRANCH  21  22
HETATM   22  C5  UNL     1      -2.350   0.165   0.127  1.00  0.00     0.174 C 
BRANCH  22  23
HETATM   23  C4  UNL     1      -3.826   0.163   0.487  1.00  0.00     0.305 C 
BRANCH  23  24
HETATM   24  N1  UNL     1      -4.615   0.763  -0.540  1.00  0.00     0.086 N 
HETATM   25  C3  UNL     1      -4.350   0.272  -1.853  1.00  0.00     0.310 C 
BRANCH  24  26
HETATM   26  C2  UNL     1      -6.016   0.785  -0.274  1.00  0.00     0.267 C 
HETATM   27  C1  UNL     1      -6.357   1.293   1.104  1.00  0.00     0.037 C 
ENDBRANCH  24  26
ENDBRANCH  23  24
ENDBRANCH  22  23
BRANCH  22  28
HETATM   28  O1  UNL     1      -1.887   1.474  -0.060  1.00  0.00    -0.392 OA
ATOM     29  H1  UNL     1      -0.964   1.475  -0.285  1.00  0.00     0.210 HD
ENDBRANCH  22  28
ENDBRANCH  21  22
ENDBRANCH   1  21
TORSDOF 7
