REMARK  3 active torsions:
REMARK  status: ('A' for Active; 'I' for Inactive)
REMARK    1  A    between atoms: N1_1  and  C1_4 
REMARK    2  A    between atoms: C4_13  and  C5_14 
REMARK    3  A    between atoms: C5_14  and  N5_15 
ROOT
HETATM    1  C1  UNL     1      -2.813   0.869  -0.283  1.00  0.00     0.131 A 
HETATM    2  N2  UNL     1      -3.869   0.445   0.437  1.00  0.00    -0.337 N 
ATOM      3  H2  UNL     1      -4.745   0.967   0.459  1.00  0.00     0.168 HD
HETATM    4  C2  UNL     1      -3.713  -0.700   1.126  1.00  0.00     0.183 A 
HETATM    5  N3  UNL     1      -2.554  -1.383   1.093  1.00  0.00    -0.337 N 
ATOM      6  H3  UNL     1      -2.481  -2.246   1.632  1.00  0.00     0.168 HD
HETATM    7  C3  UNL     1      -1.490  -0.978   0.382  1.00  0.00     0.138 A 
HETATM    8  N4  UNL     1      -0.251  -1.458   0.182  1.00  0.00    -0.329 N 
ATOM      9  H4  UNL     1       0.130  -2.313   0.586  1.00  0.00     0.168 HD
HETATM   10  C4  UNL     1       0.400  -0.620  -0.641  1.00  0.00     0.102 A 
HETATM   11  N7  UNL     1      -0.439   0.383  -0.952  1.00  0.00    -0.338 N 
ATOM     12  H7  UNL     1      -0.216   1.169  -1.563  1.00  0.00     0.167 HD
HETATM   13  C8  UNL     1      -1.615   0.192  -0.336  1.00  0.00     0.122 A 
ENDROOT
BRANCH  10  14
HETATM   14  C5  UNL     1       1.780  -0.731  -1.143  1.00  0.00     0.215 C 
BRANCH  14  15
HETATM   15  N5  UNL     1       2.723  -0.068  -0.257  1.00  0.00    -0.244 N 
HETATM   16  C6  UNL     1       3.206   1.262  -0.230  1.00  0.00     0.334 A 
HETATM   17  O1  UNL     1       3.040   2.337  -0.897  1.00  0.00    -0.246 OA
HETATM   18  N6  UNL     1       4.025   0.976   0.910  1.00  0.00    -0.260 N 
HETATM   19  C7  UNL     1       3.523  -0.373   0.867  1.00  0.00     0.334 A 
ATOM     20  H6  UNL     1       4.677   1.498   1.495  1.00  0.00     0.175 HD
HETATM   21  O2  UNL     1       3.736  -1.377   1.562  1.00  0.00    -0.246 OA
ENDBRANCH  14  15
ENDBRANCH  10  14
BRANCH   1  22
HETATM   22  N1  UNL     1      -2.931   1.950  -0.946  1.00  0.00    -0.383 N 
ATOM     23  H12 UNL     1      -3.818   2.451  -0.907  1.00  0.00     0.157 HD
ATOM     24  H11 UNL     1      -2.131   2.271  -1.491  1.00  0.00     0.157 HD
ENDBRANCH   1  22
TORSDOF 3
