REMARK  3 active torsions:
REMARK  status: ('A' for Active; 'I' for Inactive)
REMARK    1  A    between atoms: N1_1  and  C1_4 
REMARK    2  A    between atoms: C2_9  and  C3_10 
REMARK    3  A    between atoms: C4_11  and  C5_12 
ROOT
HETATM    1  C1  UNL     1       4.511   0.239  -0.140  1.00  0.00     0.690 A 
HETATM    2  N2  UNL     1       3.696   0.293   0.928  1.00  0.00    -0.132 N 
ATOM      3  H2  UNL     1       4.098   0.412   1.858  1.00  0.00     0.205 HD
HETATM    4  N3  UNL     1       2.385   0.195   0.798  1.00  0.00    -0.285 N 
ATOM      5  H3  UNL     1       1.788   0.239   1.624  1.00  0.00     0.187 HD
HETATM    6  C2  UNL     1       1.835   0.037  -0.420  1.00  0.00     0.064 A 
HETATM    7  C9  UNL     1       2.669  -0.017  -1.499  1.00  0.00     0.137 A 
HETATM    8  N6  UNL     1       4.002   0.081  -1.386  1.00  0.00    -0.199 N 
ATOM      9  H6  UNL     1       4.608   0.038  -2.205  1.00  0.00     0.183 HD
ENDROOT
BRANCH   6  10
HETATM   10  C3  UNL     1       0.366  -0.068  -0.517  1.00  0.00     0.035 C 
HETATM   11  C4  UNL     1      -0.388  -0.010   0.551  1.00  0.00     0.032 C 
BRANCH  11  12
HETATM   12  C5  UNL     1      -1.821  -0.108   0.499  1.00  0.00     0.041 A 
HETATM   13  C6  UNL     1      -2.569  -0.039   1.676  1.00  0.00     0.104 A 
HETATM   14  C7  UNL     1      -3.925  -0.131   1.639  1.00  0.00     0.251 A 
HETATM   15  O1  UNL     1      -4.621  -0.070   2.705  1.00  0.00    -0.268 OA
HETATM   16  N4  UNL     1      -4.576  -0.290   0.477  1.00  0.00    -0.275 N 
HETATM   17  C8  UNL     1      -3.858  -0.357  -0.658  1.00  0.00     0.327 A 
ATOM     18  H4  UNL     1      -5.593  -0.359   0.455  1.00  0.00     0.173 HD
HETATM   19  O2  UNL     1      -4.458  -0.508  -1.777  1.00  0.00    -0.247 OA
HETATM   20  N5  UNL     1      -2.515  -0.267  -0.637  1.00  0.00    -0.308 N 
ATOM     21  H5  UNL     1      -2.006  -0.322  -1.519  1.00  0.00     0.170 HD
ENDBRANCH  11  12
ENDBRANCH   6  10
BRANCH   1  22
HETATM   22  N1  UNL     1       5.768   0.338   0.034  1.00  0.00    -0.233 N 
ATOM     23  H12 UNL     1       6.151   0.457   0.972  1.00  0.00     0.174 HD
ATOM     24  H11 UNL     1       6.386   0.297  -0.776  1.00  0.00     0.174 HD
ENDBRANCH   1  22
TORSDOF 3
