REMARK  2 active torsions:
REMARK  status: ('A' for Active; 'I' for Inactive)
REMARK    1  A    between atoms: N1_3  and  N2_5 
REMARK    2  A    between atoms: C3_7  and  C4_8 
ROOT
HETATM    1  C1  UNL     1       4.641   0.553  -1.166  1.00  0.00     0.038 C 
HETATM    2  C2  UNL     1       4.239  -0.113  -0.228  1.00  0.00     0.015 C 
HETATM    3  N1  UNL     1       3.800  -0.885   0.855  1.00  0.00    -0.259 N 
ATOM      4  H1  UNL     1       4.470  -1.256   1.528  1.00  0.00     0.197 HD
ENDROOT
BRANCH   3   5
HETATM    5  N2  UNL     1       2.442  -1.141   1.003  1.00  0.00    -0.302 N 
HETATM    6  C3  UNL     1       1.580  -0.373   0.429  1.00  0.00     0.139 C 
ATOM      7  H2  UNL     1       2.129  -1.933   1.564  1.00  0.00     0.186 HD
BRANCH   6   8
HETATM    8  C4  UNL     1       0.158  -0.683   0.615  1.00  0.00     0.084 A 
HETATM    9  N3  UNL     1      -0.389  -1.683   1.319  1.00  0.00    -0.297 N 
HETATM   10  N4  UNL     1      -1.704  -1.647   1.259  1.00  0.00    -0.284 N 
ATOM     11  H3  UNL     1       0.145  -2.382   1.835  1.00  0.00     0.187 HD
HETATM   12  C5  UNL     1      -2.050  -0.599   0.497  1.00  0.00     0.142 A 
ATOM     13  H4  UNL     1      -2.345  -2.299   1.711  1.00  0.00     0.188 HD
HETATM   14  N5  UNL     1      -3.265  -0.132   0.130  1.00  0.00    -0.292 N 
HETATM   15  C8  UNL     1      -0.890   0.028   0.077  1.00  0.00     0.107 A 
HETATM   16  C6  UNL     1      -3.347   0.957  -0.655  1.00  0.00     0.328 A 
ATOM     17  H5  UNL     1      -4.113  -0.602   0.446  1.00  0.00     0.172 HD
HETATM   18  O1  UNL     1      -4.475   1.395  -0.999  1.00  0.00    -0.247 OA
HETATM   19  N6  UNL     1      -2.223   1.588  -1.080  1.00  0.00    -0.275 N 
HETATM   20  C7  UNL     1      -1.001   1.151  -0.734  1.00  0.00     0.265 A 
ATOM     21  H6  UNL     1      -2.308   2.412  -1.675  1.00  0.00     0.173 HD
HETATM   22  O2  UNL     1       0.038   1.737  -1.128  1.00  0.00    -0.267 OA
ENDBRANCH   6   8
ENDBRANCH   3   5
TORSDOF 2
