REMARK  7 active torsions:
REMARK  status: ('A' for Active; 'I' for Inactive)
REMARK    1  A    between atoms: O1_3  and  C3_4 
REMARK    2  A    between atoms: C3_4  and  N1_5 
REMARK    3  A    between atoms: C3_4  and  C4_9 
REMARK    4  A    between atoms: C4_9  and  N2_10 
REMARK    5  A    between atoms: C4_9  and  C5_14 
REMARK    6  A    between atoms: C6_15  and  C7_16 
REMARK    7  A    between atoms: C9_18  and  N3_19 
ROOT
HETATM    1  C1  UNL     1      -4.605   2.744   0.743  1.00  0.00     0.044 C 
HETATM    2  C2  UNL     1      -3.660   2.006   0.610  1.00  0.00     0.045 C 
HETATM    3  O1  UNL     1      -2.603   1.153   0.458  1.00  0.00    -0.267 OA
ENDROOT
BRANCH   3   4
HETATM    4  C3  UNL     1      -2.797  -0.198   0.125  1.00  0.00     0.377 C 
BRANCH   4   5
HETATM    5  N1  UNL     1      -2.308  -1.072   1.178  1.00  0.00    -0.049 N 
ATOM      6  H13 UNL     1      -1.333  -0.877   1.405  1.00  0.00     0.277 HD
ATOM      7  H12 UNL     1      -2.726  -0.844   2.080  1.00  0.00     0.277 HD
ATOM      8  H11 UNL     1      -2.449  -2.053   0.936  1.00  0.00     0.277 HD
ENDBRANCH   4   5
BRANCH   4   9
HETATM    9  C4  UNL     1      -2.044  -0.491  -1.151  1.00  0.00     0.319 C 
BRANCH   9  10
HETATM   10  N2  UNL     1      -2.230  -1.902  -1.524  1.00  0.00    -0.060 N 
ATOM     11  H23 UNL     1      -1.968  -2.536  -0.769  1.00  0.00     0.276 HD
ATOM     12  H22 UNL     1      -3.216  -2.154  -1.593  1.00  0.00     0.276 HD
ATOM     13  H21 UNL     1      -1.721  -2.100  -2.386  1.00  0.00     0.276 HD
ENDBRANCH   9  10
BRANCH   9  14
HETATM   14  C5  UNL     1      -0.616  -0.227  -0.894  1.00  0.00    -0.062 C 
HETATM   15  C6  UNL     1       0.557  -0.030  -0.688  1.00  0.00    -0.046 C 
BRANCH  15  16
HETATM   16  C7  UNL     1       1.970   0.185  -0.455  1.00  0.00     0.091 A 
HETATM   17  C8  UNL     1       2.621  -0.431   0.586  1.00  0.00     0.087 A 
HETATM   18  C9  UNL     1       3.949  -0.220   0.794  1.00  0.00     0.102 A 
HETATM   19  N4  UNL     1       4.599   0.604  -0.046  1.00  0.00    -0.339 N 
HETATM   20  C10 UNL     1       3.986   1.219  -1.072  1.00  0.00     0.182 A 
ATOM     21  H4  UNL     1       5.595   0.769   0.101  1.00  0.00     0.168 HD
HETATM   22  N5  UNL     1       2.676   0.993  -1.254  1.00  0.00    -0.345 N 
ATOM     23  H5  UNL     1       2.201   1.454  -2.030  1.00  0.00     0.167 HD
BRANCH  18  24
HETATM   24  N3  UNL     1       4.559  -0.796   1.769  1.00  0.00    -0.385 N 
ATOM     25  H32 UNL     1       4.066  -1.421   2.406  1.00  0.00     0.157 HD
ATOM     26  H31 UNL     1       5.555  -0.638   1.925  1.00  0.00     0.157 HD
ENDBRANCH  18  24
ENDBRANCH  15  16
ENDBRANCH   9  14
ENDBRANCH   4   9
ENDBRANCH   3   4
TORSDOF 7
