REMARK  3 active torsions:
REMARK  status: ('A' for Active; 'I' for Inactive)
REMARK    1  A    between atoms: N1_1  and  C1_4 
REMARK    2  A    between atoms: N3_7  and  C2_8 
REMARK    3  A    between atoms: C2_8  and  C3_9 
ROOT
HETATM    1  C1  UNL     1       3.348  -0.128  -0.166  1.00  0.00     0.183 A 
HETATM    2  N2  UNL     1       2.195  -0.764   0.096  1.00  0.00    -0.275 N 
ATOM      3  H2  UNL     1       2.124  -1.764  -0.090  1.00  0.00     0.189 HD
HETATM    4  N3  UNL     1       1.146  -0.121   0.591  1.00  0.00    -0.239 N 
HETATM    5  C6  UNL     1       1.257   1.189   0.827  1.00  0.00     0.344 A 
HETATM    6  O1  UNL     1       0.284   1.816   1.294  1.00  0.00    -0.245 OA
HETATM    7  N7  UNL     1       2.391   1.883   0.584  1.00  0.00    -0.271 N 
ATOM      8  H7  UNL     1       2.436   2.883   0.778  1.00  0.00     0.174 HD
HETATM    9  C7  UNL     1       3.448   1.245   0.088  1.00  0.00     0.294 A 
HETATM   10  O2  UNL     1       4.516   1.838  -0.155  1.00  0.00    -0.264 OA
ENDROOT
BRANCH   4  11
HETATM   11  C2  UNL     1      -0.071  -0.820   0.849  1.00  0.00     0.180 C 
BRANCH  11  12
HETATM   12  C3  UNL     1      -1.017  -0.905  -0.324  1.00  0.00     0.121 C 
HETATM   13  C4  UNL     1      -2.249  -1.664   0.069  1.00  0.00     0.149 C 
HETATM   14  N4  UNL     1      -3.210  -0.609   0.259  1.00  0.00    -0.363 N 
HETATM   15  C5  UNL     1      -2.730   0.599  -0.317  1.00  0.00     0.184 C 
ATOM     16  H4  UNL     1      -4.105  -0.713   0.737  1.00  0.00     0.162 HD
HETATM   17  N5  UNL     1      -3.512   1.795  -0.494  1.00  0.00    -0.064 NA
HETATM   18  N6  UNL     1      -1.504   0.405  -0.633  1.00  0.00    -0.357 N 
ATOM     19  H6  UNL     1      -0.924   1.123  -1.068  1.00  0.00     0.162 HD
ENDBRANCH  11  12
ENDBRANCH   4  11
BRANCH   1  20
HETATM   20  N1  UNL     1       4.359  -0.759  -0.645  1.00  0.00    -0.380 N 
ATOM     21  H12 UNL     1       4.286  -1.759  -0.830  1.00  0.00     0.158 HD
ATOM     22  H11 UNL     1       5.235  -0.276  -0.844  1.00  0.00     0.158 HD
ENDBRANCH   1  20
TORSDOF 3
