REMARK  3 active torsions:
REMARK  status: ('A' for Active; 'I' for Inactive)
REMARK    1  A    between atoms: C4_11  and  C5_12 
REMARK    2  A    between atoms: C5_12  and  N4_13 
REMARK    3  A    between atoms: C5_12  and  C6_17 
ROOT
HETATM    1  C5  UNL     1       0.770   0.704   0.795  1.00  0.00     0.292 C 
ENDROOT
BRANCH   1   2
HETATM    2  C4  UNL     1      -0.419   0.034   0.210  1.00  0.00     0.089 A 
HETATM    3  C1  UNL     1      -1.486   0.798  -0.280  1.00  0.00     0.134 A 
HETATM    4  N1  UNL     1      -1.447   2.211  -0.232  1.00  0.00    -0.082 NA
HETATM    5  N2  UNL     1      -2.569   0.206  -0.807  1.00  0.00    -0.296 N 
HETATM    6  C2  UNL     1      -2.586  -1.137  -0.843  1.00  0.00     0.328 A 
ATOM      7  H2  UNL     1      -3.350   0.755  -1.167  1.00  0.00     0.171 HD
HETATM    8  O1  UNL     1      -3.617  -1.686  -1.344  1.00  0.00    -0.247 OA
HETATM    9  N3  UNL     1      -1.577  -1.907  -0.381  1.00  0.00    -0.275 N 
HETATM   10  C3  UNL     1      -0.481  -1.340   0.152  1.00  0.00     0.261 A 
ATOM     11  H3  UNL     1      -1.647  -2.923  -0.437  1.00  0.00     0.173 HD
HETATM   12  O2  UNL     1       0.423  -2.105   0.565  1.00  0.00    -0.267 OA
ENDBRANCH   1   2
BRANCH   1  13
HETATM   13  N4  UNL     1       0.816   0.660   2.206  1.00  0.00    -0.064 N 
ATOM     14  H43 UNL     1      -0.042   1.040   2.605  1.00  0.00     0.275 HD
ATOM     15  H42 UNL     1       0.748  -0.302   2.537  1.00  0.00     0.275 HD
ATOM     16  H41 UNL     1       1.633   1.120   2.608  1.00  0.00     0.275 HD
ENDBRANCH   1  13
BRANCH   1  17
HETATM   17  C6  UNL     1       1.979   0.055   0.233  1.00  0.00     0.125 A 
HETATM   18  N5  UNL     1       3.018  -0.585   0.661  1.00  0.00    -0.296 N 
HETATM   19  C7  UNL     1       3.613  -0.816  -0.597  1.00  0.00     0.327 A 
ATOM     20  H5  UNL     1       3.312  -0.840   1.604  1.00  0.00     0.172 HD
HETATM   21  O3  UNL     1       4.633  -1.369  -1.012  1.00  0.00    -0.247 OA
HETATM   22  N6  UNL     1       2.495  -0.124  -1.106  1.00  0.00    -0.296 N 
ATOM     23  H6  UNL     1       2.179   0.142  -2.039  1.00  0.00     0.172 HD
ENDBRANCH   1  17
TORSDOF 3
