REMARK  5 active torsions:
REMARK  status: ('A' for Active; 'I' for Inactive)
REMARK    1  A    between atoms: N1_1  and  C1_4 
REMARK    2  A    between atoms: C3_11  and  N4_12 
REMARK    3  A    between atoms: N4_12  and  N5_14 
REMARK    4  A    between atoms: N6_16  and  C4_18 
REMARK    5  A    between atoms: N10_24  and  O2_25 
ROOT
HETATM    1  N4  UNL     1       0.062  -1.595   1.134  1.00  0.00    -0.116 N 
ATOM      2  H4  UNL     1       0.044  -2.296   1.875  1.00  0.00     0.207 HD
ENDROOT
BRANCH   1   3
HETATM    3  C3  UNL     1       1.161  -1.002   0.825  1.00  0.00     0.716 A 
HETATM    4  N3  UNL     1       2.318  -1.281   1.461  1.00  0.00    -0.139 N 
HETATM    5  C2  UNL     1       3.467  -0.653   1.128  1.00  0.00     0.352 A 
ATOM      6  H3  UNL     1       2.325  -1.978   2.206  1.00  0.00     0.189 HD
HETATM    7  N2  UNL     1       3.442   0.263   0.145  1.00  0.00    -0.141 N 
HETATM    8  O1  UNL     1       4.559  -0.900   1.711  1.00  0.00    -0.246 OA
HETATM    9  C1  UNL     1       2.304   0.576  -0.522  1.00  0.00     0.694 A 
ATOM     10  H2  UNL     1       4.308   0.739  -0.108  1.00  0.00     0.189 HD
HETATM   11  N11 UNL     1       1.189  -0.089  -0.141  1.00  0.00    -0.021 N 
ATOM     12  H11 UNL     1       0.316   0.123  -0.625  1.00  0.00     0.203 HD
BRANCH   9  13
HETATM   13  N1  UNL     1       2.256   1.445  -1.463  1.00  0.00    -0.234 N 
ATOM     14  H12 UNL     1       3.097   1.946  -1.750  1.00  0.00     0.174 HD
ATOM     15  H11 UNL     1       1.400   1.680  -1.965  1.00  0.00     0.174 HD
ENDBRANCH   9  13
ENDBRANCH   1   3
BRANCH   1  16
HETATM   16  N5  UNL     1      -1.102  -1.269   0.446  1.00  0.00    -0.214 N 
HETATM   17  N6  UNL     1      -1.952  -0.431   0.867  1.00  0.00    -0.113 N 
ATOM     18  H6  UNL     1      -1.816   0.055   1.754  1.00  0.00     0.207 HD
ATOM     19  H5  UNL     1      -1.280  -1.730  -0.446  1.00  0.00     0.209 HD
BRANCH  17  20
HETATM   20  C4  UNL     1      -3.103  -0.186   0.068  1.00  0.00     0.753 A 
HETATM   21  N7  UNL     1      -4.110  -1.012  -0.252  1.00  0.00    -0.110 N 
HETATM   22  N8  UNL     1      -4.990  -0.364  -1.032  1.00  0.00     0.011 NA
ATOM     23  H7  UNL     1      -4.194  -1.982   0.050  1.00  0.00     0.203 HD
HETATM   24  N9  UNL     1      -4.534   0.881  -1.206  1.00  0.00    -0.184 N 
HETATM   25  N10 UNL     1      -3.406   0.992  -0.550  1.00  0.00     0.032 N 
ATOM     26  H9  UNL     1      -4.985   1.614  -1.753  1.00  0.00     0.209 HD
BRANCH  25  27
HETATM   27  O2  UNL     1      -2.633   2.142  -0.494  1.00  0.00    -0.253 OA
ATOM     28  H2  UNL     1      -2.844   2.962  -0.924  1.00  0.00     0.247 HD
ENDBRANCH  25  27
ENDBRANCH  17  20
ENDBRANCH   1  16
TORSDOF 5
