REMARK  3 active torsions:
REMARK  status: ('A' for Active; 'I' for Inactive)
REMARK    1  A    between atoms: O1_2  and  C2_3 
REMARK    2  A    between atoms: C2_3  and  C3_5 
REMARK    3  A    between atoms: C3_5  and  C4_6 
ROOT
HETATM    1  C4  UNL     1       0.968  -1.133   0.130  1.00  0.00     0.201 C 
HETATM    2  N1  UNL     1       0.199  -2.284  -0.262  1.00  0.00    -0.069 N 
ATOM      3  H11 UNL     1       0.787  -2.989  -0.706  1.00  0.00     0.277 HD
ATOM      4  H12 UNL     1      -0.415  -2.069  -1.048  1.00  0.00     0.277 HD
HETATM    5  C5  UNL     1      -0.550  -2.847   0.859  1.00  0.00     0.252 C 
HETATM    6  C6  UNL     1      -1.577  -1.791   1.254  1.00  0.00     0.142 C 
HETATM    7  N2  UNL     1      -1.912  -1.050   0.097  1.00  0.00    -0.411 N 
ATOM      8  H2  UNL     1      -2.658  -1.365  -0.523  1.00  0.00     0.154 HD
HETATM    9  C7  UNL     1      -1.198   0.130  -0.183  1.00  0.00     0.030 C 
HETATM   10  C8  UNL     1      -1.950   1.274   0.507  1.00  0.00     0.031 C 
HETATM   11  C9  UNL     1      -3.040   1.695  -0.439  1.00  0.00     0.002 C 
HETATM   12  C10 UNL     1      -2.977   0.703  -1.582  1.00  0.00     0.002 C 
HETATM   13  C11 UNL     1      -1.483   0.473  -1.657  1.00  0.00     0.031 C 
HETATM   14  C12 UNL     1       0.253   0.165   0.060  1.00  0.00     0.040 C 
HETATM   15  C13 UNL     1       0.601   0.958   1.308  1.00  0.00     0.014 C 
ENDROOT
BRANCH   1  16
HETATM   16  C3  UNL     1       2.216  -1.141  -0.765  1.00  0.00     0.144 C 
BRANCH  16  17
HETATM   17  C2  UNL     1       3.118  -0.023  -0.494  1.00  0.00     0.260 C 
HETATM   18  O2  UNL     1       3.912  -0.082   0.499  1.00  0.00    -0.265 OA
BRANCH  17  19
HETATM   19  O1  UNL     1       3.182   1.135  -1.256  1.00  0.00    -0.326 OA
HETATM   20  C1  UNL     1       4.069   2.163  -0.937  1.00  0.00     0.213 C 
ENDBRANCH  17  19
ENDBRANCH  16  17
ENDBRANCH   1  16
TORSDOF 3
