REMARK  3 active torsions:
REMARK  status: ('A' for Active; 'I' for Inactive)
REMARK    1  A    between atoms: C4_4  and  N1_5 
REMARK    2  A    between atoms: C7_8  and  N2_9 
REMARK    3  A    between atoms: N2_9  and  C8_11 
ROOT
HETATM    1  N1  UNL     1      -0.901   0.453  -0.586  1.00  0.00     0.093 N 
HETATM    2  C5  UNL     1      -0.465   1.091   0.639  1.00  0.00     0.275 C 
HETATM    3  C6  UNL     1       0.894   0.479   1.029  1.00  0.00     0.055 C 
HETATM    4  C7  UNL     1       1.785   0.846  -0.195  1.00  0.00     0.080 C 
HETATM    5  C11 UNL     1       1.396  -0.143  -1.232  1.00  0.00     0.055 C 
HETATM    6  C12 UNL     1      -0.069  -0.571  -1.087  1.00  0.00     0.275 C 
ENDROOT
BRANCH   4   7
HETATM    7  N2  UNL     1       3.110   1.043   0.167  1.00  0.00    -0.410 N 
ATOM      8  H2  UNL     1       3.489   1.985   0.074  1.00  0.00     0.154 HD
BRANCH   7   9
HETATM    9  C8  UNL     1       3.961   0.051   0.648  1.00  0.00     0.128 C 
HETATM   10  C9  UNL     1       4.410  -0.955  -0.352  1.00  0.00     0.258 C 
HETATM   11  N3  UNL     1       5.804  -0.503  -0.194  1.00  0.00    -0.071 N 
HETATM   12  C10 UNL     1       5.410   0.347   0.872  1.00  0.00     0.258 C 
ATOM     13  H32 UNL     1       6.548  -1.186  -0.052  1.00  0.00     0.277 HD
ATOM     14  H31 UNL     1       6.308  -0.118  -0.993  1.00  0.00     0.277 HD
ENDBRANCH   7   9
ENDBRANCH   4   7
BRANCH   1  15
HETATM   15  C4  UNL     1      -2.285   0.026  -0.493  1.00  0.00     0.223 C 
HETATM   16  C3  UNL     1      -2.523  -0.979   0.576  1.00  0.00     0.036 C 
HETATM   17  C2  UNL     1      -3.930  -1.509   0.449  1.00  0.00     0.002 C 
HETATM   18  C1  UNL     1      -4.929  -0.390   0.451  1.00  0.00     0.000 C 
HETATM   19  C14 UNL     1      -4.604   0.705  -0.509  1.00  0.00     0.002 C 
HETATM   20  C13 UNL     1      -3.178   1.214  -0.279  1.00  0.00     0.036 C 
ENDBRANCH   1  15
TORSDOF 3
