REMARK  3 active torsions:
REMARK  status: ('A' for Active; 'I' for Inactive)
REMARK    1  A    between atoms: C3_3  and  N1_4 
REMARK       I    between atoms: N1_4  and  C5_6 
REMARK       I    between atoms: C5_6  and  N4_11 
REMARK    2  A    between atoms: N4_11  and  N5_13 
REMARK    3  A    between atoms: N5_13  and  C7_14 
ROOT
HETATM    1  C1  UNL     1      -3.548   0.730   2.604  1.00  0.00     0.014 C 
HETATM    2  C2  UNL     1      -3.911   0.083   1.654  1.00  0.00    -0.097 C 
HETATM    3  C3  UNL     1      -4.327  -0.711   0.495  1.00  0.00     0.234 C 
ENDROOT
BRANCH   3   4
HETATM    4  N1  UNL     1      -3.198  -1.089  -0.318  1.00  0.00    -0.210 N 
HETATM    5  C4  UNL     1      -3.436  -1.877  -1.503  1.00  0.00     0.169 C 
HETATM    6  C5  UNL     1      -1.870  -0.722  -0.005  1.00  0.00     0.701 C 
HETATM    7  N2  UNL     1      -1.171  -1.457   0.809  1.00  0.00    -0.125 N 
HETATM    8  N4  UNL     1      -1.230   0.430  -0.536  1.00  0.00    -0.135 N 
HETATM    9  C6  UNL     1      -1.677  -2.618   1.404  1.00  0.00     0.196 C 
ATOM     10  H2  UNL     1      -0.214  -1.175   1.023  1.00  0.00     0.197 HD
HETATM   11  N3  UNL     1      -2.082  -3.575   1.910  1.00  0.00    -0.171 NA
ATOM     12  H4  UNL     1      -1.395   0.719  -1.500  1.00  0.00     0.201 HD
BRANCH   8  13
HETATM   13  N5  UNL     1      -0.383   1.147   0.276  1.00  0.00    -0.121 NA
BRANCH  13  14
HETATM   14  C7  UNL     1       1.022   0.781   0.103  1.00  0.00     0.100 C 
HETATM   15  C8  UNL     1       1.809   1.642   1.049  1.00  0.00     0.023 C 
HETATM   16  C9  UNL     1       3.243   1.262   1.176  1.00  0.00     0.002 C 
HETATM   17  C10 UNL     1       3.931   0.976  -0.119  1.00  0.00     0.000 C 
HETATM   18  C11 UNL     1       3.547  -0.369  -0.646  1.00  0.00     0.000 C 
HETATM   19  C12 UNL     1       2.431  -0.265  -1.651  1.00  0.00     0.002 C 
HETATM   20  C13 UNL     1       1.474   0.879  -1.318  1.00  0.00     0.023 C 
ENDBRANCH  13  14
ENDBRANCH   8  13
ENDBRANCH   3   4
TORSDOF 3
