REMARK  5 active torsions:
REMARK  status: ('A' for Active; 'I' for Inactive)
REMARK    1  A    between atoms: C2_2  and  C3_3 
REMARK    2  A    between atoms: C3_3  and  C4_4 
REMARK    3  A    between atoms: C3_3  and  N2_15 
REMARK       I    between atoms: C4_4  and  N1_6 
REMARK    4  A    between atoms: C6_8  and  O2_9 
REMARK    5  A    between atoms: C7_11  and  O3_12 
ROOT
HETATM    1  C4  UNL     1       1.217  -0.965  -0.981  1.00  0.00     0.242 C 
HETATM    2  O1  UNL     1       1.703  -1.890  -1.740  1.00  0.00    -0.271 OA
HETATM    3  N1  UNL     1       2.139  -0.319  -0.138  1.00  0.00    -0.345 N 
HETATM    4  C5  UNL     1       2.033   0.755   0.816  1.00  0.00     0.160 C 
HETATM    5  C6  UNL     1       3.381   1.481   0.738  1.00  0.00     0.166 C 
HETATM    6  C7  UNL     1       4.205   0.667  -0.240  1.00  0.00     0.166 C 
HETATM    7  C8  UNL     1       3.563  -0.690  -0.069  1.00  0.00     0.160 C 
ENDROOT
BRANCH   1   8
HETATM    8  C3  UNL     1      -0.208  -0.750  -1.133  1.00  0.00     0.171 C 
BRANCH   8   9
HETATM    9  C2  UNL     1      -0.897  -2.073  -1.442  1.00  0.00     0.030 C 
HETATM   10  C1  UNL     1      -0.704  -3.102  -0.381  1.00  0.00     0.007 C 
ENDBRANCH   8   9
BRANCH   8  11
HETATM   11  N2  UNL     1      -0.943   0.009  -0.250  1.00  0.00    -0.400 N 
HETATM   12  C9  UNL     1      -1.258  -0.398   1.045  1.00  0.00     0.118 C 
HETATM   13  C10 UNL     1      -1.717   0.845   1.828  1.00  0.00     0.020 C 
HETATM   14  C11 UNL     1      -3.076   1.253   1.285  1.00  0.00     0.007 C 
HETATM   15  C12 UNL     1      -3.009   1.298  -0.227  1.00  0.00    -0.001 C 
HETATM   16  C13 UNL     1      -3.983   0.349  -0.857  1.00  0.00     0.011 C 
HETATM   17  C14 UNL     1      -1.607   1.171  -0.740  1.00  0.00     0.122 C 
ENDBRANCH   8  11
ENDBRANCH   1   8
BRANCH   5  18
HETATM   18  O2  UNL     1       3.141   2.765   0.259  1.00  0.00    -0.391 OA
ATOM     19  H2  UNL     1       3.976   3.215   0.211  1.00  0.00     0.210 HD
ENDBRANCH   5  18
BRANCH   6  20
HETATM   20  O3  UNL     1       5.551   0.656   0.111  1.00  0.00    -0.391 OA
ATOM     21  H3  UNL     1       6.067   0.146  -0.502  1.00  0.00     0.210 HD
ENDBRANCH   6  20
TORSDOF 5
