REMARK  4 active torsions:
REMARK  status: ('A' for Active; 'I' for Inactive)
REMARK    1  A    between atoms: N1_2  and  C3_4 
REMARK    2  A    between atoms: C3_4  and  C4_5 
REMARK    3  A    between atoms: C5_6  and  C6_7 
REMARK    4  A    between atoms: C6_7  and  O1_8 
ROOT
HETATM    1  C4  UNL     1       0.544  -0.452  -0.367  1.00  0.00     0.072 C 
HETATM    2  C5  UNL     1      -0.058  -1.704   0.114  1.00  0.00     0.037 C 
HETATM    3  C7  UNL     1      -1.143  -2.282  -0.811  1.00  0.00     0.134 C 
HETATM    4  N2  UNL     1      -2.345  -1.635  -0.339  1.00  0.00    -0.338 N 
HETATM    5  C8  UNL     1      -3.352  -2.520   0.177  1.00  0.00     0.154 C 
HETATM    6  C9  UNL     1      -2.645  -0.260  -0.319  1.00  0.00     0.321 C 
HETATM    7  O2  UNL     1      -3.850   0.099  -0.227  1.00  0.00    -0.247 OA
HETATM    8  N3  UNL     1      -1.639   0.774  -0.398  1.00  0.00    -0.305 N 
HETATM    9  C10 UNL     1      -2.315   2.068  -0.585  1.00  0.00     0.131 C 
HETATM   10  C11 UNL     1      -1.367   3.202  -0.399  1.00  0.00     0.047 C 
HETATM   11  C12 UNL     1      -0.342   2.995   0.661  1.00  0.00     0.236 C 
HETATM   12  N4  UNL     1       0.110   1.645   0.827  1.00  0.00    -0.053 N 
ATOM     13  H41 UNL     1      -0.243   1.242   1.695  1.00  0.00     0.279 HD
ATOM     14  H42 UNL     1       1.109   1.613   1.028  1.00  0.00     0.279 HD
HETATM   15  C13 UNL     1      -0.229   0.797  -0.332  1.00  0.00     0.296 C 
ENDROOT
BRANCH   1  16
HETATM   16  C3  UNL     1       1.805  -0.196   0.465  1.00  0.00     0.280 C 
BRANCH  16  17
HETATM   17  N1  UNL     1       2.479   1.033   0.073  1.00  0.00     0.080 N 
HETATM   18  C1  UNL     1       3.040   0.860  -1.224  1.00  0.00     0.309 C 
HETATM   19  C2  UNL     1       3.536   1.211   1.071  1.00  0.00     0.309 C 
ENDBRANCH  16  17
ENDBRANCH   1  16
BRANCH   2  20
HETATM   20  C6  UNL     1       0.976  -2.800   0.215  1.00  0.00     0.170 C 
BRANCH  20  21
HETATM   21  O1  UNL     1       0.357  -4.004   0.668  1.00  0.00    -0.400 OA
ATOM     22  H1  UNL     1       1.007  -4.693   0.732  1.00  0.00     0.209 HD
ENDBRANCH  20  21
ENDBRANCH   2  20
TORSDOF 4
