REMARK  5 active torsions:
REMARK  status: ('A' for Active; 'I' for Inactive)
REMARK       I    between atoms: N1_5  and  C5_6 
REMARK       I    between atoms: C5_6  and  N2_8 
REMARK    1  A    between atoms: N3_11  and  C8_12 
REMARK    2  A    between atoms: C8_12  and  C9_13 
REMARK    3  A    between atoms: C9_13  and  O2_14 
REMARK    4  A    between atoms: C12_18  and  C13_19 
REMARK    5  A    between atoms: C13_19  and  O3_20 
ROOT
HETATM    1  C1  UNL     1      -3.424  -1.417   1.555  1.00  0.00     0.018 C 
HETATM    2  C2  UNL     1      -3.546  -0.128   0.809  1.00  0.00    -0.009 C 
HETATM    3  C3  UNL     1      -4.942   0.138   0.309  1.00  0.00     0.018 C 
HETATM    4  C4  UNL     1      -2.925   1.071   1.454  1.00  0.00     0.139 C 
HETATM    5  N1  UNL     1      -1.638   0.625   0.874  1.00  0.00    -0.326 N 
HETATM    6  C5  UNL     1      -0.319   0.744   1.358  1.00  0.00     0.321 C 
HETATM    7  O1  UNL     1      -0.148   1.340   2.473  1.00  0.00    -0.247 OA
HETATM    8  N2  UNL     1       0.835   0.251   0.704  1.00  0.00    -0.331 N 
HETATM    9  C6  UNL     1       2.111   0.481   1.373  1.00  0.00     0.158 C 
HETATM   10  C7  UNL     1       3.068  -0.581   0.873  1.00  0.00     0.292 C 
HETATM   11  N3  UNL     1       3.198  -0.376  -0.537  1.00  0.00     0.093 N 
HETATM   12  C10 UNL     1       2.013  -0.670  -1.274  1.00  0.00     0.292 C 
HETATM   13  C11 UNL     1       0.725  -0.440  -0.545  1.00  0.00     0.158 C 
HETATM   14  C12 UNL     1      -2.436   0.130  -0.223  1.00  0.00     0.121 C 
ENDROOT
BRANCH  14  15
HETATM   15  C13 UNL     1      -2.842   1.134  -1.275  1.00  0.00     0.190 C 
BRANCH  15  16
HETATM   16  O3  UNL     1      -3.597   0.414  -2.232  1.00  0.00    -0.399 OA
ATOM     17  H3  UNL     1      -3.852   1.046  -2.894  1.00  0.00     0.209 HD
ENDBRANCH  15  16
ENDBRANCH  14  15
BRANCH  11  18
HETATM   18  C8  UNL     1       4.380  -0.896  -1.134  1.00  0.00     0.298 C 
BRANCH  18  19
HETATM   19  C9  UNL     1       5.568  -0.097  -0.645  1.00  0.00     0.194 C 
BRANCH  19  20
HETATM   20  O2  UNL     1       5.383   1.253  -1.012  1.00  0.00    -0.399 OA
ATOM     21  H2  UNL     1       6.129   1.755  -0.705  1.00  0.00     0.209 HD
ENDBRANCH  19  20
ENDBRANCH  18  19
ENDBRANCH  11  18
TORSDOF 5
