REMARK  9 active torsions:
REMARK  status: ('A' for Active; 'I' for Inactive)
REMARK    1  A    between atoms: C3_3  and  N1_4 
REMARK    2  A    between atoms: N1_4  and  C4_5 
REMARK    3  A    between atoms: N1_4  and  C15_25 
REMARK    4  A    between atoms: C4_5  and  O1_6 
REMARK    5  A    between atoms: C4_5  and  C5_8 
REMARK    6  A    between atoms: C7_10  and  N2_11 
REMARK    7  A    between atoms: N2_11  and  C8_12 
REMARK    8  A    between atoms: N2_11  and  C10_14 
REMARK    9  A    between atoms: N4_19  and  C13_21 
ROOT
HETATM    1  C1  UNL     1       2.590  -0.913  -3.778  1.00  0.00     0.014 C 
HETATM    2  C2  UNL     1       1.915  -0.330  -2.962  1.00  0.00    -0.097 C 
HETATM    3  C3  UNL     1       1.046   0.373  -1.964  1.00  0.00     0.224 C 
ENDROOT
BRANCH   3   4
HETATM    4  N1  UNL     1       1.528  -0.011  -0.662  1.00  0.00    -0.314 N 
BRANCH   4   5
HETATM    5  C4  UNL     1       1.083  -1.126  -0.004  1.00  0.00     0.185 C 
BRANCH   5   6
HETATM    6  O1  UNL     1       1.951  -1.608   0.868  1.00  0.00    -0.343 OA
ATOM      7  H1  UNL     1       1.642  -2.382   1.325  1.00  0.00     0.219 HD
ENDBRANCH   5   6
BRANCH   5   8
HETATM    8  C5  UNL     1      -0.140  -1.934  -0.060  1.00  0.00     0.165 A 
HETATM    9  C6  UNL     1      -1.064  -0.471  -0.039  1.00  0.00     0.097 A 
HETATM   10  C7  UNL     1      -2.366  -0.593  -0.082  1.00  0.00     0.110 A 
HETATM   11  N3  UNL     1      -3.102  -1.699  -0.133  1.00  0.00    -0.302 N 
HETATM   12  C12 UNL     1      -2.359  -2.880  -0.147  1.00  0.00     0.261 A 
ATOM     13  H3  UNL     1      -4.122  -1.685  -0.160  1.00  0.00     0.171 HD
HETATM   14  N4  UNL     1      -2.982  -3.954  -0.186  1.00  0.00    -0.317 N 
HETATM   15  N6  UNL     1      -1.107  -2.573  -0.105  1.00  0.00    -0.366 NA
ATOM     16  H4  UNL     1      -3.992  -3.815  -0.202  1.00  0.00     0.170 HD
BRANCH  10  17
HETATM   17  N2  UNL     1      -3.163   0.656  -0.084  1.00  0.00    -0.368 N 
BRANCH  17  18
HETATM   18  C8  UNL     1      -3.562   1.214  -1.342  1.00  0.00     0.120 C 
HETATM   19  C9  UNL     1      -5.043   1.191  -1.585  1.00  0.00     0.026 C 
ENDBRANCH  17  18
BRANCH  17  20
HETATM   20  C10 UNL     1      -3.471   1.257   1.164  1.00  0.00     0.120 C 
HETATM   21  C11 UNL     1      -2.976   0.480   2.335  1.00  0.00     0.026 C 
ENDBRANCH  17  20
ENDBRANCH  10  17
BRANCH  14  22
HETATM   22  C13 UNL     1      -2.631  -5.311  -0.213  1.00  0.00     0.186 C 
HETATM   23  C14 UNL     1      -1.192  -5.508  -0.210  1.00  0.00     0.105 C 
HETATM   24  N5  UNL     1      -0.028  -5.689  -0.214  1.00  0.00    -0.191 NA
ENDBRANCH  14  22
ENDBRANCH   5   8
ENDBRANCH   4   5
BRANCH   4  25
HETATM   25  C15 UNL     1       2.596   0.744  -0.044  1.00  0.00     0.038 A 
HETATM   26  C16 UNL     1       3.721   1.178  -0.685  1.00  0.00     0.036 A 
HETATM   27  C17 UNL     1       4.724   1.895  -0.025  1.00  0.00    -0.059 A 
HETATM   28  C18 UNL     1       5.918   2.326  -0.788  1.00  0.00     0.048 C 
HETATM   29  C19 UNL     1       4.572   2.176   1.322  1.00  0.00     0.013 A 
HETATM   30  C20 UNL     1       3.449   1.756   2.009  1.00  0.00    -0.059 A 
HETATM   31  C21 UNL     1       3.263   2.030   3.456  1.00  0.00     0.048 C 
HETATM   32  C22 UNL     1       2.493   1.054   1.315  1.00  0.00     0.036 A 
ENDBRANCH   4  25
ENDBRANCH   3   4
TORSDOF 9
