REMARK  8 active torsions:
REMARK  status: ('A' for Active; 'I' for Inactive)
REMARK    1  A    between atoms: C9_10  and  C10_11 
REMARK    2  A    between atoms: C10_11  and  C11_12 
REMARK    3  A    between atoms: C11_12  and  N1_13 
REMARK    4  A    between atoms: N1_13  and  C12_16 
REMARK    5  A    between atoms: C12_16  and  C13_17 
REMARK    6  A    between atoms: C13_17  and  C14_18 
REMARK    7  A    between atoms: C14_18  and  N2_19 
REMARK    8  A    between atoms: C20_26  and  O2_27 
ROOT
HETATM    1  C1  UNL     1      -6.426  -1.239   1.904  1.00  0.00     0.020 C 
HETATM    2  C2  UNL     1      -6.123  -0.671   0.794  1.00  0.00    -0.051 C 
HETATM    3  C3  UNL     1      -7.192  -0.080  -0.109  1.00  0.00     0.076 C 
HETATM    4  C4  UNL     1      -6.728   1.244  -0.650  1.00  0.00     0.064 C 
HETATM    5  C5  UNL     1      -6.808   1.196  -2.158  1.00  0.00     0.046 C 
HETATM    6  C6  UNL     1      -7.679   2.310  -0.092  1.00  0.00     0.046 C 
HETATM    7  O1  UNL     1      -5.395   1.574  -0.304  1.00  0.00    -0.340 OA
HETATM    8  C7  UNL     1      -4.374   0.646  -0.228  1.00  0.00     0.081 A 
HETATM    9  C8  UNL     1      -3.090   0.818  -0.660  1.00  0.00     0.047 A 
HETATM   10  C9  UNL     1      -2.192  -0.209  -0.508  1.00  0.00    -0.020 A 
HETATM   11  C20 UNL     1      -2.577  -1.415   0.076  1.00  0.00     0.079 A 
HETATM   12  C21 UNL     1      -3.889  -1.628   0.530  1.00  0.00    -0.015 A 
HETATM   13  C22 UNL     1      -4.344  -2.903   1.108  1.00  0.00     0.052 C 
HETATM   14  C23 UNL     1      -4.743  -0.569   0.357  1.00  0.00     0.012 A 
ENDROOT
BRANCH  10  15
HETATM   15  C10 UNL     1      -0.757  -0.080  -0.949  1.00  0.00     0.069 C 
BRANCH  15  16
HETATM   16  C11 UNL     1       0.109   0.144   0.275  1.00  0.00     0.237 C 
BRANCH  16  17
HETATM   17  N1  UNL     1       1.524   0.265  -0.099  1.00  0.00    -0.075 N 
ATOM     18  H12 UNL     1       1.841  -0.539  -0.641  1.00  0.00     0.277 HD
ATOM     19  H11 UNL     1       1.668   0.990  -0.802  1.00  0.00     0.277 HD
BRANCH  17  20
HETATM   20  C12 UNL     1       2.343   0.480   1.061  1.00  0.00     0.234 C 
BRANCH  20  21
HETATM   21  C13 UNL     1       3.779   0.612   0.688  1.00  0.00     0.057 C 
BRANCH  21  22
HETATM   22  C14 UNL     1       4.280  -0.617   0.008  1.00  0.00     0.274 C 
BRANCH  22  23
HETATM   23  N2  UNL     1       5.668  -0.550  -0.355  1.00  0.00     0.091 N 
HETATM   24  C15 UNL     1       6.576  -0.546   0.755  1.00  0.00     0.302 C 
HETATM   25  C16 UNL     1       7.985  -0.640   0.207  1.00  0.00     0.302 C 
HETATM   26  N3  UNL     1       8.246   0.260  -0.871  1.00  0.00     0.087 N 
HETATM   27  C17 UNL     1       8.618   1.576  -0.455  1.00  0.00     0.310 C 
HETATM   28  C18 UNL     1       7.258   0.287  -1.903  1.00  0.00     0.302 C 
HETATM   29  C19 UNL     1       5.898   0.537  -1.256  1.00  0.00     0.302 C 
ENDBRANCH  22  23
ENDBRANCH  21  22
ENDBRANCH  20  21
ENDBRANCH  17  20
ENDBRANCH  16  17
ENDBRANCH  15  16
ENDBRANCH  10  15
BRANCH  11  30
HETATM   30  O2  UNL     1      -1.640  -2.422   0.209  1.00  0.00    -0.360 OA
ATOM     31  H2  UNL     1      -1.902  -3.244   0.607  1.00  0.00     0.217 HD
ENDBRANCH  11  30
TORSDOF 8
