REMARK  7 active torsions:
REMARK  status: ('A' for Active; 'I' for Inactive)
REMARK    1  A    between atoms: C2_2  and  C4_4 
REMARK    2  A    between atoms: C4_4  and  C5_5 
REMARK    3  A    between atoms: N2_8  and  C6_9 
REMARK    4  A    between atoms: C6_9  and  C7_10 
REMARK    5  A    between atoms: C7_10  and  C8_11 
REMARK    6  A    between atoms: C13_16  and  N3_17 
REMARK       I    between atoms: N3_17  and  C14_19 
REMARK    7  A    between atoms: C14_19  and  C15_21 
ROOT
HETATM    1  C15 UNL     1       5.845   2.021  -0.720  1.00  0.00     0.129 A 
HETATM    2  C16 UNL     1       6.145   3.332  -1.347  1.00  0.00     0.079 C 
HETATM    3  N4  UNL     1       6.363   4.353  -1.849  1.00  0.00    -0.196 NA
HETATM    4  C17 UNL     1       6.977   1.559   0.174  1.00  0.00     0.037 A 
HETATM    5  C18 UNL     1       6.715   0.913  -1.170  1.00  0.00     0.037 A 
ENDROOT
BRANCH   1   6
HETATM    6  C14 UNL     1       4.459   1.797  -0.251  1.00  0.00     0.240 C 
HETATM    7  N3  UNL     1       3.925   0.518   0.003  1.00  0.00    -0.355 N 
ATOM      8  H3  UNL     1       4.546  -0.276  -0.151  1.00  0.00     0.162 HD
HETATM    9  O1  UNL     1       3.733   2.805  -0.076  1.00  0.00    -0.272 OA
BRANCH   7  10
HETATM   10  C13 UNL     1       2.601   0.219   0.455  1.00  0.00     0.088 C 
HETATM   11  C8  UNL     1       1.803  -0.589  -0.537  1.00  0.00     0.010 C 
HETATM   12  C9  UNL     1       1.439  -1.899   0.071  1.00  0.00     0.007 C 
HETATM   13  C10 UNL     1       2.750  -2.590   0.478  1.00  0.00     0.001 C 
HETATM   14  C11 UNL     1       3.279  -1.853   1.685  1.00  0.00     0.002 C 
HETATM   15  C12 UNL     1       2.635  -0.490   1.791  1.00  0.00     0.025 C 
BRANCH  11  16
HETATM   16  C7  UNL     1       0.732   0.160  -1.226  1.00  0.00     0.028 C 
BRANCH  16  17
HETATM   17  C6  UNL     1      -0.463   0.552  -0.448  1.00  0.00     0.142 C 
BRANCH  17  18
HETATM   18  N2  UNL     1      -1.260  -0.474   0.104  1.00  0.00    -0.331 N 
HETATM   19  N1  UNL     1      -1.895  -0.101   1.227  1.00  0.00    -0.327 N 
HETATM   20  C5  UNL     1      -3.341   0.015   1.193  1.00  0.00     0.169 C 
ATOM     21  H1  UNL     1      -1.374   0.096   2.082  1.00  0.00     0.180 HD
HETATM   22  C22 UNL     1      -3.861  -1.294   0.784  1.00  0.00     0.156 C 
HETATM   23  C20 UNL     1      -3.064  -2.085  -0.193  1.00  0.00     0.073 C 
HETATM   24  O2  UNL     1      -4.907  -1.787   1.193  1.00  0.00    -0.295 OA
HETATM   25  C19 UNL     1      -1.993  -1.247  -0.846  1.00  0.00     0.153 C 
HETATM   26  C21 UNL     1      -3.979  -2.756  -1.163  1.00  0.00     0.020 C 
BRANCH  20  27
HETATM   27  C4  UNL     1      -3.808   1.226   0.508  1.00  0.00     0.038 C 
BRANCH  27  28
HETATM   28  C2  UNL     1      -5.274   1.499   0.415  1.00  0.00    -0.020 C 
HETATM   29  C1  UNL     1      -5.380   2.861  -0.330  1.00  0.00     0.009 C 
HETATM   30  C3  UNL     1      -6.072   0.548  -0.418  1.00  0.00     0.009 C 
ENDBRANCH  27  28
ENDBRANCH  20  27
ENDBRANCH  17  18
ENDBRANCH  16  17
ENDBRANCH  11  16
ENDBRANCH   7  10
ENDBRANCH   1   6
TORSDOF 7
