REMARK  8 active torsions:
REMARK  status: ('A' for Active; 'I' for Inactive)
REMARK    1  A    between atoms: C2_2  and  C3_3 
REMARK    2  A    between atoms: C4_4  and  N1_5 
REMARK    3  A    between atoms: C10_13  and  C11_14 
REMARK    4  A    between atoms: C13_16  and  N3_17 
REMARK    5  A    between atoms: N4_20  and  C16_21 
REMARK    6  A    between atoms: C16_21  and  C17_22 
REMARK    7  A    between atoms: C17_22  and  C18_23 
REMARK    8  A    between atoms: C18_23  and  O1_24 
ROOT
HETATM    1  C3  UNL     1      -3.349  -0.641   1.201  1.00  0.00     0.015 A 
HETATM    2  C4  UNL     1      -3.777   0.268   0.271  1.00  0.00     0.112 A 
HETATM    3  N2  UNL     1      -2.655   0.797  -0.335  1.00  0.00    -0.340 N 
ATOM      4  H2  UNL     1      -2.674   1.502  -1.072  1.00  0.00     0.167 HD
HETATM    5  C9  UNL     1      -1.556   0.269   0.167  1.00  0.00     0.070 A 
HETATM    6  C10 UNL     1      -0.211   0.498  -0.135  1.00  0.00    -0.002 A 
HETATM    7  C13 UNL     1       0.717  -0.218   0.571  1.00  0.00     0.054 A 
HETATM    8  C21 UNL     1       0.293  -1.132   1.548  1.00  0.00     0.118 A 
HETATM    9  N5  UNL     1      -1.015  -1.300   1.784  1.00  0.00    -0.361 N 
ATOM     10  H5  UNL     1      -1.305  -1.969   2.497  1.00  0.00     0.165 HD
HETATM   11  C22 UNL     1      -1.949  -0.624   1.120  1.00  0.00     0.069 A 
ENDROOT
BRANCH   7  12
HETATM   12  N3  UNL     1       2.093  -0.037   0.305  1.00  0.00    -0.373 N 
HETATM   13  C14 UNL     1       2.720  -0.427  -0.920  1.00  0.00     0.143 C 
HETATM   14  C15 UNL     1       3.884  -1.345  -0.587  1.00  0.00     0.146 C 
HETATM   15  N4  UNL     1       4.755  -0.849   0.423  1.00  0.00    -0.371 N 
HETATM   16  C19 UNL     1       4.140  -0.354   1.585  1.00  0.00     0.083 C 
HETATM   17  C20 UNL     1       2.975   0.579   1.307  1.00  0.00     0.167 C 
BRANCH  15  18
HETATM   18  C16 UNL     1       5.981  -0.323  -0.021  1.00  0.00     0.065 C 
BRANCH  18  19
HETATM   19  C17 UNL     1       6.875   0.214   1.045  1.00  0.00     0.070 C 
BRANCH  19  20
HETATM   20  C18 UNL     1       8.169   0.711   0.402  1.00  0.00     0.169 C 
BRANCH  20  21
HETATM   21  O1  UNL     1       9.027   1.216   1.357  1.00  0.00    -0.401 OA
ATOM     22  H1  UNL     1       9.831   1.525   0.957  1.00  0.00     0.209 HD
ENDBRANCH  20  21
ENDBRANCH  19  20
ENDBRANCH  18  19
ENDBRANCH  15  18
ENDBRANCH   7  12
BRANCH   6  23
HETATM   23  C11 UNL     1       0.129   1.499  -1.172  1.00  0.00     0.039 C 
HETATM   24  C12 UNL     1      -0.157   0.937  -2.553  1.00  0.00     0.010 C 
ENDBRANCH   6  23
BRANCH   2  25
HETATM   25  N1  UNL     1      -5.099   0.632  -0.020  1.00  0.00    -0.367 N 
HETATM   26  C5  UNL     1      -5.414   1.578  -1.125  1.00  0.00     0.124 C 
HETATM   27  C6  UNL     1      -6.694   1.037  -1.733  1.00  0.00     0.021 C 
HETATM   28  C7  UNL     1      -7.091  -0.115  -0.815  1.00  0.00     0.021 C 
HETATM   29  C8  UNL     1      -6.404   0.351   0.488  1.00  0.00     0.124 C 
ENDBRANCH   2  25
BRANCH   1  30
HETATM   30  C2  UNL     1      -4.066  -1.523   2.131  1.00  0.00     0.040 C 
HETATM   31  C1  UNL     1      -4.606  -2.725   1.408  1.00  0.00     0.010 C 
ENDBRANCH   1  30
TORSDOF 8
