REMARK  5 active torsions:
REMARK  status: ('A' for Active; 'I' for Inactive)
REMARK    1  A    between atoms: C3_3  and  C4_4 
REMARK    2  A    between atoms: C5_5  and  C6_6 
REMARK    3  A    between atoms: C7_7  and  C8_8 
REMARK    4  A    between atoms: C9_9  and  C10_10 
REMARK    5  A    between atoms: C10_10  and  N1_11 
ROOT
HETATM    1  C1  UNL     1       7.601   0.648   0.330  1.00  0.00     0.113 C 
HETATM    2  C2  UNL     1       6.156   0.455   0.321  1.00  0.00    -0.097 C 
HETATM    3  C3  UNL     1       4.960   0.277   0.303  1.00  0.00    -0.015 C 
ENDROOT
BRANCH   3   4
HETATM    4  C4  UNL     1       3.551   0.068   0.295  1.00  0.00    -0.001 C 
HETATM    5  C5  UNL     1       2.361  -0.130   0.288  1.00  0.00    -0.000 C 
BRANCH   5   6
HETATM    6  C6  UNL     1       0.960  -0.387   0.287  1.00  0.00    -0.000 C 
HETATM    7  C7  UNL     1      -0.225  -0.607   0.295  1.00  0.00    -0.001 C 
BRANCH   7   8
HETATM    8  C8  UNL     1      -1.621  -0.870   0.297  1.00  0.00    -0.013 C 
HETATM    9  C9  UNL     1      -2.804  -1.114   0.291  1.00  0.00    -0.073 C 
BRANCH   9  10
HETATM   10  C10 UNL     1      -4.232  -1.428   0.269  1.00  0.00     0.215 C 
BRANCH  10  11
HETATM   11  N1  UNL     1      -4.929  -0.427   1.024  1.00  0.00    -0.378 N 
HETATM   12  C11 UNL     1      -5.356   0.655   0.508  1.00  0.00     0.185 C 
HETATM   13  N2  UNL     1      -5.201   1.005  -0.859  1.00  0.00    -0.097 NA
ATOM     14  H1  UNL     1      -5.089  -0.590   2.018  1.00  0.00     0.160 HD
ENDBRANCH  10  11
ENDBRANCH   9  10
ENDBRANCH   7   8
ENDBRANCH   5   6
ENDBRANCH   3   4
TORSDOF 5
