REMARK  1 active torsions:
REMARK  status: ('A' for Active; 'I' for Inactive)
REMARK    1  A    between atoms: C2_2  and  C3_3 
ROOT
HETATM    1  C3  UNL     1       0.200   0.597  -0.037  1.00  0.00     0.215 C 
HETATM    2  C4  UNL     1       0.579   1.268  -1.318  1.00  0.00     0.058 C 
HETATM    3  C5  UNL     1      -0.529   1.625   0.814  1.00  0.00     0.262 C 
HETATM    4  O1  UNL     1      -0.545   2.866   0.700  1.00  0.00    -0.270 OA
HETATM    5  N1  UNL     1      -1.198   0.814   1.787  1.00  0.00    -0.271 N 
ATOM      6  H1  UNL     1      -1.638   1.132   2.651  1.00  0.00     0.173 HD
HETATM    7  C6  UNL     1      -1.126  -0.543   1.302  1.00  0.00     0.422 C 
HETATM    8  O2  UNL     1      -1.327  -1.551   1.989  1.00  0.00    -0.239 OA
HETATM    9  N2  UNL     1      -0.780  -0.415  -0.097  1.00  0.00     0.024 N 
HETATM   10  C7  UNL     1      -2.009  -0.021  -0.745  1.00  0.00     0.286 C 
HETATM   11  C8  UNL     1      -0.396  -1.698  -0.574  1.00  0.00     0.286 C 
ENDROOT
BRANCH   1  12
HETATM   12  C2  UNL     1       1.403   0.224   0.747  1.00  0.00     0.045 C 
HETATM   13  C1  UNL     1       2.371  -0.701   0.106  1.00  0.00     0.008 C 
ENDBRANCH   1  12
TORSDOF 1
