REMARK  5 active torsions:
REMARK  status: ('A' for Active; 'I' for Inactive)
REMARK    1  A    between atoms: C4_4  and  C5_5 
REMARK    2  A    between atoms: C5_5  and  C6_6 
REMARK    3  A    between atoms: C7_7  and  C8_8 
REMARK    4  A    between atoms: C9_9  and  C10_10 
REMARK    5  A    between atoms: C10_10  and  N1_11 
ROOT
HETATM    1  C1  UNL     1       6.023   2.535  -0.374  1.00  0.00     0.027 C 
HETATM    2  C2  UNL     1       5.540   1.459  -0.117  1.00  0.00    -0.026 C 
HETATM    3  C3  UNL     1       4.951   0.207   0.169  1.00  0.00    -0.015 C 
HETATM    4  C4  UNL     1       4.432  -0.857   0.401  1.00  0.00    -0.080 C 
ENDROOT
BRANCH   4   5
HETATM    5  C5  UNL     1       3.774  -2.159   0.670  1.00  0.00     0.189 C 
BRANCH   5   6
HETATM    6  C6  UNL     1       2.319  -1.865   0.652  1.00  0.00    -0.080 C 
HETATM    7  C7  UNL     1       1.140  -1.607   0.636  1.00  0.00    -0.014 C 
BRANCH   7   8
HETATM    8  C8  UNL     1      -0.236  -1.284   0.611  1.00  0.00    -0.013 C 
HETATM    9  C9  UNL     1      -1.403  -0.990   0.590  1.00  0.00    -0.062 C 
BRANCH   9  10
HETATM   10  C10 UNL     1      -2.821  -0.612   0.577  1.00  0.00     0.365 C 
BRANCH  10  11
HETATM   11  N1  UNL     1      -3.009   0.647  -0.066  1.00  0.00     0.090 N 
HETATM   12  C11 UNL     1      -2.751   0.637  -1.473  1.00  0.00     0.310 C 
HETATM   13  C12 UNL     1      -4.231   1.326   0.235  1.00  0.00     0.310 C 
ENDBRANCH  10  11
ENDBRANCH   9  10
ENDBRANCH   7   8
ENDBRANCH   5   6
ENDBRANCH   4   5
TORSDOF 5
