REMARK  3 active torsions:
REMARK  status: ('A' for Active; 'I' for Inactive)
REMARK    1  A    between atoms: C4_4  and  C5_5 
REMARK    2  A    between atoms: C5_5  and  N1_6 
REMARK    3  A    between atoms: N3_10  and  O1_11 
ROOT
HETATM    1  C1  UNL     1       4.764  -1.077  -1.282  1.00  0.00     0.027 C 
HETATM    2  C2  UNL     1       3.730  -0.990  -0.665  1.00  0.00    -0.026 C 
HETATM    3  C3  UNL     1       2.509  -0.874   0.041  1.00  0.00    -0.014 C 
HETATM    4  C4  UNL     1       1.464  -0.766   0.624  1.00  0.00    -0.072 C 
ENDROOT
BRANCH   4   5
HETATM    5  C5  UNL     1       0.183  -0.621   1.316  1.00  0.00     0.225 C 
BRANCH   5   6
HETATM    6  N1  UNL     1      -0.621   0.390   0.654  1.00  0.00    -0.317 N 
HETATM    7  C6  UNL     1      -0.590   1.702   0.974  1.00  0.00     0.204 A 
HETATM    8  N2  UNL     1      -1.469   2.290   0.138  1.00  0.00    -0.269 N 
HETATM    9  N3  UNL     1      -2.002   1.371  -0.647  1.00  0.00    -0.150 N 
ATOM     10  H2  UNL     1      -1.688   3.286   0.115  1.00  0.00     0.190 HD
HETATM   11  C7  UNL     1      -1.486   0.165  -0.343  1.00  0.00     0.128 A 
HETATM   12  C8  UNL     1      -1.790  -1.140  -0.961  1.00  0.00     0.093 C 
BRANCH   9  13
HETATM   13  O1  UNL     1      -2.936   1.551  -1.631  1.00  0.00    -0.267 OA
ATOM     14  H1  UNL     1      -3.319   0.890  -2.196  1.00  0.00     0.247 HD
ENDBRANCH   9  13
ENDBRANCH   5   6
ENDBRANCH   4   5
TORSDOF 3
