REMARK  3 active torsions:
REMARK  status: ('A' for Active; 'I' for Inactive)
REMARK    1  A    between atoms: O1_2  and  C2_3 
REMARK    2  A    between atoms: C5_9  and  C6_10 
REMARK    3  A    between atoms: C7_11  and  C8_12 
ROOT
HETATM    1  C2  UNL     1       0.322  -1.030   0.171  1.00  0.00     0.122 A 
HETATM    2  C3  UNL     1      -0.642  -1.954   0.518  1.00  0.00     0.147 A 
HETATM    3  N1  UNL     1      -1.795  -1.275   0.567  1.00  0.00    -0.306 N 
ATOM      4  H1  UNL     1      -2.703  -1.679   0.798  1.00  0.00     0.186 HD
HETATM    5  N2  UNL     1      -1.581   0.008   0.269  1.00  0.00    -0.286 N 
HETATM    6  C4  UNL     1      -2.563   1.091   0.207  1.00  0.00     0.179 C 
HETATM    7  C5  UNL     1      -0.273   0.216   0.012  1.00  0.00     0.139 A 
ENDROOT
BRANCH   7   8
HETATM    8  C6  UNL     1       0.381   1.454  -0.349  1.00  0.00    -0.038 C 
HETATM    9  C7  UNL     1       0.943   2.477  -0.659  1.00  0.00    -0.055 C 
BRANCH   9  10
HETATM   10  C8  UNL     1       1.634   3.682  -1.030  1.00  0.00     0.146 C 
HETATM   11  N3  UNL     1       2.830   3.585  -1.497  1.00  0.00    -0.401 N 
ATOM     12  H32 UNL     1       3.263   2.667  -1.595  1.00  0.00     0.156 HD
ATOM     13  H31 UNL     1       3.320   4.440  -1.760  1.00  0.00     0.156 HD
ENDBRANCH   9  10
ENDBRANCH   7   8
BRANCH   1  14
HETATM   14  O1  UNL     1       1.687  -1.228  -0.012  1.00  0.00    -0.352 OA
HETATM   15  C1  UNL     1       2.282  -2.501   0.152  1.00  0.00     0.210 C 
ENDBRANCH   1  14
TORSDOF 3
