REMARK  3 active torsions:
REMARK  status: ('A' for Active; 'I' for Inactive)
REMARK    1  A    between atoms: C1_1  and  C5_15 
REMARK    2  A    between atoms: N1_2  and  N2_4 
REMARK    3  A    between atoms: N2_4  and  C2_6 
ROOT
HETATM    1  N2  UNL     1      -0.914  -0.531   1.405  1.00  0.00    -0.131 N 
ATOM      2  H2  UNL     1      -0.418  -1.380   1.678  1.00  0.00     0.205 HD
ENDROOT
BRANCH   1   3
HETATM    3  N1  UNL     1      -0.337   0.674   1.573  1.00  0.00    -0.297 N 
HETATM    4  C1  UNL     1       0.733   1.136   1.136  1.00  0.00     0.119 C 
ATOM      5  H1  UNL     1      -0.868   1.319   2.159  1.00  0.00     0.186 HD
BRANCH   4   6
HETATM    6  C5  UNL     1       1.722   0.534   0.296  1.00  0.00    -0.019 A 
HETATM    7  C6  UNL     1       2.859   1.285  -0.059  1.00  0.00     0.013 A 
HETATM    8  C7  UNL     1       3.844   0.760  -0.864  1.00  0.00     0.001 A 
HETATM    9  C8  UNL     1       3.750  -0.516  -1.349  1.00  0.00     0.000 A 
HETATM   10  C9  UNL     1       2.662  -1.264  -1.022  1.00  0.00     0.001 A 
HETATM   11  C10 UNL     1       1.648  -0.725  -0.194  1.00  0.00     0.013 A 
ENDBRANCH   4   6
ENDBRANCH   1   3
BRANCH   1  12
HETATM   12  C2  UNL     1      -2.110  -0.607   0.891  1.00  0.00     0.711 A 
HETATM   13  N3  UNL     1      -2.652  -1.825   0.739  1.00  0.00    -0.131 N 
HETATM   14  N4  UNL     1      -3.855  -1.912   0.222  1.00  0.00    -0.296 N 
ATOM     15  H3  UNL     1      -2.142  -2.663   1.018  1.00  0.00     0.205 HD
HETATM   16  C3  UNL     1      -4.568  -0.848  -0.160  1.00  0.00     0.125 A 
ATOM     17  H4  UNL     1      -4.267  -2.838   0.106  1.00  0.00     0.186 HD
HETATM   18  C4  UNL     1      -4.010   0.398  -0.002  1.00  0.00     0.124 A 
HETATM   19  N5  UNL     1      -2.781   0.503   0.524  1.00  0.00    -0.198 N 
ATOM     20  H5  UNL     1      -2.355   1.421   0.646  1.00  0.00     0.183 HD
ENDBRANCH   1  12
TORSDOF 3
