REMARK  4 active torsions:
REMARK  status: ('A' for Active; 'I' for Inactive)
REMARK    1  A    between atoms: N1_5  and  C5_6 
REMARK    2  A    between atoms: C5_6  and  N2_8 
REMARK    3  A    between atoms: N2_8  and  C6_10 
REMARK    4  A    between atoms: C6_10  and  C7_11 
ROOT
HETATM    1  C5  UNL     1      -0.238   1.706   0.339  1.00  0.00     0.169 C 
HETATM    2  S1  UNL     1      -0.519   3.374   0.169  1.00  0.00    -0.041 SA
ENDROOT
BRANCH   1   3
HETATM    3  N1  UNL     1      -1.330   0.898  -0.072  1.00  0.00    -0.358 N 
HETATM    4  C4  UNL     1      -2.488   1.604  -0.602  1.00  0.00     0.125 C 
HETATM    5  C3  UNL     1      -3.810   0.973  -0.403  1.00  0.00     0.024 C 
HETATM    6  C2  UNL     1      -3.753  -0.385   0.251  1.00  0.00    -0.015 C 
HETATM    7  C1  UNL     1      -5.067  -1.072  -0.051  1.00  0.00     0.010 C 
HETATM    8  C12 UNL     1      -2.621  -1.116  -0.433  1.00  0.00     0.024 C 
HETATM    9  C11 UNL     1      -1.320  -0.538   0.093  1.00  0.00     0.125 C 
ENDBRANCH   1   3
BRANCH   1  10
HETATM   10  N2  UNL     1       1.018   1.392   0.848  1.00  0.00    -0.362 N 
ATOM     11  H2  UNL     1       1.555   2.218   1.111  1.00  0.00     0.162 HD
BRANCH  10  12
HETATM   12  C6  UNL     1       1.723   0.179   1.085  1.00  0.00     0.182 C 
BRANCH  12  13
HETATM   13  C7  UNL     1       2.393  -0.387  -0.153  1.00  0.00     0.277 C 
HETATM   14  O1  UNL     1       3.037  -1.579   0.155  1.00  0.00    -0.360 OA
HETATM   15  C8  UNL     1       4.230  -1.684  -0.580  1.00  0.00     0.173 C 
HETATM   16  C9  UNL     1       5.174  -0.686   0.108  1.00  0.00     0.053 C 
HETATM   17  C10 UNL     1       4.453   0.644   0.021  1.00  0.00     0.173 C 
HETATM   18  O2  UNL     1       3.275   0.543  -0.711  1.00  0.00    -0.360 OA
ENDBRANCH  12  13
ENDBRANCH  10  12
ENDBRANCH   1  10
TORSDOF 4
