REMARK  3 active torsions:
REMARK  status: ('A' for Active; 'I' for Inactive)
REMARK    1  A    between atoms: C1_2  and  C2_3 
REMARK       I    between atoms: C1_2  and  N1_9 
REMARK    2  A    between atoms: C4_5  and  C5_6 
REMARK    3  A    between atoms: C5_6  and  O2_7 
ROOT
HETATM    1  O1  UNL     1       2.431  -0.497   1.528  1.00  0.00    -0.273 OA
HETATM    2  C1  UNL     1       2.172  -0.321   0.310  1.00  0.00     0.224 C 
HETATM    3  N1  UNL     1       0.822  -0.067  -0.050  1.00  0.00    -0.351 N 
HETATM    4  C6  UNL     1       0.366   0.153  -1.398  1.00  0.00     0.127 C 
HETATM    5  C7  UNL     1      -0.970  -0.601  -1.385  1.00  0.00     0.033 C 
HETATM    6  C8  UNL     1      -1.546  -0.148  -0.057  1.00  0.00     0.004 C 
HETATM    7  C9  UNL     1      -2.457  -1.229   0.429  1.00  0.00     0.014 C 
HETATM    8  C10 UNL     1      -3.611  -0.765   1.238  1.00  0.00     0.007 C 
HETATM    9  C11 UNL     1      -4.210   0.521   0.728  1.00  0.00     0.012 C 
HETATM   10  C12 UNL     1      -4.355   0.526  -0.775  1.00  0.00     0.172 C 
HETATM   11  O3  UNL     1      -3.178   0.968  -1.318  1.00  0.00    -0.385 OA
HETATM   12  C13 UNL     1      -2.255   1.161  -0.322  1.00  0.00     0.132 C 
HETATM   13  C14 UNL     1      -3.103   1.574   0.888  1.00  0.00     0.039 C 
HETATM   14  C15 UNL     1      -0.339   0.023   0.809  1.00  0.00     0.137 C 
ENDROOT
BRANCH   2  15
HETATM   15  C2  UNL     1       3.284  -0.388  -0.666  1.00  0.00     0.084 A 
HETATM   16  C3  UNL     1       4.383  -1.373  -0.482  1.00  0.00     0.022 A 
HETATM   17  C4  UNL     1       4.633   0.114  -0.310  1.00  0.00     0.023 A 
BRANCH  17  18
HETATM   18  C5  UNL     1       4.991   0.537   1.077  1.00  0.00     0.169 C 
BRANCH  18  19
HETATM   19  O2  UNL     1       6.321   0.959   1.104  1.00  0.00    -0.400 OA
ATOM     20  H2  UNL     1       6.549   1.228   1.986  1.00  0.00     0.209 HD
ENDBRANCH  18  19
ENDBRANCH  17  18
ENDBRANCH   2  15
TORSDOF 3
