REMARK  3 active torsions:
REMARK  status: ('A' for Active; 'I' for Inactive)
REMARK    1  A    between atoms: C1_2  and  C2_3 
REMARK       I    between atoms: C1_2  and  N2_9 
REMARK    2  A    between atoms: C2_3  and  N1_4 
REMARK    3  A    between atoms: C9_12  and  O2_13 
ROOT
HETATM    1  O1  UNL     1       2.149   1.214   0.765  1.00  0.00    -0.271 OA
HETATM    2  C1  UNL     1       1.315   0.372   0.354  1.00  0.00     0.248 C 
HETATM    3  N2  UNL     1      -0.081   0.758   0.398  1.00  0.00    -0.350 N 
HETATM    4  C7  UNL     1      -0.339   2.062   0.922  1.00  0.00     0.128 C 
HETATM    5  C8  UNL     1      -1.691   2.094   1.581  1.00  0.00     0.052 C 
HETATM    6  C9  UNL     1      -2.678   1.657   0.505  1.00  0.00     0.130 C 
HETATM    7  C10 UNL     1      -2.504   0.194   0.197  1.00  0.00     0.002 C 
HETATM    8  C11 UNL     1      -3.129  -0.686   1.256  1.00  0.00     0.014 C 
HETATM    9  C12 UNL     1      -3.538  -1.937   0.537  1.00  0.00     0.001 C 
HETATM   10  C13 UNL     1      -3.691  -1.578  -0.915  1.00  0.00     0.001 C 
HETATM   11  C14 UNL     1      -3.397  -0.117  -1.000  1.00  0.00     0.014 C 
HETATM   12  C15 UNL     1      -1.093  -0.127  -0.070  1.00  0.00     0.137 C 
ENDROOT
BRANCH   2  13
HETATM   13  C2  UNL     1       1.782  -0.919  -0.136  1.00  0.00     0.374 C 
BRANCH  13  14
HETATM   14  N1  UNL     1       3.187  -1.109  -0.106  1.00  0.00     0.097 N 
HETATM   15  C3  UNL     1       3.927  -0.305  -1.031  1.00  0.00     0.273 C 
HETATM   16  C4  UNL     1       5.132   0.251  -0.287  1.00  0.00     0.032 C 
HETATM   17  C5  UNL     1       5.240  -0.651   0.929  1.00  0.00     0.032 C 
HETATM   18  C6  UNL     1       3.819  -1.123   1.158  1.00  0.00     0.273 C 
ENDBRANCH  13  14
ENDBRANCH   2  13
BRANCH   6  19
HETATM   19  O2  UNL     1      -3.958   2.026   0.812  1.00  0.00    -0.395 OA
ATOM     20  H2  UNL     1      -4.573   1.754   0.141  1.00  0.00     0.210 HD
ENDBRANCH   6  19
TORSDOF 3
