REMARK  3 active torsions:
REMARK  status: ('A' for Active; 'I' for Inactive)
REMARK    1  A    between atoms: N1_1  and  C1_5 
REMARK       I    between atoms: N2_8  and  C4_9 
REMARK    2  A    between atoms: C4_9  and  C5_11 
REMARK    3  A    between atoms: N3_15  and  C9_16 
ROOT
HETATM    1  C5  UNL     1       0.027  -0.759  -0.019  1.00  0.00     0.314 C 
HETATM    2  C6  UNL     1       0.671  -1.661  -1.018  1.00  0.00     0.047 C 
HETATM    3  C7  UNL     1      -0.236  -2.831  -1.212  1.00  0.00     0.033 C 
HETATM    4  C8  UNL     1      -1.152  -2.777  -0.012  1.00  0.00     0.274 C 
HETATM    5  N3  UNL     1      -1.074  -1.463   0.525  1.00  0.00     0.106 N 
ENDROOT
BRANCH   1   6
HETATM    6  C4  UNL     1       1.051  -0.443   1.032  1.00  0.00     0.253 C 
HETATM    7  N2  UNL     1       2.237   0.266   0.728  1.00  0.00    -0.348 N 
HETATM    8  C3  UNL     1       3.262   0.604   1.687  1.00  0.00     0.128 C 
HETATM    9  C15 UNL     1       2.576   0.747  -0.593  1.00  0.00     0.158 C 
HETATM   10  C2  UNL     1       4.012   1.767   1.074  1.00  0.00     0.054 C 
HETATM   11  C1  UNL     1       3.726   1.712  -0.410  1.00  0.00     0.203 C 
HETATM   12  O1  UNL     1       0.807  -0.841   2.216  1.00  0.00    -0.271 OA
BRANCH  11  13
HETATM   13  N1  UNL     1       4.928   1.269  -1.081  1.00  0.00    -0.073 N 
ATOM     14  H13 UNL     1       5.740   1.844  -0.857  1.00  0.00     0.274 HD
ATOM     15  H12 UNL     1       5.282   0.385  -0.714  1.00  0.00     0.274 HD
ATOM     16  H11 UNL     1       4.735   1.232  -2.082  1.00  0.00     0.274 HD
ENDBRANCH  11  13
ENDBRANCH   1   6
BRANCH   5  17
HETATM   17  C9  UNL     1      -2.323  -0.741   0.504  1.00  0.00     0.224 C 
HETATM   18  C10 UNL     1      -2.783  -0.419  -0.893  1.00  0.00     0.036 C 
HETATM   19  C11 UNL     1      -4.032   0.415  -0.820  1.00  0.00     0.002 C 
HETATM   20  C12 UNL     1      -3.645   1.743  -0.183  1.00  0.00     0.000 C 
HETATM   21  C13 UNL     1      -3.316   1.434   1.267  1.00  0.00     0.002 C 
HETATM   22  C14 UNL     1      -2.177   0.456   1.376  1.00  0.00     0.036 C 
ENDBRANCH   5  17
TORSDOF 3
