REMARK  2 active torsions:
REMARK  status: ('A' for Active; 'I' for Inactive)
REMARK       I    between atoms: N2_3  and  C2_4 
REMARK       I    between atoms: C2_4  and  N3_6 
REMARK    1  A    between atoms: N4_12  and  C8_13 
REMARK    2  A    between atoms: C8_13  and  C9_14 
ROOT
HETATM    1  N1  UNL     1      -7.070   2.126  -0.541  1.00  0.00    -0.156 NA
HETATM    2  C1  UNL     1      -6.361   1.255  -0.304  1.00  0.00     0.273 C 
HETATM    3  N2  UNL     1      -5.523   0.291   0.025  1.00  0.00    -0.272 NA
HETATM    4  C2  UNL     1      -4.644  -0.729   0.374  1.00  0.00     0.406 C 
HETATM    5  O1  UNL     1      -4.955  -1.848   0.834  1.00  0.00    -0.229 OA
HETATM    6  N3  UNL     1      -3.249  -0.434   0.142  1.00  0.00    -0.321 N 
HETATM    7  C3  UNL     1      -2.959   0.497  -0.962  1.00  0.00     0.129 C 
HETATM    8  C4  UNL     1      -1.665   1.095  -0.590  1.00  0.00     0.031 C 
HETATM    9  C5  UNL     1      -0.931  -0.090   0.100  1.00  0.00    -0.019 C 
HETATM   10  C6  UNL     1       0.167   0.513   0.954  1.00  0.00     0.041 C 
HETATM   11  C7  UNL     1       1.379   0.737   0.048  1.00  0.00     0.273 C 
HETATM   12  N4  UNL     1       1.905  -0.475  -0.482  1.00  0.00     0.088 N 
HETATM   13  C12 UNL     1       0.961  -1.551  -0.284  1.00  0.00     0.273 C 
HETATM   14  C13 UNL     1      -0.331  -1.050  -0.882  1.00  0.00     0.041 C 
HETATM   15  C14 UNL     1      -2.054  -0.776   0.840  1.00  0.00     0.138 C 
ENDROOT
BRANCH  12  16
HETATM   16  C8  UNL     1       3.247  -0.805   0.022  1.00  0.00     0.277 C 
BRANCH  16  17
HETATM   17  C9  UNL     1       4.185   0.212  -0.557  1.00  0.00     0.014 A 
HETATM   18  C10 UNL     1       5.622   0.216  -0.337  1.00  0.00     0.007 A 
HETATM   19  C11 UNL     1       4.765   1.170   0.431  1.00  0.00     0.007 A 
ENDBRANCH  16  17
ENDBRANCH  12  16
TORSDOF 2
