REMARK  6 active torsions:
REMARK  status: ('A' for Active; 'I' for Inactive)
REMARK    1  A    between atoms: C2_2  and  C5_5 
REMARK    2  A    between atoms: C5_5  and  N2_9 
REMARK    3  A    between atoms: N2_9  and  C6_11 
REMARK    4  A    between atoms: C6_11  and  C7_12 
REMARK    5  A    between atoms: C7_12  and  C8_13 
REMARK    6  A    between atoms: C8_13  and  N3_14 
ROOT
HETATM    1  C7  UNL     1       0.193  -0.691   0.607  1.00  0.00     0.039 C 
ENDROOT
BRANCH   1   2
HETATM    2  C6  UNL     1       1.597  -1.079   0.119  1.00  0.00     0.122 C 
BRANCH   2   3
HETATM    3  N2  UNL     1       2.136   0.040  -0.612  1.00  0.00    -0.378 N 
ATOM      4  H2  UNL     1       1.601   0.906  -0.677  1.00  0.00     0.160 HD
BRANCH   3   5
HETATM    5  C5  UNL     1       3.395  -0.051  -1.238  1.00  0.00     0.110 C 
HETATM    6  N1  UNL     1       3.467  -0.395  -2.464  1.00  0.00    -0.212 N 
HETATM    7  F1  UNL     1       2.337  -0.667  -3.141  1.00  0.00    -0.100 F 
ATOM      8  H1  UNL     1       4.373  -0.463  -2.927  1.00  0.00     0.201 HD
BRANCH   5   9
HETATM    9  C2  UNL     1       4.611   0.259  -0.448  1.00  0.00     0.009 C 
HETATM   10  C1  UNL     1       4.804  -0.827   0.584  1.00  0.00     0.023 C 
HETATM   11  C3  UNL     1       4.469   1.591   0.266  1.00  0.00     0.023 C 
HETATM   12  C4  UNL     1       5.784   0.319  -1.386  1.00  0.00     0.023 C 
ENDBRANCH   5   9
ENDBRANCH   3   5
ENDBRANCH   2   3
ENDBRANCH   1   2
BRANCH   1  13
HETATM   13  C8  UNL     1      -0.646  -0.427  -0.585  1.00  0.00     0.120 C 
BRANCH  13  14
HETATM   14  N3  UNL     1      -2.000  -0.053  -0.372  1.00  0.00    -0.396 N 
HETATM   15  C9  UNL     1      -2.279   1.195   0.204  1.00  0.00     0.021 C 
HETATM   16  C10 UNL     1      -1.170   2.214   0.147  1.00  0.00     0.038 C 
HETATM   17  C11 UNL     1      -3.488   1.907  -0.435  1.00  0.00     0.038 C 
HETATM   18  C12 UNL     1      -2.648   1.122   1.693  1.00  0.00     0.030 C 
HETATM   19  C13 UNL     1      -3.696   0.107   1.963  1.00  0.00     0.005 C 
HETATM   20  C14 UNL     1      -3.257  -1.211   1.394  1.00  0.00     0.030 C 
HETATM   21  C15 UNL     1      -2.926  -1.091  -0.102  1.00  0.00     0.021 C 
HETATM   22  C16 UNL     1      -2.457  -2.486  -0.471  1.00  0.00     0.038 C 
HETATM   23  C17 UNL     1      -4.272  -0.950  -0.804  1.00  0.00     0.038 C 
ENDBRANCH  13  14
ENDBRANCH   1  13
TORSDOF 6
