REMARK  4 active torsions:
REMARK  status: ('A' for Active; 'I' for Inactive)
REMARK    1  A    between atoms: C2_2  and  C3_3 
REMARK    2  A    between atoms: C6_7  and  C7_8 
REMARK    3  A    between atoms: C7_8  and  N2_9 
REMARK    4  A    between atoms: N2_9  and  C8_12 
ROOT
HETATM    1  C7  UNL     1       0.292   0.699   0.169  1.00  0.00     0.291 C 
ENDROOT
BRANCH   1   2
HETATM    2  C6  UNL     1       1.729   0.492   0.016  1.00  0.00     0.055 A 
HETATM    3  N1  UNL     1       2.452  -0.609  -0.102  1.00  0.00    -0.361 N 
HETATM    4  C4  UNL     1       3.775  -0.316  -0.220  1.00  0.00     0.103 A 
HETATM    5  C5  UNL     1       1.972  -1.989  -0.111  1.00  0.00     0.155 C 
HETATM    6  C3  UNL     1       3.905   1.055  -0.175  1.00  0.00    -0.002 A 
HETATM    7  C14 UNL     1       2.642   1.555  -0.029  1.00  0.00     0.046 A 
HETATM    8 BR1  UNL     1       2.234   3.413   0.088  1.00  0.00    -0.048 Br
BRANCH   6   9
HETATM    9  C2  UNL     1       5.164   1.797  -0.269  1.00  0.00     0.004 C 
HETATM   10  C1  UNL     1       6.285   1.150  -0.421  1.00  0.00     0.012 C 
ENDBRANCH   6   9
ENDBRANCH   1   2
BRANCH   1  11
HETATM   11  N2  UNL     1      -0.507  -0.497   0.191  1.00  0.00    -0.066 N 
ATOM     12  H22 UNL     1      -0.352  -1.078  -0.633  1.00  0.00     0.278 HD
ATOM     13  H21 UNL     1      -0.189  -1.159   0.899  1.00  0.00     0.278 HD
BRANCH  11  14
HETATM   14  C8  UNL     1      -1.929  -0.141   0.361  1.00  0.00     0.186 C 
HETATM   15  C9  UNL     1      -2.415   0.682  -0.800  1.00  0.00     0.033 C 
HETATM   16  C10 UNL     1      -3.755   0.272  -1.315  1.00  0.00     0.002 C 
HETATM   17  C11 UNL     1      -4.710  -0.247  -0.312  1.00  0.00     0.000 C 
HETATM   18  C12 UNL     1      -4.156  -0.964   0.857  1.00  0.00     0.002 C 
HETATM   19  C13 UNL     1      -2.742  -1.380   0.578  1.00  0.00     0.033 C 
ENDBRANCH  11  14
ENDBRANCH   1  11
TORSDOF 4
