REMARK  4 active torsions:
REMARK  status: ('A' for Active; 'I' for Inactive)
REMARK    1  A    between atoms: C10_10  and  C11_11 
REMARK    2  A    between atoms: C11_11  and  C12_12 
REMARK    3  A    between atoms: C12_12  and  C13_13 
REMARK    4  A    between atoms: C13_13  and  C14_14 
ROOT
HETATM    1  C12 UNL     1       0.852  -0.779   1.515  1.00  0.00    -0.030 C 
ENDROOT
BRANCH   1   2
HETATM    2  C11 UNL     1      -0.562  -1.133   1.582  1.00  0.00    -0.026 C 
BRANCH   2   3
HETATM    3  C10 UNL     1      -1.622  -0.334   0.881  1.00  0.00     0.011 C 
HETATM    4  C2  UNL     1      -2.907  -1.033   1.262  1.00  0.00    -0.011 C 
HETATM    5  C1  UNL     1      -2.925  -2.392   0.619  1.00  0.00     0.010 C 
HETATM    6  C3  UNL     1      -4.177  -0.356   1.101  1.00  0.00     0.005 C 
HETATM    7  C4  UNL     1      -4.239   1.125   1.074  1.00  0.00     0.000 C 
HETATM    8  C5  UNL     1      -5.075   1.656  -0.074  1.00  0.00     0.000 C 
HETATM    9  C6  UNL     1      -4.607   1.143  -1.413  1.00  0.00     0.000 C 
HETATM   10  C7  UNL     1      -3.111   1.238  -1.574  1.00  0.00     0.000 C 
HETATM   11  C8  UNL     1      -2.475  -0.098  -1.526  1.00  0.00     0.001 C 
HETATM   12  C9  UNL     1      -1.349  -0.246  -0.550  1.00  0.00     0.009 C 
ENDBRANCH   2   3
ENDBRANCH   1   2
BRANCH   1  13
HETATM   13  C13 UNL     1       1.617  -0.783   0.257  1.00  0.00     0.035 C 
BRANCH  13  14
HETATM   14  C14 UNL     1       3.085  -0.428   0.571  1.00  0.00     0.052 C 
HETATM   15  C15 UNL     1       3.289   0.908   1.203  1.00  0.00     0.280 C 
HETATM   16  N1  UNL     1       4.128   1.278   0.109  1.00  0.00     0.097 N 
HETATM   17  C16 UNL     1       5.486   1.557   0.337  1.00  0.00     0.300 C 
HETATM   18  C19 UNL     1       3.766   0.160  -0.666  1.00  0.00     0.254 C 
HETATM   19  C17 UNL     1       6.481   0.523  -0.045  1.00  0.00     0.262 C 
HETATM   20  N2  UNL     1       6.135  -0.178  -1.265  1.00  0.00    -0.071 N 
HETATM   21  C18 UNL     1       4.839  -0.750  -1.129  1.00  0.00     0.268 C 
ATOM     22  H22 UNL     1       6.209   0.420  -2.088  1.00  0.00     0.277 HD
ATOM     23  H21 UNL     1       6.837  -0.870  -1.525  1.00  0.00     0.277 HD
ENDBRANCH  13  14
ENDBRANCH   1  13
TORSDOF 4
