REMARK  4 active torsions:
REMARK  status: ('A' for Active; 'I' for Inactive)
REMARK    1  A    between atoms: C1_4  and  C2_5 
REMARK    2  A    between atoms: C1_4  and  C15_19 
REMARK    3  A    between atoms: C3_6  and  C4_7 
REMARK    4  A    between atoms: C7_10  and  C8_11 
ROOT
HETATM    1  C2  UNL     1       2.067   0.897  -0.176  1.00  0.00     0.026 C 
HETATM    2  C3  UNL     1       1.371  -0.139  -0.356  1.00  0.00    -0.018 C 
ENDROOT
BRANCH   2   3
HETATM    3  C4  UNL     1      -0.139  -0.108  -0.539  1.00  0.00     0.032 C 
HETATM    4  C5  UNL     1      -0.676   1.273  -0.499  1.00  0.00     0.013 C 
HETATM    5  C6  UNL     1      -2.178   1.191  -0.660  1.00  0.00     0.037 C 
HETATM    6  C7  UNL     1      -2.680  -0.221  -0.453  1.00  0.00     0.154 C 
HETATM    7  O1  UNL     1      -2.099  -0.706   0.718  1.00  0.00    -0.381 OA
HETATM    8  C14 UNL     1      -0.749  -0.922   0.564  1.00  0.00     0.177 C 
BRANCH   6   9
HETATM    9  C8  UNL     1      -4.142  -0.220  -0.265  1.00  0.00    -0.029 A 
HETATM   10  C9  UNL     1      -4.803  -1.288   0.290  1.00  0.00     0.010 A 
HETATM   11  C10 UNL     1      -6.191  -1.273   0.462  1.00  0.00     0.001 A 
HETATM   12  C11 UNL     1      -6.898  -0.160   0.063  1.00  0.00     0.000 A 
HETATM   13  C12 UNL     1      -6.240   0.919  -0.496  1.00  0.00     0.001 A 
HETATM   14  C13 UNL     1      -4.853   0.886  -0.660  1.00  0.00     0.010 A 
ENDBRANCH   6   9
ENDBRANCH   2   3
BRANCH   1  15
HETATM   15  C1  UNL     1       3.438   1.138   0.011  1.00  0.00     0.035 C 
HETATM   16  N1  UNL     1       3.860   2.402   0.238  1.00  0.00    -0.398 N 
ATOM     17  H12 UNL     1       3.093   3.074   0.233  1.00  0.00     0.156 HD
ATOM     18  H11 UNL     1       4.856   2.577   0.374  1.00  0.00     0.156 HD
BRANCH  15  19
HETATM   19  C15 UNL     1       4.525   0.186   0.018  1.00  0.00    -0.010 A 
HETATM   20  C16 UNL     1       4.482  -1.109  -0.439  1.00  0.00     0.017 A 
HETATM   21  C17 UNL     1       5.553  -2.004  -0.342  1.00  0.00     0.043 A 
HETATM   22  C18 UNL     1       6.731  -1.600   0.235  1.00  0.00     0.116 A 
HETATM   23  F1  UNL     1       7.777  -2.446   0.339  1.00  0.00    -0.206 F 
HETATM   24  C19 UNL     1       6.788  -0.305   0.695  1.00  0.00     0.043 A 
HETATM   25  C20 UNL     1       5.742   0.558   0.598  1.00  0.00     0.017 A 
ENDBRANCH  15  19
ENDBRANCH   1  15
TORSDOF 4
