REMARK  5 active torsions:
REMARK  status: ('A' for Active; 'I' for Inactive)
REMARK    1  A    between atoms: C2_2  and  C3_3 
REMARK    2  A    between atoms: C2_2  and  C4_5 
REMARK    3  A    between atoms: C4_5  and  C5_6 
REMARK    4  A    between atoms: C12_13  and  O1_14 
REMARK    5  A    between atoms: O1_14  and  O2_15 
ROOT
HETATM    1  C5  UNL     1       0.235   0.095   0.009  1.00  0.00    -0.036 C 
HETATM    2  C6  UNL     1      -0.011  -1.075   0.912  1.00  0.00     0.014 C 
HETATM    3  C7  UNL     1      -1.495  -1.446   0.994  1.00  0.00    -0.010 C 
HETATM    4  C8  UNL     1      -1.840  -1.960  -0.409  1.00  0.00     0.009 C 
HETATM    5  C9  UNL     1      -1.584  -0.831  -1.358  1.00  0.00    -0.010 C 
HETATM    6  C10 UNL     1      -0.158  -0.347  -1.383  1.00  0.00     0.014 C 
HETATM    7  C11 UNL     1      -2.555   0.277  -1.020  1.00  0.00     0.046 C 
HETATM    8  C12 UNL     1      -2.180   0.788   0.330  1.00  0.00     0.097 C 
HETATM    9  C13 UNL     1      -2.379  -0.306   1.358  1.00  0.00     0.046 C 
HETATM   10  C14 UNL     1      -0.768   1.209   0.382  1.00  0.00     0.050 C 
ENDROOT
BRANCH   1  11
HETATM   11  C4  UNL     1       1.548   0.726   0.112  1.00  0.00     0.014 C 
BRANCH  11  12
HETATM   12  C2  UNL     1       2.812   0.046  -0.137  1.00  0.00    -0.008 C 
HETATM   13  C1  UNL     1       3.970   1.107   0.026  1.00  0.00     0.011 C 
BRANCH  12  14
HETATM   14  C3  UNL     1       3.219  -0.951   0.950  1.00  0.00     0.089 C 
HETATM   15 BR1  UNL     1       5.003  -1.625   0.552  1.00  0.00    -0.096 Br
ENDBRANCH  12  14
ENDBRANCH  11  12
ENDBRANCH   1  11
BRANCH   8  16
HETATM   16  O1  UNL     1      -2.968   1.867   0.693  1.00  0.00    -0.232 OA
BRANCH  16  17
HETATM   17  O2  UNL     1      -2.870   2.878  -0.127  1.00  0.00    -0.250 OA
ATOM     18  H2  UNL     1      -3.411   3.618   0.122  1.00  0.00     0.253 HD
ENDBRANCH  16  17
ENDBRANCH   8  16
TORSDOF 5
