REMARK  9 active torsions:
REMARK  status: ('A' for Active; 'I' for Inactive)
REMARK    1  A    between atoms: C2_2  and  C3_3 
REMARK    2  A    between atoms: C2_2  and  N1_25 
REMARK    3  A    between atoms: C3_3  and  O1_4 
REMARK    4  A    between atoms: O1_4  and  C4_5 
REMARK    5  A    between atoms: C10_12  and  O3_13 
REMARK    6  A    between atoms: C10_12  and  C11_15 
REMARK    7  A    between atoms: C11_15  and  O4_16 
REMARK    8  A    between atoms: C12_19  and  C13_20 
REMARK    9  A    between atoms: C13_20  and  O6_21 
ROOT
HETATM    1  C4  UNL     1       0.836   0.742  -0.615  1.00  0.00     0.150 C 
HETATM    2  C5  UNL     1       0.495   1.914  -1.511  1.00  0.00     0.035 C 
HETATM    3  C6  UNL     1      -0.853   1.426  -2.054  1.00  0.00     0.011 C 
HETATM    4  C7  UNL     1      -1.532   1.040  -0.774  1.00  0.00     0.030 C 
HETATM    5  C8  UNL     1      -0.432   0.501   0.124  1.00  0.00     0.156 C 
HETATM    6  O2  UNL     1      -0.718  -0.835   0.340  1.00  0.00    -0.371 OA
HETATM    7  C9  UNL     1      -2.046  -1.046   0.133  1.00  0.00     0.197 C 
HETATM    8  C10 UNL     1      -2.928  -0.929   1.324  1.00  0.00     0.211 C 
HETATM    9  O5  UNL     1      -3.613   0.275   1.220  1.00  0.00    -0.343 OA
HETATM   10  C12 UNL     1      -3.830   0.402  -0.135  1.00  0.00     0.160 C 
HETATM   11  C14 UNL     1      -2.547   0.015  -0.827  1.00  0.00     0.022 C 
HETATM   12  C15 UNL     1      -2.915  -0.553  -2.158  1.00  0.00     0.021 C 
ENDROOT
BRANCH   1  13
HETATM   13  O1  UNL     1       1.923   1.019   0.204  1.00  0.00    -0.381 OA
BRANCH  13  14
HETATM   14  C3  UNL     1       2.912   0.086  -0.102  1.00  0.00     0.203 C 
BRANCH  14  15
HETATM   15  C2  UNL     1       4.156   0.284   0.726  1.00  0.00     0.241 C 
HETATM   16  C1  UNL     1       4.804   1.631   0.507  1.00  0.00     0.045 C 
BRANCH  15  17
HETATM   17  N1  UNL     1       5.105  -0.737   0.325  1.00  0.00     0.086 N 
HETATM   18  C16 UNL     1       6.282  -0.695   1.135  1.00  0.00     0.310 C 
HETATM   19  C17 UNL     1       4.507  -2.037   0.231  1.00  0.00     0.310 C 
ENDBRANCH  15  17
ENDBRANCH  14  15
ENDBRANCH  13  14
ENDBRANCH   1  13
BRANCH  10  20
HETATM   20  C13 UNL     1      -4.392   1.725  -0.540  1.00  0.00     0.197 C 
BRANCH  20  21
HETATM   21  O6  UNL     1      -5.650   1.926   0.076  1.00  0.00    -0.398 OA
ATOM     22  H6  UNL     1      -6.008   2.768  -0.182  1.00  0.00     0.209 HD
ENDBRANCH  20  21
ENDBRANCH  10  20
BRANCH   8  23
HETATM   23  O3  UNL     1      -2.219  -0.870   2.526  1.00  0.00    -0.362 OA
ATOM     24  H3  UNL     1      -2.783  -0.795   3.287  1.00  0.00     0.213 HD
ENDBRANCH   8  23
BRANCH   8  25
HETATM   25  C11 UNL     1      -3.934  -2.053   1.451  1.00  0.00     0.235 C 
BRANCH  25  26
HETATM   26  O4  UNL     1      -3.281  -3.280   1.688  1.00  0.00    -0.395 OA
ATOM     27  H4  UNL     1      -3.912  -3.985   1.768  1.00  0.00     0.209 HD
ENDBRANCH  25  26
ENDBRANCH   8  25
TORSDOF 9
