REMARK  9 active torsions:
REMARK  status: ('A' for Active; 'I' for Inactive)
REMARK    1  A    between atoms: O1_1  and  C1_3 
REMARK    2  A    between atoms: C1_3  and  C2_4 
REMARK    3  A    between atoms: C3_6  and  O3_7 
REMARK    4  A    between atoms: O3_7  and  C4_8 
REMARK    5  A    between atoms: N1_12  and  C8_13 
REMARK    6  A    between atoms: C8_13  and  C9_14 
REMARK    7  A    between atoms: C9_14  and  N2_15 
REMARK    8  A    between atoms: C16_22  and  O4_23 
REMARK    9  A    between atoms: C17_25  and  O5_26 
ROOT
HETATM    1  C4  UNL     1      -1.418   0.059   0.734  1.00  0.00     0.146 C 
HETATM    2  C5  UNL     1      -0.995   0.368   2.148  1.00  0.00     0.062 C 
HETATM    3  C6  UNL     1       0.187   1.268   2.130  1.00  0.00    -0.007 C 
HETATM    4  C7  UNL     1       1.064   1.220   1.173  1.00  0.00     0.081 C 
HETATM    5  N1  UNL     1       0.963   0.320   0.093  1.00  0.00    -0.386 N 
HETATM    6  C15 UNL     1      -0.261  -0.417  -0.105  1.00  0.00     0.154 C 
ENDROOT
BRANCH   1   7
HETATM    7  O3  UNL     1      -2.452  -0.819   0.632  1.00  0.00    -0.351 OA
BRANCH   7   8
HETATM    8  C3  UNL     1      -3.587  -0.348   0.027  1.00  0.00     0.292 C 
HETATM    9  O2  UNL     1      -4.113  -1.176  -0.931  1.00  0.00    -0.348 OA
HETATM   10  C2  UNL     1      -5.439  -0.791  -1.104  1.00  0.00     0.179 C 
HETATM   11  C17 UNL     1      -5.919  -0.246   0.201  1.00  0.00     0.182 C 
HETATM   12  C16 UNL     1      -4.686  -0.324   1.075  1.00  0.00     0.204 C 
BRANCH  10  13
HETATM   13  C1  UNL     1      -5.434   0.294  -2.186  1.00  0.00     0.198 C 
BRANCH  13  14
HETATM   14  O1  UNL     1      -6.721   0.734  -2.421  1.00  0.00    -0.398 OA
ATOM     15  H1  UNL     1      -6.718   1.407  -3.092  1.00  0.00     0.209 HD
ENDBRANCH  13  14
ENDBRANCH  10  13
BRANCH  11  16
HETATM   16  O5  UNL     1      -6.996  -0.947   0.739  1.00  0.00    -0.390 OA
ATOM     17  H5  UNL     1      -7.301  -0.600   1.569  1.00  0.00     0.210 HD
ENDBRANCH  11  16
BRANCH  12  18
HETATM   18  O4  UNL     1      -4.752  -1.495   1.808  1.00  0.00    -0.388 OA
ATOM     19  H4  UNL     1      -5.439  -1.480   2.464  1.00  0.00     0.210 HD
ENDBRANCH  12  18
ENDBRANCH   7   8
ENDBRANCH   1   7
BRANCH   5  20
HETATM   20  C8  UNL     1       2.009   0.067  -0.875  1.00  0.00     0.152 C 
BRANCH  20  21
HETATM   21  C9  UNL     1       3.288   0.774  -0.642  1.00  0.00     0.292 C 
BRANCH  21  22
HETATM   22  N2  UNL     1       3.961   0.482   0.584  1.00  0.00     0.090 N 
HETATM   23  C10 UNL     1       5.182   1.197   0.768  1.00  0.00     0.272 C 
HETATM   24  C11 UNL     1       6.149   0.815  -0.309  1.00  0.00     0.030 C 
HETATM   25  C12 UNL     1       6.439  -0.642  -0.223  1.00  0.00     0.003 C 
HETATM   26  C13 UNL     1       5.221  -1.519  -0.075  1.00  0.00     0.030 C 
HETATM   27  C14 UNL     1       4.176  -0.905   0.825  1.00  0.00     0.272 C 
ENDBRANCH  21  22
ENDBRANCH  20  21
ENDBRANCH   5  20
TORSDOF 9
