REMARK  10 active torsions:
REMARK  status: ('A' for Active; 'I' for Inactive)
REMARK       I    between atoms: C2_2  and  N1_4 
REMARK    1  A    between atoms: N1_4  and  C3_6 
REMARK    2  A    between atoms: C3_6  and  C5_8 
REMARK    3  A    between atoms: C5_8  and  C6_10 
REMARK    4  A    between atoms: C6_10  and  O3_11 
REMARK    5  A    between atoms: C6_10  and  C7_13 
REMARK    6  A    between atoms: C8_15  and  O5_17 
REMARK    7  A    between atoms: C10_19  and  N2_20 
REMARK    8  A    between atoms: N2_20  and  N3_22 
REMARK    9  A    between atoms: N3_22  and  N4_23 
REMARK   10  A    between atoms: C11_26  and  N5_27 
REMARK       I    between atoms: N5_27  and  C12_28 
ROOT
HETATM    1  C7  UNL     1      -0.562   1.351   0.073  1.00  0.00     0.223 C 
HETATM    2  O4  UNL     1      -0.775   1.352   1.430  1.00  0.00    -0.338 OA
HETATM    3  C8  UNL     1      -2.073   1.880   1.546  1.00  0.00     0.185 C 
HETATM    4  C9  UNL     1      -2.036   3.301   1.052  1.00  0.00     0.081 C 
HETATM    5  C10 UNL     1      -2.869   1.088   0.549  1.00  0.00     0.214 C 
HETATM    6  C11 UNL     1      -1.853   0.805  -0.538  1.00  0.00     0.232 C 
ENDROOT
BRANCH   1   7
HETATM    7  C6  UNL     1       0.662   0.765  -0.404  1.00  0.00     0.123 C 
BRANCH   7   8
HETATM    8  C5  UNL     1       1.603  -0.110   0.212  1.00  0.00     0.203 C 
HETATM    9  O2  UNL     1       1.398  -0.594   1.336  1.00  0.00    -0.288 OA
BRANCH   8  10
HETATM   10  C3  UNL     1       2.900  -0.492  -0.468  1.00  0.00     0.157 C 
HETATM   11  C4  UNL     1       2.717  -0.972  -1.857  1.00  0.00     0.041 C 
BRANCH  10  12
HETATM   12  N1  UNL     1       3.676  -1.417   0.301  1.00  0.00    -0.350 N 
HETATM   13  C2  UNL     1       4.641  -0.981   1.258  1.00  0.00     0.214 C 
HETATM   14  C1  UNL     1       5.495  -1.826   2.093  1.00  0.00     0.117 C 
HETATM   15  O1  UNL     1       4.776   0.297   1.396  1.00  0.00    -0.274 OA
ATOM     16  H1  UNL     1       3.535  -2.417   0.161  1.00  0.00     0.163 HD
ENDBRANCH  10  12
ENDBRANCH   8  10
ENDBRANCH   7   8
BRANCH   7  17
HETATM   17  O3  UNL     1       0.983   1.093  -1.632  1.00  0.00    -0.359 OA
ATOM     18  H3  UNL     1       0.356   1.676  -2.043  1.00  0.00     0.217 HD
ENDBRANCH   7  17
ENDBRANCH   1   7
BRANCH   6  19
HETATM   19  N5  UNL     1      -1.853  -0.506  -0.972  1.00  0.00    -0.405 NA
HETATM   20  C12 UNL     1      -1.849  -1.761  -1.390  1.00  0.00     0.282 C 
HETATM   21  C13 UNL     1      -2.833  -2.791  -0.806  1.00  0.00     0.134 C 
HETATM   22  O6  UNL     1      -1.105  -2.304  -2.277  1.00  0.00    -0.258 OA
ENDBRANCH   6  19
BRANCH   3  23
HETATM   23  O5  UNL     1      -2.514   1.778   2.849  1.00  0.00    -0.364 OA
ATOM     24  H5  UNL     1      -3.391   2.135   2.927  1.00  0.00     0.213 HD
ENDBRANCH   3  23
BRANCH   5  25
HETATM   25  N2  UNL     1      -4.035   1.803   0.065  1.00  0.00    -0.239 N 
ATOM     26  H2  UNL     1      -3.904   2.644  -0.497  1.00  0.00     0.197 HD
BRANCH  25  27
HETATM   27  N3  UNL     1      -5.165   1.425   0.313  1.00  0.00    -0.248 NA
BRANCH  27  28
HETATM   28  N4  UNL     1      -6.215   0.977   0.835  1.00  0.00    -0.261 N 
ATOM     29  H42 UNL     1      -5.743   0.806   1.723  1.00  0.00     0.193 HD
ATOM     30  H41 UNL     1      -7.162   0.660   1.043  1.00  0.00     0.193 HD
ENDBRANCH  27  28
ENDBRANCH  25  27
ENDBRANCH   5  25
TORSDOF 10
