REMARK  9 active torsions:
REMARK  status: ('A' for Active; 'I' for Inactive)
REMARK    1  A    between atoms: S1_2  and  C2_3 
REMARK    2  A    between atoms: C4_5  and  N1_6 
REMARK    3  A    between atoms: N1_6  and  S2_8 
REMARK    4  A    between atoms: S2_8  and  C6_10 
REMARK    5  A    between atoms: C6_10  and  O2_11 
REMARK    6  A    between atoms: O2_11  and  C7_12 
REMARK    7  A    between atoms: C11_16  and  O3_17 
REMARK    8  A    between atoms: C12_19  and  O4_20 
REMARK    9  A    between atoms: C13_22  and  O5_23 
ROOT
HETATM    1  C2  UNL     1      -3.891   0.173   0.349  1.00  0.00     0.080 C 
HETATM    2  C3  UNL     1      -2.454   0.075   0.814  1.00  0.00     0.046 C 
HETATM    3  C4  UNL     1      -1.585   0.080  -0.448  1.00  0.00     0.125 C 
HETATM    4  C11 UNL     1      -2.202  -0.614  -1.596  1.00  0.00     0.172 C 
HETATM    5  C12 UNL     1      -3.414  -1.431  -1.388  1.00  0.00     0.178 C 
HETATM    6  C13 UNL     1      -4.207  -1.222  -0.149  1.00  0.00     0.163 C 
ENDROOT
BRANCH   3   7
HETATM    7  N1  UNL     1      -0.287  -0.292  -0.075  1.00  0.00    -0.327 N 
HETATM    8  C5  UNL     1       0.007  -1.540   0.462  1.00  0.00     0.161 C 
BRANCH   7   9
HETATM    9  S2  UNL     1       0.983   0.742  -0.490  1.00  0.00     0.136 S 
HETATM   10  O1  UNL     1       0.797   2.254   0.213  1.00  0.00    -0.234 OA
BRANCH   9  11
HETATM   11  C6  UNL     1       2.543   0.030  -0.027  1.00  0.00     0.300 C 
BRANCH  11  12
HETATM   12  O2  UNL     1       3.528   0.917  -0.391  1.00  0.00    -0.367 OA
BRANCH  12  13
HETATM   13  C7  UNL     1       4.816   0.512  -0.090  1.00  0.00     0.051 C 
HETATM   14  C8  UNL     1       5.080  -0.787  -0.819  1.00  0.00     0.045 C 
HETATM   15  C9  UNL     1       5.753   1.605  -0.613  1.00  0.00     0.045 C 
HETATM   16  C10 UNL     1       5.019   0.326   1.402  1.00  0.00     0.045 C 
ENDBRANCH  12  13
ENDBRANCH  11  12
ENDBRANCH   9  11
ENDBRANCH   7   9
ENDBRANCH   3   7
BRANCH   4  17
HETATM   17  O3  UNL     1      -2.460   0.282  -2.654  1.00  0.00    -0.391 OA
ATOM     18  H3  UNL     1      -2.857  -0.165  -3.393  1.00  0.00     0.210 HD
ENDBRANCH   4  17
BRANCH   1  19
HETATM   19  S1  UNL     1      -5.014   0.712   1.645  1.00  0.00    -0.166 SA
HETATM   20  C1  UNL     1      -4.605   2.423   2.088  1.00  0.00     0.090 C 
ENDBRANCH   1  19
BRANCH   5  21
HETATM   21  O4  UNL     1      -4.325  -1.279  -2.469  1.00  0.00    -0.390 OA
ATOM     22  H4  UNL     1      -5.105  -1.805  -2.335  1.00  0.00     0.210 HD
ENDBRANCH   5  21
BRANCH   6  23
HETATM   23  O5  UNL     1      -3.784  -2.172   0.803  1.00  0.00    -0.392 OA
ATOM     24  H5  UNL     1      -3.982  -3.047   0.491  1.00  0.00     0.210 HD
ENDBRANCH   6  23
TORSDOF 9
