REMARK  7 active torsions:
REMARK  status: ('A' for Active; 'I' for Inactive)
REMARK    1  A    between atoms: C2_2  and  O1_3 
REMARK    2  A    between atoms: O1_3  and  C3_4 
REMARK       I    between atoms: C3_4  and  N1_6 
REMARK    3  A    between atoms: N1_6  and  S1_8 
REMARK    4  A    between atoms: S1_8  and  N2_11 
REMARK    5  A    between atoms: N2_11  and  S2_13 
REMARK    6  A    between atoms: S2_13  and  C4_16 
REMARK    7  A    between atoms: C4_16  and  C5_17 
ROOT
HETATM    1  N2  UNL     1      -0.119   0.122   0.442  1.00  0.00    -0.193 N 
ATOM      2  H2  UNL     1      -0.197   0.338   1.436  1.00  0.00     0.193 HD
ENDROOT
BRANCH   1   3
HETATM    3  S1  UNL     1       1.100  -0.916  -0.187  1.00  0.00     0.336 S 
HETATM    4  O3  UNL     1       1.327  -2.022   0.797  1.00  0.00    -0.181 OA
HETATM    5  O4  UNL     1       0.694  -1.536  -1.493  1.00  0.00    -0.181 OA
BRANCH   3   6
HETATM    6  N1  UNL     1       2.583  -0.049  -0.443  1.00  0.00    -0.212 N 
HETATM    7  C3  UNL     1       3.785  -0.533   0.131  1.00  0.00     0.375 C 
HETATM    8  O2  UNL     1       3.806  -1.585   0.827  1.00  0.00    -0.237 OA
ATOM      9  H1  UNL     1       2.589   0.803  -1.003  1.00  0.00     0.185 HD
BRANCH   7  10
HETATM   10  O1  UNL     1       4.994   0.115  -0.039  1.00  0.00    -0.304 OA
BRANCH  10  11
HETATM   11  C2  UNL     1       6.185  -0.404   0.555  1.00  0.00     0.176 C 
HETATM   12  C1  UNL     1       7.306   0.541   0.173  1.00  0.00     0.034 C 
ENDBRANCH  10  11
ENDBRANCH   7  10
ENDBRANCH   3   6
ENDBRANCH   1   3
BRANCH   1  13
HETATM   13  S2  UNL     1      -1.179   0.758  -0.713  1.00  0.00     0.262 S 
HETATM   14  O5  UNL     1      -0.771   0.458  -2.126  1.00  0.00    -0.203 OA
HETATM   15  O6  UNL     1      -1.119   2.278  -0.599  1.00  0.00    -0.203 OA
BRANCH  13  16
HETATM   16  C4  UNL     1      -2.829   0.206  -0.437  1.00  0.00     0.201 C 
HETATM   17  C6  UNL     1      -3.330   0.658   0.939  1.00  0.00     0.042 C 
HETATM   18  C7  UNL     1      -4.540  -0.222   1.199  1.00  0.00     0.005 C 
HETATM   19  C8  UNL     1      -4.342  -1.481   0.363  1.00  0.00     0.040 C 
HETATM   20  C9  UNL     1      -3.019  -1.264  -0.375  1.00  0.00     0.206 C 
HETATM   21  F1  UNL     1      -2.054  -1.905   0.393  1.00  0.00    -0.247 F 
BRANCH  16  22
HETATM   22  C5  UNL     1      -3.711   0.772  -1.491  1.00  0.00     0.202 C 
HETATM   23  O7  UNL     1      -3.201   1.470  -2.384  1.00  0.00    -0.647 OA
HETATM   24  O8  UNL     1      -5.082   0.576  -1.554  1.00  0.00    -0.647 OA
ENDBRANCH  16  22
ENDBRANCH  13  16
ENDBRANCH   1  13
TORSDOF 7
