REMARK  8 active torsions:
REMARK  status: ('A' for Active; 'I' for Inactive)
REMARK    1  A    between atoms: N1_2  and  C2_5 
REMARK    2  A    between atoms: C3_6  and  O1_7 
REMARK    3  A    between atoms: C4_9  and  C5_10 
REMARK    4  A    between atoms: C7_14  and  O3_15 
REMARK    5  A    between atoms: C9_17  and  O4_18 
REMARK    6  A    between atoms: O4_18  and  C10_19 
REMARK    7  A    between atoms: C10_19  and  C11_21 
REMARK    8  A    between atoms: C11_21  and  C12_22 
ROOT
HETATM    1  C2  UNL     1      -0.691   1.173  -0.214  1.00  0.00     0.250 C 
HETATM    2  C3  UNL     1      -1.704   1.005   0.887  1.00  0.00     0.184 C 
HETATM    3  C4  UNL     1      -2.093  -0.479   0.898  1.00  0.00     0.179 C 
HETATM    4  O2  UNL     1      -2.026  -1.018  -0.374  1.00  0.00    -0.347 OA
HETATM    5  C7  UNL     1      -0.733  -1.164  -0.863  1.00  0.00     0.291 C 
HETATM    6  C9  UNL     1       0.152  -0.097  -0.239  1.00  0.00     0.220 C 
ENDROOT
BRANCH   6   7
HETATM    7  O4  UNL     1       1.345   0.079  -0.949  1.00  0.00    -0.308 OA
BRANCH   7   8
HETATM    8  C10 UNL     1       2.609  -0.061  -0.334  1.00  0.00     0.269 C 
HETATM    9  O5  UNL     1       2.546  -0.351   0.890  1.00  0.00    -0.265 OA
BRANCH   8  10
HETATM   10  C11 UNL     1       3.856   0.126  -1.094  1.00  0.00     0.224 C 
BRANCH  10  11
HETATM   11  C12 UNL     1       5.022  -0.067  -0.215  1.00  0.00     0.182 C 
HETATM   12  O6  UNL     1       6.185   0.035  -0.716  1.00  0.00    -0.648 OA
HETATM   13  O7  UNL     1       4.878  -0.347   1.103  1.00  0.00    -0.648 OA
ENDBRANCH  10  11
ENDBRANCH   8  10
ENDBRANCH   7   8
ENDBRANCH   6   7
BRANCH   1  14
HETATM   14  N1  UNL     1       0.126   2.352  -0.053  1.00  0.00    -0.070 N 
HETATM   15  C1  UNL     1      -0.729   3.522  -0.115  1.00  0.00     0.267 C 
ATOM     16  H12 UNL     1       0.891   2.392  -0.726  1.00  0.00     0.277 HD
ATOM     17  H11 UNL     1       0.688   2.324   0.798  1.00  0.00     0.277 HD
ENDBRANCH   1  14
BRANCH   5  18
HETATM   18  O3  UNL     1      -0.232  -2.428  -0.706  1.00  0.00    -0.363 OA
HETATM   19  C8  UNL     1       0.031  -2.962  -1.965  1.00  0.00     0.204 C 
ENDBRANCH   5  18
BRANCH   2  20
HETATM   20  O1  UNL     1      -2.839   1.798   0.697  1.00  0.00    -0.390 OA
ATOM     21  H1  UNL     1      -3.478   1.692   1.392  1.00  0.00     0.210 HD
ENDBRANCH   2  20
BRANCH   3  22
HETATM   22  C5  UNL     1      -3.511  -0.640   1.350  1.00  0.00     0.015 C 
HETATM   23  C6  UNL     1      -3.889  -1.722   2.012  1.00  0.00     0.054 C 
HETATM   24 BR1  UNL     1      -2.599  -3.078   2.382  1.00  0.00    -0.064 Br
ENDBRANCH   3  22
TORSDOF 8
