REMARK  9 active torsions:
REMARK  status: ('A' for Active; 'I' for Inactive)
REMARK    1  A    between atoms: N1_2  and  C2_4 
REMARK    2  A    between atoms: C2_4  and  N2_6 
REMARK    3  A    between atoms: N2_6  and  C3_8 
REMARK    4  A    between atoms: C3_8  and  C5_11 
REMARK    5  A    between atoms: C5_11  and  S2_12 
REMARK    6  A    between atoms: S2_12  and  C6_13 
REMARK    7  A    between atoms: C8_16  and  O2_17 
REMARK    8  A    between atoms: C10_19  and  O3_20 
REMARK    9  A    between atoms: C12_22  and  O4_23 
ROOT
HETATM    1  C3  UNL     1       3.842  -1.713  -0.130  1.00  0.00     0.200 C 
HETATM    2  C4  UNL     1       3.494  -3.057   0.425  1.00  0.00     0.085 C 
HETATM    3  N3  UNL     1       3.244  -4.097   0.861  1.00  0.00    -0.195 NA
ENDROOT
BRANCH   1   4
HETATM    4  N2  UNL     1       4.186  -0.899   1.001  1.00  0.00    -0.349 N 
ATOM      5  H2  UNL     1       3.987  -1.246   1.939  1.00  0.00     0.163 HD
BRANCH   4   6
HETATM    6  C2  UNL     1       4.792   0.367   0.853  1.00  0.00     0.168 C 
HETATM    7  S1  UNL     1       5.158   1.299   2.163  1.00  0.00    -0.041 SA
BRANCH   6   8
HETATM    8  N1  UNL     1       5.102   0.869  -0.414  1.00  0.00    -0.372 N 
HETATM    9  C1  UNL     1       5.718   2.173  -0.596  1.00  0.00     0.148 C 
ATOM     10  H1  UNL     1       4.890   0.303  -1.236  1.00  0.00     0.161 HD
ENDBRANCH   6   8
ENDBRANCH   4   6
ENDBRANCH   1   4
BRANCH   1  11
HETATM   11  C5  UNL     1       2.518  -1.225  -0.759  1.00  0.00     0.116 C 
BRANCH  11  12
HETATM   12  S2  UNL     1       1.279  -1.387   0.556  1.00  0.00    -0.134 SA
BRANCH  12  13
HETATM   13  C6  UNL     1      -0.355  -0.847   0.001  1.00  0.00     0.192 C 
HETATM   14  O1  UNL     1      -0.332   0.526  -0.250  1.00  0.00    -0.366 OA
HETATM   15  C7  UNL     1      -1.406   0.753   0.612  1.00  0.00     0.164 C 
HETATM   16  C8  UNL     1      -2.660   0.932  -0.176  1.00  0.00     0.181 C 
HETATM   17  C13 UNL     1      -1.331  -0.651   1.112  1.00  0.00     0.088 C 
HETATM   18  C10 UNL     1      -3.551  -0.189   0.279  1.00  0.00     0.181 C 
HETATM   19  C12 UNL     1      -2.690  -1.229   0.935  1.00  0.00     0.159 C 
BRANCH  16  20
HETATM   20  O2  UNL     1      -3.203   2.193   0.147  1.00  0.00    -0.385 OA
HETATM   21  C9  UNL     1      -3.387   2.969  -1.003  1.00  0.00     0.202 C 
ENDBRANCH  16  20
BRANCH  18  22
HETATM   22  O3  UNL     1      -4.315  -0.703  -0.751  1.00  0.00    -0.385 OA
HETATM   23  C11 UNL     1      -5.648  -0.489  -0.517  1.00  0.00     0.202 C 
ENDBRANCH  18  22
BRANCH  19  24
HETATM   24  O4  UNL     1      -2.691  -2.436   0.243  1.00  0.00    -0.392 OA
ATOM     25  H4  UNL     1      -2.146  -3.094   0.658  1.00  0.00     0.210 HD
ENDBRANCH  19  24
ENDBRANCH  12  13
ENDBRANCH  11  12
ENDBRANCH   1  11
TORSDOF 9
