REMARK  6 active torsions:
REMARK  status: ('A' for Active; 'I' for Inactive)
REMARK    1  A    between atoms: C4_4  and  N1_5 
REMARK    2  A    between atoms: N2_7  and  C5_9 
REMARK    3  A    between atoms: C5_9  and  N3_11 
REMARK    4  A    between atoms: C11_17  and  O1_18 
REMARK    5  A    between atoms: N4_20  and  C12_21 
REMARK    6  A    between atoms: C12_21  and  N5_22 
ROOT
HETATM    1  C1  UNL     1      -2.731  -1.950   2.236  1.00  0.00     0.068 C 
HETATM    2  C2  UNL     1      -1.681  -1.735   1.204  1.00  0.00     0.014 A 
HETATM    3  C3  UNL     1      -0.804  -2.696   0.778  1.00  0.00     0.060 A 
HETATM    4  C4  UNL     1       0.014  -2.139  -0.175  1.00  0.00     0.101 A 
HETATM    5  C11 UNL     1      -0.423  -0.816  -0.284  1.00  0.00     0.172 A 
HETATM    6  N4  UNL     1      -1.445  -0.592   0.554  1.00  0.00    -0.313 N 
ENDROOT
BRANCH   4   7
HETATM    7  N1  UNL     1       1.064  -2.764  -0.891  1.00  0.00    -0.294 N 
HETATM    8  N2  UNL     1       2.256  -2.551  -0.634  1.00  0.00    -0.276 N 
ATOM      9  H2  UNL     1       2.970  -3.029  -1.183  1.00  0.00     0.189 HD
ATOM     10  H1  UNL     1       0.830  -3.411  -1.644  1.00  0.00     0.187 HD
BRANCH   8  11
HETATM   11  C5  UNL     1       2.663  -1.670   0.392  1.00  0.00     0.188 C 
HETATM   12  S1  UNL     1       2.239  -1.992   1.938  1.00  0.00    -0.039 SA
BRANCH  11  13
HETATM   13  N3  UNL     1       3.446  -0.510   0.085  1.00  0.00    -0.357 N 
HETATM   14  C6  UNL     1       3.829   0.347   1.160  1.00  0.00     0.125 C 
HETATM   15  C7  UNL     1       5.014   1.209   0.920  1.00  0.00     0.020 C 
HETATM   16  C8  UNL     1       5.462   1.316  -0.495  1.00  0.00     0.003 C 
HETATM   17  C9  UNL     1       5.303   0.050  -1.292  1.00  0.00     0.020 C 
HETATM   18  C10 UNL     1       3.809  -0.269  -1.299  1.00  0.00     0.125 C 
ENDBRANCH  11  13
ENDBRANCH   8  11
ENDBRANCH   4   7
BRANCH   5  19
HETATM   19  O1  UNL     1       0.185   0.073  -1.173  1.00  0.00    -0.344 OA
ATOM     20  H1  UNL     1      -0.112   0.972  -1.247  1.00  0.00     0.219 HD
ENDBRANCH   5  19
BRANCH   6  21
HETATM   21  C12 UNL     1      -2.169   0.669   0.742  1.00  0.00     0.256 C 
BRANCH  21  22
HETATM   22  N5  UNL     1      -3.300   0.717  -0.117  1.00  0.00    -0.373 N 
HETATM   23  C13 UNL     1      -3.040   0.678  -1.498  1.00  0.00     0.086 C 
HETATM   24  C14 UNL     1      -4.236   0.960  -2.368  1.00  0.00     0.212 C 
HETATM   25  O2  UNL     1      -5.008   2.010  -1.885  1.00  0.00    -0.385 OA
HETATM   26  C15 UNL     1      -5.512   1.615  -0.649  1.00  0.00     0.187 C 
HETATM   27  C16 UNL     1      -4.324   1.624   0.304  1.00  0.00     0.150 C 
ENDBRANCH  21  22
ENDBRANCH   6  21
TORSDOF 6
