REMARK  3 active torsions:
REMARK  status: ('A' for Active; 'I' for Inactive)
REMARK    1  A    between atoms: O1_2  and  C2_3 
REMARK    2  A    between atoms: C2_3  and  C3_4 
REMARK    3  A    between atoms: C7_9  and  O3_10 
ROOT
HETATM    1  C3  UNL     1       3.687  -0.078  -0.786  1.00  0.00    -0.003 C 
HETATM    2  C4  UNL     1       2.383   0.026  -0.610  1.00  0.00     0.023 C 
HETATM    3  C5  UNL     1       1.662  -1.174  -0.091  1.00  0.00     0.108 A 
HETATM    4  C6  UNL     1       2.525  -2.104   0.695  1.00  0.00     0.214 C 
HETATM    5  O2  UNL     1       3.844  -1.686   0.846  1.00  0.00    -0.354 OA
HETATM    6  C7  UNL     1       4.313  -1.373  -0.451  1.00  0.00     0.289 C 
HETATM    7  O4  UNL     1       0.959  -1.870  -1.094  1.00  0.00    -0.362 OA
HETATM    8  C8  UNL     1      -0.292  -1.696  -0.486  1.00  0.00     0.066 A 
HETATM    9  C9  UNL     1      -0.794  -3.040  -0.010  1.00  0.00     0.046 C 
HETATM   10  C10 UNL     1      -1.222  -1.031  -1.441  1.00  0.00     0.041 C 
HETATM   11  C11 UNL     1      -2.665  -1.017  -0.928  1.00  0.00     0.036 C 
HETATM   12  C12 UNL     1      -3.150   0.371  -0.820  1.00  0.00     0.133 C 
HETATM   13  O5  UNL     1      -2.073   1.279  -0.708  1.00  0.00    -0.374 OA
HETATM   14  C13 UNL     1      -2.307   1.441   0.667  1.00  0.00     0.067 C 
HETATM   15  C14 UNL     1      -2.342   2.914   1.088  1.00  0.00     0.047 C 
HETATM   16  C15 UNL     1      -1.344   0.649   1.457  1.00  0.00     0.039 C 
HETATM   17  C16 UNL     1      -0.051   0.542   0.658  1.00  0.00     0.014 C 
HETATM   18  C17 UNL     1       0.333  -0.878   0.544  1.00  0.00     0.061 A 
HETATM   19  C18 UNL     1      -3.658   0.844   0.470  1.00  0.00     0.009 C 
HETATM   20  C19 UNL     1      -4.670   1.985   0.243  1.00  0.00     0.020 C 
HETATM   21  C20 UNL     1      -4.176  -0.094   1.476  1.00  0.00     0.020 C 
ENDROOT
BRANCH   1  22
HETATM   22  C2  UNL     1       4.468   1.069  -1.297  1.00  0.00     0.206 C 
BRANCH  22  23
HETATM   23  O1  UNL     1       5.453   1.507  -0.449  1.00  0.00    -0.392 OA
HETATM   24  C1  UNL     1       4.959   1.930   0.783  1.00  0.00     0.201 C 
ENDBRANCH  22  23
ENDBRANCH   1  22
BRANCH   6  25
HETATM   25  O3  UNL     1       5.700  -1.333  -0.485  1.00  0.00    -0.367 OA
ATOM     26  H3  UNL     1       6.103  -2.166  -0.270  1.00  0.00     0.213 HD
ENDBRANCH   6  25
TORSDOF 3
