REMARK  5 active torsions:
REMARK  status: ('A' for Active; 'I' for Inactive)
REMARK    1  A    between atoms: C2_2  and  O2_4 
REMARK    2  A    between atoms: O2_4  and  C3_5 
REMARK    3  A    between atoms: C10_15  and  O6_17 
REMARK    4  A    between atoms: C14_21  and  C15_22 
REMARK    5  A    between atoms: C15_22  and  C16_23 
ROOT
HETATM    1  C3  UNL     1      -0.330   1.326   0.047  1.00  0.00     0.275 C 
HETATM    2  O3  UNL     1      -1.688   0.975  -0.062  1.00  0.00    -0.346 OA
HETATM    3  C4  UNL     1      -1.804  -0.285   0.517  1.00  0.00     0.102 C 
HETATM    4  C5  UNL     1      -1.867  -0.050   2.016  1.00  0.00     0.050 C 
HETATM    5  C6  UNL     1      -3.117  -0.896   0.117  1.00  0.00     0.095 C 
HETATM    6  C7  UNL     1      -3.884   0.052  -0.818  1.00  0.00     0.049 C 
HETATM    7  C8  UNL     1      -4.055  -1.113   1.289  1.00  0.00     0.049 C 
HETATM    8  O4  UNL     1      -3.024  -2.116  -0.559  1.00  0.00    -0.305 OA
HETATM    9  C9  UNL     1      -1.901  -2.615  -1.157  1.00  0.00     0.295 C 
HETATM   10  O5  UNL     1      -1.838  -3.800  -1.590  1.00  0.00    -0.262 OA
HETATM   11  C10 UNL     1      -0.743  -1.664  -1.267  1.00  0.00     0.152 C 
HETATM   12  C11 UNL     1       0.482  -2.453  -1.654  1.00  0.00     0.058 C 
HETATM   13  C12 UNL     1      -0.597  -1.012   0.080  1.00  0.00     0.039 C 
HETATM   14  C13 UNL     1      -0.252  -2.089   1.081  1.00  0.00     0.022 C 
HETATM   15  C14 UNL     1       0.461   0.056  -0.037  1.00  0.00     0.060 C 
ENDROOT
BRANCH  15  16
HETATM   16  C15 UNL     1       1.574  -0.097   0.928  1.00  0.00     0.037 C 
BRANCH  16  17
HETATM   17  C16 UNL     1       2.638   0.933   0.838  1.00  0.00    -0.024 C 
HETATM   18  C17 UNL     1       3.877   0.550   0.551  1.00  0.00    -0.091 C 
HETATM   19  C18 UNL     1       4.939   1.593   0.463  1.00  0.00     0.042 C 
HETATM   20  C19 UNL     1       4.215  -0.897   0.318  1.00  0.00     0.042 C 
ENDBRANCH  16  17
ENDBRANCH  15  16
BRANCH   1  21
HETATM   21  O2  UNL     1      -0.016   2.264  -0.971  1.00  0.00    -0.290 OA
BRANCH  21  22
HETATM   22  C2  UNL     1       0.360   3.567  -0.703  1.00  0.00     0.257 C 
HETATM   23  C1  UNL     1       0.695   4.554  -1.748  1.00  0.00     0.126 C 
HETATM   24  O1  UNL     1       0.420   3.929   0.498  1.00  0.00    -0.266 OA
ENDBRANCH  21  22
ENDBRANCH   1  21
BRANCH  11  25
HETATM   25  O6  UNL     1      -0.997  -0.773  -2.298  1.00  0.00    -0.379 OA
ATOM     26  H6  UNL     1      -0.265  -0.172  -2.368  1.00  0.00     0.211 HD
ENDBRANCH  11  25
TORSDOF 5
