REMARK  6 active torsions:
REMARK  status: ('A' for Active; 'I' for Inactive)
REMARK    1  A    between atoms: C2_2  and  O1_3 
REMARK    2  A    between atoms: O1_3  and  C3_4 
REMARK    3  A    between atoms: C3_4  and  C4_6 
REMARK    4  A    between atoms: C9_12  and  C10_13 
REMARK    5  A    between atoms: C12_17  and  C13_18 
REMARK    6  A    between atoms: C17_23  and  N2_24 
ROOT
HETATM    1  C4  UNL     1       2.878   0.125   1.266  1.00  0.00     0.248 C 
HETATM    2  C5  UNL     1       3.325  -1.294   1.132  1.00  0.00     0.214 C 
HETATM    3  O3  UNL     1       2.535  -1.810   0.102  1.00  0.00    -0.350 OA
HETATM    4  C6  UNL     1       1.372  -1.040   0.093  1.00  0.00     0.193 C 
HETATM    5  C7  UNL     1       0.811  -1.082  -1.297  1.00  0.00     0.071 C 
HETATM    6  C8  UNL     1      -0.568  -0.509  -1.420  1.00  0.00     0.017 C 
HETATM    7  C9  UNL     1      -1.482  -0.903  -0.286  1.00  0.00     0.047 C 
HETATM    8  C16 UNL     1      -0.829  -0.575   1.013  1.00  0.00     0.049 C 
HETATM    9  C17 UNL     1       0.383  -1.475   1.143  1.00  0.00     0.246 C 
HETATM   10  O5  UNL     1       1.804   0.240   0.392  1.00  0.00    -0.336 OA
ENDROOT
BRANCH   9  11
HETATM   11  N2  UNL     1      -0.000  -2.851   1.034  1.00  0.00    -0.070 N 
ATOM     12  H23 UNL     1      -0.354  -3.054   0.099  1.00  0.00     0.274 HD
ATOM     13  H22 UNL     1       0.821  -3.456   1.040  1.00  0.00     0.274 HD
ATOM     14  H21 UNL     1      -0.670  -3.146   1.745  1.00  0.00     0.274 HD
ENDBRANCH   9  11
BRANCH   1  15
HETATM   15  C3  UNL     1       3.954   1.041   0.787  1.00  0.00     0.290 C 
HETATM   16  O2  UNL     1       3.804   1.754  -0.250  1.00  0.00    -0.262 OA
BRANCH  15  17
HETATM   17  O1  UNL     1       5.126   1.075   1.531  1.00  0.00    -0.320 OA
BRANCH  17  18
HETATM   18  C2  UNL     1       6.175   1.942   1.099  1.00  0.00     0.174 C 
HETATM   19  C1  UNL     1       6.586   1.527  -0.293  1.00  0.00     0.034 C 
ENDBRANCH  17  18
ENDBRANCH  15  17
ENDBRANCH   1  15
BRANCH   7  20
HETATM   20  C10 UNL     1      -2.771  -0.166  -0.489  1.00  0.00     0.074 A 
HETATM   21  C11 UNL     1      -2.928   1.202  -0.477  1.00  0.00     0.123 A 
HETATM   22  N1  UNL     1      -4.225   1.468  -0.696  1.00  0.00    -0.347 N 
HETATM   23  C12 UNL     1      -4.842   0.286  -0.838  1.00  0.00     0.128 A 
ATOM     24  H1  UNL     1      -4.658   2.390  -0.745  1.00  0.00     0.167 HD
HETATM   25  O4  UNL     1      -3.957  -0.667  -0.712  1.00  0.00    -0.300 OA
BRANCH  23  26
HETATM   26  C13 UNL     1      -6.320   0.123  -1.102  1.00  0.00     0.061 A 
HETATM   27  C14 UNL     1      -7.239   0.993  -0.299  1.00  0.00     0.013 A 
HETATM   28  C15 UNL     1      -7.059   1.169  -1.810  1.00  0.00     0.013 A 
ENDBRANCH  23  26
ENDBRANCH   7  20
TORSDOF 6
