REMARK  4 active torsions:
REMARK  status: ('A' for Active; 'I' for Inactive)
REMARK    1  A    between atoms: C3_5  and  C4_6 
REMARK    2  A    between atoms: C4_6  and  N2_7 
REMARK    3  A    between atoms: N2_7  and  C5_9 
REMARK    4  A    between atoms: C12_17  and  C13_18 
ROOT
HETATM    1  C13 UNL     1       3.299   0.048  -0.263  1.00  0.00     0.101 C 
HETATM    2  C14 UNL     1       3.758   0.306  -1.677  1.00  0.00     0.202 C 
HETATM    3  N3  UNL     1       4.879   1.214  -1.706  1.00  0.00    -0.312 N 
HETATM    4  C15 UNL     1       5.819   1.168  -2.773  1.00  0.00     0.180 C 
HETATM    5  N4  UNL     1       6.550   1.149  -3.663  1.00  0.00    -0.172 NA
HETATM    6  C16 UNL     1       5.008   2.202  -0.652  1.00  0.00     0.161 C 
HETATM    7  C17 UNL     1       4.470   1.690   0.674  1.00  0.00     0.196 C 
HETATM    8  O2  UNL     1       3.134   1.197   0.448  1.00  0.00    -0.349 OA
ENDROOT
BRANCH   1   9
HETATM    9  C12 UNL     1       2.389  -1.067  -0.068  1.00  0.00     0.136 A 
HETATM   10  C3  UNL     1       0.992  -1.019  -0.076  1.00  0.00     0.086 A 
HETATM   11  N1  UNL     1       0.591  -2.262   0.155  1.00  0.00    -0.337 N 
HETATM   12  C2  UNL     1       1.669  -3.057   0.304  1.00  0.00     0.121 A 
ATOM     13  H1  UNL     1      -0.380  -2.568   0.211  1.00  0.00     0.168 HD
HETATM   14  C1  UNL     1       1.674  -4.536   0.590  1.00  0.00     0.098 C 
HETATM   15  O3  UNL     1       2.725  -2.311   0.161  1.00  0.00    -0.293 OA
BRANCH  10  16
HETATM   16  C4  UNL     1       0.263   0.241  -0.267  1.00  0.00     0.120 C 
BRANCH  16  17
HETATM   17  N2  UNL     1      -1.128   0.127  -0.465  1.00  0.00    -0.370 N 
ATOM     18  H2  UNL     1      -1.487  -0.157  -1.376  1.00  0.00     0.165 HD
BRANCH  17  19
HETATM   19  C5  UNL     1      -2.027   0.402   0.586  1.00  0.00    -0.009 C 
HETATM   20  C6  UNL     1      -2.300  -0.814   1.403  1.00  0.00     0.078 C 
HETATM   21  C7  UNL     1      -3.696  -0.752   1.967  1.00  0.00     0.174 C 
HETATM   22  O1  UNL     1      -4.688  -0.387   1.107  1.00  0.00    -0.380 OA
HETATM   23  C8  UNL     1      -4.492   0.621   0.237  1.00  0.00     0.058 C 
HETATM   24  C9  UNL     1      -5.534   1.728   0.497  1.00  0.00     0.046 C 
HETATM   25  C10 UNL     1      -4.751   0.116  -1.177  1.00  0.00     0.046 C 
HETATM   26  C11 UNL     1      -3.159   1.309   0.331  1.00  0.00     0.089 C 
ENDBRANCH  17  19
ENDBRANCH  16  17
ENDBRANCH  10  16
ENDBRANCH   1   9
TORSDOF 4
