REMARK  6 active torsions:
REMARK  status: ('A' for Active; 'I' for Inactive)
REMARK    1  A    between atoms: C5_6  and  C6_7 
REMARK    2  A    between atoms: C6_7  and  N2_8 
REMARK    3  A    between atoms: C8_11  and  C9_12 
REMARK    4  A    between atoms: N3_13  and  N4_15 
REMARK       I    between atoms: N4_15  and  C10_17 
REMARK    5  A    between atoms: C10_17  and  O3_19 
REMARK    6  A    between atoms: O3_19  and  C11_20 
ROOT
HETATM    1  N2  UNL     1       1.772  -1.126  -0.079  1.00  0.00    -0.216 N 
HETATM    2  O1  UNL     1       1.491  -2.037   0.784  1.00  0.00    -0.244 OA
HETATM    3  C7  UNL     1       0.272  -1.910   1.240  1.00  0.00     0.186 A 
HETATM    4  C8  UNL     1      -0.271  -0.801   0.595  1.00  0.00     0.075 A 
HETATM    5  C15 UNL     1       0.711  -0.322  -0.241  1.00  0.00     0.281 A 
HETATM    6  O4  UNL     1       0.644   0.687  -1.023  1.00  0.00    -0.265 OA
ENDROOT
BRANCH   4   7
HETATM    7  C9  UNL     1      -1.595  -0.241   0.749  1.00  0.00     0.126 C 
HETATM    8  N3  UNL     1      -1.922   0.793   0.066  1.00  0.00    -0.306 N 
ATOM      9  H3  UNL     1      -1.229   1.188  -0.570  1.00  0.00     0.186 HD
BRANCH   8  10
HETATM   10  N4  UNL     1      -3.162   1.404   0.142  1.00  0.00    -0.246 N 
HETATM   11  C10 UNL     1      -4.341   0.655   0.051  1.00  0.00     0.380 C 
HETATM   12  O2  UNL     1      -4.288  -0.584  -0.101  1.00  0.00    -0.237 OA
ATOM     13  H4  UNL     1      -3.217   2.415   0.266  1.00  0.00     0.192 HD
BRANCH  11  14
HETATM   14  O3  UNL     1      -5.612   1.204   0.119  1.00  0.00    -0.293 OA
BRANCH  14  15
HETATM   15  C11 UNL     1      -6.796   0.509   0.035  1.00  0.00     0.061 C 
HETATM   16  C12 UNL     1      -6.928  -0.231  -1.282  1.00  0.00     0.046 C 
HETATM   17  C13 UNL     1      -7.944   1.526   0.064  1.00  0.00     0.046 C 
HETATM   18  C14 UNL     1      -7.058  -0.476   1.135  1.00  0.00     0.046 C 
ENDBRANCH  14  15
ENDBRANCH  11  14
ENDBRANCH   8  10
ENDBRANCH   4   7
BRANCH   1  19
HETATM   19  C6  UNL     1       3.033  -0.932  -0.812  1.00  0.00     0.166 C 
BRANCH  19  20
HETATM   20  C5  UNL     1       3.948  -0.027  -0.036  1.00  0.00     0.034 C 
HETATM   21  C4  UNL     1       4.221  -0.680   1.296  1.00  0.00     0.010 C 
HETATM   22  C3  UNL     1       5.690  -0.614   1.667  1.00  0.00     0.031 C 
HETATM   23  C2  UNL     1       6.195   0.744   1.297  1.00  0.00     0.272 C 
HETATM   24  N1  UNL     1       6.203   0.946  -0.111  1.00  0.00     0.084 N 
HETATM   25  C1  UNL     1       7.483   0.848  -0.737  1.00  0.00     0.309 C 
HETATM   26  C16 UNL     1       5.189   0.228  -0.832  1.00  0.00     0.278 C 
ENDBRANCH  19  20
ENDBRANCH   1  19
TORSDOF 6
