REMARK  4 active torsions:
REMARK  status: ('A' for Active; 'I' for Inactive)
REMARK    1  A    between atoms: C3_7  and  S1_8 
REMARK    2  A    between atoms: S1_8  and  C4_9 
REMARK    3  A    between atoms: C8_13  and  C9_14 
REMARK    4  A    between atoms: C9_14  and  N3_15 
ROOT
HETATM    1  C4  UNL     1       1.496  -0.402   1.355  1.00  0.00     0.012 C 
HETATM    2  C5  UNL     1       1.938  -1.025   2.666  1.00  0.00     0.027 C 
HETATM    3  C6  UNL     1       1.826  -1.393   0.269  1.00  0.00     0.021 C 
HETATM    4  C7  UNL     1       0.721  -1.357  -0.719  1.00  0.00     0.008 C 
HETATM    5  C8  UNL     1      -0.253  -0.297  -0.179  1.00  0.00     0.015 C 
HETATM    6  C15 UNL     1      -0.038  -0.324   1.279  1.00  0.00     0.027 C 
ENDROOT
BRANCH   1   7
HETATM    7  S1  UNL     1       2.288   1.162   1.046  1.00  0.00    -0.083 SA
BRANCH   7   8
HETATM    8  C3  UNL     1       4.028   1.079   0.748  1.00  0.00     0.163 A 
HETATM    9  N2  UNL     1       4.980   1.092   1.729  1.00  0.00    -0.278 N 
HETATM   10  N1  UNL     1       6.177   1.040   1.172  1.00  0.00    -0.287 N 
ATOM     11  H2  UNL     1       4.796   1.135   2.731  1.00  0.00     0.189 HD
HETATM   12  C2  UNL     1       6.046   0.992  -0.170  1.00  0.00     0.095 A 
ATOM     13  H1  UNL     1       7.063   1.037   1.678  1.00  0.00     0.188 HD
HETATM   14  C1  UNL     1       7.102   0.924  -1.202  1.00  0.00     0.091 C 
HETATM   15  N5  UNL     1       4.735   1.018  -0.410  1.00  0.00    -0.320 N 
HETATM   16  C16 UNL     1       4.156   1.004  -1.747  1.00  0.00     0.159 C 
ENDBRANCH   7   8
ENDBRANCH   1   7
BRANCH   5  17
HETATM   17  C9  UNL     1      -1.608  -0.604  -0.702  1.00  0.00     0.277 C 
BRANCH  17  18
HETATM   18  N3  UNL     1      -2.695   0.206  -0.367  1.00  0.00     0.091 N 
HETATM   19  C10 UNL     1      -3.191   0.162   0.968  1.00  0.00     0.291 C 
HETATM   20  C11 UNL     1      -4.572  -0.526   1.028  1.00  0.00     0.146 C 
HETATM   21  N4  UNL     1      -5.537   0.081   0.182  1.00  0.00    -0.413 N 
HETATM   22  C12 UNL     1      -6.671   0.666   0.822  1.00  0.00     0.143 C 
HETATM   23  C13 UNL     1      -5.004   0.805  -0.926  1.00  0.00     0.146 C 
HETATM   24  C14 UNL     1      -3.733   0.106  -1.369  1.00  0.00     0.291 C 
ENDBRANCH  17  18
ENDBRANCH   5  17
TORSDOF 4
