REMARK  5 active torsions:
REMARK  status: ('A' for Active; 'I' for Inactive)
REMARK    1  A    between atoms: C2_3  and  S1_4 
REMARK    2  A    between atoms: S1_4  and  C3_5 
REMARK    3  A    between atoms: C3_5  and  C4_6 
REMARK       I    between atoms: C4_6  and  N2_8 
REMARK    4  A    between atoms: N2_8  and  C5_10 
REMARK    5  A    between atoms: C9_19  and  N6_20 
ROOT
HETATM    1  C5  UNL     1       5.751   0.010   0.317  1.00  0.00     0.114 C 
HETATM    2  C6  UNL     1       7.095  -0.269  -0.396  1.00  0.00     0.055 C 
HETATM    3  C7  UNL     1       6.001   1.092   1.348  1.00  0.00     0.055 C 
HETATM    4  C8  UNL     1       5.324  -1.216   0.989  1.00  0.00     0.090 C 
HETATM    5  N3  UNL     1       4.992  -2.197   1.516  1.00  0.00    -0.195 NA
ENDROOT
BRANCH   1   6
HETATM    6  N2  UNL     1       4.775   0.435  -0.633  1.00  0.00    -0.339 N 
HETATM    7  C4  UNL     1       3.432   0.782  -0.426  1.00  0.00     0.228 C 
HETATM    8  O1  UNL     1       2.896   0.755   0.715  1.00  0.00    -0.273 OA
ATOM      9  H2  UNL     1       5.100   0.495  -1.598  1.00  0.00     0.164 HD
BRANCH   7  10
HETATM   10  C3  UNL     1       2.549   1.211  -1.558  1.00  0.00     0.185 C 
BRANCH  10  11
HETATM   11  S1  UNL     1       1.690  -0.260  -2.166  1.00  0.00    -0.083 SA
BRANCH  11  12
HETATM   12  C2  UNL     1       0.462  -0.797  -0.954  1.00  0.00     0.177 A 
HETATM   13  N1  UNL     1      -0.833  -0.371  -0.922  1.00  0.00    -0.164 N 
HETATM   14  C1  UNL     1      -1.369   0.552  -1.874  1.00  0.00     0.177 C 
HETATM   15  C9  UNL     1      -1.495  -0.936   0.108  1.00  0.00     0.698 A 
HETATM   16  N5  UNL     1      -0.581  -1.722   0.714  1.00  0.00    -0.130 N 
HETATM   17  N4  UNL     1       0.592  -1.633   0.070  1.00  0.00    -0.265 N 
ATOM     18  H5  UNL     1      -0.756  -2.297   1.538  1.00  0.00     0.205 HD
ATOM     19  H4  UNL     1       1.447  -2.128   0.325  1.00  0.00     0.189 HD
BRANCH  15  20
HETATM   20  N6  UNL     1      -2.864  -0.735   0.466  1.00  0.00    -0.216 N 
HETATM   21  C10 UNL     1      -3.710  -1.868   0.151  1.00  0.00     0.141 C 
HETATM   22  C11 UNL     1      -5.144  -1.441  -0.097  1.00  0.00     0.020 C 
HETATM   23  C12 UNL     1      -5.684  -0.692   1.085  1.00  0.00     0.002 C 
HETATM   24  C13 UNL     1      -5.700   0.779   0.790  1.00  0.00     0.002 C 
HETATM   25  C14 UNL     1      -4.342   1.209   0.323  1.00  0.00     0.020 C 
HETATM   26  C15 UNL     1      -3.204   0.550   1.064  1.00  0.00     0.141 C 
ENDBRANCH  15  20
ENDBRANCH  11  12
ENDBRANCH  10  11
ENDBRANCH   7  10
ENDBRANCH   1   6
TORSDOF 5
