REMARK  5 active torsions:
REMARK  status: ('A' for Active; 'I' for Inactive)
REMARK    1  A    between atoms: N4_10  and  C4_11 
REMARK    2  A    between atoms: C10_17  and  N5_18 
REMARK    3  A    between atoms: N5_18  and  C11_20 
REMARK    4  A    between atoms: C11_20  and  C12_21 
REMARK    5  A    between atoms: C12_21  and  N6_22 
ROOT
HETATM    1  C1  UNL     1       1.464   1.363   2.157  1.00  0.00     0.183 A 
HETATM    2  N1  UNL     1       2.386   0.748   1.410  1.00  0.00    -0.335 N 
ATOM      3  H1  UNL     1       3.365   1.025   1.480  1.00  0.00     0.168 HD
HETATM    4  C2  UNL     1       2.029  -0.224   0.576  1.00  0.00     0.157 A 
HETATM    5  C3  UNL     1       0.699  -0.589   0.493  1.00  0.00     0.139 A 
HETATM    6  N2  UNL     1       0.690  -1.580  -0.423  1.00  0.00    -0.279 N 
ATOM      7  H2  UNL     1      -0.139  -2.087  -0.732  1.00  0.00     0.189 HD
HETATM    8  N3  UNL     1       1.906  -1.791  -0.853  1.00  0.00    -0.238 N 
ATOM      9  H3  UNL     1       2.154  -2.492  -1.552  1.00  0.00     0.208 HD
HETATM   10  N4  UNL     1       2.772  -0.985  -0.271  1.00  0.00    -0.255 N 
HETATM   11  C10 UNL     1      -0.253   0.028   1.249  1.00  0.00     0.134 A 
HETATM   12  N7  UNL     1       0.186   1.020   2.085  1.00  0.00    -0.337 N 
ATOM     13  H7  UNL     1      -0.491   1.510   2.670  1.00  0.00     0.168 HD
ENDROOT
BRANCH  11  14
HETATM   14  N5  UNL     1      -1.471  -0.273   1.205  1.00  0.00    -0.373 N 
ATOM     15  H5  UNL     1      -2.115   0.240   1.807  1.00  0.00     0.161 HD
BRANCH  14  16
HETATM   16  C11 UNL     1      -2.007  -1.295   0.359  1.00  0.00     0.141 C 
BRANCH  16  17
HETATM   17  C12 UNL     1      -3.504  -1.473   0.586  1.00  0.00     0.141 C 
BRANCH  17  18
HETATM   18  N6  UNL     1      -4.163  -0.229   0.294  1.00  0.00    -0.392 N 
HETATM   19  C13 UNL     1      -4.151   0.156  -1.060  1.00  0.00     0.058 C 
HETATM   20  C14 UNL     1      -5.199   1.055  -1.552  1.00  0.00     0.044 C 
HETATM   21  C15 UNL     1      -6.410   1.213  -0.709  1.00  0.00     0.007 C 
HETATM   22  C16 UNL     1      -6.605   0.010   0.160  1.00  0.00     0.020 C 
HETATM   23  C17 UNL     1      -5.375  -0.122   1.012  1.00  0.00     0.122 C 
ENDBRANCH  17  18
ENDBRANCH  16  17
ENDBRANCH  14  16
ENDBRANCH  11  14
BRANCH  10  24
HETATM   24  C4  UNL     1       4.207  -0.850  -0.424  1.00  0.00     0.111 C 
HETATM   25  C5  UNL     1       4.521   0.373  -1.245  1.00  0.00     0.027 C 
HETATM   26  C6  UNL     1       6.046   0.494  -1.249  1.00  0.00     0.002 C 
HETATM   27  C7  UNL     1       6.402   0.997   0.142  1.00  0.00     0.000 C 
HETATM   28  C8  UNL     1       5.838   0.160   1.236  1.00  0.00     0.002 C 
HETATM   29  C9  UNL     1       4.965  -0.966   0.845  1.00  0.00     0.027 C 
ENDBRANCH  10  24
TORSDOF 5
