REMARK  5 active torsions:
REMARK  status: ('A' for Active; 'I' for Inactive)
REMARK    1  A    between atoms: C2_2  and  C5_5 
REMARK    2  A    between atoms: C6_7  and  C7_8 
REMARK    3  A    between atoms: C9_11  and  C10_12 
REMARK    4  A    between atoms: C10_12  and  N1_13 
REMARK    5  A    between atoms: C15_23  and  S1_24 
ROOT
HETATM    1  S1  UNL     1      -3.685  -2.594  -0.571  1.00  0.00     0.010 SA
HETATM    2  C16 UNL     1      -2.640  -4.018  -0.609  1.00  0.00     0.140 C 
HETATM    3  N4  UNL     1      -1.961  -4.968  -0.621  1.00  0.00    -0.184 NA
ENDROOT
BRANCH   1   4
HETATM    4  C15 UNL     1      -2.667  -1.154  -0.279  1.00  0.00     0.117 A 
HETATM    5  C5  UNL     1      -3.136   0.134  -0.183  1.00  0.00     0.097 A 
HETATM    6  O1  UNL     1      -2.079   0.875   0.034  1.00  0.00    -0.296 OA
HETATM    7  C6  UNL     1      -0.973   0.148   0.081  1.00  0.00     0.154 A 
HETATM    8  N3  UNL     1      -1.329  -1.130  -0.114  1.00  0.00    -0.330 N 
ATOM      9  H3  UNL     1      -0.703  -1.935  -0.134  1.00  0.00     0.168 HD
BRANCH   5  10
HETATM   10  C2  UNL     1      -4.547   0.606  -0.300  1.00  0.00     0.001 C 
HETATM   11  C1  UNL     1      -5.417  -0.026   0.756  1.00  0.00     0.021 C 
HETATM   12  C3  UNL     1      -4.620   2.114  -0.074  1.00  0.00     0.021 C 
HETATM   13  C4  UNL     1      -5.041   0.362  -1.705  1.00  0.00     0.021 C 
ENDBRANCH   5  10
BRANCH   7  14
HETATM   14  C7  UNL     1       0.389   0.708   0.312  1.00  0.00     0.204 C 
HETATM   15  O2  UNL     1       0.361   1.566   1.408  1.00  0.00    -0.377 OA
HETATM   16  C8  UNL     1       0.356   0.395   2.202  1.00  0.00     0.178 C 
HETATM   17  C9  UNL     1       1.234  -0.233   1.112  1.00  0.00     0.075 C 
BRANCH  17  18
HETATM   18  C10 UNL     1       2.665   0.234   1.320  1.00  0.00     0.282 C 
BRANCH  18  19
HETATM   19  N1  UNL     1       3.355   0.421   0.086  1.00  0.00     0.092 N 
HETATM   20  C11 UNL     1       3.575  -0.857  -0.548  1.00  0.00     0.300 C 
HETATM   21  C12 UNL     1       5.010  -1.348  -0.356  1.00  0.00     0.262 C 
HETATM   22  N2  UNL     1       5.966  -0.466  -0.990  1.00  0.00    -0.072 N 
HETATM   23  C13 UNL     1       5.345   0.831  -1.142  1.00  0.00     0.262 C 
ATOM     24  H22 UNL     1       6.854  -0.422  -0.490  1.00  0.00     0.277 HD
ATOM     25  H21 UNL     1       6.323  -0.838  -1.870  1.00  0.00     0.277 HD
HETATM   26  C14 UNL     1       4.619   1.107   0.183  1.00  0.00     0.300 C 
ENDBRANCH  18  19
ENDBRANCH  17  18
ENDBRANCH   7  14
ENDBRANCH   1   4
TORSDOF 5
