REMARK  3 active torsions:
REMARK  status: ('A' for Active; 'I' for Inactive)
REMARK    1  A    between atoms: C7_9  and  C8_10 
REMARK    2  A    between atoms: C10_13  and  C11_14 
REMARK    3  A    between atoms: C11_14  and  O4_15 
ROOT
HETATM    1  C1  UNL     1      -3.009   1.170   1.564  1.00  0.00     0.014 C 
HETATM    2  C2  UNL     1      -3.077   1.153   0.137  1.00  0.00     0.025 C 
HETATM    3  C3  UNL     1      -3.026   0.003  -0.741  1.00  0.00     0.015 C 
HETATM    4  C4  UNL     1      -3.278   0.687  -2.055  1.00  0.00    -0.023 C 
HETATM    5  C5  UNL     1      -2.720   1.881  -1.970  1.00  0.00     0.005 C 
HETATM    6  C6  UNL     1      -2.078   2.064  -0.620  1.00  0.00     0.187 C 
HETATM    7  O1  UNL     1      -0.806   1.613  -0.515  1.00  0.00    -0.230 OA
HETATM    8  O2  UNL     1      -0.512   1.048   0.625  1.00  0.00    -0.223 OA
HETATM    9  C7  UNL     1       0.180  -0.193   0.464  1.00  0.00     0.150 C 
HETATM   10  C12 UNL     1       0.731  -0.580   1.813  1.00  0.00     0.054 C 
HETATM   11  C13 UNL     1       0.249  -1.946   2.261  1.00  0.00     0.081 C 
HETATM   12  C14 UNL     1       0.393  -2.919   1.118  1.00  0.00     0.127 C 
HETATM   13  O6  UNL     1       1.042  -3.923   1.159  1.00  0.00    -0.298 OA
HETATM   14  C15 UNL     1      -0.342  -2.557  -0.121  1.00  0.00     0.086 C 
HETATM   15  C16 UNL     1      -0.904  -1.163   0.094  1.00  0.00     0.036 C 
HETATM   16  C17 UNL     1      -1.785  -0.738  -1.037  1.00  0.00     0.017 C 
ENDROOT
BRANCH   9  17
HETATM   17  C8  UNL     1       1.268  -0.037  -0.548  1.00  0.00     0.298 C 
HETATM   18  O3  UNL     1       2.051  -1.131  -0.781  1.00  0.00    -0.355 OA
HETATM   19  C9  UNL     1       3.323  -0.626  -1.135  1.00  0.00     0.205 C 
HETATM   20  C10 UNL     1       3.366   0.614  -0.271  1.00  0.00     0.172 C 
HETATM   21  O5  UNL     1       2.071   1.065  -0.333  1.00  0.00    -0.349 OA
BRANCH  20  22
HETATM   22  C11 UNL     1       4.295   1.657  -0.872  1.00  0.00     0.198 C 
BRANCH  22  23
HETATM   23  O4  UNL     1       5.621   1.250  -0.834  1.00  0.00    -0.398 OA
ATOM     24  H4  UNL     1       6.201   1.902  -1.209  1.00  0.00     0.209 HD
ENDBRANCH  22  23
ENDBRANCH  20  22
ENDBRANCH   9  17
TORSDOF 3
