REMARK  6 active torsions:
REMARK  status: ('A' for Active; 'I' for Inactive)
REMARK    1  A    between atoms: S1_2  and  C2_3 
REMARK    2  A    between atoms: C2_3  and  O1_5 
REMARK    3  A    between atoms: O1_5  and  C3_6 
REMARK    4  A    between atoms: C3_6  and  N1_7 
REMARK    5  A    between atoms: C3_6  and  C8_16 
REMARK    6  A    between atoms: N1_7  and  C4_9 
ROOT
HETATM    1  C3  UNL     1       0.647  -0.511   0.252  1.00  0.00     0.232 C 
ENDROOT
BRANCH   1   2
HETATM    2  O1  UNL     1       1.940  -0.016  -0.176  1.00  0.00    -0.309 OA
BRANCH   2   3
HETATM    3  C2  UNL     1       2.304   1.291  -0.060  1.00  0.00     0.176 C 
HETATM    4  S2  UNL     1       1.211   2.481   0.000  1.00  0.00    -0.045 SA
BRANCH   3   5
HETATM    5  S1  UNL     1       4.024   1.714   0.031  1.00  0.00    -0.098 SA
HETATM    6  C1  UNL     1       4.220   3.483   0.190  1.00  0.00     0.098 C 
ENDBRANCH   3   5
ENDBRANCH   2   3
ENDBRANCH   1   2
BRANCH   1   7
HETATM    7  N1  UNL     1      -0.299   0.182  -0.496  1.00  0.00    -0.391 N 
ATOM      8  H1  UNL     1       0.030   0.833  -1.209  1.00  0.00     0.156 HD
BRANCH   7   9
HETATM    9  C4  UNL     1      -1.686   0.030  -0.319  1.00  0.00     0.093 C 
HETATM   10  C5  UNL     1      -2.093   0.503   1.037  1.00  0.00     0.040 C 
HETATM   11  C6  UNL     1      -3.456   1.092   1.027  1.00  0.00     0.142 C 
HETATM   12  S3  UNL     1      -3.398   2.008  -0.497  1.00  0.00     0.146 S 
HETATM   13  O2  UNL     1      -2.716   3.334  -0.327  1.00  0.00    -0.228 OA
HETATM   14  O3  UNL     1      -4.755   2.150  -1.110  1.00  0.00    -0.228 OA
HETATM   15  C7  UNL     1      -2.361   0.870  -1.384  1.00  0.00     0.164 C 
ENDBRANCH   7   9
ENDBRANCH   1   7
BRANCH   1  16
HETATM   16  C8  UNL     1       0.740  -2.005   0.084  1.00  0.00    -0.007 C 
HETATM   17  C9  UNL     1       1.010  -2.307  -1.401  1.00  0.00     0.019 C 
HETATM   18  C10 UNL     1      -0.418  -2.805   0.519  1.00  0.00     0.019 C 
HETATM   19  C11 UNL     1       1.981  -2.528   0.808  1.00  0.00     0.019 C 
ENDBRANCH   1  16
TORSDOF 6
