REMARK  3 active torsions:
REMARK  status: ('A' for Active; 'I' for Inactive)
REMARK    1  A    between atoms: C3_4  and  C4_5 
REMARK    2  A    between atoms: C4_5  and  O1_6 
REMARK    3  A    between atoms: N1_8  and  C5_10 
ROOT
HETATM    1  C4  UNL     1       0.532  -0.389  -0.133  1.00  0.00     0.137 C 
HETATM    2  N1  UNL     1      -0.451   0.306  -0.615  1.00  0.00    -0.364 N 
ATOM      3  H1  UNL     1      -0.295   1.254  -0.957  1.00  0.00     0.162 HD
ENDROOT
BRANCH   2   4
HETATM    4  C5  UNL     1      -1.766  -0.279  -0.661  1.00  0.00     0.117 C 
HETATM    5  C6  UNL     1      -2.667   0.738  -1.369  1.00  0.00     0.204 C 
HETATM    6  O2  UNL     1      -2.691   1.778  -0.405  1.00  0.00    -0.319 OA
HETATM    7  C7  UNL     1      -2.751   1.185   0.850  1.00  0.00     0.260 C 
HETATM    8  O3  UNL     1      -3.093   1.680   1.950  1.00  0.00    -0.265 OA
HETATM    9  C8  UNL     1      -2.323  -0.256   0.745  1.00  0.00     0.138 C 
ENDBRANCH   2   4
BRANCH   1  10
HETATM   10  C3  UNL     1       1.831   0.231  -0.105  1.00  0.00     0.074 C 
HETATM   11  C2  UNL     1       2.877  -0.402   0.366  1.00  0.00     0.012 C 
HETATM   12  C1  UNL     1       4.232   0.273   0.384  1.00  0.00     0.062 C 
HETATM   13 CL1  UNL     1       2.690  -2.023   0.969  1.00  0.00    -0.089 Cl
ENDBRANCH   1  10
BRANCH   1  14
HETATM   14  O1  UNL     1       0.285  -1.695   0.332  1.00  0.00    -0.346 OA
ATOM     15  H1  UNL     1      -0.572  -2.104   0.314  1.00  0.00     0.219 HD
ENDBRANCH   1  14
TORSDOF 3
