REMARK  4 active torsions:
REMARK  status: ('A' for Active; 'I' for Inactive)
REMARK    1  A    between atoms: C2_2  and  C3_3 
REMARK    2  A    between atoms: C3_3  and  N1_4 
REMARK       I    between atoms: N1_4  and  C4_6 
REMARK    3  A    between atoms: C4_6  and  O2_8 
REMARK    4  A    between atoms: O2_8  and  C5_9 
ROOT
HETATM    1  C5  UNL     1       2.608   0.087  -0.081  1.00  0.00     0.181 C 
HETATM    2 CL1  UNL     1       3.158  -1.416  -0.752  1.00  0.00    -0.054 Cl
HETATM    3  C6  UNL     1       3.465   1.030   0.206  1.00  0.00     0.170 C 
HETATM    4  C7  UNL     1       4.887   0.836  -0.030  1.00  0.00     0.114 C 
HETATM    5  N2  UNL     1       6.021   0.680  -0.206  1.00  0.00    -0.190 NA
HETATM    6  C8  UNL     1       3.063   2.291   0.763  1.00  0.00     0.114 C 
HETATM    7  N3  UNL     1       2.720   3.305   1.215  1.00  0.00    -0.190 NA
ENDROOT
BRANCH   1   8
HETATM    8  O2  UNL     1       1.270   0.279   0.146  1.00  0.00    -0.247 OA
BRANCH   8   9
HETATM    9  C4  UNL     1       0.268  -0.618  -0.107  1.00  0.00     0.366 C 
HETATM   10  N1  UNL     1      -1.114  -0.309   0.172  1.00  0.00    -0.333 N 
ATOM     11  H1  UNL     1      -1.353   0.600   0.568  1.00  0.00     0.165 HD
HETATM   12  O1  UNL     1       0.594  -1.741  -0.599  1.00  0.00    -0.238 OA
BRANCH  10  13
HETATM   13  C3  UNL     1      -2.144  -1.244  -0.093  1.00  0.00     0.151 C 
BRANCH  13  14
HETATM   14  C2  UNL     1      -3.484  -0.780   0.244  1.00  0.00    -0.018 C 
HETATM   15  C1  UNL     1      -3.771   0.391   0.751  1.00  0.00     0.008 C 
ENDBRANCH  13  14
ENDBRANCH  10  13
ENDBRANCH   8   9
ENDBRANCH   1   8
TORSDOF 4
