REMARK  5 active torsions:
REMARK  status: ('A' for Active; 'I' for Inactive)
REMARK    1  A    between atoms: C2_2  and  O1_3 
REMARK    2  A    between atoms: O1_3  and  C3_4 
REMARK    3  A    between atoms: C3_4  and  C4_6 
REMARK    4  A    between atoms: C5_7  and  C6_8 
REMARK    5  A    between atoms: N1_10  and  O3_12 
ROOT
HETATM    1  C4  UNL     1       0.240  -0.725  -0.356  1.00  0.00     0.138 A 
HETATM    2  C5  UNL     1       0.928   0.520   0.064  1.00  0.00     0.090 A 
HETATM    3  C8  UNL     1       0.641   0.375  -1.357  1.00  0.00     0.123 A 
HETATM    4  C9  UNL     1       1.582  -0.120  -2.403  1.00  0.00     0.053 C 
HETATM    5  F1  UNL     1      -0.421   1.111  -1.910  1.00  0.00    -0.242 F 
ENDROOT
BRANCH   2   6
HETATM    6  C6  UNL     1       2.226   0.398   0.707  1.00  0.00     0.014 C 
HETATM    7  C7  UNL     1       2.368  -0.456   1.912  1.00  0.00     0.066 C 
HETATM    8  N1  UNL     1       3.241   1.027   0.278  1.00  0.00    -0.277 N 
ATOM      9  H1  UNL     1       4.125   0.900   0.770  1.00  0.00     0.193 HD
BRANCH   8  10
HETATM   10  O3  UNL     1       3.225   1.863  -0.800  1.00  0.00    -0.290 OA
ATOM     11  H3  UNL     1       3.985   2.334  -1.121  1.00  0.00     0.244 HD
ENDBRANCH   8  10
ENDBRANCH   2   6
BRANCH   1  12
HETATM   12  C3  UNL     1      -1.224  -0.872  -0.153  1.00  0.00     0.267 C 
HETATM   13  O2  UNL     1      -1.766  -1.998  -0.039  1.00  0.00    -0.265 OA
BRANCH  12  14
HETATM   14  O1  UNL     1      -1.994   0.275  -0.092  1.00  0.00    -0.321 OA
BRANCH  14  15
HETATM   15  C2  UNL     1      -3.400   0.257   0.099  1.00  0.00     0.174 C 
HETATM   16  C1  UNL     1      -3.678  -0.419   1.413  1.00  0.00     0.034 C 
ENDBRANCH  14  15
ENDBRANCH  12  14
ENDBRANCH   1  12
TORSDOF 5
