REMARK  4 active torsions:
REMARK  status: ('A' for Active; 'I' for Inactive)
REMARK    1  A    between atoms: C2_2  and  C4_4 
REMARK    2  A    between atoms: N1_8  and  C7_9 
REMARK    3  A    between atoms: C7_9  and  C8_10 
REMARK    4  A    between atoms: N2_12  and  O1_13 
ROOT
HETATM    1  C4  UNL     1      -0.823  -0.337  -0.541  1.00  0.00     0.144 C 
HETATM    2  C5  UNL     1      -1.609  -1.614  -0.874  1.00  0.00     0.060 C 
HETATM    3  S1  UNL     1      -0.371   0.388  -2.152  1.00  0.00    -0.108 SA
HETATM    4  C6  UNL     1       1.366  -0.182  -2.035  1.00  0.00     0.221 C 
HETATM    5  N1  UNL     1       1.493  -0.336  -0.636  1.00  0.00    -0.293 N 
HETATM    6  N2  UNL     1       0.412  -0.715  -0.001  1.00  0.00    -0.178 N 
ENDROOT
BRANCH   1   7
HETATM    7  C2  UNL     1      -1.617   0.603   0.253  1.00  0.00    -0.051 C 
HETATM    8  C1  UNL     1      -1.863   1.810  -0.218  1.00  0.00     0.017 C 
HETATM    9  C3  UNL     1      -2.162   0.240   1.586  1.00  0.00     0.046 C 
ENDBRANCH   1   7
BRANCH   6  10
HETATM   10  O1  UNL     1       0.437  -1.743   0.833  1.00  0.00    -0.271 OA
ATOM     11  H1  UNL     1       1.275  -2.000   1.199  1.00  0.00     0.246 HD
ENDBRANCH   6  10
BRANCH   5  12
HETATM   12  C7  UNL     1       2.325   0.671  -0.061  1.00  0.00     0.177 C 
BRANCH  12  13
HETATM   13  C8  UNL     1       2.478   0.529   1.435  1.00  0.00     0.243 C 
HETATM   14  F1  UNL     1       3.296   1.543   1.896  1.00  0.00    -0.254 F 
ENDBRANCH  12  13
ENDBRANCH   5  12
TORSDOF 4
