REMARK  6 active torsions:
REMARK  status: ('A' for Active; 'I' for Inactive)
REMARK    1  A    between atoms: C1_2  and  C2_4 
REMARK    2  A    between atoms: C2_4  and  C3_5 
REMARK    3  A    between atoms: C3_5  and  S1_6 
REMARK    4  A    between atoms: S1_6  and  C4_7 
REMARK    5  A    between atoms: C4_7  and  S2_9 
REMARK    6  A    between atoms: S2_9  and  C5_10 
ROOT
HETATM    1  S1  UNL     1       1.077   0.015   0.226  1.00  0.00    -0.080 SA
ENDROOT
BRANCH   1   2
HETATM    2  C3  UNL     1      -0.612  -0.294  -0.358  1.00  0.00     0.092 C 
BRANCH   2   3
HETATM    3  C2  UNL     1      -1.648   0.128   0.639  1.00  0.00     0.110 C 
BRANCH   3   4
HETATM    4  C1  UNL     1      -2.997  -0.155   0.095  1.00  0.00     0.231 C 
HETATM    5  N1  UNL     1      -4.127   0.176   0.885  1.00  0.00    -0.062 NA
HETATM    6  O1  UNL     1      -3.123  -0.675  -1.037  1.00  0.00    -0.277 OA
ENDBRANCH   3   4
ENDBRANCH   2   3
ENDBRANCH   1   2
BRANCH   1   7
HETATM    7  C4  UNL     1       2.191  -0.528  -1.047  1.00  0.00     0.247 C 
HETATM    8  O2  UNL     1       1.802  -1.006  -2.090  1.00  0.00    -0.273 OA
BRANCH   7   9
HETATM    9  S2  UNL     1       3.945  -0.372  -0.801  1.00  0.00    -0.066 SA
BRANCH   9  10
HETATM   10  C5  UNL     1       4.265   0.361   0.820  1.00  0.00     0.197 C 
HETATM   11 CL1  UNL     1       3.666   2.040   0.834  1.00  0.00    -0.119 Cl
ENDBRANCH   9  10
ENDBRANCH   7   9
ENDBRANCH   1   7
TORSDOF 6
