REMARK  5 active torsions:
REMARK  status: ('A' for Active; 'I' for Inactive)
REMARK    1  A    between atoms: C6_6  and  N1_7 
REMARK    2  A    between atoms: N1_7  and  C7_9 
REMARK    3  A    between atoms: C7_9  and  C8_10 
REMARK    4  A    between atoms: C8_10  and  C9_11 
REMARK    5  A    between atoms: C9_11  and  N2_12 
ROOT
HETATM    1  N1  UNL     1      -0.769   0.801  -0.292  1.00  0.00    -0.417 N 
ATOM      2  H1  UNL     1      -0.544   1.632  -0.839  1.00  0.00     0.153 HD
ENDROOT
BRANCH   1   3
HETATM    3  C6  UNL     1      -2.070   0.610   0.209  1.00  0.00     0.080 C 
HETATM    4  C5  UNL     1      -2.163   0.574   1.721  1.00  0.00     0.025 C 
HETATM    5  C4  UNL     1      -3.620   0.931   2.047  1.00  0.00     0.002 C 
HETATM    6  C3  UNL     1      -4.592   0.035   1.355  1.00  0.00     0.005 C 
HETATM    7  C2  UNL     1      -4.319  -0.235  -0.082  1.00  0.00    -0.013 C 
HETATM    8  C1  UNL     1      -4.804   0.859  -1.001  1.00  0.00     0.010 C 
HETATM    9  C14 UNL     1      -2.846  -0.563  -0.310  1.00  0.00     0.007 C 
HETATM   10  C15 UNL     1      -2.552  -0.839  -1.744  1.00  0.00     0.012 C 
ENDBRANCH   1   3
BRANCH   1  11
HETATM   11  C7  UNL     1       0.223  -0.172  -0.029  1.00  0.00     0.116 C 
BRANCH  11  12
HETATM   12  C8  UNL     1       1.586   0.223  -0.554  1.00  0.00     0.049 C 
BRANCH  12  13
HETATM   13  C9  UNL     1       2.627  -0.836  -0.278  1.00  0.00     0.274 C 
BRANCH  13  14
HETATM   14  N2  UNL     1       3.930  -0.403  -0.763  1.00  0.00     0.088 N 
HETATM   15  C10 UNL     1       4.389   0.718   0.069  1.00  0.00     0.272 C 
HETATM   16  C11 UNL     1       5.871   0.711  -0.178  1.00  0.00     0.032 C 
HETATM   17  C12 UNL     1       6.205  -0.762  -0.201  1.00  0.00     0.032 C 
HETATM   18  C13 UNL     1       4.891  -1.437  -0.453  1.00  0.00     0.272 C 
ENDBRANCH  13  14
ENDBRANCH  12  13
ENDBRANCH  11  12
ENDBRANCH   1  11
TORSDOF 5
