REMARK  6 active torsions:
REMARK  status: ('A' for Active; 'I' for Inactive)
REMARK    1  A    between atoms: N1_2  and  C3_4 
REMARK    2  A    between atoms: C3_4  and  C4_5 
REMARK    3  A    between atoms: C3_4  and  C10_14 
REMARK    4  A    between atoms: C4_5  and  N2_6 
REMARK    5  A    between atoms: N2_6  and  C5_9 
REMARK    6  A    between atoms: C5_9  and  C6_10 
ROOT
HETATM    1  C3  UNL     1      -0.943  -0.364  -0.387  1.00  0.00     0.251 C 
ENDROOT
BRANCH   1   2
HETATM    2  N1  UNL     1      -0.990  -1.754  -0.624  1.00  0.00     0.086 N 
HETATM    3  C1  UNL     1      -0.047  -2.210  -1.646  1.00  0.00     0.310 C 
HETATM    4  C2  UNL     1      -0.867  -2.585   0.550  1.00  0.00     0.310 C 
ENDBRANCH   1   2
BRANCH   1   5
HETATM    5  C4  UNL     1       0.235   0.248   0.251  1.00  0.00     0.268 C 
BRANCH   5   6
HETATM    6  N2  UNL     1       1.500   0.101  -0.424  1.00  0.00    -0.073 N 
ATOM      7  H22 UNL     1       1.763  -0.878  -0.534  1.00  0.00     0.277 HD
ATOM      8  H21 UNL     1       1.438   0.350  -1.411  1.00  0.00     0.277 HD
BRANCH   6   9
HETATM    9  C5  UNL     1       2.539   0.878   0.279  1.00  0.00     0.237 C 
BRANCH   9  10
HETATM   10  C6  UNL     1       3.813   0.680  -0.479  1.00  0.00     0.011 C 
HETATM   11  C7  UNL     1       4.294  -0.754  -0.586  1.00  0.00     0.006 C 
HETATM   12  C8  UNL     1       5.717  -0.189  -0.480  1.00  0.00     0.001 C 
HETATM   13  C9  UNL     1       5.080   0.935   0.349  1.00  0.00     0.006 C 
ENDBRANCH   9  10
ENDBRANCH   6   9
ENDBRANCH   5   6
ENDBRANCH   1   5
BRANCH   1  14
HETATM   14  C10 UNL     1      -2.262   0.196  -0.002  1.00  0.00     0.021 C 
HETATM   15  C11 UNL     1      -2.942  -0.290   1.209  1.00  0.00     0.007 C 
HETATM   16  C12 UNL     1      -4.402   0.143   1.105  1.00  0.00     0.000 C 
HETATM   17  C13 UNL     1      -4.630   1.556   0.785  1.00  0.00     0.000 C 
HETATM   18  C14 UNL     1      -3.591   2.239  -0.038  1.00  0.00     0.000 C 
HETATM   19  C15 UNL     1      -2.209   1.726   0.121  1.00  0.00     0.007 C 
ENDBRANCH   1  14
TORSDOF 6
