REMARK  3 active torsions:
REMARK  status: ('A' for Active; 'I' for Inactive)
REMARK    1  A    between atoms: C2_2  and  N1_4 
REMARK    2  A    between atoms: C2_2  and  C4_8 
REMARK    3  A    between atoms: C4_8  and  C5_9 
ROOT
HETATM    1  C5  UNL     1       0.480  -0.308   0.005  1.00  0.00    -0.002 C 
HETATM    2  C6  UNL     1       0.631  -1.287   1.132  1.00  0.00     0.013 C 
HETATM    3  C7  UNL     1       2.067  -1.762   1.137  1.00  0.00     0.005 C 
HETATM    4  C8  UNL     1       2.663  -1.011  -0.027  1.00  0.00    -0.010 C 
HETATM    5  C9  UNL     1       2.743   0.419   0.381  1.00  0.00     0.048 C 
HETATM    6  C10 UNL     1       1.292   0.928   0.247  1.00  0.00     0.108 C 
HETATM    7  C11 UNL     1       1.325   1.903  -0.892  1.00  0.00     0.052 C 
HETATM    8  F1  UNL     1       0.928   1.577   1.410  1.00  0.00    -0.243 F 
HETATM    9  C12 UNL     1       1.482  -1.012  -0.972  1.00  0.00     0.017 C 
ENDROOT
BRANCH   1  10
HETATM   10  C4  UNL     1      -0.792  -0.217  -0.664  1.00  0.00     0.050 C 
BRANCH  10  11
HETATM   11  C2  UNL     1      -2.064   0.107  -0.042  1.00  0.00     0.117 C 
HETATM   12  C1  UNL     1      -3.172   0.086  -1.127  1.00  0.00     0.045 C 
HETATM   13  C3  UNL     1      -2.209   1.485   0.556  1.00  0.00     0.045 C 
BRANCH  11  14
HETATM   14  N1  UNL     1      -2.552  -0.807   0.964  1.00  0.00    -0.071 N 
ATOM     15  H13 UNL     1      -3.486  -0.591   1.312  1.00  0.00     0.275 HD
ATOM     16  H12 UNL     1      -2.780  -1.737   0.613  1.00  0.00     0.275 HD
ATOM     17  H11 UNL     1      -1.823  -0.793   1.678  1.00  0.00     0.275 HD
ENDBRANCH  11  14
ENDBRANCH  10  11
ENDBRANCH   1  10
TORSDOF 3
