REMARK  2 active torsions:
REMARK  status: ('A' for Active; 'I' for Inactive)
REMARK    1  A    between atoms: C5_6  and  C6_7 
REMARK    2  A    between atoms: C6_7  and  C7_8 
ROOT
HETATM    1  C7  UNL     1       0.969  -0.454  -0.094  1.00  0.00     0.186 C 
HETATM    2  C8  UNL     1       1.356   0.982  -0.281  1.00  0.00     0.033 C 
HETATM    3  C9  UNL     1       2.831   1.124  -0.003  1.00  0.00     0.004 C 
HETATM    4  C10 UNL     1       3.537   0.012  -0.766  1.00  0.00     0.027 C 
HETATM    5  C11 UNL     1       3.230  -1.286  -0.055  1.00  0.00     0.232 C 
HETATM    6  N1  UNL     1       1.945  -1.257   0.600  1.00  0.00    -0.071 N 
ATOM      7  H11 UNL     1       1.594  -2.203   0.752  1.00  0.00     0.277 HD
ATOM      8  H12 UNL     1       2.039  -0.955   1.570  1.00  0.00     0.277 HD
ENDROOT
BRANCH   1   9
HETATM    9  C6  UNL     1      -0.283  -0.493   0.757  1.00  0.00     0.039 C 
BRANCH   9  10
HETATM   10  C5  UNL     1      -1.438   0.231   0.137  1.00  0.00     0.006 C 
HETATM   11  C1  UNL     1      -2.622   0.121   1.076  1.00  0.00     0.086 C 
HETATM   12 CL1  UNL     1      -2.909  -1.600   1.383  1.00  0.00    -0.125 Cl
HETATM   13  C2  UNL     1      -3.737   0.658   0.179  1.00  0.00     0.020 C 
HETATM   14  C3  UNL     1      -3.337   0.242  -1.222  1.00  0.00     0.002 C 
HETATM   15  C4  UNL     1      -1.973  -0.410  -1.098  1.00  0.00     0.006 C 
ENDBRANCH   9  10
ENDBRANCH   1   9
TORSDOF 2
