REMARK  3 active torsions:
REMARK  status: ('A' for Active; 'I' for Inactive)
REMARK    1  A    between atoms: C2_2  and  N1_3 
REMARK    2  A    between atoms: C2_2  and  N2_11 
REMARK    3  A    between atoms: N1_3  and  C3_5 
ROOT
HETATM    1  N1  UNL     1      -0.475   0.489   0.238  1.00  0.00    -0.359 N 
ATOM      2  H1  UNL     1      -0.264   1.297   0.824  1.00  0.00     0.158 HD
ENDROOT
BRANCH   1   3
HETATM    3  C2  UNL     1       0.520  -0.485  -0.067  1.00  0.00     0.316 C 
HETATM    4  C1  UNL     1       0.861  -0.625  -1.511  1.00  0.00     0.066 C 
BRANCH   3   5
HETATM    5  N2  UNL     1       1.724  -0.116   0.658  1.00  0.00     0.110 N 
HETATM    6  C8  UNL     1       2.248   1.157   0.233  1.00  0.00     0.275 C 
HETATM    7  C9  UNL     1       3.500   0.904  -0.555  1.00  0.00     0.032 C 
HETATM    8  C10 UNL     1       3.933  -0.469  -0.130  1.00  0.00     0.032 C 
HETATM    9  C11 UNL     1       2.763  -1.088   0.602  1.00  0.00     0.275 C 
ENDBRANCH   3   5
ENDBRANCH   1   3
BRANCH   1  10
HETATM   10  C3  UNL     1      -1.756   0.294  -0.299  1.00  0.00     0.173 C 
HETATM   11  F1  UNL     1      -1.860   0.522  -1.655  1.00  0.00    -0.220 F 
HETATM   12  C4  UNL     1      -2.706   1.303   0.356  1.00  0.00     0.066 C 
HETATM   13  C5  UNL     1      -4.011   0.869  -0.274  1.00  0.00     0.005 C 
HETATM   14  C6  UNL     1      -3.927  -0.633  -0.196  1.00  0.00     0.005 C 
HETATM   15  C7  UNL     1      -2.456  -0.986   0.024  1.00  0.00     0.066 C 
ENDBRANCH   1  10
TORSDOF 3
