REMARK  2 active torsions:
REMARK  status: ('A' for Active; 'I' for Inactive)
REMARK    1  A    between atoms: C8_11  and  C9_12 
REMARK    2  A    between atoms: C9_12  and  C10_13 
ROOT
HETATM    1  C1  UNL     1      -1.005   2.366   0.876  1.00  0.00     0.017 C 
HETATM    2  C2  UNL     1      -0.931   1.026   0.133  1.00  0.00    -0.020 C 
HETATM    3  C3  UNL     1      -1.056   1.349  -1.332  1.00  0.00     0.017 C 
HETATM    4  C4  UNL     1      -2.144   0.233   0.538  1.00  0.00     0.241 C 
HETATM    5  N1  UNL     1      -2.341  -0.959  -0.239  1.00  0.00    -0.074 N 
ATOM      6  H11 UNL     1      -2.057  -0.813  -1.208  1.00  0.00     0.277 HD
ATOM      7  H12 UNL     1      -3.335  -1.140  -0.382  1.00  0.00     0.277 HD
HETATM    8  C5  UNL     1      -1.682  -2.115   0.323  1.00  0.00     0.237 C 
HETATM    9  C6  UNL     1      -0.196  -1.928   0.453  1.00  0.00     0.012 C 
HETATM   10  C7  UNL     1       0.486  -1.626  -0.838  1.00  0.00     0.011 C 
HETATM   11  C8  UNL     1       1.060  -0.219  -0.723  1.00  0.00    -0.007 C 
HETATM   12  C11 UNL     1       0.367   0.363   0.491  1.00  0.00    -0.001 C 
HETATM   13  C12 UNL     1       0.208  -0.840   1.375  1.00  0.00     0.012 C 
ENDROOT
BRANCH  11  14
HETATM   14  C9  UNL     1       2.558  -0.321  -0.539  1.00  0.00     0.036 C 
BRANCH  14  15
HETATM   15  C10 UNL     1       3.243   0.997  -0.415  1.00  0.00     0.222 C 
HETATM   16  F1  UNL     1       4.608   0.716  -0.254  1.00  0.00    -0.255 F 
ENDBRANCH  14  15
ENDBRANCH  11  14
TORSDOF 2
