REMARK  2 active torsions:
REMARK  status: ('A' for Active; 'I' for Inactive)
REMARK    1  A    between atoms: C5_6  and  C6_7 
REMARK    2  A    between atoms: C6_7  and  C7_8 
ROOT
HETATM    1  F1  UNL     1      -4.025   0.345   1.513  1.00  0.00    -0.249 F 
HETATM    2  C1  UNL     1      -3.391   0.794   0.361  1.00  0.00     0.174 C 
HETATM    3  C2  UNL     1      -3.394  -0.303  -0.656  1.00  0.00     0.070 C 
HETATM    4  C3  UNL     1      -2.040  -1.007  -0.619  1.00  0.00     0.189 C 
HETATM    5  C4  UNL     1      -1.103  -0.177  -1.463  1.00  0.00     0.039 C 
HETATM    6  C5  UNL     1      -0.109   0.377  -0.430  1.00  0.00     0.018 C 
HETATM    7  C11 UNL     1      -0.956   0.357   0.800  1.00  0.00     0.193 C 
HETATM    8  C12 UNL     1      -2.051   1.389   0.629  1.00  0.00     0.070 C 
HETATM    9  N1  UNL     1      -1.579  -0.941   0.735  1.00  0.00    -0.066 N 
ATOM     10  H11 UNL     1      -0.980  -1.716   1.020  1.00  0.00     0.278 HD
ATOM     11  H12 UNL     1      -2.299  -1.104   1.439  1.00  0.00     0.278 HD
ENDROOT
BRANCH   6  12
HETATM   12  C6  UNL     1       1.052  -0.558  -0.402  1.00  0.00     0.011 C 
BRANCH  12  13
HETATM   13  C7  UNL     1       2.127  -0.172   0.557  1.00  0.00    -0.014 C 
HETATM   14  C8  UNL     1       3.265  -1.185   0.513  1.00  0.00     0.005 C 
HETATM   15  C9  UNL     1       4.211   0.002   0.333  1.00  0.00     0.001 C 
HETATM   16  C10 UNL     1       3.030   0.944   0.161  1.00  0.00     0.005 C 
ENDBRANCH  12  13
ENDBRANCH   6  12
TORSDOF 2
