REMARK  3 active torsions:
REMARK  status: ('A' for Active; 'I' for Inactive)
REMARK    1  A    between atoms: N1_2  and  C2_5 
REMARK    2  A    between atoms: C9_12  and  C10_13 
REMARK    3  A    between atoms: C11_14  and  C12_15 
ROOT
HETATM    1  C2  UNL     1      -1.268   0.424   0.154  1.00  0.00     0.129 C 
HETATM    2  C3  UNL     1      -0.881   1.053   1.455  1.00  0.00     0.047 C 
HETATM    3  C4  UNL     1      -2.730   0.003   0.265  1.00  0.00     0.039 C 
HETATM    4  C5  UNL     1      -2.899  -1.485   0.342  1.00  0.00     0.003 C 
HETATM    5  C6  UNL     1      -1.829  -2.011   1.257  1.00  0.00     0.005 C 
HETATM    6  C7  UNL     1      -0.553  -1.973   0.445  1.00  0.00    -0.009 C 
HETATM    7  C8  UNL     1      -0.582  -3.183  -0.469  1.00  0.00     0.011 C 
HETATM    8  C9  UNL     1      -0.414  -0.684  -0.334  1.00  0.00     0.047 C 
ENDROOT
BRANCH   1   9
HETATM    9  N1  UNL     1      -1.267   1.510  -0.808  1.00  0.00    -0.070 N 
HETATM   10  C1  UNL     1      -2.206   2.539  -0.542  1.00  0.00     0.267 C 
ATOM     11  H12 UNL     1      -1.398   1.147  -1.752  1.00  0.00     0.277 HD
ATOM     12  H11 UNL     1      -0.329   1.901  -0.899  1.00  0.00     0.277 HD
ENDBRANCH   1   9
BRANCH   8  13
HETATM   13  C10 UNL     1       0.985  -0.462  -0.596  1.00  0.00    -0.023 C 
HETATM   14  C11 UNL     1       1.814   0.490  -0.286  1.00  0.00    -0.026 C 
BRANCH  14  15
HETATM   15  C12 UNL     1       3.250   0.553  -0.647  1.00  0.00    -0.001 C 
HETATM   16  C13 UNL     1       3.593   1.778  -1.468  1.00  0.00     0.013 C 
HETATM   17  C14 UNL     1       4.114   0.612   0.595  1.00  0.00     0.013 C 
ENDBRANCH  14  15
ENDBRANCH   8  13
TORSDOF 3
