REMARK  3 active torsions:
REMARK  status: ('A' for Active; 'I' for Inactive)
REMARK    1  A    between atoms: C2_2  and  C3_3 
REMARK    2  A    between atoms: C3_3  and  C4_4 
REMARK    3  A    between atoms: C4_4  and  C5_5 
ROOT
HETATM    1  C3  UNL     1       0.121  -0.350  -0.274  1.00  0.00     0.016 C 
HETATM    2  C7  UNL     1       0.123   0.579   0.981  1.00  0.00     0.022 C 
HETATM    3  C8  UNL     1      -1.277   0.580   1.634  1.00  0.00     0.002 C 
HETATM    4  C9  UNL     1      -2.402   1.135   0.925  1.00  0.00     0.001 C 
HETATM    5  C10 UNL     1      -3.333   0.308   0.067  1.00  0.00     0.011 C 
HETATM    6  C11 UNL     1      -2.569  -0.432  -1.084  1.00  0.00     0.081 C 
HETATM    7  C12 UNL     1      -1.208  -0.424  -0.732  1.00  0.00    -0.173 C 
ENDROOT
BRANCH   1   8
HETATM    8  C2  UNL     1       0.791  -1.644   0.209  1.00  0.00     0.017 C 
HETATM    9  C1  UNL     1       1.067  -2.614  -0.867  1.00  0.00     0.007 C 
ENDBRANCH   1   8
BRANCH   1  10
HETATM   10  C4  UNL     1       1.074   0.265  -1.263  1.00  0.00     0.081 C 
BRANCH  10  11
HETATM   11  C5  UNL     1       2.377   0.553  -0.642  1.00  0.00     0.045 A 
HETATM   12  C6  UNL     1       2.799   1.710  -0.039  1.00  0.00     0.135 A 
HETATM   13  N1  UNL     1       4.049   1.531   0.390  1.00  0.00    -0.296 N 
HETATM   14  N2  UNL     1       4.404   0.302   0.069  1.00  0.00    -0.243 N 
ATOM     15  H1  UNL     1       4.625   2.218   0.877  1.00  0.00     0.187 HD
HETATM   16  N3  UNL     1       3.419  -0.311  -0.553  1.00  0.00    -0.289 N 
ATOM     17  H2  UNL     1       5.312  -0.114   0.274  1.00  0.00     0.208 HD
ATOM     18  H3  UNL     1       3.436  -1.268  -0.906  1.00  0.00     0.188 HD
ENDBRANCH  10  11
ENDBRANCH   1  10
TORSDOF 3
