REMARK  3 active torsions:
REMARK  status: ('A' for Active; 'I' for Inactive)
REMARK    1  A    between atoms: C2_3  and  C3_4 
REMARK    2  A    between atoms: C3_4  and  C4_5 
REMARK    3  A    between atoms: C4_5  and  C5_6 
ROOT
HETATM    1  N1  UNL     1      -0.973  -1.055  -2.606  1.00  0.00    -0.196 NA
HETATM    2  C1  UNL     1      -0.785  -0.729  -1.491  1.00  0.00     0.069 C 
HETATM    3  C2  UNL     1      -0.527  -0.328  -0.107  1.00  0.00     0.049 C 
HETATM    4  C8  UNL     1      -1.019   1.036   0.195  1.00  0.00     0.024 C 
HETATM    5  C9  UNL     1      -2.223   1.435  -0.630  1.00  0.00     0.002 C 
HETATM    6  C10 UNL     1      -3.499   1.130   0.083  1.00  0.00     0.000 C 
HETATM    7  C11 UNL     1      -3.491  -0.118   0.898  1.00  0.00     0.000 C 
HETATM    8  C12 UNL     1      -2.761  -1.269   0.306  1.00  0.00     0.002 C 
HETATM    9  C13 UNL     1      -1.310  -1.367   0.736  1.00  0.00     0.024 C 
ENDROOT
BRANCH   3  10
HETATM   10  C3  UNL     1       0.931  -0.447   0.242  1.00  0.00     0.030 C 
BRANCH  10  11
HETATM   11  C4  UNL     1       1.810   0.386  -0.622  1.00  0.00     0.060 C 
BRANCH  11  12
HETATM   12  C5  UNL     1       3.259   0.242  -0.249  1.00  0.00     0.025 A 
HETATM   13  C6  UNL     1       4.198  -0.647  -0.713  1.00  0.00     0.113 A 
HETATM   14  N2  UNL     1       5.385  -0.437  -0.117  1.00  0.00    -0.360 N 
HETATM   15  C7  UNL     1       5.203   0.589   0.728  1.00  0.00     0.180 A 
ATOM     16  H2  UNL     1       6.250  -0.954  -0.276  1.00  0.00     0.166 HD
HETATM   17  N3  UNL     1       3.906   1.005   0.649  1.00  0.00    -0.355 N 
ATOM     18  H3  UNL     1       3.495   1.770   1.184  1.00  0.00     0.166 HD
ENDBRANCH  11  12
ENDBRANCH  10  11
ENDBRANCH   3  10
TORSDOF 3
