REMARK  4 active torsions:
REMARK  status: ('A' for Active; 'I' for Inactive)
REMARK    1  A    between atoms: C2_2  and  N1_3 
REMARK    2  A    between atoms: C5_10  and  C6_11 
REMARK    3  A    between atoms: C6_11  and  C7_12 
REMARK    4  A    between atoms: C7_12  and  C8_13 
ROOT
HETATM    1  C1  UNL     1      -4.185   1.197  -1.008  1.00  0.00     0.046 C 
HETATM    2  C2  UNL     1      -3.360   0.195  -0.238  1.00  0.00     0.124 C 
HETATM    3  C3  UNL     1      -3.178   0.591   1.204  1.00  0.00     0.064 C 
HETATM    4  C4  UNL     1      -2.285  -0.458   1.842  1.00  0.00     0.170 C 
HETATM    5  O1  UNL     1      -1.027  -0.316   1.281  1.00  0.00    -0.386 OA
HETATM    6  C5  UNL     1      -0.990  -0.625  -0.071  1.00  0.00     0.123 C 
HETATM    7  C13 UNL     1      -2.018   0.097  -0.881  1.00  0.00     0.070 C 
ENDROOT
BRANCH   6   8
HETATM    8  C6  UNL     1       0.380  -0.151  -0.577  1.00  0.00     0.032 C 
BRANCH   8   9
HETATM    9  C7  UNL     1       1.422  -0.901   0.208  1.00  0.00     0.007 C 
BRANCH   9  10
HETATM   10  C8  UNL     1       2.783  -0.466  -0.258  1.00  0.00    -0.014 C 
HETATM   11  C9  UNL     1       2.970   1.001  -0.046  1.00  0.00     0.004 C 
HETATM   12  C10 UNL     1       4.335   1.159   0.599  1.00  0.00     0.000 C 
HETATM   13  C11 UNL     1       4.983  -0.205   0.513  1.00  0.00     0.000 C 
HETATM   14  C12 UNL     1       3.815  -1.138   0.619  1.00  0.00     0.004 C 
ENDBRANCH   9  10
ENDBRANCH   8   9
ENDBRANCH   6   8
BRANCH   2  15
HETATM   15  N1  UNL     1      -3.994  -1.103  -0.284  1.00  0.00    -0.071 N 
ATOM     16  H13 UNL     1      -4.959  -1.069   0.043  1.00  0.00     0.275 HD
ATOM     17  H12 UNL     1      -4.172  -1.408  -1.241  1.00  0.00     0.275 HD
ATOM     18  H11 UNL     1      -3.436  -1.780   0.236  1.00  0.00     0.275 HD
ENDBRANCH   2  15
TORSDOF 4
