REMARK  4 active torsions:
REMARK  status: ('A' for Active; 'I' for Inactive)
REMARK    1  A    between atoms: C2_2  and  C3_3 
REMARK    2  A    between atoms: C3_3  and  C4_4 
REMARK    3  A    between atoms: C4_4  and  S1_5 
REMARK    4  A    between atoms: S1_5  and  C5_6 
ROOT
HETATM    1  C5  UNL     1       1.066   0.493   0.575  1.00  0.00     0.184 C 
HETATM    2  N1  UNL     1       1.092   0.878  -0.820  1.00  0.00    -0.211 N 
ATOM      3  H1  UNL     1       0.319   0.620  -1.434  1.00  0.00     0.179 HD
HETATM    4  C6  UNL     1       2.200   1.621  -1.340  1.00  0.00     0.672 C 
HETATM    5  N2  UNL     1       2.024   2.363  -2.369  1.00  0.00    -0.235 N 
ATOM      6  H21 UNL     1       2.813   2.892  -2.739  1.00  0.00     0.174 HD
ATOM      7  H22 UNL     1       1.130   2.459  -2.851  1.00  0.00     0.174 HD
HETATM    8  N3  UNL     1       3.444   1.487  -0.670  1.00  0.00    -0.199 N 
ATOM      9  H3  UNL     1       4.259   1.999  -1.006  1.00  0.00     0.183 HD
HETATM   10  C7  UNL     1       3.547   0.727   0.353  1.00  0.00     0.021 C 
HETATM   11  C8  UNL     1       4.891   0.633   1.011  1.00  0.00     0.065 C 
HETATM   12  C9  UNL     1       2.432  -0.058   0.911  1.00  0.00     0.171 C 
HETATM   13  C10 UNL     1       2.444  -1.448   0.419  1.00  0.00     0.072 C 
HETATM   14  N4  UNL     1       2.458  -2.536   0.017  1.00  0.00    -0.196 NA
ENDROOT
BRANCH   1  15
HETATM   15  S1  UNL     1      -0.145  -0.806   0.816  1.00  0.00    -0.141 SA
BRANCH  15  16
HETATM   16  C4  UNL     1      -1.836  -0.240   0.522  1.00  0.00     0.076 C 
BRANCH  16  17
HETATM   17  C3  UNL     1      -2.799  -1.377   0.742  1.00  0.00     0.010 C 
BRANCH  17  18
HETATM   18  C2  UNL     1      -4.229  -0.988   0.519  1.00  0.00    -0.004 C 
HETATM   19  C1  UNL     1      -4.496  -0.495  -0.880  1.00  0.00     0.005 C 
ENDBRANCH  17  18
ENDBRANCH  16  17
ENDBRANCH  15  16
ENDBRANCH   1  15
TORSDOF 4
