REMARK  3 active torsions:
REMARK  status: ('A' for Active; 'I' for Inactive)
REMARK    1  A    between atoms: C2_7  and  C3_8 
REMARK    2  A    between atoms: N3_14  and  N4_15 
REMARK    3  A    between atoms: N4_15  and  C9_17 
ROOT
HETATM    1  S1  UNL     1       4.399   1.604   0.089  1.00  0.00    -0.037 SA
HETATM    2  C1  UNL     1       2.805   1.337   0.425  1.00  0.00     0.213 A 
HETATM    3  N1  UNL     1       2.084   2.034   1.343  1.00  0.00    -0.273 N 
ATOM      4  H1  UNL     1       2.442   2.785   1.933  1.00  0.00     0.189 HD
HETATM    5  N2  UNL     1       0.858   1.585   1.347  1.00  0.00    -0.285 N 
ATOM      6  H2  UNL     1       0.101   1.927   1.939  1.00  0.00     0.188 HD
HETATM    7  C2  UNL     1       0.761   0.602   0.445  1.00  0.00     0.124 A 
HETATM    8  N3  UNL     1       1.985   0.458  -0.123  1.00  0.00    -0.218 N 
ENDROOT
BRANCH   7   9
HETATM    9  C3  UNL     1      -0.509  -0.099   0.223  1.00  0.00     0.057 C 
HETATM   10  C4  UNL     1      -1.516   0.955  -0.257  1.00  0.00     0.012 C 
HETATM   11  C5  UNL     1      -2.550   0.157  -1.041  1.00  0.00     0.001 C 
HETATM   12  C6  UNL     1      -3.058  -0.921  -0.124  1.00  0.00     0.000 C 
HETATM   13  C7  UNL     1      -2.602  -0.737   1.302  1.00  0.00     0.001 C 
HETATM   14  C8  UNL     1      -1.092  -0.739   1.432  1.00  0.00     0.012 C 
ENDBRANCH   7   9
BRANCH   8  15
HETATM   15  N4  UNL     1       2.233  -0.484  -1.079  1.00  0.00    -0.312 N 
ATOM     16  H4  UNL     1       1.436  -1.030  -1.407  1.00  0.00     0.182 HD
BRANCH  15  17
HETATM   17  C9  UNL     1       3.504  -0.778  -1.664  1.00  0.00     0.254 C 
HETATM   18 CL1  UNL     1       4.632  -1.571  -0.518  1.00  0.00    -0.107 Cl
ENDBRANCH  15  17
ENDBRANCH   8  15
TORSDOF 3
