REMARK  4 active torsions:
REMARK  status: ('A' for Active; 'I' for Inactive)
REMARK    1  A    between atoms: O1_2  and  C2_3 
REMARK    2  A    between atoms: C2_3  and  C3_5 
REMARK    3  A    between atoms: C5_7  and  N1_8 
REMARK       I    between atoms: N1_8  and  C6_10 
REMARK       I    between atoms: C6_10  and  N3_14 
REMARK    4  A    between atoms: N3_14  and  C7_16 
ROOT
HETATM    1  N1  UNL     1      -0.238  -0.171   1.465  1.00  0.00    -0.188 N 
ATOM      2  H1  UNL     1      -0.008   0.223   2.377  1.00  0.00     0.184 HD
HETATM    3  C6  UNL     1      -1.586  -0.539   1.175  1.00  0.00     0.702 C 
HETATM    4  N2  UNL     1      -1.964  -1.739   1.337  1.00  0.00    -0.054 N 
ATOM      5  H2  UNL     1      -2.929  -1.994   1.128  1.00  0.00     0.218 HD
HETATM    6  F1  UNL     1      -1.114  -2.678   1.779  1.00  0.00    -0.086 F 
HETATM    7  N3  UNL     1      -2.455   0.487   0.709  1.00  0.00    -0.220 N 
ATOM      8  H3  UNL     1      -2.421   1.386   1.190  1.00  0.00     0.178 HD
ENDROOT
BRANCH   1   9
HETATM    9  C5  UNL     1       0.784  -0.346   0.501  1.00  0.00     0.074 A 
HETATM   10  C4  UNL     1       2.110  -0.029   0.670  1.00  0.00     0.075 A 
HETATM   11  C3  UNL     1       2.780  -0.356  -0.513  1.00  0.00     0.152 A 
HETATM   12  O3  UNL     1       1.882  -0.834  -1.310  1.00  0.00    -0.314 OA
HETATM   13  C10 UNL     1       0.686  -0.855  -0.772  1.00  0.00     0.173 A 
BRANCH  11  14
HETATM   14  C2  UNL     1       4.216  -0.173  -0.749  1.00  0.00     0.317 C 
HETATM   15  O2  UNL     1       4.674  -0.516  -1.868  1.00  0.00    -0.257 OA
BRANCH  14  16
HETATM   16  O1  UNL     1       5.076   0.346   0.177  1.00  0.00    -0.321 OA
HETATM   17  C1  UNL     1       6.463   0.529  -0.036  1.00  0.00     0.213 C 
ENDBRANCH  14  16
ENDBRANCH  11  14
ENDBRANCH   1   9
BRANCH   7  18
HETATM   18  C7  UNL     1      -3.366   0.358  -0.373  1.00  0.00     0.091 C 
HETATM   19  C8  UNL     1      -4.399  -0.721  -0.174  1.00  0.00     0.032 C 
HETATM   20  C9  UNL     1      -4.111   1.661  -0.563  1.00  0.00     0.032 C 
ENDBRANCH   7  18
TORSDOF 4
