REMARK  4 active torsions:
REMARK  status: ('A' for Active; 'I' for Inactive)
REMARK    1  A    between atoms: C2_2  and  O1_3 
REMARK    2  A    between atoms: O1_3  and  C3_4 
REMARK    3  A    between atoms: C4_5  and  C5_6 
REMARK    4  A    between atoms: C9_15  and  N4_16 
ROOT
HETATM    1  C5  UNL     1      -1.917  -0.354   0.476  1.00  0.00     0.171 C 
HETATM    2  C6  UNL     1      -1.557  -1.761   0.366  1.00  0.00     0.054 C 
HETATM    3  C7  UNL     1      -2.846  -0.187   1.630  1.00  0.00     0.089 C 
HETATM    4  N1  UNL     1      -3.562  -0.053   2.529  1.00  0.00    -0.195 NA
HETATM    5  C8  UNL     1      -2.668  -0.007  -0.773  1.00  0.00     0.089 C 
HETATM    6  N2  UNL     1      -3.245   0.278  -1.722  1.00  0.00    -0.195 NA
ENDROOT
BRANCH   1   7
HETATM    7  C4  UNL     1      -0.810   0.632   0.613  1.00  0.00     0.073 A 
HETATM    8  C3  UNL     1       0.245   0.996  -0.154  1.00  0.00     0.130 A 
HETATM    9  C9  UNL     1       1.017   2.037   0.317  1.00  0.00     0.140 A 
HETATM   10  N3  UNL     1       0.681   2.593   1.463  1.00  0.00    -0.310 N 
HETATM   11  S1  UNL     1      -0.675   1.745   1.950  1.00  0.00    -0.012 SA
ATOM     12  H3  UNL     1       1.143   3.365   1.944  1.00  0.00     0.176 HD
BRANCH   8  13
HETATM   13  O1  UNL     1       0.593   0.369  -1.387  1.00  0.00    -0.347 OA
BRANCH  13  14
HETATM   14  C2  UNL     1       1.666  -0.481  -1.576  1.00  0.00     0.171 C 
HETATM   15  C1  UNL     1       1.802  -1.722  -0.778  1.00  0.00     0.034 C 
ENDBRANCH  13  14
ENDBRANCH   8  13
BRANCH   9  16
HETATM   16  N4  UNL     1       2.074   2.486  -0.349  1.00  0.00    -0.383 N 
ATOM     17  H42 UNL     1       2.334   2.055  -1.236  1.00  0.00     0.157 HD
ATOM     18  H41 UNL     1       2.645   3.256  -0.001  1.00  0.00     0.157 HD
ENDBRANCH   9  16
ENDBRANCH   1   7
TORSDOF 4
