REMARK  5 active torsions:
REMARK  status: ('A' for Active; 'I' for Inactive)
REMARK    1  A    between atoms: S1_2  and  C2_3 
REMARK    2  A    between atoms: C2_3  and  C3_7 
REMARK    3  A    between atoms: C3_7  and  C4_8 
REMARK    4  A    between atoms: C3_7  and  N2_10 
REMARK    5  A    between atoms: N2_10  and  N3_12 
ROOT
HETATM    1  N2  UNL     1       0.795  -0.194   0.292  1.00  0.00    -0.324 N 
ATOM      2  H2  UNL     1       0.826   0.484  -0.469  1.00  0.00     0.181 HD
ENDROOT
BRANCH   1   3
HETATM    3  C3  UNL     1       2.010  -0.813   0.779  1.00  0.00     0.169 C 
BRANCH   3   4
HETATM    4  C2  UNL     1       3.146  -0.273  -0.001  1.00  0.00     0.065 C 
HETATM    5  N1  UNL     1       3.948  -1.016  -0.634  1.00  0.00    -0.395 N 
ATOM      6  H12 UNL     1       4.731  -0.644  -1.172  1.00  0.00     0.156 HD
ATOM      7  H11 UNL     1       3.817  -2.027  -0.613  1.00  0.00     0.156 HD
BRANCH   4   8
HETATM    8  S1  UNL     1       3.375   1.491  -0.038  1.00  0.00    -0.119 SA
HETATM    9  C1  UNL     1       4.823   1.857  -1.057  1.00  0.00     0.097 C 
ENDBRANCH   4   8
ENDBRANCH   3   4
BRANCH   3  10
HETATM   10  C4  UNL     1       1.968  -2.319   0.700  1.00  0.00     0.148 C 
HETATM   11 CL1  UNL     1       0.586  -2.886   1.659  1.00  0.00    -0.128 Cl
ENDBRANCH   3  10
ENDBRANCH   1   3
BRANCH   1  12
HETATM   12  N3  UNL     1      -0.403  -0.539   0.877  1.00  0.00    -0.312 N 
HETATM   13  C5  UNL     1      -1.561  -0.286   0.402  1.00  0.00     0.003 C 
HETATM   14  C6  UNL     1      -1.668   0.434  -0.876  1.00  0.00     0.054 C 
HETATM   15  C10 UNL     1      -2.713  -0.747   1.193  1.00  0.00     0.054 C 
HETATM   16  C7  UNL     1      -3.078   0.863  -1.184  1.00  0.00     0.006 C 
HETATM   17  C8  UNL     1      -3.724   1.228   0.155  1.00  0.00     0.001 C 
HETATM   18  C9  UNL     1      -3.997  -0.057   0.864  1.00  0.00     0.006 C 
ATOM     19  H3  UNL     1      -0.362  -1.039   1.765  1.00  0.00     0.186 HD
ENDBRANCH   1  12
TORSDOF 5
