REMARK  3 active torsions:
REMARK  status: ('A' for Active; 'I' for Inactive)
REMARK    1  A    between atoms: C3_5  and  N2_6 
REMARK    2  A    between atoms: N2_6  and  C4_8 
REMARK    3  A    between atoms: C10_16  and  O1_17 
ROOT
HETATM    1  N1  UNL     1       6.732   0.520  -0.533  1.00  0.00    -0.191 NA
HETATM    2  C1  UNL     1       5.577   0.493  -0.530  1.00  0.00     0.111 C 
HETATM    3  C2  UNL     1       4.119   0.469  -0.549  1.00  0.00     0.139 A 
HETATM    4  S1  UNL     1       3.046   1.212  -1.646  1.00  0.00    -0.039 SA
HETATM    5  C3  UNL     1       1.556   0.680  -0.944  1.00  0.00     0.148 A 
HETATM    6  N3  UNL     1       1.983  -0.038   0.094  1.00  0.00    -0.316 N 
ATOM      7  H3  UNL     1       1.313  -0.492   0.715  1.00  0.00     0.170 HD
HETATM    8  C10 UNL     1       3.260  -0.156   0.309  1.00  0.00     0.170 A 
ENDROOT
BRANCH   8   9
HETATM    9  O1  UNL     1       3.802  -0.903   1.392  1.00  0.00    -0.344 OA
ATOM     10  H1  UNL     1       3.204  -1.338   1.989  1.00  0.00     0.219 HD
ENDBRANCH   8   9
BRANCH   5  11
HETATM   11  N2  UNL     1       0.349   0.933  -1.349  1.00  0.00    -0.366 N 
ATOM     12  H2  UNL     1       0.281   1.517  -2.183  1.00  0.00     0.162 HD
BRANCH  11  13
HETATM   13  C4  UNL     1      -0.878   0.518  -0.803  1.00  0.00     0.083 C 
HETATM   14  C5  UNL     1      -1.241   1.138   0.536  1.00  0.00     0.025 C 
HETATM   15  C6  UNL     1      -2.521   0.439   0.983  1.00  0.00     0.002 C 
HETATM   16  C7  UNL     1      -3.322  -0.060  -0.208  1.00  0.00     0.000 C 
HETATM   17  C8  UNL     1      -2.621  -1.185  -0.942  1.00  0.00     0.002 C 
HETATM   18  C9  UNL     1      -1.120  -0.951  -0.700  1.00  0.00     0.025 C 
ENDBRANCH  11  13
ENDBRANCH   5  11
TORSDOF 3
