REMARK  4 active torsions:
REMARK  status: ('A' for Active; 'I' for Inactive)
REMARK    1  A    between atoms: O1_1  and  C1_3 
REMARK    2  A    between atoms: C3_6  and  N1_7 
REMARK    3  A    between atoms: N1_7  and  N2_9 
REMARK    4  A    between atoms: C4_11  and  C5_12 
ROOT
HETATM    1  N1  UNL     1       2.096  -1.373   0.849  1.00  0.00    -0.280 N 
ATOM      2  H1  UNL     1       2.305  -1.931   1.677  1.00  0.00     0.189 HD
ENDROOT
BRANCH   1   3
HETATM    3  C3  UNL     1       2.999  -0.616   0.256  1.00  0.00     0.165 A 
HETATM    4  S1  UNL     1       2.855   0.381  -1.121  1.00  0.00    -0.060 SA
HETATM    5  C2  UNL     1       4.456   0.967  -1.176  1.00  0.00     0.109 A 
HETATM    6  C1  UNL     1       5.025   0.342  -0.098  1.00  0.00     0.148 A 
HETATM    7  N3  UNL     1       4.274  -0.452   0.611  1.00  0.00    -0.316 N 
ATOM      8  H3  UNL     1       4.654  -0.939   1.423  1.00  0.00     0.170 HD
BRANCH   6   9
HETATM    9  O1  UNL     1       6.401   0.580   0.204  1.00  0.00    -0.346 OA
ATOM     10  H1  UNL     1       6.796   0.147   0.952  1.00  0.00     0.219 HD
ENDBRANCH   6   9
ENDBRANCH   1   3
BRANCH   1  11
HETATM   11  N2  UNL     1       0.831  -1.352   0.255  1.00  0.00    -0.313 N 
HETATM   12  C4  UNL     1       0.194  -0.230   0.255  1.00  0.00     0.084 C 
ATOM     13  H2  UNL     1       0.427  -2.191  -0.162  1.00  0.00     0.185 HD
BRANCH  12  14
HETATM   14  C5  UNL     1      -1.175  -0.147  -0.372  1.00  0.00     0.025 C 
HETATM   15  C6  UNL     1      -1.955  -1.324   0.109  1.00  0.00     0.010 C 
HETATM   16  C7  UNL     1      -3.364  -1.184  -0.486  1.00  0.00     0.001 C 
HETATM   17  C8  UNL     1      -3.948  -0.042   0.350  1.00  0.00     0.000 C 
HETATM   18  C9  UNL     1      -3.223   1.244   0.149  1.00  0.00     0.001 C 
HETATM   19  C10 UNL     1      -1.786   1.173  -0.125  1.00  0.00     0.010 C 
ENDBRANCH  12  14
ENDBRANCH   1  11
TORSDOF 4
