REMARK  3 active torsions:
REMARK  status: ('A' for Active; 'I' for Inactive)
REMARK    1  A    between atoms: C2_2  and  O1_3 
REMARK    2  A    between atoms: O1_3  and  C3_4 
REMARK    3  A    between atoms: C3_4  and  C4_6 
ROOT
HETATM    1  C4  UNL     1       0.222  -1.352   0.372  1.00  0.00     0.135 C 
HETATM    2  N1  UNL     1      -0.340  -2.590   0.776  1.00  0.00    -0.095 NA
HETATM    3  C5  UNL     1      -0.563  -0.420  -0.102  1.00  0.00     0.021 C 
HETATM    4  S1  UNL     1       0.220   1.122  -0.609  1.00  0.00    -0.112 SA
HETATM    5  C6  UNL     1      -1.040   2.074  -1.474  1.00  0.00     0.200 C 
HETATM    6  N2  UNL     1      -2.342   1.926  -0.856  1.00  0.00    -0.370 N 
ATOM      7  H2  UNL     1      -3.067   2.611  -1.068  1.00  0.00     0.161 HD
HETATM    8  C7  UNL     1      -2.644   0.866   0.031  1.00  0.00     0.080 C 
HETATM    9  N3  UNL     1      -3.413   1.047   1.044  1.00  0.00    -0.389 N 
ATOM     10  H31 UNL     1      -3.631   0.283   1.683  1.00  0.00     0.157 HD
ATOM     11  H32 UNL     1      -3.839   1.950   1.253  1.00  0.00     0.157 HD
HETATM   12  C8  UNL     1      -2.011  -0.475  -0.280  1.00  0.00     0.090 C 
HETATM   13  C9  UNL     1      -2.743  -1.483   0.532  1.00  0.00     0.023 C 
ENDROOT
BRANCH   1  14
HETATM   14  C3  UNL     1       1.687  -1.152   0.490  1.00  0.00     0.308 C 
HETATM   15  O2  UNL     1       2.354  -2.108   0.947  1.00  0.00    -0.258 OA
BRANCH  14  16
HETATM   16  O1  UNL     1       2.350  -0.008   0.136  1.00  0.00    -0.317 OA
BRANCH  16  17
HETATM   17  C2  UNL     1       3.750   0.163   0.256  1.00  0.00     0.174 C 
HETATM   18  C1  UNL     1       4.212   1.504  -0.199  1.00  0.00     0.034 C 
ENDBRANCH  16  17
ENDBRANCH  14  16
ENDBRANCH   1  14
TORSDOF 3
