REMARK  4 active torsions:
REMARK  status: ('A' for Active; 'I' for Inactive)
REMARK    1  A    between atoms: O1_1  and  C1_3 
REMARK    2  A    between atoms: C2_4  and  N1_5 
REMARK    3  A    between atoms: N1_5  and  C3_7 
REMARK    4  A    between atoms: C6_11  and  C7_12 
ROOT
HETATM    1  C1  UNL     1       1.204  -1.181   0.304  1.00  0.00     0.155 C 
HETATM    2  C2  UNL     1       1.864  -0.346  -0.733  1.00  0.00     0.111 C 
HETATM    3  C4  UNL     1       0.935   0.462  -1.579  1.00  0.00     0.028 C 
HETATM    4  C5  UNL     1      -0.210   1.074  -0.829  1.00  0.00     0.009 C 
HETATM    5  C6  UNL     1      -0.956  -0.070  -0.134  1.00  0.00     0.013 C 
HETATM    6  C8  UNL     1      -0.025  -0.601   0.906  1.00  0.00     0.094 C 
HETATM    7  S3  UNL     1      -0.826  -1.876   1.915  1.00  0.00    -0.089 SA
ENDROOT
BRANCH   2   8
HETATM    8  N1  UNL     1       2.948   0.476  -0.190  1.00  0.00    -0.383 N 
ATOM      9  H1  UNL     1       3.816   0.636  -0.701  1.00  0.00     0.160 HD
BRANCH   8  10
HETATM   10  C3  UNL     1       2.736   0.977   0.960  1.00  0.00     0.166 C 
HETATM   11  S1  UNL     1       2.860   2.169   2.042  1.00  0.00    -0.075 SA
ENDBRANCH   8  10
ENDBRANCH   2   8
BRANCH   1  12
HETATM   12  O1  UNL     1       1.006  -2.486  -0.180  1.00  0.00    -0.392 OA
ATOM     13  H1  UNL     1       0.584  -3.020   0.483  1.00  0.00     0.210 HD
ENDBRANCH   1  12
BRANCH   5  14
HETATM   14  C7  UNL     1      -2.188   0.545   0.485  1.00  0.00     0.092 C 
HETATM   15  S2  UNL     1      -3.225   1.302  -0.797  1.00  0.00    -0.097 SA
ENDBRANCH   5  14
TORSDOF 4
