REMARK  3 active torsions:
REMARK  status: ('A' for Active; 'I' for Inactive)
REMARK    1  A    between atoms: C2_2  and  N1_5 
REMARK    2  A    between atoms: N1_5  and  O1_6 
REMARK    3  A    between atoms: O1_6  and  S1_7 
ROOT
HETATM    1  N1  UNL     1      -0.294  -0.370  -0.182  1.00  0.00    -0.056 NA
ENDROOT
BRANCH   1   2
HETATM    2  C2  UNL     1      -1.501  -0.082   0.571  1.00  0.00     0.127 C 
HETATM    3  C1  UNL     1      -1.971   1.333   0.366  1.00  0.00     0.054 C 
HETATM    4  C3  UNL     1      -2.576  -1.020   0.030  1.00  0.00     0.054 C 
HETATM    5 CL1  UNL     1      -1.254  -0.348   2.309  1.00  0.00    -0.099 Cl
ENDBRANCH   1   2
BRANCH   1   6
HETATM    6  O1  UNL     1       0.730   0.440   0.178  1.00  0.00    -0.158 OA
BRANCH   6   7
HETATM    7  S1  UNL     1       2.148  -0.430  -0.041  1.00  0.00     0.278 S 
HETATM    8  C4  UNL     1       3.569   0.633  -0.067  1.00  0.00     0.195 C 
HETATM    9  O2  UNL     1       2.293  -1.339   1.151  1.00  0.00    -0.198 OA
HETATM   10  O3  UNL     1       2.107  -1.296  -1.257  1.00  0.00    -0.198 OA
ENDBRANCH   6   7
ENDBRANCH   1   6
TORSDOF 3
