REMARK  3 active torsions:
REMARK  status: ('A' for Active; 'I' for Inactive)
REMARK    1  A    between atoms: C4_8  and  C5_9 
REMARK    2  A    between atoms: C5_9  and  N2_10 
REMARK    3  A    between atoms: C9_14  and  C10_15 
ROOT
HETATM    1  N1  UNL     1       2.487   2.206  -1.004  1.00  0.00    -0.383 N 
ATOM      2  H11 UNL     1       2.139   2.392  -1.944  1.00  0.00     0.158 HD
ATOM      3  H12 UNL     1       2.934   3.056  -0.660  1.00  0.00     0.158 HD
HETATM    4  C1  UNL     1       2.410   1.126  -0.313  1.00  0.00     0.117 C 
HETATM    5  O1  UNL     1       2.879   0.875   0.954  1.00  0.00    -0.339 OA
HETATM    6  C2  UNL     1       3.066  -0.509   1.170  1.00  0.00     0.178 C 
HETATM    7  C3  UNL     1       2.250  -1.186   0.046  1.00  0.00     0.041 C 
HETATM    8  C4  UNL     1       1.750  -0.128  -0.821  1.00  0.00     0.090 C 
ENDROOT
BRANCH   8   9
HETATM    9  C5  UNL     1       0.340   0.077  -1.144  1.00  0.00     0.285 C 
BRANCH   9  10
HETATM   10  N2  UNL     1      -0.594   0.517  -0.169  1.00  0.00     0.096 N 
HETATM   11  C6  UNL     1      -1.751   1.051  -0.932  1.00  0.00     0.273 C 
HETATM   12  C7  UNL     1      -2.968   0.305  -0.474  1.00  0.00     0.032 C 
HETATM   13  C8  UNL     1      -2.349  -0.995  -0.019  1.00  0.00     0.040 C 
HETATM   14  C9  UNL     1      -1.119  -0.446   0.730  1.00  0.00     0.251 C 
BRANCH  14  15
HETATM   15  C10 UNL     1      -1.545   0.173   2.055  1.00  0.00     0.257 C 
HETATM   16  F1  UNL     1      -0.452   0.751   2.623  1.00  0.00    -0.253 F 
ENDBRANCH  14  15
ENDBRANCH   9  10
ENDBRANCH   8   9
TORSDOF 3
