REMARK  3 active torsions:
REMARK  status: ('A' for Active; 'I' for Inactive)
REMARK    1  A    between atoms: C2_2  and  C3_3 
REMARK    2  A    between atoms: C6_9  and  N1_10 
REMARK    3  A    between atoms: N1_10  and  N2_12 
ROOT
HETATM    1  C1  UNL     1      -0.470   0.128  -1.741  1.00  0.00     0.058 C 
HETATM    2  C2  UNL     1      -0.817   0.347  -0.278  1.00  0.00     0.150 C 
HETATM    3  C4  UNL     1      -0.514  -0.973   0.424  1.00  0.00     0.091 C 
HETATM    4  C5  UNL     1       1.010  -0.811   0.539  1.00  0.00     0.223 C 
HETATM    5  F1  UNL     1       1.523  -1.608   1.517  1.00  0.00    -0.245 F 
HETATM    6  C6  UNL     1       1.061   0.663   0.898  1.00  0.00     0.273 C 
HETATM    7  O3  UNL     1       0.028   1.286   0.248  1.00  0.00    -0.341 OA
ENDROOT
BRANCH   6   8
HETATM    8  N1  UNL     1       2.334   1.257   0.711  1.00  0.00    -0.291 N 
ATOM      9  H1  UNL     1       2.398   2.274   0.675  1.00  0.00     0.184 HD
BRANCH   8  10
HETATM   10  N2  UNL     1       3.363   0.597   0.590  1.00  0.00    -0.251 N 
HETATM   11  N3  UNL     1       4.358   0.183  -0.027  1.00  0.00    -0.331 N 
ATOM     12  H32 UNL     1       4.239   0.665  -0.918  1.00  0.00     0.178 HD
ATOM     13  H31 UNL     1       5.212  -0.365  -0.127  1.00  0.00     0.178 HD
ATOM     14  H2  UNL     1       3.446   0.134   1.495  1.00  0.00     0.207 HD
ENDBRANCH   8  10
ENDBRANCH   6   8
BRANCH   2  15
HETATM   15  C3  UNL     1      -2.219   0.736  -0.174  1.00  0.00     0.209 C 
HETATM   16  O1  UNL     1      -3.142   0.020  -0.594  1.00  0.00    -0.646 OA
HETATM   17  O2  UNL     1      -2.519   1.954   0.418  1.00  0.00    -0.646 OA
ENDBRANCH   2  15
TORSDOF 3
