REMARK  4 active torsions:
REMARK  status: ('A' for Active; 'I' for Inactive)
REMARK    1  A    between atoms: C2_2  and  N1_4 
REMARK    2  A    between atoms: C3_6  and  O1_8 
REMARK    3  A    between atoms: O1_8  and  C5_9 
REMARK    4  A    between atoms: C5_9  and  C6_10 
ROOT
HETATM    1  N1  UNL     1      -0.729   0.324   0.581  1.00  0.00    -0.335 N 
ATOM      2  H1  UNL     1      -0.182   1.131   0.882  1.00  0.00     0.168 HD
HETATM    3  C3  UNL     1      -0.189  -0.619  -0.098  1.00  0.00     0.115 C 
HETATM    4  C4  UNL     1      -1.002  -1.767  -0.515  1.00  0.00     0.097 C 
ENDROOT
BRANCH   3   5
HETATM    5  O1  UNL     1       1.157  -0.457  -0.382  1.00  0.00    -0.329 OA
BRANCH   5   6
HETATM    6  C5  UNL     1       2.046   0.227   0.446  1.00  0.00     0.290 C 
BRANCH   6   7
HETATM    7  C6  UNL     1       3.426   0.246  -0.105  1.00  0.00     0.198 C 
HETATM    8  O2  UNL     1       3.611  -0.339  -1.213  1.00  0.00    -0.646 OA
HETATM    9  O3  UNL     1       4.477   0.872   0.552  1.00  0.00    -0.646 OA
ENDBRANCH   6   7
ENDBRANCH   5   6
ENDBRANCH   3   5
BRANCH   1  10
HETATM   10  C2  UNL     1      -2.104   0.219   0.904  1.00  0.00     0.075 C 
HETATM   11  C1  UNL     1      -3.037   1.205   0.287  1.00  0.00     0.081 C 
HETATM   12  S1  UNL     1      -2.711  -0.907   1.902  1.00  0.00    -0.066 SA
ENDBRANCH   1  10
TORSDOF 4
