REMARK  3 active torsions:
REMARK  status: ('A' for Active; 'I' for Inactive)
REMARK    1  A    between atoms: C7_8  and  C8_9 
REMARK    2  A    between atoms: C8_9  and  O1_10 
REMARK    3  A    between atoms: C8_9  and  C9_12 
ROOT
HETATM    1  C1  UNL     1      -0.317  -1.887   0.684  1.00  0.00     0.016 C 
HETATM    2  C2  UNL     1      -0.392  -0.766  -0.316  1.00  0.00    -0.033 C 
HETATM    3  C3  UNL     1       0.074  -1.277  -1.670  1.00  0.00     0.016 C 
HETATM    4  C4  UNL     1      -1.833  -0.311  -0.509  1.00  0.00     0.011 C 
HETATM    5  C5  UNL     1      -2.275   0.646   0.561  1.00  0.00     0.011 C 
HETATM    6  C6  UNL     1      -1.908   2.055   0.073  1.00  0.00     0.074 C 
HETATM    7  S1  UNL     1      -0.188   1.897  -0.552  1.00  0.00    -0.161 SA
HETATM    8  C7  UNL     1       0.448   0.373   0.187  1.00  0.00     0.086 C 
ENDROOT
BRANCH   8   9
HETATM    9  C8  UNL     1       1.914   0.175  -0.040  1.00  0.00     0.161 C 
BRANCH   9  10
HETATM   10  O1  UNL     1       2.308  -0.982   0.628  1.00  0.00    -0.392 OA
ATOM     11  H1  UNL     1       3.239  -1.108   0.484  1.00  0.00     0.210 HD
ENDBRANCH   9  10
BRANCH   9  12
HETATM   12  C9  UNL     1       2.753   1.309   0.468  1.00  0.00     0.255 C 
HETATM   13  F1  UNL     1       4.095   1.080   0.236  1.00  0.00    -0.253 F 
ENDBRANCH   9  12
ENDBRANCH   8   9
TORSDOF 3
