REMARK  5 active torsions:
REMARK  status: ('A' for Active; 'I' for Inactive)
REMARK    1  A    between atoms: C2_2  and  O1_4 
REMARK    2  A    between atoms: O1_4  and  C4_5 
REMARK    3  A    between atoms: C4_5  and  C5_6 
REMARK    4  A    between atoms: C5_6  and  N1_7 
REMARK    5  A    between atoms: N1_7  and  C6_9 
ROOT
HETATM    1  C6  UNL     1      -0.404   0.685  -0.394  1.00  0.00     0.679 A 
HETATM    2  N2  UNL     1      -0.023   1.421   0.663  1.00  0.00    -0.180 N 
ATOM      3  H2  UNL     1       0.922   1.796   0.747  1.00  0.00     0.185 HD
HETATM    4  C7  UNL     1      -0.955   1.635   1.601  1.00  0.00     0.138 A 
HETATM    5 CL1  UNL     1      -0.628   2.571   3.041  1.00  0.00    -0.062 Cl
HETATM    6  C8  UNL     1      -2.249   1.112   1.466  1.00  0.00     0.072 A 
HETATM    7  S1  UNL     1      -3.658   1.172   2.422  1.00  0.00    -0.089 SA
HETATM    8  C9  UNL     1      -4.702   0.251   1.440  1.00  0.00    -0.008 A 
HETATM    9  C10 UNL     1      -3.921  -0.085   0.381  1.00  0.00    -0.016 A 
HETATM   10  C11 UNL     1      -2.633   0.364   0.389  1.00  0.00     0.076 A 
HETATM   11  N3  UNL     1      -1.629   0.182  -0.537  1.00  0.00    -0.190 N 
ATOM     12  H3  UNL     1      -1.834  -0.365  -1.373  1.00  0.00     0.184 HD
HETATM   13  C12 UNL     1      -4.779  -0.925  -0.573  1.00  0.00     0.042 C 
HETATM   14  C13 UNL     1      -5.968  -1.347   0.213  1.00  0.00     0.010 C 
HETATM   15  C14 UNL     1      -6.101  -0.314   1.306  1.00  0.00     0.047 C 
ENDROOT
BRANCH   1  16
HETATM   16  N1  UNL     1       0.431   0.421  -1.359  1.00  0.00    -0.224 N 
ATOM     17  H1  UNL     1       0.106  -0.141  -2.146  1.00  0.00     0.177 HD
BRANCH  16  18
HETATM   18  C5  UNL     1       1.781   0.885  -1.362  1.00  0.00     0.164 C 
BRANCH  18  19
HETATM   19  C4  UNL     1       2.706  -0.066  -0.622  1.00  0.00     0.188 C 
BRANCH  19  20
HETATM   20  O1  UNL     1       4.012   0.382  -0.625  1.00  0.00    -0.385 OA
BRANCH  20  21
HETATM   21  C2  UNL     1       4.915  -0.393   0.008  1.00  0.00     0.113 C 
HETATM   22  C1  UNL     1       6.059  -0.899  -0.794  1.00  0.00     0.039 C 
HETATM   23  C3  UNL     1       5.482   0.387   1.195  1.00  0.00     0.039 C 
ENDBRANCH  20  21
ENDBRANCH  19  20
ENDBRANCH  18  19
ENDBRANCH  16  18
ENDBRANCH   1  16
TORSDOF 5
