REMARK  5 active torsions:
REMARK  status: ('A' for Active; 'I' for Inactive)
REMARK    1  A    between atoms: C1_2  and  C2_3 
REMARK    2  A    between atoms: C1_2  and  C3_6 
REMARK    3  A    between atoms: C2_3  and  O2_4 
REMARK    4  A    between atoms: C3_6  and  S1_7 
REMARK    5  A    between atoms: S1_7  and  C4_8 
ROOT
HETATM    1  C4  UNL     1      -0.338   1.028   0.191  1.00  0.00     0.049 A 
HETATM    2  S2  UNL     1      -1.024   2.414  -0.581  1.00  0.00    -0.075 SA
HETATM    3  C5  UNL     1      -2.656   1.955  -0.539  1.00  0.00     0.059 A 
HETATM    4 BR1  UNL     1      -4.069   3.013  -1.230  1.00  0.00    -0.042 Br
HETATM    5  C6  UNL     1      -2.632   0.730   0.077  1.00  0.00    -0.026 A 
HETATM    6  C7  UNL     1      -1.437   0.259   0.450  1.00  0.00    -0.026 A 
HETATM    7  C8  UNL     1      -1.660  -1.090   1.101  1.00  0.00     0.041 C 
HETATM    8  C9  UNL     1      -3.076  -0.904   1.668  1.00  0.00     0.009 C 
HETATM    9  C10 UNL     1      -3.701  -0.256   0.443  1.00  0.00     0.041 C 
ENDROOT
BRANCH   1  10
HETATM   10  S1  UNL     1       1.395   0.727   0.541  1.00  0.00    -0.115 SA
BRANCH  10  11
HETATM   11  C3  UNL     1       2.108  -0.125  -0.892  1.00  0.00     0.160 C 
BRANCH  11  12
HETATM   12  C1  UNL     1       3.546  -0.402  -0.660  1.00  0.00     0.159 C 
HETATM   13  O1  UNL     1       4.215  -0.967  -1.500  1.00  0.00    -0.295 OA
BRANCH  12  14
HETATM   14  C2  UNL     1       4.200   0.006   0.606  1.00  0.00     0.243 C 
BRANCH  14  15
HETATM   15  O2  UNL     1       5.547  -0.343   0.626  1.00  0.00    -0.394 OA
ATOM     16  H2  UNL     1       5.966  -0.081   1.437  1.00  0.00     0.209 HD
ENDBRANCH  14  15
ENDBRANCH  12  14
ENDBRANCH  11  12
ENDBRANCH  10  11
ENDBRANCH   1  10
TORSDOF 5
