REMARK  4 active torsions:
REMARK  status: ('A' for Active; 'I' for Inactive)
REMARK    1  A    between atoms: C3_3  and  O1_4 
REMARK    2  A    between atoms: O1_4  and  C4_5 
REMARK    3  A    between atoms: C4_5  and  C5_6 
REMARK    4  A    between atoms: C12_20  and  N4_21 
ROOT
HETATM    1  C1  UNL     1      -1.210   1.438   0.652  1.00  0.00     0.054 C 
HETATM    2  C2  UNL     1      -0.700   0.453  -0.310  1.00  0.00     0.007 A 
HETATM    3  C3  UNL     1       0.651   0.444  -0.746  1.00  0.00     0.150 A 
HETATM    4  N1  UNL     1       0.769  -0.584  -1.595  1.00  0.00    -0.322 N 
ATOM      5  H1  UNL     1       1.637  -0.833  -2.068  1.00  0.00     0.169 HD
HETATM    6  C10 UNL     1      -0.386  -1.249  -1.752  1.00  0.00     0.122 A 
HETATM    7  N2  UNL     1      -0.713  -2.346  -2.498  1.00  0.00    -0.338 N 
ATOM      8  H2  UNL     1      -0.012  -2.804  -3.081  1.00  0.00     0.168 HD
HETATM    9  C11 UNL     1      -1.967  -2.810  -2.451  1.00  0.00     0.183 A 
HETATM   10  N3  UNL     1      -2.870  -2.201  -1.685  1.00  0.00    -0.338 N 
ATOM     11  H3  UNL     1      -3.821  -2.570  -1.663  1.00  0.00     0.168 HD
HETATM   12  C12 UNL     1      -2.576  -1.101  -0.927  1.00  0.00     0.119 A 
HETATM   13  C17 UNL     1      -1.307  -0.595  -0.945  1.00  0.00     0.062 A 
ENDROOT
BRANCH   3  14
HETATM   14  O1  UNL     1       1.563   1.326  -0.346  1.00  0.00    -0.335 OA
BRANCH  14  15
HETATM   15  C4  UNL     1       2.817   1.732  -0.399  1.00  0.00     0.182 C 
BRANCH  15  16
HETATM   16  C5  UNL     1       3.974   0.959   0.079  1.00  0.00     0.013 C 
HETATM   17  C6  UNL     1       4.250  -0.365  -0.533  1.00  0.00     0.009 C 
HETATM   18  C7  UNL     1       5.324  -0.980   0.386  1.00  0.00     0.037 C 
HETATM   19  C8  UNL     1       5.048  -0.400   1.748  1.00  0.00     0.170 C 
HETATM   20  F1  UNL     1       6.219   0.211   2.180  1.00  0.00    -0.249 F 
HETATM   21  C9  UNL     1       4.018   0.714   1.581  1.00  0.00     0.044 C 
ENDBRANCH  15  16
ENDBRANCH  14  15
ENDBRANCH   3  14
BRANCH  12  22
HETATM   22  N4  UNL     1      -3.607  -0.488  -0.171  1.00  0.00    -0.366 N 
HETATM   23  C13 UNL     1      -4.333   0.692  -0.493  1.00  0.00     0.124 C 
HETATM   24  C14 UNL     1      -5.009   1.132   0.767  1.00  0.00     0.021 C 
HETATM   25  C15 UNL     1      -5.268  -0.184   1.491  1.00  0.00     0.021 C 
HETATM   26  C16 UNL     1      -4.101  -1.039   1.063  1.00  0.00     0.124 C 
ENDBRANCH  12  22
TORSDOF 4
