REMARK  5 active torsions:
REMARK  status: ('A' for Active; 'I' for Inactive)
REMARK    1  A    between atoms: C2_2  and  C3_3 
REMARK    2  A    between atoms: C4_6  and  C5_7 
REMARK    3  A    between atoms: C5_7  and  N2_8 
REMARK    4  A    between atoms: C12_15  and  N3_16 
REMARK    5  A    between atoms: C14_22  and  C15_23 
ROOT
HETATM    1  N2  UNL     1      -0.448  -0.572  -0.451  1.00  0.00    -0.356 N 
HETATM    2  C6  UNL     1      -0.855   0.429   0.443  1.00  0.00     0.066 C 
HETATM    3  C7  UNL     1      -2.279   0.413   0.866  1.00  0.00     0.030 C 
HETATM    4  C8  UNL     1      -2.945   1.758   0.674  1.00  0.00     0.010 C 
HETATM    5  C9  UNL     1      -4.412   1.500   0.454  1.00  0.00     0.001 C 
HETATM    6  C10 UNL     1      -4.578  -0.000   0.257  1.00  0.00     0.007 C 
HETATM    7  C11 UNL     1      -3.163  -0.514   0.085  1.00  0.00     0.029 C 
HETATM    8  C12 UNL     1      -2.754  -0.583  -1.353  1.00  0.00     0.241 C 
HETATM    9  C13 UNL     1      -1.334  -1.020  -1.446  1.00  0.00     0.302 C 
HETATM   10  F1  UNL     1      -0.786  -0.701  -2.699  1.00  0.00    -0.225 F 
ENDROOT
BRANCH   1  11
HETATM   11  C5  UNL     1       0.601  -1.441  -0.078  1.00  0.00     0.183 C 
BRANCH  11  12
HETATM   12  C4  UNL     1       1.877  -0.657   0.175  1.00  0.00     0.041 A 
HETATM   13  N1  UNL     1       1.924   0.642   0.040  1.00  0.00    -0.355 N 
HETATM   14  C3  UNL     1       3.048   1.289   0.269  1.00  0.00     0.051 A 
ATOM     15  H1  UNL     1       1.089   1.155  -0.243  1.00  0.00     0.166 HD
HETATM   16  S1  UNL     1       4.116   0.032   0.696  1.00  0.00    -0.079 SA
HETATM   17  C14 UNL     1       3.042  -1.284   0.557  1.00  0.00     0.008 A 
BRANCH  14  18
HETATM   18  C2  UNL     1       3.285   2.769   0.164  1.00  0.00     0.060 C 
HETATM   19  C1  UNL     1       4.755   2.967   0.545  1.00  0.00     0.012 C 
ENDBRANCH  14  18
BRANCH  17  20
HETATM   20  C15 UNL     1       3.281  -2.742   0.784  1.00  0.00     0.043 C 
HETATM   21  C16 UNL     1       3.396  -3.408  -0.566  1.00  0.00     0.010 C 
ENDBRANCH  17  20
ENDBRANCH  11  12
ENDBRANCH   1  11
BRANCH   8  22
HETATM   22  N3  UNL     1      -2.978   0.668  -2.055  1.00  0.00    -0.070 N 
ATOM     23  H33 UNL     1      -3.947   0.972  -1.963  1.00  0.00     0.274 HD
ATOM     24  H32 UNL     1      -2.517   1.444  -1.579  1.00  0.00     0.274 HD
ATOM     25  H31 UNL     1      -2.699   0.621  -3.035  1.00  0.00     0.274 HD
ENDBRANCH   8  22
TORSDOF 5
