REMARK  7 active torsions:
REMARK  status: ('A' for Active; 'I' for Inactive)
REMARK    1  A    between atoms: N1_7  and  C7_8 
REMARK    2  A    between atoms: C7_8  and  C8_9 
REMARK    3  A    between atoms: C8_9  and  C9_10 
REMARK    4  A    between atoms: C9_10  and  N2_11 
REMARK    5  A    between atoms: C13_17  and  C14_18 
REMARK    6  A    between atoms: C14_18  and  N4_19 
REMARK    7  A    between atoms: N6_27  and  C19_28 
ROOT
HETATM    1  N2  UNL     1       0.021   0.636  -0.171  1.00  0.00    -0.373 N 
ATOM      2  H2  UNL     1       0.477   1.365  -0.720  1.00  0.00     0.161 HD
HETATM    3  C10 UNL     1      -1.277   0.658  -0.187  1.00  0.00     0.146 A 
HETATM    4  C11 UNL     1      -2.157  -0.182   0.436  1.00  0.00     0.119 A 
HETATM    5  C12 UNL     1      -1.862  -1.329   1.242  1.00  0.00     0.106 C 
HETATM    6  N3  UNL     1      -1.648  -2.278   1.871  1.00  0.00    -0.191 NA
HETATM    7  C13 UNL     1      -3.438   0.232   0.130  1.00  0.00     0.088 A 
HETATM    8  N5  UNL     1      -3.269   1.294  -0.661  1.00  0.00    -0.289 N 
ATOM      9  H5  UNL     1      -4.041   1.825  -1.064  1.00  0.00     0.188 HD
HETATM   10  N6  UNL     1      -2.003   1.584  -0.867  1.00  0.00    -0.235 N 
ENDROOT
BRANCH   7  11
HETATM   11  C14 UNL     1      -4.700  -0.287   0.740  1.00  0.00     0.122 C 
BRANCH  11  12
HETATM   12  N4  UNL     1      -4.955  -1.638   0.647  1.00  0.00    -0.364 N 
HETATM   13  C15 UNL     1      -5.185  -2.273  -0.566  1.00  0.00     0.089 C 
HETATM   14  C16 UNL     1      -6.700  -2.372  -0.749  1.00  0.00     0.212 C 
HETATM   15  O1  UNL     1      -7.220  -3.279   0.121  1.00  0.00    -0.385 OA
HETATM   16  C17 UNL     1      -6.591  -3.343   1.318  1.00  0.00     0.188 C 
HETATM   17  C18 UNL     1      -5.735  -2.185   1.721  1.00  0.00     0.153 C 
ENDBRANCH  11  12
ENDBRANCH   7  11
BRANCH   1  18
HETATM   18  C9  UNL     1       0.891  -0.252   0.497  1.00  0.00     0.123 C 
BRANCH  18  19
HETATM   19  C8  UNL     1       2.359   0.079   0.282  1.00  0.00     0.050 C 
BRANCH  19  20
HETATM   20  C7  UNL     1       3.161  -0.939   1.065  1.00  0.00     0.275 C 
BRANCH  20  21
HETATM   21  N1  UNL     1       4.564  -0.793   0.931  1.00  0.00     0.097 N 
HETATM   22  C2  UNL     1       5.209   0.340   1.449  1.00  0.00     0.219 C 
HETATM   23  C1  UNL     1       6.194   0.045   2.564  1.00  0.00     0.043 C 
HETATM   24  C3  UNL     1       6.079   0.934   0.308  1.00  0.00     0.037 C 
HETATM   25  C4  UNL     1       5.576   0.272  -0.934  1.00  0.00     0.037 C 
HETATM   26  C5  UNL     1       5.028  -1.034  -0.419  1.00  0.00     0.219 C 
HETATM   27  C6  UNL     1       6.011  -2.163  -0.395  1.00  0.00     0.043 C 
ENDBRANCH  20  21
ENDBRANCH  19  20
ENDBRANCH  18  19
ENDBRANCH   1  18
BRANCH  10  28
HETATM   28  C19 UNL     1      -1.425   2.703  -1.583  1.00  0.00     0.097 A 
HETATM   29  C20 UNL     1      -0.301   2.616  -2.352  1.00  0.00     0.035 A 
HETATM   30  C21 UNL     1       0.244   3.750  -2.960  1.00  0.00     0.002 A 
HETATM   31  C22 UNL     1      -0.371   4.962  -2.774  1.00  0.00     0.003 A 
HETATM   32  C23 UNL     1      -1.505   5.096  -2.012  1.00  0.00     0.045 A 
HETATM   33  C24 UNL     1      -2.019   3.942  -1.419  1.00  0.00     0.145 A 
HETATM   34  F1  UNL     1      -3.133   4.095  -0.657  1.00  0.00    -0.204 F 
ENDBRANCH  10  28
TORSDOF 7
