REMARK  8 active torsions:
REMARK  status: ('A' for Active; 'I' for Inactive)
REMARK    1  A    between atoms: C2_2  and  C3_3 
REMARK    2  A    between atoms: C3_3  and  C4_4 
REMARK    3  A    between atoms: C4_4  and  O1_5 
REMARK    4  A    between atoms: O1_5  and  C5_6 
REMARK    5  A    between atoms: C7_8  and  C8_9 
REMARK    6  A    between atoms: C8_9  and  C9_10 
REMARK    7  A    between atoms: C15_17  and  O2_18 
REMARK    8  A    between atoms: C16_20  and  N1_21 
ROOT
HETATM    1  C5  UNL     1       1.223  -0.354   0.567  1.00  0.00     0.263 C 
HETATM    2  C6  UNL     1       0.104   0.267   1.326  1.00  0.00     0.068 C 
HETATM    3  C7  UNL     1      -0.795   0.873   0.192  1.00  0.00     0.028 C 
HETATM    4  C15 UNL     1      -1.325  -0.283  -0.551  1.00  0.00     0.182 C 
HETATM    5  C16 UNL     1      -0.633  -1.585  -0.073  1.00  0.00     0.390 C 
HETATM    6  O4  UNL     1       0.721  -1.453  -0.145  1.00  0.00    -0.324 OA
ENDROOT
BRANCH   3   7
HETATM    7  C8  UNL     1      -1.701   1.875   0.777  1.00  0.00     0.046 C 
BRANCH   7   8
HETATM    8  C9  UNL     1      -2.574   2.621  -0.160  1.00  0.00    -0.056 A 
HETATM    9  C10 UNL     1      -2.007   3.750  -0.795  1.00  0.00     0.007 A 
HETATM   10  C11 UNL     1      -2.695   4.541  -1.673  1.00  0.00     0.002 A 
HETATM   11  C12 UNL     1      -4.007   4.250  -1.978  1.00  0.00     0.019 A 
HETATM   12  C13 UNL     1      -4.576   3.149  -1.365  1.00  0.00     0.011 A 
HETATM   13 BR1  UNL     1      -6.365   2.672  -1.745  1.00  0.00    -0.051 Br
HETATM   14  C14 UNL     1      -3.867   2.341  -0.461  1.00  0.00     0.026 A 
ENDBRANCH   7   8
ENDBRANCH   3   7
BRANCH   4  15
HETATM   15  O2  UNL     1      -2.699  -0.483  -0.510  1.00  0.00    -0.391 OA
ATOM     16  H2  UNL     1      -3.041  -1.229  -0.989  1.00  0.00     0.210 HD
ENDBRANCH   4  15
BRANCH   1  17
HETATM   17  O1  UNL     1       2.321  -0.767   1.254  1.00  0.00    -0.361 OA
BRANCH  17  18
HETATM   18  C4  UNL     1       3.438  -0.154   0.678  1.00  0.00     0.171 C 
BRANCH  18  19
HETATM   19  C3  UNL     1       3.393   1.311   0.886  1.00  0.00     0.026 C 
BRANCH  19  20
HETATM   20  C2  UNL     1       4.525   2.035   0.182  1.00  0.00    -0.002 C 
HETATM   21  C1  UNL     1       5.883   1.600   0.607  1.00  0.00     0.005 C 
ENDBRANCH  19  20
ENDBRANCH  18  19
ENDBRANCH  17  18
ENDBRANCH   1  17
BRANCH   5  22
HETATM   22  N1  UNL     1      -0.976  -2.684  -0.991  1.00  0.00     0.124 N 
HETATM   23  C17 UNL     1       0.217  -3.488  -1.202  1.00  0.00     0.302 C 
HETATM   24  C18 UNL     1       0.501  -4.273   0.085  1.00  0.00     0.198 C 
HETATM   25  O3  UNL     1      -0.461  -5.260   0.216  1.00  0.00    -0.388 OA
HETATM   26  C19 UNL     1      -1.612  -5.030  -0.497  1.00  0.00     0.198 C 
HETATM   27  C20 UNL     1      -1.990  -3.550  -0.485  1.00  0.00     0.302 C 
ENDBRANCH   5  22
TORSDOF 8
