REMARK  7 active torsions:
REMARK  status: ('A' for Active; 'I' for Inactive)
REMARK       I    between atoms: C2_2  and  N1_4 
REMARK    1  A    between atoms: N1_4  and  C3_6 
REMARK    2  A    between atoms: C3_6  and  C5_8 
REMARK    3  A    between atoms: C7_12  and  O2_13 
REMARK    4  A    between atoms: O2_13  and  C8_14 
REMARK       I    between atoms: N3_17  and  C11_18 
REMARK    5  A    between atoms: C11_18  and  C12_20 
REMARK    6  A    between atoms: C12_20  and  C13_21 
REMARK    7  A    between atoms: C18_27  and  N4_28 
ROOT
HETATM    1  C5  UNL     1      -4.047   1.100   0.493  1.00  0.00     0.049 A 
HETATM    2  C6  UNL     1      -2.845   1.756   0.658  1.00  0.00     0.117 A 
HETATM    3  N2  UNL     1      -1.669   1.139   0.438  1.00  0.00    -0.342 N 
ATOM      4  H2  UNL     1      -0.800   1.657   0.570  1.00  0.00     0.167 HD
HETATM    5  C7  UNL     1      -1.616  -0.146   0.048  1.00  0.00     0.188 A 
HETATM    6  C18 UNL     1      -2.812  -0.811  -0.119  1.00  0.00     0.156 A 
HETATM    7  N5  UNL     1      -3.998  -0.190   0.102  1.00  0.00    -0.340 N 
ATOM      8  H5  UNL     1      -4.867  -0.707  -0.030  1.00  0.00     0.167 HD
ENDROOT
BRANCH   5   9
HETATM    9  O2  UNL     1      -0.446  -0.838  -0.194  1.00  0.00    -0.327 OA
BRANCH   9  10
HETATM   10  C8  UNL     1       0.841  -0.287  -0.063  1.00  0.00     0.133 C 
HETATM   11  C9  UNL     1       1.621  -0.322  -1.355  1.00  0.00     0.052 C 
HETATM   12  C10 UNL     1       2.867  -1.176  -1.238  1.00  0.00     0.128 C 
HETATM   13  N3  UNL     1       3.632  -0.656  -0.125  1.00  0.00    -0.352 N 
HETATM   14  C11 UNL     1       4.949  -0.206  -0.353  1.00  0.00     0.222 C 
HETATM   15  C16 UNL     1       2.991  -0.628   1.173  1.00  0.00     0.128 C 
HETATM   16  O3  UNL     1       5.469  -0.245  -1.486  1.00  0.00    -0.273 OA
HETATM   17  C17 UNL     1       1.555  -1.054   1.026  1.00  0.00     0.052 C 
BRANCH  14  18
HETATM   18  C12 UNL     1       5.768   0.335   0.765  1.00  0.00     0.145 C 
BRANCH  18  19
HETATM   19  C13 UNL     1       7.133   0.754   0.301  1.00  0.00     0.104 C 
HETATM   20  C14 UNL     1       7.898   1.290   1.490  1.00  0.00     0.051 C 
HETATM   21  C15 UNL     1       7.886  -0.354  -0.390  1.00  0.00     0.051 C 
HETATM   22  F1  UNL     1       6.957   1.824  -0.569  1.00  0.00    -0.243 F 
ENDBRANCH  18  19
ENDBRANCH  14  18
ENDBRANCH   9  10
ENDBRANCH   5   9
BRANCH   6  23
HETATM   23  N4  UNL     1      -2.801  -2.165  -0.529  1.00  0.00    -0.364 N 
HETATM   24  C19 UNL     1      -2.234  -2.664  -1.760  1.00  0.00     0.124 C 
HETATM   25  C20 UNL     1      -3.014  -3.938  -1.989  1.00  0.00     0.021 C 
HETATM   26  C21 UNL     1      -3.103  -4.505  -0.590  1.00  0.00     0.021 C 
HETATM   27  C22 UNL     1      -3.364  -3.256   0.236  1.00  0.00     0.124 C 
ENDBRANCH   6  23
BRANCH   1  28
HETATM   28  C3  UNL     1      -5.324   1.816   0.745  1.00  0.00     0.132 C 
HETATM   29  C4  UNL     1      -6.498   1.015   0.242  1.00  0.00     0.039 C 
BRANCH  28  30
HETATM   30  N1  UNL     1      -5.247   3.105   0.129  1.00  0.00    -0.352 N 
HETATM   31  C2  UNL     1      -5.335   4.326   0.850  1.00  0.00     0.214 C 
HETATM   32  C1  UNL     1      -5.253   5.646   0.201  1.00  0.00     0.117 C 
HETATM   33  O1  UNL     1      -5.490   4.266   2.095  1.00  0.00    -0.274 OA
ATOM     34  H1  UNL     1      -5.122   3.150  -0.882  1.00  0.00     0.163 HD
ENDBRANCH  28  30
ENDBRANCH   1  28
TORSDOF 7
