REMARK  8 active torsions:
REMARK  status: ('A' for Active; 'I' for Inactive)
REMARK    1  A    between atoms: C10_12  and  C11_13 
REMARK    2  A    between atoms: C19_22  and  N1_23 
REMARK    3  A    between atoms: N1_23  and  C20_25 
REMARK    4  A    between atoms: C20_25  and  C21_26 
REMARK    5  A    between atoms: C21_26  and  C22_27 
REMARK    6  A    between atoms: C22_27  and  C23_28 
REMARK    7  A    between atoms: C23_28  and  C24_29 
REMARK    8  A    between atoms: C24_29  and  N2_30 
ROOT
HETATM    1  C1  UNL     1      -0.058  -3.203   1.808  1.00  0.00     0.078 C 
HETATM    2  C2  UNL     1      -1.133  -2.209   2.197  1.00  0.00     0.158 C 
HETATM    3  C3  UNL     1      -1.077  -1.986   3.692  1.00  0.00     0.078 C 
HETATM    4  O1  UNL     1      -2.402  -2.615   1.783  1.00  0.00    -0.345 OA
HETATM    5  C4  UNL     1      -2.445  -2.132   0.511  1.00  0.00     0.191 C 
HETATM    6  C5  UNL     1      -3.762  -1.920  -0.122  1.00  0.00     0.183 A 
HETATM    7  O2  UNL     1      -4.396  -2.670  -1.060  1.00  0.00    -0.372 OA
HETATM    8  C6  UNL     1      -3.457  -1.841  -1.601  1.00  0.00     0.159 A 
HETATM    9  C7  UNL     1      -3.572  -0.466  -2.058  1.00  0.00     0.039 C 
HETATM   10  C8  UNL     1      -4.960  -0.020  -2.188  1.00  0.00     0.036 C 
HETATM   11  C9  UNL     1      -5.164   0.805  -0.998  1.00  0.00    -0.017 C 
HETATM   12  C10 UNL     1      -3.991   1.180  -0.411  1.00  0.00    -0.037 C 
HETATM   13  C17 UNL     1      -2.883   0.601  -1.156  1.00  0.00     0.031 C 
HETATM   14  C18 UNL     1      -2.444   1.666  -2.169  1.00  0.00     0.027 C 
HETATM   15  C19 UNL     1      -1.689   0.016  -0.529  1.00  0.00     0.028 C 
HETATM   16  C29 UNL     1      -1.935  -0.679   0.791  1.00  0.00     0.203 C 
HETATM   17  O4  UNL     1      -0.836  -1.016   1.505  1.00  0.00    -0.342 OA
ENDROOT
BRANCH  15  18
HETATM   18  N1  UNL     1      -0.437   0.518  -0.787  1.00  0.00    -0.393 N 
ATOM     19  H1  UNL     1       0.160  -0.155  -1.267  1.00  0.00     0.159 HD
BRANCH  18  20
HETATM   20  C20 UNL     1       0.196   1.699  -0.555  1.00  0.00     0.119 C 
BRANCH  20  21
HETATM   21  C21 UNL     1       1.659   1.588  -1.049  1.00  0.00     0.020 C 
BRANCH  21  22
HETATM   22  C22 UNL     1       2.402   0.518  -0.330  1.00  0.00     0.003 C 
BRANCH  22  23
HETATM   23  C23 UNL     1       3.828   0.377  -0.790  1.00  0.00     0.030 C 
BRANCH  23  24
HETATM   24  C24 UNL     1       4.526  -0.727  -0.007  1.00  0.00     0.272 C 
BRANCH  24  25
HETATM   25  N2  UNL     1       5.887  -0.917  -0.401  1.00  0.00     0.092 N 
HETATM   26  C25 UNL     1       6.765   0.156  -0.077  1.00  0.00     0.298 C 
HETATM   27  C26 UNL     1       8.008   0.023  -0.953  1.00  0.00     0.198 C 
HETATM   28  O3  UNL     1       8.386  -1.297  -1.105  1.00  0.00    -0.388 OA
HETATM   29  C27 UNL     1       7.449  -2.035  -1.794  1.00  0.00     0.198 C 
HETATM   30  C28 UNL     1       6.065  -1.387  -1.738  1.00  0.00     0.298 C 
ENDBRANCH  24  25
ENDBRANCH  23  24
ENDBRANCH  22  23
ENDBRANCH  21  22
ENDBRANCH  20  21
ENDBRANCH  18  20
ENDBRANCH  15  18
BRANCH  12  31
HETATM   31  C11 UNL     1      -4.115   2.004   0.776  1.00  0.00    -0.029 A 
HETATM   32  C12 UNL     1      -5.311   2.179   1.433  1.00  0.00     0.015 A 
HETATM   33  C13 UNL     1      -5.481   3.013   2.524  1.00  0.00     0.043 A 
HETATM   34  C14 UNL     1      -4.415   3.723   3.008  1.00  0.00     0.116 A 
HETATM   35  F1  UNL     1      -4.547   4.557   4.082  1.00  0.00    -0.206 F 
HETATM   36  C15 UNL     1      -3.204   3.570   2.373  1.00  0.00     0.043 A 
HETATM   37  C16 UNL     1      -3.060   2.716   1.265  1.00  0.00     0.015 A 
ENDBRANCH  12  31
TORSDOF 8
