REMARK  10 active torsions:
REMARK  status: ('A' for Active; 'I' for Inactive)
REMARK    1  A    between atoms: C2_2  and  C3_3 
REMARK       I    between atoms: C3_3  and  N1_5 
REMARK    2  A    between atoms: N1_5  and  C4_7 
REMARK    3  A    between atoms: C4_7  and  C5_8 
REMARK    4  A    between atoms: C5_8  and  C6_9 
REMARK    5  A    between atoms: C6_9  and  N2_10 
REMARK    6  A    between atoms: N3_13  and  C9_14 
REMARK    7  A    between atoms: C9_14  and  O2_15 
REMARK    8  A    between atoms: C9_14  and  C10_17 
REMARK    9  A    between atoms: C11_18  and  C12_19 
REMARK   10  A    between atoms: C12_19  and  C13_21 
ROOT
HETATM    1  N2  UNL     1       1.111  -0.335   1.435  1.00  0.00    -0.390 N 
HETATM    2  C7  UNL     1       0.645   0.053   0.153  1.00  0.00     0.141 C 
HETATM    3  C8  UNL     1      -0.902   0.225   0.325  1.00  0.00     0.145 C 
HETATM    4  N3  UNL     1      -1.481  -1.070   0.340  1.00  0.00    -0.358 N 
HETATM    5  C21 UNL     1      -0.615  -2.028   1.153  1.00  0.00     0.145 C 
HETATM    6  C22 UNL     1       0.190  -1.221   2.118  1.00  0.00     0.141 C 
ENDROOT
BRANCH   4   7
HETATM    7  C9  UNL     1      -2.636  -1.592  -0.175  1.00  0.00     0.145 C 
BRANCH   7   8
HETATM    8  O2  UNL     1      -2.371  -2.986  -0.120  1.00  0.00    -0.346 OA
ATOM      9  H2  UNL     1      -3.173  -3.348  -0.478  1.00  0.00     0.219 HD
ENDBRANCH   7   8
BRANCH   7  10
HETATM   10  C10 UNL     1      -3.917  -1.556  -0.728  1.00  0.00     0.003 C 
HETATM   11  C11 UNL     1      -4.802  -0.610  -0.817  1.00  0.00     0.004 C 
HETATM   12  C17 UNL     1      -6.111  -1.035  -1.464  1.00  0.00     0.043 C 
HETATM   13  C18 UNL     1      -6.605  -2.221  -0.616  1.00  0.00     0.005 C 
HETATM   14  C19 UNL     1      -5.644  -3.361  -0.891  1.00  0.00     0.005 C 
HETATM   15  C20 UNL     1      -4.365  -2.861  -1.469  1.00  0.00     0.044 C 
BRANCH  11  16
HETATM   16  C12 UNL     1      -4.642   0.689  -0.298  1.00  0.00     0.195 C 
HETATM   17  O3  UNL     1      -3.674   0.918   0.456  1.00  0.00    -0.286 OA
BRANCH  16  18
HETATM   18  C13 UNL     1      -5.489   1.849  -0.542  1.00  0.00     0.055 A 
HETATM   19  C14 UNL     1      -5.328   3.100   0.027  1.00  0.00     0.023 A 
HETATM   20  C15 UNL     1      -6.170   4.048  -0.360  1.00  0.00     0.009 A 
HETATM   21  C16 UNL     1      -7.130   3.741  -1.281  1.00  0.00     0.050 A 
HETATM   22  S1  UNL     1      -6.806   2.098  -1.573  1.00  0.00    -0.098 SA
ENDBRANCH  16  18
ENDBRANCH  11  16
ENDBRANCH   7  10
ENDBRANCH   4   7
BRANCH   1  23
HETATM   23  C6  UNL     1       1.789   0.607   2.224  1.00  0.00     0.060 C 
BRANCH  23  24
HETATM   24  C5  UNL     1       3.148   1.011   1.699  1.00  0.00     0.064 C 
BRANCH  24  25
HETATM   25  C4  UNL     1       4.025  -0.219   1.616  1.00  0.00     0.128 C 
BRANCH  25  26
HETATM   26  N1  UNL     1       5.346   0.028   1.127  1.00  0.00    -0.359 N 
HETATM   27  C3  UNL     1       5.668   0.554  -0.128  1.00  0.00     0.239 C 
HETATM   28  O1  UNL     1       4.777   0.868  -0.965  1.00  0.00    -0.272 OA
ATOM     29  H1  UNL     1       6.122  -0.200   1.749  1.00  0.00     0.162 HD
BRANCH  27  30
HETATM   30  C2  UNL     1       7.092   0.753  -0.496  1.00  0.00     0.116 C 
HETATM   31  C1  UNL     1       7.830   1.676   0.436  1.00  0.00     0.040 C 
HETATM   32  S2  UNL     1       7.957  -0.844  -0.660  1.00  0.00    -0.144 SA
HETATM   33  C23 UNL     1       8.564   0.103  -2.082  1.00  0.00     0.114 C 
HETATM   34  C24 UNL     1       7.373   1.039  -1.937  1.00  0.00     0.207 C 
HETATM   35  F1  UNL     1       6.333   0.770  -2.784  1.00  0.00    -0.246 F 
ENDBRANCH  27  30
ENDBRANCH  25  26
ENDBRANCH  24  25
ENDBRANCH  23  24
ENDBRANCH   1  23
TORSDOF 10
