REMARK  10 active torsions:
REMARK  status: ('A' for Active; 'I' for Inactive)
REMARK    1  A    between atoms: C2_2  and  C3_3 
REMARK    2  A    between atoms: C3_3  and  O1_4 
REMARK    3  A    between atoms: O1_4  and  C4_5 
REMARK    4  A    between atoms: C7_9  and  C8_10 
REMARK    5  A    between atoms: C8_10  and  C9_12 
REMARK    6  A    between atoms: C19_23  and  C20_24 
REMARK    7  A    between atoms: C21_25  and  C22_26 
REMARK    8  A    between atoms: C22_26  and  O6_28 
REMARK    9  A    between atoms: O6_28  and  C23_29 
REMARK   10  A    between atoms: C31_38  and  O8_39 
ROOT
HETATM    1  C9  UNL     1       1.575  -0.878  -0.609  1.00  0.00     0.057 C 
HETATM    2  C10 UNL     1       2.503  -1.554  -1.530  1.00  0.00     0.021 C 
HETATM    3  C11 UNL     1       2.243  -0.792  -2.837  1.00  0.00     0.002 C 
HETATM    4  C12 UNL     1       0.870  -0.162  -2.693  1.00  0.00     0.013 C 
HETATM    5  C13 UNL     1       0.352  -0.905  -1.488  1.00  0.00    -0.000 C 
HETATM    6  C14 UNL     1       0.065  -2.262  -2.093  1.00  0.00     0.019 C 
HETATM    7  C15 UNL     1      -0.908  -0.390  -0.887  1.00  0.00     0.140 C 
HETATM    8  O4  UNL     1      -2.015  -1.091  -1.433  1.00  0.00    -0.370 OA
HETATM    9  C16 UNL     1      -2.696  -1.729  -0.472  1.00  0.00     0.097 C 
HETATM   10  C17 UNL     1      -2.962  -3.223  -0.605  1.00  0.00     0.050 C 
HETATM   11  C18 UNL     1      -2.154  -1.422   0.865  1.00  0.00     0.044 C 
HETATM   12  C19 UNL     1      -3.488  -0.901   1.298  1.00  0.00     0.056 C 
HETATM   13  C25 UNL     1      -4.006  -1.067  -0.117  1.00  0.00     0.125 A 
HETATM   14  O7  UNL     1      -4.480   0.009  -0.823  1.00  0.00    -0.366 OA
HETATM   15  C26 UNL     1      -5.239  -1.276  -0.607  1.00  0.00     0.157 A 
HETATM   16  C27 UNL     1      -5.538  -1.901  -1.954  1.00  0.00     0.043 C 
HETATM   17  C28 UNL     1      -1.049  -0.434   0.586  1.00  0.00    -0.007 C 
HETATM   18  C29 UNL     1      -1.577   0.882   1.134  1.00  0.00     0.018 C 
HETATM   19  C30 UNL     1       0.148  -0.812   1.360  1.00  0.00     0.045 C 
HETATM   20  C31 UNL     1       1.249  -1.561   0.673  1.00  0.00     0.135 C 
ENDROOT
BRANCH   1  21
HETATM   21  C8  UNL     1       2.095   0.421  -0.280  1.00  0.00     0.150 C 
HETATM   22  O3  UNL     1       1.560   1.502  -0.544  1.00  0.00    -0.296 OA
BRANCH  21  23
HETATM   23  C7  UNL     1       3.397   0.658   0.449  1.00  0.00     0.128 C 
HETATM   24  C6  UNL     1       3.366   2.050   1.018  1.00  0.00     0.140 C 
HETATM   25  C5  UNL     1       4.565   2.764   0.647  1.00  0.00     0.111 C 
HETATM   26  O2  UNL     1       2.447   2.514   1.703  1.00  0.00    -0.297 OA
HETATM   27  C4  UNL     1       5.570   1.686   0.199  1.00  0.00     0.130 C 
HETATM   28  C32 UNL     1       4.600   0.638  -0.387  1.00  0.00     0.052 C 
BRANCH  27  29
HETATM   29  O1  UNL     1       6.470   2.093  -0.564  1.00  0.00    -0.382 OA
BRANCH  29  30
HETATM   30  C3  UNL     1       7.361   2.494  -1.316  1.00  0.00     0.194 C 
BRANCH  30  31
HETATM   31  C2  UNL     1       6.838   3.097  -2.602  1.00  0.00    -0.011 C 
HETATM   32  C1  UNL     1       7.189   2.570  -3.747  1.00  0.00     0.009 C 
ENDBRANCH  30  31
ENDBRANCH  29  30
ENDBRANCH  27  29
ENDBRANCH  21  23
ENDBRANCH   1  21
BRANCH  20  33
HETATM   33  O8  UNL     1       1.120  -2.920   0.656  1.00  0.00    -0.394 OA
ATOM     34  H8  UNL     1       0.912  -3.356   1.474  1.00  0.00     0.210 HD
ENDBRANCH  20  33
BRANCH  12  35
HETATM   35  C20 UNL     1      -4.144  -1.772   2.308  1.00  0.00    -0.012 C 
HETATM   36  C21 UNL     1      -4.799  -1.417   3.364  1.00  0.00     0.079 C 
BRANCH  36  37
HETATM   37  C22 UNL     1      -5.097  -0.117   3.881  1.00  0.00     0.282 C 
HETATM   38  O5  UNL     1      -5.781  -0.054   4.984  1.00  0.00    -0.260 OA
BRANCH  37  39
HETATM   39  O6  UNL     1      -4.760   1.098   3.374  1.00  0.00    -0.319 OA
BRANCH  39  40
HETATM   40  C23 UNL     1      -5.070   2.356   3.908  1.00  0.00     0.174 C 
HETATM   41  C24 UNL     1      -4.469   3.391   2.962  1.00  0.00     0.034 C 
ENDBRANCH  39  40
ENDBRANCH  37  39
ENDBRANCH  36  37
ENDBRANCH  12  35
TORSDOF 10
