REMARK  9 active torsions:
REMARK  status: ('A' for Active; 'I' for Inactive)
REMARK    1  A    between atoms: C2_2  and  C4_4 
REMARK    2  A    between atoms: C5_5  and  C6_6 
REMARK    3  A    between atoms: C6_6  and  C8_8 
REMARK    4  A    between atoms: C10_11  and  O2_12 
REMARK    5  A    between atoms: O2_12  and  C11_13 
REMARK    6  A    between atoms: C19_23  and  C20_24 
REMARK    7  A    between atoms: C20_24  and  C21_26 
REMARK    8  A    between atoms: C24_31  and  O8_32 
REMARK    9  A    between atoms: O8_32  and  C25_33 
ROOT
HETATM    1  C4  UNL     1      -1.283  -0.577  -0.192  1.00  0.00     0.026 C 
HETATM    2  C5  UNL     1      -2.645  -0.006  -0.259  1.00  0.00     0.034 C 
HETATM    3  C10 UNL     1      -2.762   1.492  -0.368  1.00  0.00     0.138 C 
HETATM    4  C13 UNL     1      -1.926   1.906  -1.560  1.00  0.00     0.050 C 
HETATM    5  C14 UNL     1      -0.503   1.699  -1.099  1.00  0.00     0.024 C 
HETATM    6  C15 UNL     1      -0.190   2.882  -0.240  1.00  0.00     0.024 C 
HETATM    7  C16 UNL     1       0.460   1.990  -2.246  1.00  0.00     0.136 C 
HETATM    8  O4  UNL     1       0.000   2.357  -3.278  1.00  0.00    -0.297 OA
HETATM    9  C17 UNL     1       1.872   1.772  -1.911  1.00  0.00     0.085 C 
HETATM   10  C18 UNL     1       2.222   0.907  -0.769  1.00  0.00     0.013 C 
HETATM   11  C19 UNL     1       3.216  -0.112  -1.304  1.00  0.00     0.078 C 
HETATM   12  C22 UNL     1       3.903  -0.924  -0.232  1.00  0.00     0.023 C 
HETATM   13  C23 UNL     1       5.232  -0.417   0.195  1.00  0.00     0.013 C 
HETATM   14  C24 UNL     1       2.975  -0.992   0.943  1.00  0.00     0.137 C 
HETATM   15  C27 UNL     1       1.577  -1.137   0.287  1.00  0.00     0.042 C 
HETATM   16  C28 UNL     1       1.119   0.305   0.059  1.00  0.00    -0.032 C 
HETATM   17  C29 UNL     1       1.042   0.877   1.458  1.00  0.00     0.016 C 
HETATM   18  C30 UNL     1      -0.188   0.335  -0.688  1.00  0.00     0.018 C 
ENDROOT
BRANCH   2  19
HETATM   19  C6  UNL     1      -3.711  -0.474   0.651  1.00  0.00     0.058 C 
HETATM   20  C7  UNL     1      -4.099  -1.952   0.507  1.00  0.00     0.018 C 
BRANCH  19  21
HETATM   21  C8  UNL     1      -3.575  -0.133   2.080  1.00  0.00     0.127 C 
HETATM   22  C9  UNL     1      -4.618  -0.577   3.025  1.00  0.00     0.091 C 
HETATM   23  O1  UNL     1      -2.654   0.489   2.504  1.00  0.00    -0.298 OA
ENDBRANCH  19  21
ENDBRANCH   2  19
BRANCH   1  24
HETATM   24  C2  UNL     1      -1.304  -1.849  -0.983  1.00  0.00    -0.088 C 
HETATM   25  C1  UNL     1      -1.105  -3.069  -0.523  1.00  0.00     0.014 C 
HETATM   26  C3  UNL     1      -1.580  -1.767  -2.447  1.00  0.00     0.043 C 
ENDBRANCH   1  24
BRANCH   3  27
HETATM   27  O2  UNL     1      -4.112   1.845  -0.526  1.00  0.00    -0.316 OA
BRANCH  27  28
HETATM   28  C11 UNL     1      -4.844   2.686   0.253  1.00  0.00     0.255 C 
HETATM   29  C12 UNL     1      -6.273   2.895  -0.112  1.00  0.00     0.126 C 
HETATM   30  O3  UNL     1      -4.294   3.233   1.217  1.00  0.00    -0.266 OA
ENDBRANCH  27  28
ENDBRANCH   3  27
BRANCH  11  31
HETATM   31  C20 UNL     1       4.339   0.562  -2.008  1.00  0.00     0.230 C 
HETATM   32  O5  UNL     1       4.506   1.813  -2.037  1.00  0.00    -0.285 OA
BRANCH  31  33
HETATM   33  C21 UNL     1       5.327  -0.235  -2.716  1.00  0.00     0.247 C 
HETATM   34  O6  UNL     1       5.205  -1.479  -2.746  1.00  0.00    -0.642 OA
HETATM   35  O7  UNL     1       6.414   0.317  -3.372  1.00  0.00    -0.642 OA
ENDBRANCH  31  33
ENDBRANCH  11  31
BRANCH  14  36
HETATM   36  O8  UNL     1       3.203  -2.116   1.734  1.00  0.00    -0.316 OA
BRANCH  36  37
HETATM   37  C25 UNL     1       3.522  -2.060   3.069  1.00  0.00     0.255 C 
HETATM   38  C26 UNL     1       3.750  -3.330   3.830  1.00  0.00     0.126 C 
HETATM   39  O9  UNL     1       3.620  -0.947   3.638  1.00  0.00    -0.266 OA
ENDBRANCH  36  37
ENDBRANCH  14  36
TORSDOF 9
