REMARK  11 active torsions:
REMARK  status: ('A' for Active; 'I' for Inactive)
REMARK    1  A    between atoms: C2_2  and  O1_3 
REMARK    2  A    between atoms: C2_2  and  C3_5 
REMARK    3  A    between atoms: C3_5  and  O2_6 
REMARK    4  A    between atoms: C3_5  and  C4_8 
REMARK    5  A    between atoms: C4_8  and  N1_9 
REMARK    6  A    between atoms: C4_8  and  C5_13 
REMARK    7  A    between atoms: C5_13  and  O3_14 
REMARK    8  A    between atoms: C5_13  and  C6_16 
REMARK    9  A    between atoms: C6_16  and  N2_19 
REMARK   10  A    between atoms: N2_19  and  C9_21 
REMARK   11  A    between atoms: C15_30  and  O6_31 
ROOT
HETATM    1  C6  UNL     1       0.499  -0.856   1.046  1.00  0.00     0.046 C 
HETATM    2  C7  UNL     1      -0.243  -0.802   2.375  1.00  0.00     0.040 C 
HETATM    3  C8  UNL     1       1.386  -2.117   1.199  1.00  0.00     0.040 C 
ENDROOT
BRANCH   1   4
HETATM    4  C5  UNL     1       1.360   0.389   1.003  1.00  0.00     0.178 C 
BRANCH   4   5
HETATM    5  C4  UNL     1       2.102   0.655  -0.237  1.00  0.00     0.245 C 
BRANCH   5   6
HETATM    6  C3  UNL     1       3.240  -0.194  -0.635  1.00  0.00     0.179 C 
BRANCH   6   7
HETATM    7  C2  UNL     1       4.544   0.001   0.058  1.00  0.00     0.145 C 
HETATM    8  C1  UNL     1       5.159   1.382  -0.161  1.00  0.00     0.042 C 
BRANCH   7   9
HETATM    9  O1  UNL     1       4.603  -0.300   1.385  1.00  0.00    -0.393 OA
ATOM     10  H1  UNL     1       4.221  -1.159   1.521  1.00  0.00     0.210 HD
ENDBRANCH   7   9
ENDBRANCH   6   7
BRANCH   6  11
HETATM   11  O2  UNL     1       3.526   0.206  -1.998  1.00  0.00    -0.391 OA
ATOM     12  H2  UNL     1       2.694   0.082  -2.440  1.00  0.00     0.210 HD
ENDBRANCH   6  11
ENDBRANCH   5   6
BRANCH   5  13
HETATM   13  N1  UNL     1       2.555   2.061  -0.309  1.00  0.00    -0.070 N 
ATOM     14  H13 UNL     1       3.396   2.238   0.241  1.00  0.00     0.274 HD
ATOM     15  H12 UNL     1       2.939   2.310  -1.221  1.00  0.00     0.274 HD
ATOM     16  H11 UNL     1       1.768   2.648  -0.034  1.00  0.00     0.274 HD
ENDBRANCH   5  13
ENDBRANCH   4   5
BRANCH   4  17
HETATM   17  O3  UNL     1       2.053   0.563   2.188  1.00  0.00    -0.391 OA
ATOM     18  H3  UNL     1       1.573   0.391   2.990  1.00  0.00     0.210 HD
ENDBRANCH   4  17
ENDBRANCH   1   4
BRANCH   1  19
HETATM   19  N2  UNL     1      -0.253  -1.096  -0.095  1.00  0.00    -0.404 N 
ATOM     20  H2  UNL     1      -0.048  -1.945  -0.622  1.00  0.00     0.154 HD
BRANCH  19  21
HETATM   21  C9  UNL     1      -1.281  -0.257  -0.586  1.00  0.00     0.108 C 
HETATM   22  C10 UNL     1      -2.443  -0.199   0.310  1.00  0.00     0.052 C 
HETATM   23  C11 UNL     1      -3.723   0.331  -0.276  1.00  0.00     0.059 C 
HETATM   24  C12 UNL     1      -4.259   1.498   0.561  1.00  0.00     0.032 C 
HETATM   25  C13 UNL     1      -4.824  -0.709  -0.226  1.00  0.00     0.032 C 
HETATM   26  S1  UNL     1      -3.573   0.953  -1.920  1.00  0.00     0.154 S 
HETATM   27  O4  UNL     1      -3.317   2.440  -1.896  1.00  0.00    -0.227 OA
HETATM   28  O5  UNL     1      -4.930   0.779  -2.589  1.00  0.00    -0.227 OA
HETATM   29  C14 UNL     1      -2.298   0.199  -2.848  1.00  0.00     0.174 C 
HETATM   30  C15 UNL     1      -1.566  -0.775  -1.984  1.00  0.00     0.154 C 
BRANCH  30  31
HETATM   31  O6  UNL     1      -2.097  -2.061  -1.994  1.00  0.00    -0.393 OA
ATOM     32  H6  UNL     1      -2.275  -2.385  -2.869  1.00  0.00     0.210 HD
ENDBRANCH  30  31
ENDBRANCH  19  21
ENDBRANCH   1  19
TORSDOF 11
