REMARK  8 active torsions:
REMARK  status: ('A' for Active; 'I' for Inactive)
REMARK       I    between atoms: C1_2  and  N2_4 
REMARK    1  A    between atoms: N2_4  and  N3_6 
REMARK       I    between atoms: N3_6  and  C2_8 
REMARK    2  A    between atoms: C2_8  and  C3_10 
REMARK    3  A    between atoms: C3_10  and  N4_11 
REMARK    4  A    between atoms: N4_11  and  N5_12 
REMARK    5  A    between atoms: N5_12  and  S1_14 
REMARK    6  A    between atoms: S1_14  and  C4_17 
REMARK    7  A    between atoms: C7_20  and  S2_21 
REMARK    8  A    between atoms: S2_21  and  N6_22 
ROOT
HETATM    1  S1  UNL     1      -0.621  -2.365  -0.480  1.00  0.00     0.280 S 
HETATM    2  O3  UNL     1      -0.994  -3.802  -0.531  1.00  0.00    -0.199 OA
HETATM    3  O4  UNL     1       0.079  -1.921  -1.744  1.00  0.00    -0.199 OA
ENDROOT
BRANCH   1   4
HETATM    4  N5  UNL     1       0.332  -2.013   0.890  1.00  0.00    -0.226 N 
ATOM      5  H5  UNL     1       0.248  -2.455   1.805  1.00  0.00     0.195 HD
BRANCH   4   6
HETATM    6  N4  UNL     1       1.265  -0.996   0.537  1.00  0.00    -0.122 NA
BRANCH   6   7
HETATM    7  C3  UNL     1       2.545  -1.651   0.213  1.00  0.00     0.240 C 
BRANCH   7   8
HETATM    8  C2  UNL     1       3.533  -0.620  -0.157  1.00  0.00     0.252 C 
HETATM    9  N3  UNL     1       3.201   0.752  -0.168  1.00  0.00    -0.265 N 
ATOM     10  H3  UNL     1       2.257   1.043   0.086  1.00  0.00     0.190 HD
HETATM   11  O2  UNL     1       4.698  -0.969  -0.471  1.00  0.00    -0.270 OA
BRANCH   9  12
HETATM   12  N2  UNL     1       4.157   1.727  -0.525  1.00  0.00    -0.251 N 
HETATM   13  C1  UNL     1       5.264   1.920   0.312  1.00  0.00     0.347 C 
HETATM   14  N1  UNL     1       6.264   2.891   0.001  1.00  0.00    -0.038 NA
HETATM   15  O1  UNL     1       5.443   1.264   1.370  1.00  0.00    -0.249 OA
ATOM     16  H2  UNL     1       4.044   2.280  -1.375  1.00  0.00     0.191 HD
ENDBRANCH   9  12
ENDBRANCH   7   8
ENDBRANCH   6   7
ENDBRANCH   4   6
ENDBRANCH   1   4
BRANCH   1  17
HETATM   17  C4  UNL     1      -2.113  -1.420  -0.397  1.00  0.00     0.122 A 
HETATM   18  C5  UNL     1      -3.402  -1.880  -0.361  1.00  0.00     0.035 A 
HETATM   19  C6  UNL     1      -4.381  -0.971  -0.299  1.00  0.00     0.035 A 
HETATM   20  C7  UNL     1      -4.017   0.347  -0.276  1.00  0.00     0.121 A 
HETATM   21  S3  UNL     1      -2.318   0.279  -0.342  1.00  0.00    -0.063 SA
BRANCH  20  22
HETATM   22  S2  UNL     1      -5.042   1.785  -0.194  1.00  0.00     0.263 S 
HETATM   23  O5  UNL     1      -4.741   2.590   1.043  1.00  0.00    -0.200 OA
HETATM   24  O6  UNL     1      -4.801   2.663  -1.388  1.00  0.00    -0.200 OA
BRANCH  22  25
HETATM   25  N6  UNL     1      -6.697   1.360  -0.162  1.00  0.00    -0.324 N 
ATOM     26  H62 UNL     1      -7.034   0.397  -0.188  1.00  0.00     0.169 HD
ATOM     27  H61 UNL     1      -7.288   2.190  -0.115  1.00  0.00     0.169 HD
ENDBRANCH  22  25
ENDBRANCH  20  22
ENDBRANCH   1  17
TORSDOF 8
