REMARK  9 active torsions:
REMARK  status: ('A' for Active; 'I' for Inactive)
REMARK       I    between atoms: C1_4  and  N3_6 
REMARK       I    between atoms: N3_6  and  C2_8 
REMARK    1  A    between atoms: C2_8  and  C3_10 
REMARK    2  A    between atoms: C3_10  and  O2_11 
REMARK    3  A    between atoms: O2_11  and  C4_12 
REMARK    4  A    between atoms: C4_12  and  C5_14 
REMARK    5  A    between atoms: C5_14  and  N4_15 
REMARK    6  A    between atoms: N4_15  and  S1_17 
REMARK    7  A    between atoms: S1_17  and  C6_20 
REMARK    8  A    between atoms: C9_24  and  C10_25 
REMARK       I    between atoms: C10_25  and  N5_27 
REMARK    9  A    between atoms: N5_27  and  N6_29 
ROOT
HETATM    1  N4  UNL     1      -0.877   1.799  -1.542  1.00  0.00    -0.306 N 
ATOM      2  H4  UNL     1      -0.676   2.781  -1.352  1.00  0.00     0.172 HD
ENDROOT
BRANCH   1   3
HETATM    3  C5  UNL     1      -0.028   0.659  -1.206  1.00  0.00     0.243 C 
BRANCH   3   4
HETATM    4  C4  UNL     1       1.203   1.125  -0.538  1.00  0.00     0.277 C 
HETATM    5  O3  UNL     1       1.403   2.381  -0.342  1.00  0.00    -0.263 OA
BRANCH   4   6
HETATM    6  O2  UNL     1       2.217   0.290  -0.075  1.00  0.00    -0.311 OA
BRANCH   6   7
HETATM    7  C3  UNL     1       3.342   0.898   0.542  1.00  0.00     0.281 C 
BRANCH   7   8
HETATM    8  C2  UNL     1       4.284  -0.147   0.956  1.00  0.00     0.248 C 
HETATM    9  N3  UNL     1       4.014  -1.516   0.716  1.00  0.00    -0.300 N 
HETATM   10  C1  UNL     1       4.944  -2.521   1.148  1.00  0.00     0.188 C 
ATOM     11  H3  UNL     1       3.157  -1.789   0.235  1.00  0.00     0.171 HD
HETATM   12  N1  UNL     1       4.691  -3.760   0.908  1.00  0.00    -0.373 N 
HETATM   13  N2  UNL     1       6.110  -2.185   1.841  1.00  0.00    -0.064 NA
ATOM     14  H12 UNL     1       5.352  -4.474   1.215  1.00  0.00     0.158 HD
ATOM     15  H11 UNL     1       3.840  -4.005   0.402  1.00  0.00     0.158 HD
HETATM   16  O1  UNL     1       5.342   0.177   1.534  1.00  0.00    -0.271 OA
ENDBRANCH   7   8
ENDBRANCH   6   7
ENDBRANCH   4   6
ENDBRANCH   3   4
ENDBRANCH   1   3
BRANCH   1  17
HETATM   17  S1  UNL     1      -2.285   1.173  -2.320  1.00  0.00     0.266 S 
HETATM   18  O4  UNL     1      -2.150  -0.284  -2.613  1.00  0.00    -0.200 OA
HETATM   19  O5  UNL     1      -2.417   1.919  -3.622  1.00  0.00    -0.200 OA
BRANCH  17  20
HETATM   20  C6  UNL     1      -3.694   1.474  -1.301  1.00  0.00     0.135 A 
HETATM   21  S2  UNL     1      -4.765   2.790  -1.402  1.00  0.00    -0.087 SA
HETATM   22  C7  UNL     1      -5.850   2.390  -0.174  1.00  0.00     0.052 A 
HETATM   23  C8  UNL     1      -5.346   1.210   0.308  1.00  0.00     0.026 A 
HETATM   24  C9  UNL     1      -4.221   0.732  -0.278  1.00  0.00     0.064 A 
BRANCH  24  25
HETATM   25  C10 UNL     1      -3.563  -0.516   0.187  1.00  0.00     0.271 C 
HETATM   26  O6  UNL     1      -3.648  -1.539  -0.528  1.00  0.00    -0.266 OA
HETATM   27  N5  UNL     1      -2.865  -0.566   1.406  1.00  0.00    -0.272 N 
ATOM     28  H5  UNL     1      -2.796   0.268   1.989  1.00  0.00     0.189 HD
BRANCH  27  29
HETATM   29  N6  UNL     1      -2.271  -1.748   1.815  1.00  0.00    -0.342 N 
ATOM     30  H62 UNL     1      -2.349  -2.573   1.220  1.00  0.00     0.176 HD
ATOM     31  H61 UNL     1      -1.764  -1.784   2.700  1.00  0.00     0.176 HD
ENDBRANCH  27  29
ENDBRANCH  24  25
ENDBRANCH  17  20
ENDBRANCH   1  17
TORSDOF 9
