REMARK  12 active torsions:
REMARK  status: ('A' for Active; 'I' for Inactive)
REMARK    1  A    between atoms: N1_1  and  C1_5 
REMARK    2  A    between atoms: C1_5  and  C2_6 
REMARK    3  A    between atoms: C2_6  and  N2_7 
REMARK    4  A    between atoms: C2_6  and  C3_11 
REMARK       I    between atoms: C3_11  and  N3_13 
REMARK    5  A    between atoms: N4_16  and  C6_17 
REMARK    6  A    between atoms: N5_19  and  O2_21 
REMARK    7  A    between atoms: O2_21  and  C7_22 
REMARK    8  A    between atoms: C7_22  and  C8_23 
REMARK    9  A    between atoms: C8_23  and  N6_24 
REMARK   10  A    between atoms: N6_24  and  C9_26 
REMARK   11  A    between atoms: C9_26  and  N7_28 
REMARK   12  A    between atoms: N7_28  and  N8_30 
ROOT
HETATM    1  C3  UNL     1      -4.426  -0.421  -0.515  1.00  0.00     0.252 C 
HETATM    2  O1  UNL     1      -5.003  -0.299  -1.664  1.00  0.00    -0.271 OA
HETATM    3  N3  UNL     1      -3.061  -0.713  -0.515  1.00  0.00    -0.347 N 
HETATM    4  C4  UNL     1      -2.411  -0.843  -1.846  1.00  0.00     0.145 C 
HETATM    5  C5  UNL     1      -1.131  -0.001  -1.789  1.00  0.00     0.145 C 
HETATM    6  N4  UNL     1      -0.232  -0.628  -0.806  1.00  0.00    -0.357 N 
HETATM    7  C10 UNL     1      -0.811  -1.371   0.262  1.00  0.00     0.145 C 
HETATM    8  C11 UNL     1      -2.206  -0.905   0.629  1.00  0.00     0.145 C 
ENDROOT
BRANCH   6   9
HETATM    9  C6  UNL     1       1.155  -0.452  -0.997  1.00  0.00     0.173 C 
HETATM   10  S1  UNL     1       1.989  -1.348  -2.282  1.00  0.00    -0.011 SA
HETATM   11  N5  UNL     1       1.813   0.340  -0.256  1.00  0.00    -0.244 N 
ATOM     12  H5  UNL     1       1.305   0.838   0.475  1.00  0.00     0.196 HD
BRANCH  11  13
HETATM   13  O2  UNL     1       3.160   0.573  -0.369  1.00  0.00    -0.277 OA
BRANCH  13  14
HETATM   14  C7  UNL     1       3.681   1.809  -0.043  1.00  0.00     0.220 C 
BRANCH  14  15
HETATM   15  C8  UNL     1       5.139   2.016  -0.178  1.00  0.00     0.151 C 
BRANCH  15  16
HETATM   16  N6  UNL     1       6.011   1.196   0.585  1.00  0.00    -0.364 N 
ATOM     17  H6  UNL     1       6.490   1.667   1.353  1.00  0.00     0.162 HD
BRANCH  16  18
HETATM   18  C9  UNL     1       6.310  -0.164   0.439  1.00  0.00     0.186 C 
HETATM   19  S2  UNL     1       5.676  -1.049  -0.756  1.00  0.00    -0.040 SA
BRANCH  18  20
HETATM   20  N7  UNL     1       7.210  -0.793   1.334  1.00  0.00    -0.283 N 
ATOM     21  H7  UNL     1       7.632  -0.239   2.080  1.00  0.00     0.188 HD
BRANCH  20  22
HETATM   22  N8  UNL     1       7.538  -2.144   1.229  1.00  0.00    -0.343 N 
ATOM     23  H82 UNL     1       7.107  -2.683   0.478  1.00  0.00     0.176 HD
ATOM     24  H81 UNL     1       8.186  -2.597   1.873  1.00  0.00     0.176 HD
ENDBRANCH  20  22
ENDBRANCH  18  20
ENDBRANCH  16  18
ENDBRANCH  15  16
ENDBRANCH  14  15
ENDBRANCH  13  14
ENDBRANCH  11  13
ENDBRANCH   6   9
BRANCH   1  25
HETATM   25  C2  UNL     1      -5.306  -0.230   0.648  1.00  0.00     0.300 C 
BRANCH  25  26
HETATM   26  C1  UNL     1      -6.019   1.109   0.507  1.00  0.00     0.272 C 
BRANCH  26  27
HETATM   27  N1  UNL     1      -7.005   1.288   1.548  1.00  0.00    -0.077 N 
ATOM     28  H13 UNL     1      -7.666   0.512   1.576  1.00  0.00     0.274 HD
ATOM     29  H12 UNL     1      -6.595   1.177   2.476  1.00  0.00     0.274 HD
ATOM     30  H11 UNL     1      -7.482   2.184   1.454  1.00  0.00     0.274 HD
ENDBRANCH  26  27
ENDBRANCH  25  26
BRANCH  25  31
HETATM   31  N2  UNL     1      -4.634  -0.329   1.896  1.00  0.00    -0.065 N 
ATOM     32  H23 UNL     1      -3.994   0.452   2.040  1.00  0.00     0.275 HD
ATOM     33  H22 UNL     1      -5.268  -0.159   2.677  1.00  0.00     0.275 HD
ATOM     34  H21 UNL     1      -4.157  -1.225   1.990  1.00  0.00     0.275 HD
ENDBRANCH  25  31
ENDBRANCH   1  25
TORSDOF 12
