REMARK  7 active torsions:
REMARK  status: ('A' for Active; 'I' for Inactive)
REMARK       I    between atoms: C1_4  and  N3_6 
REMARK    1  A    between atoms: N3_6  and  S1_8 
REMARK    2  A    between atoms: S1_8  and  C2_11 
REMARK    3  A    between atoms: C5_14  and  N4_15 
REMARK    4  A    between atoms: C6_17  and  C7_18 
REMARK    5  A    between atoms: C7_18  and  N5_19 
REMARK       I    between atoms: N5_19  and  C8_21 
REMARK       I    between atoms: C8_21  and  N8_27 
REMARK    6  A    between atoms: N6_22  and  N7_24 
REMARK    7  A    between atoms: N8_27  and  N9_29 
ROOT
HETATM    1  N4  UNL     1      -0.957   0.451  -0.633  1.00  0.00    -0.368 N 
ATOM      2  H4  UNL     1      -1.341   1.017  -1.389  1.00  0.00     0.165 HD
HETATM    3  C6  UNL     1      -1.706   0.060   0.326  1.00  0.00     0.081 C 
ENDROOT
BRANCH   1   4
HETATM    4  C5  UNL     1       0.414   0.088  -0.633  1.00  0.00     0.031 A 
HETATM    5  C4  UNL     1       1.097   0.043   0.561  1.00  0.00     0.031 A 
HETATM    6  C3  UNL     1       2.419  -0.296   0.662  1.00  0.00     0.027 A 
HETATM    7  C2  UNL     1       3.139  -0.616  -0.468  1.00  0.00     0.080 A 
HETATM    8  C10 UNL     1       2.481  -0.579  -1.677  1.00  0.00     0.027 A 
HETATM    9  C9  UNL     1       1.143  -0.233  -1.759  1.00  0.00     0.031 A 
BRANCH   7  10
HETATM   10  S1  UNL     1       4.821  -1.045  -0.318  1.00  0.00     0.265 S 
HETATM   11  O1  UNL     1       5.032  -1.660   1.048  1.00  0.00    -0.200 OA
HETATM   12  O2  UNL     1       5.202  -2.044  -1.351  1.00  0.00    -0.200 OA
BRANCH  10  13
HETATM   13  N3  UNL     1       5.762   0.402  -0.451  1.00  0.00    -0.254 N 
HETATM   14  C1  UNL     1       5.638   1.463   0.458  1.00  0.00     0.195 C 
HETATM   15  N1  UNL     1       4.699   2.354   0.406  1.00  0.00    -0.373 N 
HETATM   16  N2  UNL     1       6.583   1.592   1.504  1.00  0.00    -0.063 NA
ATOM     17  H12 UNL     1       4.609   3.126   1.067  1.00  0.00     0.158 HD
ATOM     18  H11 UNL     1       4.018   2.261  -0.348  1.00  0.00     0.158 HD
ATOM     19  H3  UNL     1       6.430   0.486  -1.217  1.00  0.00     0.181 HD
ENDBRANCH  10  13
ENDBRANCH   7  10
ENDBRANCH   1   4
BRANCH   3  20
HETATM   20  C7  UNL     1      -3.153   0.454   0.309  1.00  0.00     0.182 C 
BRANCH  20  21
HETATM   21  N5  UNL     1      -3.935  -0.761   0.322  1.00  0.00    -0.219 N 
HETATM   22  C8  UNL     1      -5.352  -0.685   0.310  1.00  0.00     0.711 C 
HETATM   23  N6  UNL     1      -6.021  -1.598  -0.338  1.00  0.00    -0.137 N 
HETATM   24  N8  UNL     1      -5.970   0.368   0.996  1.00  0.00    -0.071 N 
ATOM     25  H6  UNL     1      -7.040  -1.556  -0.355  1.00  0.00     0.205 HD
ATOM     26  H8  UNL     1      -6.136   0.305   2.000  1.00  0.00     0.212 HD
ATOM     27  H5  UNL     1      -3.471  -1.669   0.340  1.00  0.00     0.178 HD
BRANCH  23  28
HETATM   28  N7  UNL     1      -5.369  -2.623  -1.003  1.00  0.00    -0.331 N 
ATOM     29  H72 UNL     1      -4.350  -2.650  -0.976  1.00  0.00     0.177 HD
ATOM     30  H71 UNL     1      -5.892  -3.337  -1.510  1.00  0.00     0.177 HD
ENDBRANCH  23  28
BRANCH  24  31
HETATM   31  N9  UNL     1      -6.355   1.506   0.282  1.00  0.00    -0.024 N 
HETATM   32  O3  UNL     1      -6.751   2.556   0.861  1.00  0.00    -0.516 OA
HETATM   33  O4  UNL     1      -6.320   1.536  -1.082  1.00  0.00    -0.516 OA
ENDBRANCH  24  31
ENDBRANCH  20  21
ENDBRANCH   3  20
TORSDOF 7
