REMARK  6 active torsions:
REMARK  status: ('A' for Active; 'I' for Inactive)
REMARK    1  A    between atoms: C5_6  and  N2_7 
REMARK    2  A    between atoms: N2_7  and  C6_9 
REMARK    3  A    between atoms: N6_21  and  C12_22 
REMARK    4  A    between atoms: C22_32  and  C23_33 
REMARK    5  A    between atoms: C26_36  and  S1_37 
REMARK    6  A    between atoms: S1_37  and  N7_38 
ROOT
HETATM    1  N1  UNL     1      -5.043   4.191  -0.536  1.00  0.00    -0.191 NA
HETATM    2  C1  UNL     1      -4.023   3.636  -0.369  1.00  0.00     0.100 C 
HETATM    3  C2  UNL     1      -2.776   2.966  -0.137  1.00  0.00     0.055 A 
HETATM    4  C3  UNL     1      -1.645   3.686   0.198  1.00  0.00     0.026 A 
HETATM    5  C4  UNL     1      -0.455   3.029   0.433  1.00  0.00     0.031 A 
HETATM    6  C5  UNL     1      -0.344   1.653   0.345  1.00  0.00     0.034 A 
HETATM    7  C21 UNL     1      -1.494   0.968   0.008  1.00  0.00     0.043 A 
HETATM    8  C22 UNL     1      -2.695   1.604  -0.231  1.00  0.00    -0.003 A 
ENDROOT
BRANCH   8   9
HETATM    9  C23 UNL     1      -3.847   0.746  -0.599  1.00  0.00    -0.024 A 
HETATM   10  C24 UNL     1      -4.135  -0.343   0.193  1.00  0.00     0.014 A 
HETATM   11  C25 UNL     1      -5.197  -1.144  -0.156  1.00  0.00     0.026 A 
HETATM   12  C26 UNL     1      -5.979  -0.902  -1.259  1.00  0.00     0.079 A 
HETATM   13  C27 UNL     1      -5.662   0.192  -2.025  1.00  0.00     0.026 A 
HETATM   14  C28 UNL     1      -4.615   1.009  -1.709  1.00  0.00     0.014 A 
BRANCH  12  15
HETATM   15  S1  UNL     1      -7.336  -1.951  -1.677  1.00  0.00     0.256 S 
HETATM   16  O1  UNL     1      -7.050  -3.337  -1.165  1.00  0.00    -0.201 OA
HETATM   17  O2  UNL     1      -7.480  -1.957  -3.160  1.00  0.00    -0.201 OA
BRANCH  15  18
HETATM   18  N7  UNL     1      -8.728  -1.318  -0.880  1.00  0.00    -0.324 N 
ATOM     19  H72 UNL     1      -8.748  -0.492  -0.282  1.00  0.00     0.169 HD
ATOM     20  H71 UNL     1      -9.512  -1.924  -1.122  1.00  0.00     0.169 HD
ENDBRANCH  15  18
ENDBRANCH  12  15
ENDBRANCH   8   9
BRANCH   6  21
HETATM   21  N2  UNL     1       0.904   1.020   0.595  1.00  0.00    -0.342 N 
ATOM     22  H2  UNL     1       1.613   0.941  -0.134  1.00  0.00     0.167 HD
BRANCH  21  23
HETATM   23  C6  UNL     1       1.105   0.549   1.779  1.00  0.00     0.119 A 
HETATM   24  N3  UNL     1       0.172   0.644   2.765  1.00  0.00    -0.338 N 
HETATM   25  C7  UNL     1       0.505   0.115   3.949  1.00  0.00     0.182 A 
ATOM     26  H3  UNL     1      -0.731   1.093   2.611  1.00  0.00     0.168 HD
HETATM   27  N4  UNL     1       1.674  -0.488   4.213  1.00  0.00    -0.352 N 
HETATM   28  C8  UNL     1       2.615  -0.597   3.256  1.00  0.00     0.048 A 
ATOM     29  H4  UNL     1       1.851  -0.866   5.144  1.00  0.00     0.166 HD
HETATM   30  C9  UNL     1       3.826  -1.197   3.455  1.00  0.00     0.045 A 
HETATM   31  C20 UNL     1       2.315  -0.064   2.017  1.00  0.00     0.037 A 
HETATM   32  C10 UNL     1       4.733  -1.265   2.418  1.00  0.00     0.012 A 
HETATM   33  C11 UNL     1       6.021  -1.802   2.314  1.00  0.00     0.121 A 
HETATM   34  C18 UNL     1       4.476  -0.746   1.161  1.00  0.00     0.069 A 
HETATM   35  N5  UNL     1       6.463  -1.591   1.052  1.00  0.00    -0.304 N 
HETATM   36  N6  UNL     1       5.535  -0.956   0.358  1.00  0.00    -0.256 N 
ATOM     37  H5  UNL     1       7.373  -1.878   0.692  1.00  0.00     0.186 HD
HETATM   38  C19 UNL     1       3.237  -0.144   0.996  1.00  0.00     0.050 A 
BRANCH  36  39
HETATM   39  C12 UNL     1       5.627  -0.556  -1.012  1.00  0.00     0.057 A 
HETATM   40  C13 UNL     1       5.736  -1.499  -2.017  1.00  0.00     0.031 A 
HETATM   41  C14 UNL     1       5.826  -1.144  -3.346  1.00  0.00     0.002 A 
HETATM   42  C15 UNL     1       5.808   0.190  -3.682  1.00  0.00     0.000 A 
HETATM   43  C16 UNL     1       5.700   1.144  -2.693  1.00  0.00     0.002 A 
HETATM   44  C17 UNL     1       5.611   0.764  -1.372  1.00  0.00     0.031 A 
ENDBRANCH  36  39
ENDBRANCH  21  23
ENDBRANCH   6  21
TORSDOF 6
