REMARK  5 active torsions:
REMARK  status: ('A' for Active; 'I' for Inactive)
REMARK    1  A    between atoms: S1_2  and  C2_5 
REMARK    2  A    between atoms: C6_11  and  C7_12 
REMARK    3  A    between atoms: C19_28  and  N4_29 
REMARK    4  A    between atoms: N4_29  and  C20_30 
REMARK    5  A    between atoms: C20_30  and  C21_31 
ROOT
HETATM    1  C2  UNL     1      -2.683   3.796  -1.616  1.00  0.00     0.061 A 
HETATM    2  C3  UNL     1      -3.680   2.823  -1.654  1.00  0.00     0.026 A 
HETATM    3  C4  UNL     1      -3.532   1.627  -0.978  1.00  0.00     0.033 A 
HETATM    4  C5  UNL     1      -2.406   1.330  -0.238  1.00  0.00     0.059 A 
HETATM    5  N1  UNL     1      -2.271   0.164   0.419  1.00  0.00    -0.350 N 
ATOM      6  H1  UNL     1      -3.031  -0.514   0.360  1.00  0.00     0.166 HD
HETATM    7  C6  UNL     1      -1.195  -0.154   1.145  1.00  0.00     0.104 A 
HETATM    8  C19 UNL     1      -0.169   0.805   1.203  1.00  0.00     0.206 A 
HETATM    9  N6  UNL     1      -0.329   2.000   0.520  1.00  0.00    -0.327 N 
ATOM     10  H6  UNL     1       0.419   2.692   0.567  1.00  0.00     0.168 HD
HETATM   11  C27 UNL     1      -1.413   2.285  -0.193  1.00  0.00     0.062 A 
HETATM   12  C28 UNL     1      -1.567   3.486  -0.874  1.00  0.00     0.055 A 
ENDROOT
BRANCH   7  13
HETATM   13  C7  UNL     1      -1.080  -1.429   1.847  1.00  0.00     0.025 A 
HETATM   14  C8  UNL     1      -0.901  -1.520   3.209  1.00  0.00     0.016 A 
HETATM   15  C9  UNL     1      -0.819  -2.736   3.869  1.00  0.00     0.003 A 
HETATM   16  C10 UNL     1      -0.919  -3.909   3.162  1.00  0.00     0.032 A 
HETATM   17  C11 UNL     1      -1.100  -3.838   1.792  1.00  0.00     0.060 A 
HETATM   18  N2  UNL     1      -1.198  -4.972   1.074  1.00  0.00    -0.353 N 
HETATM   19  C18 UNL     1      -1.180  -2.604   1.141  1.00  0.00     0.072 A 
HETATM   20  C12 UNL     1      -1.372  -4.908  -0.264  1.00  0.00     0.059 A 
ATOM     21  H2  UNL     1      -1.141  -5.878   1.539  1.00  0.00     0.166 HD
HETATM   22  C13 UNL     1      -1.471  -6.090  -1.003  1.00  0.00     0.032 A 
HETATM   23  C17 UNL     1      -1.450  -3.686  -0.898  1.00  0.00     0.059 A 
HETATM   24  C14 UNL     1      -1.647  -5.994  -2.364  1.00  0.00     0.002 A 
HETATM   25  C15 UNL     1      -1.722  -4.760  -2.979  1.00  0.00     0.002 A 
HETATM   26  C16 UNL     1      -1.627  -3.583  -2.274  1.00  0.00     0.032 A 
HETATM   27  N3  UNL     1      -1.352  -2.533  -0.184  1.00  0.00    -0.352 N 
ATOM     28  H3  UNL     1      -1.409  -1.628  -0.651  1.00  0.00     0.166 HD
ENDBRANCH   7  13
BRANCH   8  29
HETATM   29  N4  UNL     1       0.827   0.587   1.821  1.00  0.00    -0.397 NA
BRANCH  29  30
HETATM   30  C20 UNL     1       1.939   0.332   2.516  1.00  0.00     0.196 C 
BRANCH  30  31
HETATM   31  C21 UNL     1       3.236   0.638   1.796  1.00  0.00    -0.007 A 
HETATM   32  C22 UNL     1       3.298   0.898   0.452  1.00  0.00     0.016 A 
HETATM   33  C23 UNL     1       4.506   1.179  -0.182  1.00  0.00     0.027 A 
HETATM   34  C24 UNL     1       5.667   1.196   0.559  1.00  0.00     0.046 A 
HETATM   35  N5  UNL     1       6.938   1.476  -0.020  1.00  0.00    -0.102 NA
HETATM   36  C25 UNL     1       5.631   0.939   1.901  1.00  0.00     0.027 A 
HETATM   37  C26 UNL     1       4.418   0.665   2.500  1.00  0.00     0.016 A 
ENDBRANCH  30  31
ENDBRANCH  29  30
ENDBRANCH   8  29
BRANCH   1  38
HETATM   38  S1  UNL     1      -2.877   5.307  -2.476  1.00  0.00     0.172 S 
HETATM   39  C1  UNL     1      -2.271   5.232  -4.124  1.00  0.00     0.167 C 
HETATM   40  O1  UNL     1      -4.340   5.661  -2.508  1.00  0.00    -0.223 OA
HETATM   41  O2  UNL     1      -2.176   6.436  -1.775  1.00  0.00    -0.223 OA
ENDBRANCH   1  38
TORSDOF 5
