REMARK  5 active torsions:
REMARK  status: ('A' for Active; 'I' for Inactive)
REMARK    1  A    between atoms: C6_9  and  C7_10 
REMARK    2  A    between atoms: C9_13  and  N3_14 
REMARK    3  A    between atoms: N3_14  and  S2_16 
REMARK    4  A    between atoms: S2_16  and  C10_19 
REMARK    5  A    between atoms: C13_22  and  N4_23 
ROOT
HETATM    1  S2  UNL     1      -0.144   3.857  -0.774  1.00  0.00     0.264 S 
HETATM    2  O1  UNL     1       0.646   5.147  -1.044  1.00  0.00    -0.200 OA
HETATM    3  O2  UNL     1      -0.773   3.461  -2.068  1.00  0.00    -0.200 OA
ENDROOT
BRANCH   1   4
HETATM    4  N3  UNL     1      -1.211   4.081   0.510  1.00  0.00    -0.260 N 
ATOM      5  H3  UNL     1      -1.046   4.860   1.148  1.00  0.00     0.181 HD
BRANCH   4   6
HETATM    6  C9  UNL     1      -2.239   3.307   0.729  1.00  0.00     0.158 A 
HETATM    7  S1  UNL     1      -3.383   3.438   1.993  1.00  0.00    -0.063 SA
HETATM    8  C8  UNL     1      -4.357   2.100   1.583  1.00  0.00     0.083 A 
HETATM    9  C7  UNL     1      -3.732   1.613   0.465  1.00  0.00     0.051 A 
HETATM   10  N6  UNL     1      -2.658   2.246   0.054  1.00  0.00    -0.335 N 
ATOM     11  H6  UNL     1      -2.153   1.926  -0.773  1.00  0.00     0.168 HD
BRANCH   9  12
HETATM   12  C6  UNL     1      -4.295   0.405  -0.218  1.00  0.00    -0.007 A 
HETATM   13  C5  UNL     1      -3.705  -0.118  -1.348  1.00  0.00     0.016 A 
HETATM   14  C4  UNL     1      -4.205  -1.237  -1.997  1.00  0.00     0.033 A 
HETATM   15  C3  UNL     1      -5.332  -1.828  -1.472  1.00  0.00     0.060 A 
HETATM   16  N2  UNL     1      -6.068  -2.912  -1.848  1.00  0.00    -0.350 N 
HETATM   17  C25 UNL     1      -5.959  -1.346  -0.347  1.00  0.00     0.062 A 
HETATM   18  C2  UNL     1      -7.091  -3.097  -1.010  1.00  0.00     0.183 A 
ATOM     19  H2  UNL     1      -5.866  -3.500  -2.657  1.00  0.00     0.166 HD
HETATM   20  N1  UNL     1      -7.023  -2.118  -0.072  1.00  0.00    -0.346 N 
HETATM   21  C1  UNL     1      -7.947  -1.936   1.044  1.00  0.00     0.157 C 
HETATM   22  C24 UNL     1      -5.408  -0.221   0.256  1.00  0.00     0.045 A 
ENDBRANCH   9  12
ENDBRANCH   4   6
ENDBRANCH   1   4
BRANCH   1  23
HETATM   23  C10 UNL     1       1.093   2.705  -0.258  1.00  0.00     0.080 A 
HETATM   24  C11 UNL     1       2.249   3.140   0.388  1.00  0.00     0.027 A 
HETATM   25  C12 UNL     1       3.230   2.264   0.800  1.00  0.00     0.031 A 
HETATM   26  C13 UNL     1       3.078   0.913   0.574  1.00  0.00     0.032 A 
HETATM   27  C22 UNL     1       1.940   0.468  -0.063  1.00  0.00     0.031 A 
HETATM   28  C23 UNL     1       0.949   1.364  -0.478  1.00  0.00     0.027 A 
BRANCH  26  29
HETATM   29  N4  UNL     1       4.096   0.027   1.005  1.00  0.00    -0.351 N 
HETATM   30  C14 UNL     1       4.995  -0.421   0.191  1.00  0.00     0.114 A 
HETATM   31  C15 UNL     1       5.114  -0.113  -1.226  1.00  0.00     0.273 A 
HETATM   32  C21 UNL     1       6.094  -1.329   0.485  1.00  0.00     0.023 A 
HETATM   33  O3  UNL     1       4.400   0.623  -1.940  1.00  0.00    -0.266 OA
HETATM   34  N5  UNL     1       6.246  -0.828  -1.709  1.00  0.00    -0.321 N 
HETATM   35  C16 UNL     1       6.852  -1.581  -0.643  1.00  0.00     0.047 A 
ATOM     36  H5  UNL     1       6.580  -0.809  -2.673  1.00  0.00     0.169 HD
HETATM   37  C17 UNL     1       7.949  -2.412  -0.618  1.00  0.00     0.030 A 
HETATM   38  C18 UNL     1       8.322  -3.020   0.550  1.00  0.00     0.002 A 
HETATM   39  C19 UNL     1       7.552  -2.761   1.690  1.00  0.00     0.001 A 
HETATM   40  C20 UNL     1       6.454  -1.933   1.677  1.00  0.00     0.016 A 
ATOM     41  H4  UNL     1       4.120  -0.265   1.982  1.00  0.00     0.166 HD
ENDBRANCH  26  29
ENDBRANCH   1  23
TORSDOF 5
