REMARK  10 active torsions:
REMARK  status: ('A' for Active; 'I' for Inactive)
REMARK    1  A    between atoms: N1_1  and  N2_4 
REMARK    2  A    between atoms: N2_4  and  N3_5 
REMARK       I    between atoms: N3_5  and  C1_7 
REMARK       I    between atoms: C1_7  and  N4_9 
REMARK    3  A    between atoms: N4_9  and  N5_11 
REMARK    4  A    between atoms: C2_13  and  C3_14 
REMARK    5  A    between atoms: C5_16  and  N6_17 
REMARK    6  A    between atoms: C6_22  and  N8_23 
REMARK    7  A    between atoms: N8_23  and  C7_24 
REMARK       I    between atoms: N8_23  and  C9_32 
REMARK    8  A    between atoms: C7_24  and  C8_25 
REMARK       I    between atoms: C8_25  and  N9_27 
REMARK    9  A    between atoms: N9_27  and  N10_29 
REMARK   10  A    between atoms: C9_32  and  C10_34 
ROOT
HETATM    1  C3  UNL     1      -0.973  -0.880  -0.419  1.00  0.00     0.029 A 
HETATM    2  C4  UNL     1      -1.229  -1.984  -1.185  1.00  0.00     0.071 A 
HETATM    3  C5  UNL     1      -0.047  -2.573  -1.524  1.00  0.00     0.176 A 
HETATM    4  N7  UNL     1       0.903  -1.814  -0.957  1.00  0.00    -0.323 N 
ATOM      5  H7  UNL     1       1.900  -2.012  -1.040  1.00  0.00     0.169 HD
HETATM    6  C6  UNL     1       0.421  -0.782  -0.279  1.00  0.00     0.124 A 
ENDROOT
BRANCH   6   7
HETATM    7  N8  UNL     1       1.058   0.276   0.455  1.00  0.00    -0.286 N 
HETATM    8  C9  UNL     1       1.633   0.043   1.701  1.00  0.00     0.314 C 
HETATM    9  O5  UNL     1       2.200   1.012   2.307  1.00  0.00    -0.262 OA
BRANCH   7  10
HETATM   10  C7  UNL     1       1.061   1.621  -0.117  1.00  0.00     0.238 C 
BRANCH  10  11
HETATM   11  C8  UNL     1       2.298   1.827  -0.911  1.00  0.00     0.254 C 
HETATM   12  O4  UNL     1       2.474   2.919  -1.527  1.00  0.00    -0.270 OA
HETATM   13  N9  UNL     1       3.288   0.829  -0.992  1.00  0.00    -0.275 N 
ATOM     14  H9  UNL     1       3.165  -0.052  -0.492  1.00  0.00     0.189 HD
BRANCH  13  15
HETATM   15  N10 UNL     1       4.456   1.046  -1.768  1.00  0.00    -0.343 N 
ATOM     16 2H10 UNL     1       4.563   1.932  -2.262  1.00  0.00     0.176 HD
ATOM     17 1H10 UNL     1       5.173   0.323  -1.827  1.00  0.00     0.176 HD
ENDBRANCH  13  15
ENDBRANCH  10  11
ENDBRANCH   7  10
BRANCH   8  18
HETATM   18  C10 UNL     1       1.631  -1.234   2.361  1.00  0.00     0.323 C 
HETATM   19  N11 UNL     1       2.271  -1.397   3.654  1.00  0.00    -0.053 NA
HETATM   20  O6  UNL     1       1.102  -2.269   1.901  1.00  0.00    -0.266 OA
ENDBRANCH   8  18
ENDBRANCH   6   7
BRANCH   1  21
HETATM   21  C2  UNL     1      -1.979   0.004   0.134  1.00  0.00     0.122 C 
HETATM   22  N5  UNL     1      -3.238  -0.143  -0.057  1.00  0.00    -0.307 N 
ATOM     23  H5  UNL     1      -3.587  -0.915  -0.626  1.00  0.00     0.186 HD
BRANCH  22  24
HETATM   24  N4  UNL     1      -4.141   0.779   0.531  1.00  0.00    -0.250 N 
HETATM   25  C1  UNL     1      -3.988   2.181   0.403  1.00  0.00     0.365 C 
HETATM   26  N3  UNL     1      -4.930   3.031   1.025  1.00  0.00    -0.164 N 
HETATM   27  O1  UNL     1      -3.025   2.628  -0.256  1.00  0.00    -0.243 OA
ATOM     28  H3  UNL     1      -4.624   3.652   1.774  1.00  0.00     0.209 HD
ATOM     29  H4  UNL     1      -4.931   0.419   1.067  1.00  0.00     0.192 HD
BRANCH  26  30
HETATM   30  N2  UNL     1      -6.123   3.037   0.678  1.00  0.00    -0.239 NA
BRANCH  30  31
HETATM   31  N1  UNL     1      -7.351   3.140   0.706  1.00  0.00    -0.260 N 
ATOM     32  H12 UNL     1      -7.405   3.392   1.693  1.00  0.00     0.193 HD
ATOM     33  H11 UNL     1      -8.330   3.145   0.421  1.00  0.00     0.193 HD
ENDBRANCH  30  31
ENDBRANCH  26  30
ENDBRANCH  22  24
ENDBRANCH   1  21
BRANCH   3  34
HETATM   34  N6  UNL     1       0.113  -3.749  -2.310  1.00  0.00    -0.098 N 
HETATM   35  O2  UNL     1       1.243  -4.224  -2.574  1.00  0.00    -0.531 OA
HETATM   36  O3  UNL     1      -0.957  -4.435  -2.826  1.00  0.00    -0.531 OA
ENDBRANCH   3  34
TORSDOF 10
