REMARK  7 active torsions:
REMARK  status: ('A' for Active; 'I' for Inactive)
REMARK    1  A    between atoms: C2_3  and  C3_4 
REMARK    2  A    between atoms: C6_9  and  N3_10 
REMARK    3  A    between atoms: N5_16  and  S1_17 
REMARK    4  A    between atoms: S1_17  and  N6_20 
REMARK    5  A    between atoms: N6_20  and  C8_22 
REMARK    6  A    between atoms: C8_22  and  C9_23 
REMARK    7  A    between atoms: C9_23  and  N7_24 
ROOT
HETATM    1  C1  UNL     1      -3.775   0.485  -2.317  1.00  0.00     0.161 C 
HETATM    2  N1  UNL     1      -2.994   0.618  -1.092  1.00  0.00    -0.299 N 
HETATM    3  C2  UNL     1      -3.396   0.416   0.169  1.00  0.00     0.082 A 
HETATM    4  C7  UNL     1      -2.330   0.657   1.007  1.00  0.00     0.147 A 
HETATM    5  N5  UNL     1      -1.264   1.010   0.238  1.00  0.00    -0.182 N 
HETATM    6  C13 UNL     1      -1.680   0.982  -1.027  1.00  0.00     0.343 A 
HETATM    7  O3  UNL     1      -0.988   1.249  -2.044  1.00  0.00    -0.245 OA
ENDROOT
BRANCH   5   8
HETATM    8  S1  UNL     1       0.298   1.399   0.848  1.00  0.00     0.328 S 
HETATM    9  O1  UNL     1       0.213   1.417   2.359  1.00  0.00    -0.182 OA
HETATM   10  O2  UNL     1       0.634   2.817   0.450  1.00  0.00    -0.182 OA
BRANCH   8  11
HETATM   11  N6  UNL     1       1.531   0.374   0.331  1.00  0.00    -0.300 N 
ATOM     12  H6  UNL     1       1.704  -0.516   0.799  1.00  0.00     0.173 HD
BRANCH  11  13
HETATM   13  C8  UNL     1       2.319   0.782  -0.770  1.00  0.00     0.153 C 
BRANCH  13  14
HETATM   14  C9  UNL     1       3.349  -0.331  -1.015  1.00  0.00     0.143 C 
BRANCH  14  15
HETATM   15  N7  UNL     1       4.143  -0.480   0.164  1.00  0.00    -0.361 N 
HETATM   16  C10 UNL     1       5.436  -0.551   0.150  1.00  0.00     0.171 C 
HETATM   17  N8  UNL     1       6.255  -0.697   1.297  1.00  0.00    -0.361 N 
HETATM   18  N9  UNL     1       6.239  -0.493  -1.023  1.00  0.00    -0.361 N 
HETATM   19  C11 UNL     1       7.619  -0.703   0.817  1.00  0.00     0.142 C 
ATOM     20  H8  UNL     1       5.945  -0.781   2.265  1.00  0.00     0.162 HD
HETATM   21  C12 UNL     1       7.514  -1.090  -0.627  1.00  0.00     0.142 C 
ATOM     22  H9  UNL     1       5.983  -0.119  -1.936  1.00  0.00     0.162 HD
ATOM     23  H7  UNL     1       3.666  -0.533   1.064  1.00  0.00     0.162 HD
ENDBRANCH  14  15
ENDBRANCH  13  14
ENDBRANCH  11  13
ENDBRANCH   8  11
ENDBRANCH   5   8
BRANCH   3  24
HETATM   24  C3  UNL     1      -4.748   0.006   0.599  1.00  0.00     0.079 A 
HETATM   25  C4  UNL     1      -5.014  -0.163   1.939  1.00  0.00     0.050 A 
HETATM   26  C5  UNL     1      -6.277  -0.544   2.324  1.00  0.00     0.108 A 
HETATM   27  N2  UNL     1      -7.234  -0.747   1.383  1.00  0.00    -0.202 N 
HETATM   28  C6  UNL     1      -6.962  -0.579   0.078  1.00  0.00     0.676 A 
ATOM     29  H2  UNL     1      -8.171  -1.030   1.670  1.00  0.00     0.183 HD
HETATM   30  N4  UNL     1      -5.727  -0.206  -0.292  1.00  0.00    -0.190 N 
ATOM     31  H4  UNL     1      -5.527  -0.080  -1.284  1.00  0.00     0.184 HD
BRANCH  28  32
HETATM   32  N3  UNL     1      -7.910  -0.785  -0.768  1.00  0.00    -0.234 N 
ATOM     33  H32 UNL     1      -8.849  -1.068  -0.487  1.00  0.00     0.174 HD
ATOM     34  H31 UNL     1      -7.704  -0.657  -1.759  1.00  0.00     0.174 HD
ENDBRANCH  28  32
ENDBRANCH   3  24
TORSDOF 7
