REMARK  8 active torsions:
REMARK  status: ('A' for Active; 'I' for Inactive)
REMARK    1  A    between atoms: N1_2  and  N2_3 
REMARK    2  A    between atoms: N1_2  and  S1_6 
REMARK    3  A    between atoms: S1_6  and  N3_9 
REMARK    4  A    between atoms: N3_9  and  N4_11 
REMARK    5  A    between atoms: N4_11  and  C2_13 
REMARK    6  A    between atoms: C7_18  and  S2_19 
REMARK    7  A    between atoms: S2_19  and  N5_20 
REMARK    8  A    between atoms: S2_19  and  N6_24 
REMARK       I    between atoms: N6_24  and  C8_26 
ROOT
HETATM    1  C2  UNL     1      -0.181   0.632  -0.518  1.00  0.00     0.073 A 
HETATM    2  C3  UNL     1      -0.708   1.831  -0.954  1.00  0.00     0.072 A 
HETATM    3  C4  UNL     1       0.045   2.975  -1.160  1.00  0.00     0.107 A 
HETATM    4  C5  UNL     1       1.423   2.927  -0.913  1.00  0.00     0.106 A 
HETATM    5  C6  UNL     1       1.949   1.742  -0.481  1.00  0.00     0.065 A 
HETATM    6  C7  UNL     1       1.181   0.597  -0.278  1.00  0.00     0.089 A 
HETATM    7  O4  UNL     1       1.946   4.197  -1.193  1.00  0.00    -0.323 OA
HETATM    8  C9  UNL     1       1.011   4.905  -1.987  1.00  0.00     0.352 C 
HETATM    9  O5  UNL     1      -0.197   4.275  -1.578  1.00  0.00    -0.323 OA
ENDROOT
BRANCH   1  10
HETATM   10  N4  UNL     1      -0.968  -0.533  -0.315  1.00  0.00    -0.289 N 
ATOM     11  H4  UNL     1      -1.205  -1.080  -1.143  1.00  0.00     0.188 HD
BRANCH  10  12
HETATM   12  N3  UNL     1      -1.443  -0.996   0.897  1.00  0.00    -0.212 N 
ATOM     13  H3  UNL     1      -1.113  -0.700   1.816  1.00  0.00     0.201 HD
BRANCH  12  14
HETATM   14  S1  UNL     1      -2.689  -2.160   0.602  1.00  0.00     0.332 S 
HETATM   15  O1  UNL     1      -2.527  -2.745  -0.781  1.00  0.00    -0.185 OA
HETATM   16  O2  UNL     1      -2.527  -3.306   1.565  1.00  0.00    -0.185 OA
BRANCH  14  17
HETATM   17  N1  UNL     1      -4.262  -1.483   0.750  1.00  0.00    -0.113 NA
HETATM   18  C1  UNL     1      -4.699  -0.903  -0.495  1.00  0.00     0.157 C 
BRANCH  17  19
HETATM   19  N2  UNL     1      -4.250  -0.517   1.752  1.00  0.00    -0.349 NA
ATOM     20  H22 UNL     1      -5.183  -0.115   1.840  1.00  0.00     0.172 HD
ATOM     21  H21 UNL     1      -3.941  -0.927   2.633  1.00  0.00     0.172 HD
ENDBRANCH  17  19
ENDBRANCH  14  17
ENDBRANCH  12  14
ENDBRANCH  10  12
ENDBRANCH   1  10
BRANCH   6  22
HETATM   22  S2  UNL     1       1.964  -0.851   0.281  1.00  0.00     0.141 S 
HETATM   23  O3  UNL     1       1.451  -1.333   1.603  1.00  0.00    -0.223 OA
BRANCH  22  24
HETATM   24  N5  UNL     1       1.734  -2.087  -0.900  1.00  0.00    -0.341 N 
ATOM     25  H52 UNL     1       1.222  -1.972  -1.775  1.00  0.00     0.167 HD
ATOM     26  H51 UNL     1       2.193  -2.937  -0.572  1.00  0.00     0.167 HD
ENDBRANCH  22  24
BRANCH  22  27
HETATM   27  N6  UNL     1       3.499  -0.548   0.512  1.00  0.00    -0.271 N 
HETATM   28  C8  UNL     1       4.266  -1.558   1.141  1.00  0.00     0.194 C 
HETATM   29  N7  UNL     1       4.936  -2.362   0.402  1.00  0.00    -0.373 N 
HETATM   30  N8  UNL     1       4.307  -1.700   2.554  1.00  0.00    -0.063 NA
ATOM     31  H72 UNL     1       4.907  -2.260  -0.612  1.00  0.00     0.158 HD
ATOM     32  H71 UNL     1       5.489  -3.090   0.855  1.00  0.00     0.158 HD
ATOM     33  H6  UNL     1       3.918   0.335   0.221  1.00  0.00     0.180 HD
ENDBRANCH  22  27
ENDBRANCH   6  22
TORSDOF 8
