REMARK  10 active torsions:
REMARK  status: ('A' for Active; 'I' for Inactive)
REMARK    1  A    between atoms: O1_2  and  C2_3 
REMARK    2  A    between atoms: C2_3  and  C3_4 
REMARK    3  A    between atoms: C3_4  and  N1_5 
REMARK    4  A    between atoms: N1_5  and  C4_7 
REMARK    5  A    between atoms: C5_10  and  N3_11 
REMARK    6  A    between atoms: C11_18  and  C12_19 
REMARK    7  A    between atoms: C12_19  and  N5_20 
REMARK    8  A    between atoms: C13_24  and  N6_25 
REMARK    9  A    between atoms: N6_25  and  C14_27 
REMARK   10  A    between atoms: C16_33  and  N9_34 
ROOT
HETATM    1  C4  UNL     1      -1.202  -1.199  -0.167  1.00  0.00     0.681 A 
HETATM    2  N2  UNL     1       0.122  -1.202  -0.294  1.00  0.00    -0.176 N 
ATOM      3  H2  UNL     1       0.572  -2.059  -0.615  1.00  0.00     0.186 HD
HETATM    4  C5  UNL     1       0.913  -0.124  -0.020  1.00  0.00     0.131 A 
HETATM    5  C11 UNL     1       0.236   1.009   0.413  1.00  0.00     0.057 A 
HETATM    6  C13 UNL     1      -1.128   1.019   0.545  1.00  0.00     0.148 A 
HETATM    7  N11 UNL     1      -1.817  -0.093   0.250  1.00  0.00    -0.175 N 
ATOM      8  H11 UNL     1      -2.832  -0.092   0.347  1.00  0.00     0.186 HD
ENDROOT
BRANCH   6   9
HETATM    9  N6  UNL     1      -1.859   2.149   0.976  1.00  0.00    -0.175 N 
ATOM     10  H6  UNL     1      -1.606   2.541   1.883  1.00  0.00     0.186 HD
BRANCH   9  11
HETATM   11  C14 UNL     1      -2.806   2.730   0.343  1.00  0.00     0.699 A 
HETATM   12  N7  UNL     1      -3.290   2.380  -0.858  1.00  0.00    -0.186 N 
HETATM   13  C15 UNL     1      -4.302   3.042  -1.443  1.00  0.00     0.215 A 
ATOM     14  H7  UNL     1      -2.876   1.584  -1.343  1.00  0.00     0.185 HD
HETATM   15  N8  UNL     1      -4.879   4.098  -0.842  1.00  0.00    -0.187 N 
HETATM   16  C16 UNL     1      -4.411   4.473   0.369  1.00  0.00     0.691 A 
ATOM     17  H8  UNL     1      -5.647   4.601  -1.287  1.00  0.00     0.185 HD
HETATM   18  N10 UNL     1      -3.407   3.794   0.920  1.00  0.00    -0.022 N 
ATOM     19  H10 UNL     1      -3.071   4.096   1.834  1.00  0.00     0.203 HD
BRANCH  16  20
HETATM   20  N9  UNL     1      -4.920   5.489   1.017  1.00  0.00    -0.234 N 
ATOM     21  H92 UNL     1      -5.689   6.009   0.595  1.00  0.00     0.174 HD
ATOM     22  H91 UNL     1      -4.567   5.772   1.931  1.00  0.00     0.174 HD
ENDBRANCH  16  20
ENDBRANCH   9  11
ENDBRANCH   6   9
BRANCH   5  23
HETATM   23  C12 UNL     1       1.006   2.211   0.751  1.00  0.00     0.275 C 
BRANCH  23  24
HETATM   24  N5  UNL     1       0.195   3.316   1.210  1.00  0.00    -0.075 N 
ATOM     25  H53 UNL     1      -0.531   3.535   0.528  1.00  0.00     0.274 HD
ATOM     26  H52 UNL     1      -0.388   3.031   1.997  1.00  0.00     0.274 HD
ATOM     27  H51 UNL     1       0.730   4.152   1.445  1.00  0.00     0.274 HD
ENDBRANCH  23  24
ENDBRANCH   5  23
BRANCH   4  28
HETATM   28  N3  UNL     1       2.308  -0.190  -0.184  1.00  0.00    -0.363 N 
HETATM   29  C6  UNL     1       3.102   0.487  -1.178  1.00  0.00     0.154 C 
HETATM   30  C7  UNL     1       4.370   0.977  -0.511  1.00  0.00     0.291 C 
HETATM   31  N4  UNL     1       5.181  -0.111  -0.072  1.00  0.00     0.087 N 
HETATM   32  C8  UNL     1       6.182  -0.390  -1.074  1.00  0.00     0.310 C 
HETATM   33  C9  UNL     1       4.442  -1.317   0.203  1.00  0.00     0.291 C 
HETATM   34  C10 UNL     1       3.055  -1.030   0.740  1.00  0.00     0.154 C 
ENDBRANCH   4  28
BRANCH   1  35
HETATM   35  N1  UNL     1      -1.921  -2.234  -0.433  1.00  0.00    -0.224 N 
ATOM     36  H1  UNL     1      -2.931  -2.164  -0.313  1.00  0.00     0.177 HD
BRANCH  35  37
HETATM   37  C3  UNL     1      -1.376  -3.481  -0.889  1.00  0.00     0.164 C 
BRANCH  37  38
HETATM   38  C2  UNL     1      -2.462  -4.534  -0.743  1.00  0.00     0.187 C 
BRANCH  38  39
HETATM   39  O1  UNL     1      -2.807  -4.589   0.605  1.00  0.00    -0.394 OA
HETATM   40  C1  UNL     1      -3.799  -5.526   0.853  1.00  0.00     0.201 C 
ENDBRANCH  38  39
ENDBRANCH  37  38
ENDBRANCH  35  37
ENDBRANCH   1  35
TORSDOF 10
