REMARK  7 active torsions:
REMARK  status: ('A' for Active; 'I' for Inactive)
REMARK    1  A    between atoms: N1_1  and  S1_4 
REMARK    2  A    between atoms: S1_4  and  C1_7 
REMARK    3  A    between atoms: C4_12  and  C5_13 
REMARK       I    between atoms: C5_13  and  N3_15 
REMARK    4  A    between atoms: N3_15  and  N4_17 
REMARK       I    between atoms: N4_17  and  C6_19 
REMARK    5  A    between atoms: C6_19  and  C7_21 
REMARK    6  A    between atoms: C7_21  and  O5_22 
REMARK    7  A    between atoms: O5_22  and  N5_23 
ROOT
HETATM    1  C1  UNL     1      -4.506   0.590  -0.600  1.00  0.00     0.227 A 
HETATM    2  N2  UNL     1      -3.205   0.805  -0.852  1.00  0.00    -0.331 N 
ATOM      3  H2  UNL     1      -2.948   1.412  -1.630  1.00  0.00     0.168 HD
HETATM    4  C2  UNL     1      -2.226   0.245  -0.111  1.00  0.00     0.051 A 
HETATM    5  C3  UNL     1      -0.893   0.463  -0.366  1.00  0.00     0.047 A 
HETATM    6  C4  UNL     1       0.135  -0.113   0.396  1.00  0.00     0.035 A 
HETATM    7  C8  UNL     1      -0.262  -0.921   1.428  1.00  0.00     0.018 A 
HETATM    8  C9  UNL     1      -1.618  -1.142   1.686  1.00  0.00     0.020 A 
HETATM    9  C10 UNL     1      -2.611  -0.571   0.931  1.00  0.00     0.059 A 
HETATM   10  C11 UNL     1      -3.954  -0.787   1.183  1.00  0.00     0.260 A 
HETATM   11  O8  UNL     1      -4.305  -1.531   2.135  1.00  0.00    -0.267 OA
HETATM   12  N6  UNL     1      -4.891  -0.205   0.415  1.00  0.00    -0.298 N 
ATOM     13  H6  UNL     1      -5.882  -0.364   0.599  1.00  0.00     0.171 HD
ENDROOT
BRANCH   6  14
HETATM   14  C5  UNL     1       1.527   0.166   0.067  1.00  0.00     0.270 C 
HETATM   15  O3  UNL     1       1.804   0.986  -0.885  1.00  0.00    -0.266 OA
HETATM   16  N3  UNL     1       2.556  -0.464   0.792  1.00  0.00    -0.263 N 
ATOM     17  H3  UNL     1       2.327  -1.114   1.544  1.00  0.00     0.190 HD
BRANCH  16  18
HETATM   18  N4  UNL     1       3.889  -0.199   0.481  1.00  0.00    -0.265 N 
HETATM   19  C6  UNL     1       4.727  -1.169  -0.134  1.00  0.00     0.262 C 
HETATM   20  O4  UNL     1       4.316  -2.306  -0.428  1.00  0.00    -0.269 OA
ATOM     21  H4  UNL     1       4.275   0.719   0.701  1.00  0.00     0.190 HD
BRANCH  19  22
HETATM   22  C7  UNL     1       6.139  -0.829  -0.441  1.00  0.00     0.312 C 
BRANCH  22  23
HETATM   23  O5  UNL     1       6.418   0.486  -0.038  1.00  0.00    -0.212 OA
BRANCH  23  24
HETATM   24  N5  UNL     1       7.608   1.123  -0.166  1.00  0.00     0.005 N 
HETATM   25  O6  UNL     1       8.678   0.499  -0.108  1.00  0.00    -0.511 OA
HETATM   26  O7  UNL     1       7.698   2.498  -0.368  1.00  0.00    -0.511 OA
ENDBRANCH  23  24
ENDBRANCH  22  23
ENDBRANCH  19  22
ENDBRANCH  16  18
ENDBRANCH   6  14
BRANCH   1  27
HETATM   27  S1  UNL     1      -5.698   1.364  -1.620  1.00  0.00     0.289 S 
HETATM   28  O1  UNL     1      -5.480   1.088  -3.067  1.00  0.00    -0.198 OA
HETATM   29  O2  UNL     1      -5.556   2.847  -1.411  1.00  0.00    -0.198 OA
BRANCH  27  30
HETATM   30  N1  UNL     1      -7.293   0.935  -1.107  1.00  0.00    -0.322 N 
ATOM     31  H12 UNL     1      -7.992   0.540  -1.735  1.00  0.00     0.169 HD
ATOM     32  H11 UNL     1      -7.442   1.124  -0.116  1.00  0.00     0.169 HD
ENDBRANCH  27  30
ENDBRANCH   1  27
TORSDOF 7
