REMARK  2 active torsions:
REMARK  status: ('A' for Active; 'I' for Inactive)
REMARK    1  A    between atoms: C8_10  and  O2_11 
REMARK    2  A    between atoms: C12_16  and  C13_17 
ROOT
HETATM    1  C1  UNL     1       3.082  -1.820   0.348  1.00  0.00     0.012 C 
HETATM    2  C2  UNL     1       1.965  -1.414  -0.496  1.00  0.00     0.026 C 
HETATM    3  C3  UNL     1       0.591  -1.468   0.197  1.00  0.00     0.279 C 
HETATM    4  N1  UNL     1      -0.177  -0.833  -0.799  1.00  0.00     0.107 N 
HETATM    5  C4  UNL     1       0.554   0.437  -1.045  1.00  0.00     0.245 C 
HETATM    6  C5  UNL     1      -0.205   1.479  -0.384  1.00  0.00     0.047 C 
HETATM    7  C6  UNL     1       0.377   2.519   0.466  1.00  0.00     0.015 C 
HETATM    8  C7  UNL     1      -1.191   0.726   0.459  1.00  0.00     0.169 C 
HETATM    9  O1  UNL     1      -2.451   1.179   0.554  1.00  0.00    -0.353 OA
HETATM   10  C8  UNL     1      -3.188   0.025   0.889  1.00  0.00     0.260 C 
HETATM   11  C9  UNL     1      -2.359  -1.166   0.370  1.00  0.00     0.104 C 
HETATM   12  C10 UNL     1      -1.456  -0.432  -0.532  1.00  0.00     0.187 C 
HETATM   13  C11 UNL     1      -2.234   0.040  -1.712  1.00  0.00     0.052 C 
HETATM   14  C12 UNL     1       1.938   0.078  -0.869  1.00  0.00     0.126 C 
ENDROOT
BRANCH  14  15
HETATM   15  C13 UNL     1       2.861   0.871  -0.078  1.00  0.00     0.179 C 
HETATM   16  O3  UNL     1       3.742   1.624  -0.590  1.00  0.00    -0.648 OA
HETATM   17  O4  UNL     1       2.897   0.907   1.329  1.00  0.00    -0.648 OA
ENDBRANCH  14  15
BRANCH  10  18
HETATM   18  O2  UNL     1      -3.380  -0.107   2.241  1.00  0.00    -0.371 OA
ATOM     19  H2  UNL     1      -3.877  -0.885   2.467  1.00  0.00     0.212 HD
ENDBRANCH  10  18
TORSDOF 2
