REMARK  4 active torsions:
REMARK  status: ('A' for Active; 'I' for Inactive)
REMARK    1  A    between atoms: C2_2  and  N1_3 
REMARK       I    between atoms: N1_3  and  C3_5 
REMARK       I    between atoms: C3_5  and  N2_7 
REMARK       I    between atoms: N3_10  and  C6_11 
REMARK    2  A    between atoms: C6_11  and  O3_13 
REMARK    3  A    between atoms: O3_13  and  C7_14 
REMARK    4  A    between atoms: C7_14  and  O4_17 
ROOT
HETATM    1  N1  UNL     1       3.993   0.205   0.047  1.00  0.00    -0.343 N 
ATOM      2  H1  UNL     1       3.713   1.184  -0.018  1.00  0.00     0.164 HD
HETATM    3  C3  UNL     1       3.094  -0.821  -0.318  1.00  0.00     0.318 C 
HETATM    4  O1  UNL     1       3.476  -2.017  -0.224  1.00  0.00    -0.247 OA
HETATM    5  N2  UNL     1       1.802  -0.490  -0.775  1.00  0.00    -0.331 N 
HETATM    6  C4  UNL     1       0.899  -1.547  -1.149  1.00  0.00     0.147 C 
HETATM    7  C5  UNL     1      -0.404  -1.331  -0.381  1.00  0.00     0.148 C 
HETATM    8  N3  UNL     1      -0.895   0.016  -0.582  1.00  0.00    -0.325 N 
HETATM    9  C6  UNL     1      -2.227   0.308  -0.224  1.00  0.00     0.365 C 
HETATM   10  O2  UNL     1      -2.708   1.465  -0.378  1.00  0.00    -0.238 OA
HETATM   11  C10 UNL     1      -0.082   1.073  -1.134  1.00  0.00     0.148 C 
HETATM   12  C11 UNL     1       1.385   0.872  -0.870  1.00  0.00     0.147 C 
ENDROOT
BRANCH   9  13
HETATM   13  O3  UNL     1      -3.100  -0.629   0.315  1.00  0.00    -0.267 OA
BRANCH  13  14
HETATM   14  C7  UNL     1      -4.419  -0.377   0.679  1.00  0.00     0.165 C 
HETATM   15  C8  UNL     1      -5.222   0.086  -0.505  1.00  0.00     0.079 C 
HETATM   16  C9  UNL     1      -4.575   0.595   1.811  1.00  0.00     0.079 C 
BRANCH  14  17
HETATM   17  O4  UNL     1      -4.978  -1.605   1.091  1.00  0.00    -0.365 OA
ATOM     18  H4  UNL     1      -5.879  -1.433   1.340  1.00  0.00     0.213 HD
ENDBRANCH  14  17
ENDBRANCH  13  14
ENDBRANCH   9  13
BRANCH   1  19
HETATM   19  C2  UNL     1       5.316  -0.149   0.515  1.00  0.00     0.120 C 
HETATM   20  C1  UNL     1       6.073   1.112   0.837  1.00  0.00     0.026 C 
ENDBRANCH   1  19
TORSDOF 4
