REMARK  11 active torsions:
REMARK  status: ('A' for Active; 'I' for Inactive)
REMARK    1  A    between atoms: C1_2  and  C2_4 
REMARK    2  A    between atoms: C3_10  and  N3_11 
REMARK    3  A    between atoms: N3_11  and  O4_12 
REMARK    4  A    between atoms: O4_12  and  S2_13 
REMARK    5  A    between atoms: S2_13  and  O7_16 
REMARK    6  A    between atoms: O7_16  and  C4_17 
REMARK    7  A    between atoms: C6_19  and  O8_20 
REMARK    8  A    between atoms: C7_22  and  O9_23 
REMARK    9  A    between atoms: O9_23  and  C8_24 
REMARK   10  A    between atoms: C8_24  and  C9_25 
REMARK   11  A    between atoms: C10_33  and  O12_34 
ROOT
HETATM    1  S2  UNL     1       0.355  -0.494   1.039  1.00  0.00     0.421 S 
HETATM    2  O5  UNL     1       1.068  -1.750   1.442  1.00  0.00    -0.167 OA
HETATM    3  O6  UNL     1      -0.215   0.119   2.287  1.00  0.00    -0.167 OA
ENDROOT
BRANCH   1   4
HETATM    4  O4  UNL     1      -0.896  -0.925   0.009  1.00  0.00    -0.134 OA
BRANCH   4   5
HETATM    5  N3  UNL     1      -1.570   0.164  -0.423  1.00  0.00    -0.037 NA
BRANCH   5   6
HETATM    6  C3  UNL     1      -2.966  -0.230  -0.629  1.00  0.00     0.347 C 
HETATM    7  S1  UNL     1      -3.878   1.173  -1.195  1.00  0.00     0.266 S 
HETATM    8  N2  UNL     1      -5.539   0.744  -1.181  1.00  0.00    -0.299 N 
HETATM    9  O2  UNL     1      -3.493   1.514  -2.626  1.00  0.00    -0.202 OA
HETATM   10  O3  UNL     1      -3.615   2.402  -0.376  1.00  0.00    -0.202 OA
HETATM   11  C2  UNL     1      -5.731  -0.392  -0.339  1.00  0.00     0.230 C 
ATOM     12  H2  UNL     1      -6.276   1.227  -1.695  1.00  0.00     0.173 HD
HETATM   13  C10 UNL     1      -4.839  -0.395   0.878  1.00  0.00     0.247 C 
HETATM   14  N5  UNL     1      -3.479  -0.689   0.611  1.00  0.00    -0.362 N 
ATOM     15  H5  UNL     1      -2.900  -1.203   1.275  1.00  0.00     0.158 HD
BRANCH  11  16
HETATM   16  C1  UNL     1      -7.130  -0.413   0.144  1.00  0.00     0.258 C 
HETATM   17  N1  UNL     1      -7.660  -1.412   1.006  1.00  0.00    -0.060 NA
HETATM   18  O1  UNL     1      -7.908   0.500  -0.221  1.00  0.00    -0.274 OA
ENDBRANCH  11  16
BRANCH  13  19
HETATM   19  O12 UNL     1      -5.036   0.805   1.576  1.00  0.00    -0.374 OA
ATOM     20  H12 UNL     1      -4.474   0.803   2.342  1.00  0.00     0.212 HD
ENDBRANCH  13  19
ENDBRANCH   5   6
ENDBRANCH   4   5
ENDBRANCH   1   4
BRANCH   1  21
HETATM   21  O7  UNL     1       1.426   0.552   0.312  1.00  0.00    -0.219 OA
BRANCH  21  22
HETATM   22  C4  UNL     1       2.644  -0.059   0.006  1.00  0.00     0.348 C 
HETATM   23  C5  UNL     1       2.947   0.039  -1.474  1.00  0.00     0.099 C 
HETATM   24  C6  UNL     1       4.155   0.984  -1.522  1.00  0.00     0.178 C 
HETATM   25  C7  UNL     1       4.842   0.592  -0.206  1.00  0.00     0.353 C 
HETATM   26  N4  UNL     1       3.728   0.610   0.696  1.00  0.00    -0.019 N 
ATOM     27  H42 UNL     1       3.486   1.545   1.025  1.00  0.00     0.283 HD
ATOM     28  H41 UNL     1       3.938   0.208   1.610  1.00  0.00     0.283 HD
BRANCH  24  29
HETATM   29  O8  UNL     1       3.688   2.282  -1.425  1.00  0.00    -0.391 OA
ATOM     30  H8  UNL     1       4.436   2.867  -1.455  1.00  0.00     0.210 HD
ENDBRANCH  24  29
BRANCH  25  31
HETATM   31  O9  UNL     1       5.373  -0.670  -0.317  1.00  0.00    -0.346 OA
BRANCH  31  32
HETATM   32  C8  UNL     1       6.731  -0.745  -0.119  1.00  0.00     0.283 C 
BRANCH  32  33
HETATM   33  C9  UNL     1       7.195  -0.300   1.198  1.00  0.00     0.197 C 
HETATM   34  O10 UNL     1       6.371   0.109   2.045  1.00  0.00    -0.646 OA
HETATM   35  O11 UNL     1       8.534  -0.321   1.526  1.00  0.00    -0.646 OA
ENDBRANCH  32  33
ENDBRANCH  31  32
ENDBRANCH  25  31
ENDBRANCH  21  22
ENDBRANCH   1  21
TORSDOF 11
