REMARK  15 active torsions:
REMARK  status: ('A' for Active; 'I' for Inactive)
REMARK    1  A    between atoms: N1_2  and  N2_3 
REMARK    2  A    between atoms: N1_2  and  C2_6 
REMARK    3  A    between atoms: N5_13  and  N6_15 
REMARK    4  A    between atoms: N6_15  and  C6_17 
REMARK    5  A    between atoms: C6_17  and  C7_18 
REMARK    6  A    between atoms: C7_18  and  O2_20 
REMARK    7  A    between atoms: O2_20  and  C8_21 
REMARK    8  A    between atoms: C8_21  and  C9_22 
REMARK    9  A    between atoms: C9_22  and  C10_23 
REMARK   10  A    between atoms: C10_23  and  O3_24 
REMARK   11  A    between atoms: C11_27  and  O5_28 
REMARK   12  A    between atoms: C12_30  and  O6_31 
REMARK   13  A    between atoms: C13_33  and  C14_34 
REMARK       I    between atoms: C14_34  and  N7_36 
REMARK   14  A    between atoms: N7_36  and  C15_38 
REMARK   15  A    between atoms: N8_39  and  N9_41 
ROOT
HETATM    1  C9  UNL     1       2.910   0.962  -0.604  1.00  0.00     0.211 C 
HETATM    2  O4  UNL     1       3.076  -0.381  -0.781  1.00  0.00    -0.318 OA
HETATM    3  C11 UNL     1       3.549  -1.104   0.260  1.00  0.00     0.292 C 
HETATM    4  C12 UNL     1       4.634  -0.409   1.006  1.00  0.00     0.211 C 
HETATM    5  C13 UNL     1       4.569   1.085   1.009  1.00  0.00     0.251 C 
HETATM    6  O8  UNL     1       4.011   1.629  -0.120  1.00  0.00    -0.334 OA
ENDROOT
BRANCH   1   7
HETATM    7  C8  UNL     1       1.759   1.284   0.321  1.00  0.00     0.249 C 
BRANCH   7   8
HETATM    8  O2  UNL     1       0.519   0.766  -0.159  1.00  0.00    -0.315 OA
BRANCH   8   9
HETATM    9  C7  UNL     1      -0.657   0.946   0.538  1.00  0.00     0.278 C 
HETATM   10  O1  UNL     1      -0.700   1.569   1.617  1.00  0.00    -0.263 OA
BRANCH   9  11
HETATM   11  C6  UNL     1      -1.905   0.369  -0.035  1.00  0.00     0.251 C 
BRANCH  11  12
HETATM   12  N6  UNL     1      -3.049   0.624   0.786  1.00  0.00    -0.313 N 
ATOM     13  H6  UNL     1      -2.876   1.162   1.635  1.00  0.00     0.181 HD
BRANCH  12  14
HETATM   14  N5  UNL     1      -4.290   0.255   0.587  1.00  0.00    -0.136 N 
HETATM   15  C5  UNL     1      -4.936  -0.388  -0.258  1.00  0.00     0.699 A 
HETATM   16  N4  UNL     1      -4.503  -0.975  -1.361  1.00  0.00    -0.177 N 
HETATM   17  N10 UNL     1      -6.297  -0.524  -0.034  1.00  0.00    -0.174 N 
HETATM   18  C4  UNL     1      -5.294  -1.668  -2.237  1.00  0.00     0.135 A 
ATOM     19  H4  UNL     1      -3.508  -0.906  -1.574  1.00  0.00     0.185 HD
HETATM   20  C3  UNL     1      -6.628  -1.766  -1.958  1.00  0.00     0.096 A 
HETATM   21  N3  UNL     1      -4.708  -2.255  -3.387  1.00  0.00    -0.082 NA
HETATM   22  C2  UNL     1      -7.139  -1.170  -0.814  1.00  0.00     0.140 A 
ATOM     23  H10 UNL     1      -6.678  -0.087   0.805  1.00  0.00     0.186 HD
ATOM     24  H5  UNL     1      -4.897   0.589   1.336  1.00  0.00     0.205 HD
BRANCH  22  25
HETATM   25  N1  UNL     1      -8.518  -1.250  -0.491  1.00  0.00    -0.287 N 
HETATM   26  C1  UNL     1      -9.392  -1.964  -1.398  1.00  0.00     0.179 C 
BRANCH  25  27
HETATM   27  N2  UNL     1      -8.975  -0.648   0.668  1.00  0.00    -0.342 N 
ATOM     28  H22 UNL     1      -9.967  -0.706   0.900  1.00  0.00     0.177 HD
ATOM     29  H21 UNL     1      -8.359  -0.145   1.307  1.00  0.00     0.177 HD
ENDBRANCH  25  27
ENDBRANCH  22  25
ENDBRANCH  12  14
ENDBRANCH  11  12
ENDBRANCH   9  11
ENDBRANCH   8   9
ENDBRANCH   7   8
ENDBRANCH   1   7
BRANCH   1  30
HETATM   30  C10 UNL     1       2.591   1.564  -1.950  1.00  0.00     0.235 C 
BRANCH  30  31
HETATM   31  O3  UNL     1       2.402   2.934  -1.907  1.00  0.00    -0.395 OA
ATOM     32  H3  UNL     1       2.201   3.313  -2.755  1.00  0.00     0.209 HD
ENDBRANCH  30  31
ENDBRANCH   1  30
BRANCH   3  33
HETATM   33  O5  UNL     1       2.556  -1.640   1.084  1.00  0.00    -0.368 OA
ATOM     34  H5  UNL     1       2.888  -2.148   1.815  1.00  0.00     0.212 HD
ENDBRANCH   3  33
BRANCH   5  35
HETATM   35  C14 UNL     1       5.929   1.660   1.177  1.00  0.00     0.254 C 
HETATM   36  O7  UNL     1       6.402   2.477   0.305  1.00  0.00    -0.270 OA
HETATM   37  N7  UNL     1       6.688   1.300   2.302  1.00  0.00    -0.320 N 
ATOM     38  H7  UNL     1       6.287   0.649   2.977  1.00  0.00     0.169 HD
BRANCH  37  39
HETATM   39  C15 UNL     1       7.990   1.808   2.533  1.00  0.00     0.199 C 
HETATM   40  N8  UNL     1       9.017   1.044   2.631  1.00  0.00    -0.303 N 
ATOM     41  H8  UNL     1       9.942   1.439   2.799  1.00  0.00     0.187 HD
BRANCH  40  42
HETATM   42  N9  UNL     1       8.849  -0.331   2.504  1.00  0.00    -0.344 N 
ATOM     43  H92 UNL     1       7.917  -0.710   2.336  1.00  0.00     0.176 HD
ATOM     44  H91 UNL     1       9.665  -0.938   2.582  1.00  0.00     0.176 HD
ENDBRANCH  40  42
ENDBRANCH  37  39
ENDBRANCH   5  35
BRANCH   4  45
HETATM   45  O6  UNL     1       4.609  -0.922   2.312  1.00  0.00    -0.388 OA
ATOM     46  H6  UNL     1       5.301  -0.479   2.788  1.00  0.00     0.210 HD
ENDBRANCH   4  45
TORSDOF 15
