REMARK  13 active torsions:
REMARK  status: ('A' for Active; 'I' for Inactive)
REMARK    1  A    between atoms: C5_9  and  C6_10 
REMARK    2  A    between atoms: C6_10  and  O2_11 
REMARK    3  A    between atoms: C6_10  and  C7_13 
REMARK    4  A    between atoms: C7_13  and  O3_14 
REMARK    5  A    between atoms: C7_13  and  C8_16 
REMARK    6  A    between atoms: C8_16  and  O4_17 
REMARK    7  A    between atoms: C8_16  and  C9_19 
REMARK    8  A    between atoms: C9_19  and  O5_20 
REMARK    9  A    between atoms: C9_19  and  C10_22 
REMARK   10  A    between atoms: C10_22  and  C11_24 
REMARK   11  A    between atoms: C11_24  and  C12_26 
REMARK   12  A    between atoms: C13_30  and  N4_31 
REMARK   13  A    between atoms: C14_34  and  O10_35 
ROOT
HETATM    1  N1  UNL     1      -2.353   2.801   0.277  1.00  0.00    -0.194 NA
HETATM    2  C1  UNL     1      -2.431   1.978  -0.517  1.00  0.00     0.105 C 
HETATM    3  C2  UNL     1      -2.507   0.948  -1.522  1.00  0.00     0.427 C 
HETATM    4  C3  UNL     1      -1.258   0.861  -2.350  1.00  0.00     0.267 C 
HETATM    5  O1  UNL     1      -0.683   1.879  -2.815  1.00  0.00    -0.270 OA
HETATM    6  N2  UNL     1      -0.928  -0.511  -2.463  1.00  0.00    -0.326 N 
ATOM      7  H2  UNL     1      -0.237  -0.906  -3.101  1.00  0.00     0.164 HD
HETATM    8  C4  UNL     1      -1.714  -1.243  -1.545  1.00  0.00     0.364 C 
HETATM    9  C5  UNL     1      -1.059  -1.818  -0.353  1.00  0.00     0.210 C 
HETATM   10  O9  UNL     1      -2.130  -1.795   0.583  1.00  0.00    -0.328 OA
HETATM   11  C13 UNL     1      -2.751  -0.553   0.353  1.00  0.00     0.498 C 
HETATM   12  N7  UNL     1      -2.752  -0.361  -1.049  1.00  0.00     0.191 N 
ENDROOT
BRANCH  11  13
HETATM   13  N4  UNL     1      -4.135  -0.696   0.796  1.00  0.00    -0.181 N 
HETATM   14  N5  UNL     1      -5.144  -1.172   0.061  1.00  0.00    -0.255 N 
HETATM   15  C14 UNL     1      -6.278  -1.164   0.782  1.00  0.00     0.240 A 
ATOM     16  H5  UNL     1      -5.065  -1.494  -0.904  1.00  0.00     0.191 HD
HETATM   17  N6  UNL     1      -5.989  -0.674   2.004  1.00  0.00    -0.272 N 
HETATM   18  C15 UNL     1      -4.674  -0.396   1.989  1.00  0.00     0.348 A 
ATOM     19  H6  UNL     1      -6.636  -0.541   2.781  1.00  0.00     0.174 HD
HETATM   20  O11 UNL     1      -4.025   0.085   2.963  1.00  0.00    -0.245 OA
BRANCH  15  21
HETATM   21  O10 UNL     1      -7.560  -1.580   0.383  1.00  0.00    -0.331 OA
ATOM     22  H10 UNL     1      -8.362  -1.574   0.893  1.00  0.00     0.221 HD
ENDBRANCH  15  21
ENDBRANCH  11  13
BRANCH   9  23
HETATM   23  C6  UNL     1       0.046  -1.021   0.267  1.00  0.00     0.182 C 
BRANCH  23  24
HETATM   24  O2  UNL     1       0.327  -1.676   1.504  1.00  0.00    -0.390 OA
ATOM     25  H2  UNL     1       1.028  -1.170   1.897  1.00  0.00     0.210 HD
ENDBRANCH  23  24
BRANCH  23  26
HETATM   26  C7  UNL     1       1.356  -1.081  -0.477  1.00  0.00     0.181 C 
BRANCH  26  27
HETATM   27  O3  UNL     1       1.781  -2.380  -0.705  1.00  0.00    -0.390 OA
ATOM     28  H3  UNL     1       2.606  -2.418  -1.174  1.00  0.00     0.210 HD
ENDBRANCH  26  27
BRANCH  26  29
HETATM   29  C8  UNL     1       2.387  -0.384   0.432  1.00  0.00     0.186 C 
BRANCH  29  30
HETATM   30  O4  UNL     1       1.903   0.909   0.621  1.00  0.00    -0.390 OA
ATOM     31  H4  UNL     1       2.539   1.339   1.181  1.00  0.00     0.210 HD
ENDBRANCH  29  30
BRANCH  29  32
HETATM   32  C9  UNL     1       3.705  -0.282  -0.312  1.00  0.00     0.227 C 
BRANCH  32  33
HETATM   33  O5  UNL     1       3.452   0.337  -1.515  1.00  0.00    -0.385 OA
ATOM     34  H5  UNL     1       4.277   0.401  -1.981  1.00  0.00     0.210 HD
ENDBRANCH  32  33
BRANCH  32  35
HETATM   35  C10 UNL     1       4.672   0.533   0.456  1.00  0.00     0.235 C 
HETATM   36  O6  UNL     1       5.036   0.142   1.586  1.00  0.00    -0.286 OA
BRANCH  35  37
HETATM   37  C11 UNL     1       5.201   1.773  -0.083  1.00  0.00     0.284 C 
HETATM   38  O7  UNL     1       4.862   2.203  -1.212  1.00  0.00    -0.279 OA
BRANCH  37  39
HETATM   39  C12 UNL     1       6.152   2.577   0.671  1.00  0.00     0.308 C 
HETATM   40  N3  UNL     1       6.684   3.796   0.164  1.00  0.00    -0.054 NA
HETATM   41  O8  UNL     1       6.500   2.155   1.809  1.00  0.00    -0.267 OA
ENDBRANCH  37  39
ENDBRANCH  35  37
ENDBRANCH  32  35
ENDBRANCH  29  32
ENDBRANCH  26  29
ENDBRANCH  23  26
ENDBRANCH   9  23
TORSDOF 13
