REMARK  11 active torsions:
REMARK  status: ('A' for Active; 'I' for Inactive)
REMARK    1  A    between atoms: N1_1  and  N2_4 
REMARK    2  A    between atoms: C1_7  and  N4_8 
REMARK    3  A    between atoms: C6_18  and  C7_19 
REMARK    4  A    between atoms: C7_19  and  N6_20 
REMARK    5  A    between atoms: N6_20  and  C8_22 
REMARK    6  A    between atoms: C8_22  and  C9_23 
REMARK    7  A    between atoms: C9_23  and  N7_24 
REMARK    8  A    between atoms: N7_24  and  C10_26 
REMARK    9  A    between atoms: C11_32  and  C12_33 
REMARK   10  A    between atoms: C12_33  and  O4_34 
REMARK   11  A    between atoms: C14_40  and  C15_41 
ROOT
HETATM    1  C8  UNL     1      -0.433  -0.244  -0.895  1.00  0.00     0.133 C 
ENDROOT
BRANCH   1   2
HETATM    2  N6  UNL     1      -0.910  -0.552   0.396  1.00  0.00    -0.415 N 
ATOM      3  H6  UNL     1      -0.445  -1.233   0.997  1.00  0.00     0.153 HD
BRANCH   2   4
HETATM    4  C7  UNL     1      -2.072   0.140   0.807  1.00  0.00     0.171 C 
BRANCH   4   5
HETATM    5  C6  UNL     1      -3.267  -0.195   0.007  1.00  0.00     0.288 C 
HETATM    6  N2  UNL     1      -3.828  -1.507   0.244  1.00  0.00    -0.205 N 
HETATM    7  N3  UNL     1      -5.205  -1.337  -0.060  1.00  0.00    -0.245 N 
HETATM    8  C1  UNL     1      -5.555  -0.115   0.031  1.00  0.00     0.252 C 
ATOM      9  H3  UNL     1      -5.834  -2.097  -0.318  1.00  0.00     0.192 HD
HETATM   10  O3  UNL     1      -4.398   0.591   0.418  1.00  0.00    -0.289 OA
BRANCH   6  11
HETATM   11  N1  UNL     1      -3.146  -2.622   0.667  1.00  0.00    -0.326 N 
ATOM     12  H12 UNL     1      -3.542  -3.547   0.834  1.00  0.00     0.178 HD
ATOM     13  H11 UNL     1      -2.157  -2.744   0.885  1.00  0.00     0.178 HD
ENDBRANCH   6  11
BRANCH   8  14
HETATM   14  N4  UNL     1      -6.831   0.486  -0.191  1.00  0.00    -0.238 N 
HETATM   15  C2  UNL     1      -7.028   1.757   0.274  1.00  0.00     0.111 A 
HETATM   16  C3  UNL     1      -8.224   2.410   0.075  1.00  0.00     0.092 A 
HETATM   17  C4  UNL     1      -9.264   1.810  -0.598  1.00  0.00     0.250 A 
HETATM   18  O1  UNL     1     -10.372   2.393  -0.793  1.00  0.00    -0.268 OA
HETATM   19  N5  UNL     1      -9.026   0.545  -1.044  1.00  0.00    -0.275 N 
HETATM   20  C5  UNL     1      -7.852  -0.078  -0.840  1.00  0.00     0.336 A 
ATOM     21  H5  UNL     1      -9.763   0.054  -1.550  1.00  0.00     0.173 HD
HETATM   22  O2  UNL     1      -7.687  -1.252  -1.279  1.00  0.00    -0.246 OA
ENDBRANCH   8  14
ENDBRANCH   4   5
ENDBRANCH   2   4
ENDBRANCH   1   2
BRANCH   1  23
HETATM   23  C9  UNL     1       1.002  -0.710  -1.103  1.00  0.00     0.140 C 
BRANCH  23  24
HETATM   24  N7  UNL     1       1.803   0.016  -0.158  1.00  0.00    -0.375 N 
ATOM     25  H7  UNL     1       1.320   0.554   0.561  1.00  0.00     0.160 HD
BRANCH  24  26
HETATM   26  C10 UNL     1       3.221   0.035  -0.157  1.00  0.00     0.126 C 
HETATM   27  N8  UNL     1       3.570   1.297  -0.305  1.00  0.00    -0.275 N 
HETATM   28  N9  UNL     1       4.796   1.914  -0.375  1.00  0.00    -0.244 N 
ATOM     29  H8  UNL     1       2.780   1.938  -0.382  1.00  0.00     0.189 HD
HETATM   30  N10 UNL     1       6.063   1.817   0.253  1.00  0.00    -0.109 NA
ATOM     31  H9  UNL     1       4.793   2.652  -1.079  1.00  0.00     0.203 HD
HETATM   32  C11 UNL     1       6.762   0.820  -0.550  1.00  0.00     0.216 C 
HETATM   33  C13 UNL     1       6.424  -0.546  -0.112  1.00  0.00     0.242 C 
HETATM   34  O5  UNL     1       7.456  -1.143   0.307  1.00  0.00    -0.272 OA
HETATM   35  N11 UNL     1       5.255  -1.297  -0.064  1.00  0.00    -0.339 N 
HETATM   36  C14 UNL     1       3.816  -1.277  -0.001  1.00  0.00     0.255 C 
ATOM     37  H11 UNL     1       5.535  -2.278  -0.080  1.00  0.00     0.163 HD
BRANCH  32  38
HETATM   38  C12 UNL     1       8.255   1.108  -0.372  1.00  0.00     0.197 C 
BRANCH  38  39
HETATM   39  O4  UNL     1       8.458   2.429  -0.822  1.00  0.00    -0.399 OA
ATOM     40  H4  UNL     1       9.384   2.608  -0.712  1.00  0.00     0.209 HD
ENDBRANCH  38  39
ENDBRANCH  32  38
BRANCH  36  41
HETATM   41  C15 UNL     1       3.459  -1.793   1.345  1.00  0.00     0.204 C 
HETATM   42  O6  UNL     1       4.345  -1.947   2.258  1.00  0.00    -0.646 OA
HETATM   43  O7  UNL     1       2.164  -2.127   1.665  1.00  0.00    -0.646 OA
ENDBRANCH  36  41
ENDBRANCH  24  26
ENDBRANCH  23  24
ENDBRANCH   1  23
TORSDOF 11
