REMARK  1 active torsions:
REMARK  status: ('A' for Active; 'I' for Inactive)
REMARK    1  A    between atoms: C2_2  and  C3_5 
ROOT
HETATM    1  C3  UNL     1      -0.474  -0.339   0.250  1.00  0.00     0.059 C 
HETATM    2  C4  UNL     1       0.231  -1.577  -0.250  1.00  0.00     0.012 C 
HETATM    3  C5  UNL     1       1.706  -1.268  -0.082  1.00  0.00     0.016 C 
HETATM    4  C6  UNL     1       1.774   0.135   0.483  1.00  0.00     0.059 C 
HETATM    5  S1  UNL     1       3.247   1.020   0.006  1.00  0.00    -0.092 SA
HETATM    6  C7  UNL     1       0.509   0.743  -0.144  1.00  0.00     0.026 C 
ENDROOT
BRANCH   1   7
HETATM    7  C2  UNL     1      -1.824  -0.147  -0.370  1.00  0.00     0.243 C 
HETATM    8  C1  UNL     1      -2.433   1.105   0.197  1.00  0.00     0.090 C 
HETATM    9  F1  UNL     1      -2.653  -1.228  -0.171  1.00  0.00    -0.206 F 
HETATM   10  F2  UNL     1      -1.691   0.041  -1.730  1.00  0.00    -0.206 F 
ENDBRANCH   1   7
TORSDOF 1
