REMARK  0 active torsions:
REMARK  status: ('A' for Active; 'I' for Inactive)
ROOT
HETATM    1  C1  UNL     1       2.538  -0.860   0.190  1.00  0.00     0.032 C 
HETATM    2  C2  UNL     1       1.388  -0.123  -0.510  1.00  0.00     0.078 C 
HETATM    3  C3  UNL     1       1.272   1.292  -0.030  1.00  0.00     0.103 C 
HETATM    4  C4  UNL     1       0.013   1.848  -0.712  1.00  0.00     0.247 C 
HETATM    5  F1  UNL     1      -0.099   3.192  -0.576  1.00  0.00    -0.206 F 
HETATM    6  F2  UNL     1       0.080   1.436  -2.032  1.00  0.00    -0.206 F 
HETATM    7  C5  UNL     1      -1.140   1.125  -0.077  1.00  0.00     0.108 C 
HETATM    8  C6  UNL     1      -0.960  -0.337   0.058  1.00  0.00     0.024 C 
HETATM    9  C7  UNL     1      -1.110  -0.744   1.528  1.00  0.00     0.037 C 
HETATM   10  C8  UNL     1      -2.138  -1.016  -0.660  1.00  0.00     0.037 C 
HETATM   11  N1  UNL     1       0.222  -0.897  -0.440  1.00  0.00    -0.409 N 
ATOM     12  H1  UNL     1       0.235  -1.868  -0.752  1.00  0.00     0.154 HD
ENDROOT
TORSDOF 0
