REMARK  8 active torsions:
REMARK  status: ('A' for Active; 'I' for Inactive)
REMARK    1  A    between atoms: C2_2  and  C3_3 
REMARK    2  A    between atoms: C3_3  and  N1_4 
REMARK    3  A    between atoms: N1_4  and  C4_6 
REMARK    4  A    between atoms: C4_6  and  C5_7 
REMARK    5  A    between atoms: C5_7  and  N2_8 
REMARK    6  A    between atoms: N2_8  and  C6_10 
REMARK    7  A    between atoms: C9_14  and  N3_15 
REMARK    8  A    between atoms: N3_15  and  C10_17 
ROOT
HETATM    1  C6  UNL     1       0.668   0.148  -0.552  1.00  0.00     0.054 C 
HETATM    2  C7  UNL     1       1.223   0.582   0.643  1.00  0.00     0.087 C 
HETATM    3  C8  UNL     1       2.549   0.709   0.962  1.00  0.00     0.200 C 
HETATM    4  O1  UNL     1       2.846   1.524   1.904  1.00  0.00    -0.286 OA
HETATM    5  C9  UNL     1       3.626   0.040   0.368  1.00  0.00     0.086 C 
HETATM    6  C11 UNL     1       3.514  -0.946  -0.603  1.00  0.00     0.062 C 
HETATM    7  C12 UNL     1       2.597  -0.988  -1.631  1.00  0.00     0.071 C 
HETATM    8  N4  UNL     1       3.010  -1.622  -2.825  1.00  0.00    -0.101 NA
HETATM    9  C13 UNL     1       1.303  -0.463  -1.607  1.00  0.00     0.095 C 
HETATM   10  C14 UNL     1       0.604  -0.598  -2.833  1.00  0.00     0.103 C 
HETATM   11  N5  UNL     1       0.032  -0.713  -3.827  1.00  0.00    -0.191 NA
ENDROOT
BRANCH   1  12
HETATM   12  N2  UNL     1      -0.741   0.358  -0.718  1.00  0.00    -0.387 N 
ATOM     13  H2  UNL     1      -1.201   0.064  -1.580  1.00  0.00     0.159 HD
BRANCH  12  14
HETATM   14  C5  UNL     1      -1.519   0.992   0.343  1.00  0.00     0.139 C 
BRANCH  14  15
HETATM   15  C4  UNL     1      -2.961   1.083  -0.156  1.00  0.00     0.133 C 
BRANCH  15  16
HETATM   16  N1  UNL     1      -3.814   1.688   0.813  1.00  0.00    -0.417 N 
ATOM     17  H1  UNL     1      -4.212   2.615   0.662  1.00  0.00     0.153 HD
BRANCH  16  18
HETATM   18  C3  UNL     1      -4.088   0.956   1.992  1.00  0.00     0.140 C 
BRANCH  18  19
HETATM   19  C2  UNL     1      -5.025  -0.140   1.784  1.00  0.00    -0.018 C 
HETATM   20  C1  UNL     1      -5.653  -0.392   0.678  1.00  0.00     0.008 C 
ENDBRANCH  18  19
ENDBRANCH  16  18
ENDBRANCH  15  16
ENDBRANCH  14  15
ENDBRANCH  12  14
ENDBRANCH   1  12
BRANCH   5  21
HETATM   21  N3  UNL     1       4.888   0.413   0.841  1.00  0.00    -0.331 N 
ATOM     22  H3  UNL     1       4.911   1.051   1.637  1.00  0.00     0.168 HD
BRANCH  21  23
HETATM   23  C10 UNL     1       6.124  -0.003   0.329  1.00  0.00     0.353 C 
HETATM   24  O2  UNL     1       6.268  -0.766  -0.643  1.00  0.00    -0.283 OA
ENDBRANCH  21  23
ENDBRANCH   5  21
TORSDOF 8
