REMARK  9 active torsions:
REMARK  status: ('A' for Active; 'I' for Inactive)
REMARK    1  A    between atoms: C2_2  and  C3_3 
REMARK    2  A    between atoms: C3_3  and  C4_4 
REMARK    3  A    between atoms: C4_4  and  N1_5 
REMARK    4  A    between atoms: N1_5  and  N2_6 
REMARK       I    between atoms: N1_5  and  C12_19 
REMARK    5  A    between atoms: N2_6  and  C5_8 
REMARK    6  A    between atoms: C8_11  and  O1_12 
REMARK    7  A    between atoms: C9_14  and  C10_15 
REMARK    8  A    between atoms: C12_19  and  C13_21 
REMARK    9  A    between atoms: C13_21  and  N4_22 
ROOT
HETATM    1  N2  UNL     1      -0.739  -0.833  -0.857  1.00  0.00    -0.296 N 
ATOM      2  H2  UNL     1      -1.322  -1.349  -1.516  1.00  0.00     0.187 HD
ENDROOT
BRANCH   1   3
HETATM    3  N1  UNL     1      -1.365  -0.256   0.236  1.00  0.00    -0.259 N 
HETATM    4  C12 UNL     1      -1.778  -1.061   1.313  1.00  0.00     0.263 C 
HETATM    5  O3  UNL     1      -2.354  -0.538   2.286  1.00  0.00    -0.270 OA
BRANCH   3   6
HETATM    6  C4  UNL     1      -1.602   1.183   0.254  1.00  0.00     0.156 C 
BRANCH   6   7
HETATM    7  C3  UNL     1      -2.939   1.488  -0.366  1.00  0.00     0.048 C 
BRANCH   7   8
HETATM    8  C2  UNL     1      -3.185   2.949  -0.332  1.00  0.00    -0.035 C 
HETATM    9  C1  UNL     1      -2.268   3.745   0.187  1.00  0.00     0.007 C 
ENDBRANCH   7   8
ENDBRANCH   6   7
ENDBRANCH   3   6
BRANCH   4  10
HETATM   10  C13 UNL     1      -1.542  -2.517   1.312  1.00  0.00     0.333 C 
BRANCH  10  11
HETATM   11  N4  UNL     1      -2.071  -3.127   2.533  1.00  0.00    -0.071 N 
ATOM     12  H43 UNL     1      -1.695  -2.683   3.371  1.00  0.00     0.274 HD
ATOM     13  H42 UNL     1      -3.057  -2.904   2.671  1.00  0.00     0.274 HD
ATOM     14  H41 UNL     1      -1.908  -4.134   2.532  1.00  0.00     0.274 HD
ENDBRANCH  10  11
ENDBRANCH   4  10
ENDBRANCH   1   3
BRANCH   1  15
HETATM   15  C5  UNL     1       0.652  -0.760  -1.129  1.00  0.00     0.049 A 
HETATM   16  C6  UNL     1       1.178  -1.307  -2.284  1.00  0.00     0.034 A 
HETATM   17  C7  UNL     1       2.517  -1.255  -2.574  1.00  0.00     0.040 A 
HETATM   18  C8  UNL     1       3.445  -0.638  -1.708  1.00  0.00     0.081 A 
HETATM   19  C9  UNL     1       2.929  -0.095  -0.563  1.00  0.00     0.064 A 
HETATM   20  C11 UNL     1       1.564  -0.160  -0.290  1.00  0.00     0.050 A 
BRANCH  18  21
HETATM   21  O1  UNL     1       4.759  -0.643  -2.097  1.00  0.00    -0.360 OA
ATOM     22  H1  UNL     1       5.384  -0.228  -1.514  1.00  0.00     0.217 HD
ENDBRANCH  18  21
BRANCH  19  23
HETATM   23  C10 UNL     1       3.800   0.557   0.395  1.00  0.00     0.267 C 
HETATM   24  N3  UNL     1       3.186   1.102   1.578  1.00  0.00    -0.057 NA
HETATM   25  O2  UNL     1       5.024   0.708   0.325  1.00  0.00    -0.271 OA
ENDBRANCH  19  23
ENDBRANCH   1  15
TORSDOF 9
