REMARK  4 active torsions:
REMARK  status: ('A' for Active; 'I' for Inactive)
REMARK       I    between atoms: N1_2  and  C2_4 
REMARK       I    between atoms: C2_4  and  N2_6 
REMARK    1  A    between atoms: N2_6  and  N3_8 
REMARK    2  A    between atoms: C3_10  and  C5_12 
REMARK    3  A    between atoms: N4_14  and  C7_15 
REMARK    4  A    between atoms: C7_15  and  C8_16 
ROOT
HETATM    1  C5  UNL     1       1.033   0.646   0.576  1.00  0.00     0.090 A 
HETATM    2  C6  UNL     1       2.141  -0.150   0.788  1.00  0.00     0.145 A 
HETATM    3  N4  UNL     1       3.243   0.535   0.461  1.00  0.00    -0.278 N 
HETATM    4  N6  UNL     1       2.848   1.725   0.056  1.00  0.00    -0.240 N 
ATOM      5  H6  UNL     1       3.469   2.470  -0.259  1.00  0.00     0.208 HD
HETATM    6  N7  UNL     1       1.532   1.814   0.116  1.00  0.00    -0.283 N 
ATOM      7  H7  UNL     1       0.981   2.632  -0.143  1.00  0.00     0.188 HD
ENDROOT
BRANCH   1   8
HETATM    8  C3  UNL     1      -0.348   0.280   0.806  1.00  0.00     0.051 C 
HETATM    9  N3  UNL     1      -1.310   1.106   0.573  1.00  0.00    -0.299 N 
ATOM     10  H3  UNL     1      -1.082   2.035   0.219  1.00  0.00     0.186 HD
HETATM   11  C4  UNL     1      -0.685  -1.053   1.315  1.00  0.00     0.072 C 
BRANCH   9  12
HETATM   12  N2  UNL     1      -2.641   0.783   0.784  1.00  0.00    -0.252 N 
HETATM   13  C2  UNL     1      -3.515   0.643  -0.314  1.00  0.00     0.334 C 
HETATM   14  N1  UNL     1      -4.879   0.314  -0.120  1.00  0.00    -0.346 N 
HETATM   15  O1  UNL     1      -3.111   0.807  -1.513  1.00  0.00    -0.246 OA
HETATM   16  C1  UNL     1      -5.795   0.166  -1.254  1.00  0.00     0.151 C 
ATOM     17  H1  UNL     1      -5.230   0.177   0.828  1.00  0.00     0.163 HD
ATOM     18  H2  UNL     1      -2.989   0.647   1.733  1.00  0.00     0.191 HD
ENDBRANCH   9  12
ENDBRANCH   1   8
BRANCH   3  19
HETATM   19  C7  UNL     1       4.612   0.085   0.529  1.00  0.00     0.249 C 
BRANCH  19  20
HETATM   20  C8  UNL     1       5.045  -0.555  -0.730  1.00  0.00     0.251 C 
HETATM   21  N5  UNL     1       4.220  -0.710  -1.871  1.00  0.00    -0.061 NA
HETATM   22  O2  UNL     1       6.224  -0.990  -0.794  1.00  0.00    -0.275 OA
ENDBRANCH  19  20
ENDBRANCH   3  19
TORSDOF 4
