REMARK  7 active torsions:
REMARK  status: ('A' for Active; 'I' for Inactive)
REMARK    1  A    between atoms: N2_5  and  C4_6 
REMARK    2  A    between atoms: C4_6  and  C5_7 
REMARK    3  A    between atoms: C5_7  and  C6_8 
REMARK    4  A    between atoms: C6_8  and  C7_9 
REMARK    5  A    between atoms: C7_9  and  C8_10 
REMARK    6  A    between atoms: C8_10  and  N3_11 
REMARK    7  A    between atoms: C8_10  and  N4_15 
ROOT
HETATM    1  N1  UNL     1       5.760  -1.688  -2.011  1.00  0.00    -0.191 NA
HETATM    2  C1  UNL     1       5.058  -1.190  -1.265  1.00  0.00     0.106 C 
HETATM    3  C2  UNL     1       4.176  -0.541  -0.334  1.00  0.00     0.128 A 
HETATM    4  C3  UNL     1       2.956  -0.010  -0.715  1.00  0.00     0.124 A 
HETATM    5  N2  UNL     1       2.128   0.602   0.170  1.00  0.00    -0.308 N 
HETATM    6  C9  UNL     1       2.561   0.666   1.453  1.00  0.00     0.329 A 
HETATM    7  O1  UNL     1       1.812   1.232   2.314  1.00  0.00    -0.246 OA
HETATM    8  N5  UNL     1       3.744   0.156   1.843  1.00  0.00    -0.274 N 
ATOM      9  H5  UNL     1       4.016   0.235   2.823  1.00  0.00     0.173 HD
HETATM   10  C10 UNL     1       4.577  -0.453   0.985  1.00  0.00     0.271 A 
HETATM   11  O2  UNL     1       5.697  -0.933   1.366  1.00  0.00    -0.266 OA
ENDROOT
BRANCH   5  12
HETATM   12  C4  UNL     1       0.851   1.158  -0.228  1.00  0.00     0.133 C 
BRANCH  12  13
HETATM   13  C5  UNL     1      -0.192   0.069  -0.077  1.00  0.00     0.020 C 
BRANCH  13  14
HETATM   14  C6  UNL     1      -1.568   0.561  -0.473  1.00  0.00     0.005 C 
BRANCH  14  15
HETATM   15  C7  UNL     1      -2.528  -0.582  -0.290  1.00  0.00     0.062 C 
BRANCH  15  16
HETATM   16  C8  UNL     1      -3.945  -0.212  -0.656  1.00  0.00     0.378 C 
BRANCH  16  17
HETATM   17  N3  UNL     1      -4.352   0.899   0.218  1.00  0.00    -0.051 N 
ATOM     18  H33 UNL     1      -4.240   0.687   1.209  1.00  0.00     0.276 HD
ATOM     19  H32 UNL     1      -3.711   1.692   0.178  1.00  0.00     0.276 HD
ATOM     20  H31 UNL     1      -5.309   1.149  -0.029  1.00  0.00     0.276 HD
ENDBRANCH  16  17
BRANCH  16  21
HETATM   21  N4  UNL     1      -4.794  -1.342  -0.313  1.00  0.00    -0.051 N 
ATOM     22  H43 UNL     1      -4.487  -2.215  -0.742  1.00  0.00     0.276 HD
ATOM     23  H42 UNL     1      -4.697  -1.631   0.660  1.00  0.00     0.276 HD
ATOM     24  H41 UNL     1      -5.751  -1.092  -0.560  1.00  0.00     0.276 HD
ENDBRANCH  16  21
ENDBRANCH  15  16
ENDBRANCH  14  15
ENDBRANCH  13  14
ENDBRANCH  12  13
ENDBRANCH   5  12
TORSDOF 7
