REMARK  7 active torsions:
REMARK  status: ('A' for Active; 'I' for Inactive)
REMARK    1  A    between atoms: N1_1  and  C1_5 
REMARK    2  A    between atoms: C1_5  and  C2_6 
REMARK    3  A    between atoms: C2_6  and  C3_7 
REMARK    4  A    between atoms: C3_7  and  C4_8 
REMARK    5  A    between atoms: C4_8  and  N2_9 
REMARK    6  A    between atoms: N2_9  and  C5_11 
REMARK    7  A    between atoms: C7_17  and  N5_18 
ROOT
HETATM    1  C5  UNL     1      -0.144  -0.522  -0.720  1.00  0.00     0.693 A 
HETATM    2  N3  UNL     1      -0.603   0.642  -1.196  1.00  0.00    -0.187 N 
ATOM      3  H3  UNL     1      -1.591   0.749  -1.425  1.00  0.00     0.185 HD
HETATM    4  C6  UNL     1       0.245   1.666  -1.369  1.00  0.00     0.215 A 
HETATM    5  N4  UNL     1       1.558   1.542  -1.070  1.00  0.00    -0.187 N 
ATOM      6  H4  UNL     1       2.182   2.336  -1.212  1.00  0.00     0.185 HD
HETATM    7  C7  UNL     1       2.058   0.381  -0.586  1.00  0.00     0.695 A 
HETATM    8  N6  UNL     1       1.166  -0.613  -0.433  1.00  0.00    -0.022 N 
ATOM      9  H6  UNL     1       1.509  -1.503  -0.072  1.00  0.00     0.203 HD
ENDROOT
BRANCH   1  10
HETATM   10  N2  UNL     1      -0.945  -1.550  -0.537  1.00  0.00    -0.226 N 
ATOM     11  H2  UNL     1      -0.589  -2.434  -0.174  1.00  0.00     0.177 HD
BRANCH  10  12
HETATM   12  C4  UNL     1      -2.341  -1.391  -0.864  1.00  0.00     0.138 C 
BRANCH  12  13
HETATM   13  C3  UNL     1      -3.074  -0.640   0.230  1.00  0.00     0.022 C 
BRANCH  13  14
HETATM   14  C2  UNL     1      -4.529  -0.463  -0.089  1.00  0.00     0.029 C 
BRANCH  14  15
HETATM   15  C1  UNL     1      -5.272   0.280   0.985  1.00  0.00     0.229 C 
BRANCH  15  16
HETATM   16  N1  UNL     1      -6.670   0.427   0.635  1.00  0.00    -0.079 N 
ATOM     17  H13 UNL     1      -6.786   0.867  -0.278  1.00  0.00     0.274 HD
ATOM     18  H12 UNL     1      -7.104  -0.473   0.429  1.00  0.00     0.274 HD
ATOM     19  H11 UNL     1      -7.174   0.931   1.364  1.00  0.00     0.274 HD
ENDBRANCH  15  16
ENDBRANCH  14  15
ENDBRANCH  13  14
ENDBRANCH  12  13
ENDBRANCH  10  12
ENDBRANCH   1  10
BRANCH   7  20
HETATM   20  N5  UNL     1       3.423   0.219  -0.264  1.00  0.00    -0.217 N 
HETATM   21  C8  UNL     1       4.453   1.220  -0.394  1.00  0.00     0.141 C 
HETATM   22  C9  UNL     1       5.207   1.023   0.920  1.00  0.00     0.022 C 
HETATM   23  C10 UNL     1       5.370  -0.500   0.882  1.00  0.00     0.022 C 
HETATM   24  C11 UNL     1       4.064  -0.962   0.253  1.00  0.00     0.141 C 
ENDBRANCH   7  20
TORSDOF 7
