REMARK  6 active torsions:
REMARK  status: ('A' for Active; 'I' for Inactive)
REMARK    1  A    between atoms: N1_1  and  C1_5 
REMARK    2  A    between atoms: C1_5  and  C2_6 
REMARK    3  A    between atoms: C2_6  and  C3_7 
REMARK    4  A    between atoms: C3_7  and  C4_8 
REMARK    5  A    between atoms: C4_8  and  C5_9 
REMARK    6  A    between atoms: C9_17  and  C10_18 
ROOT
HETATM    1  C5  UNL     1       0.511  -1.208   0.477  1.00  0.00     0.081 C 
HETATM    2  N2  UNL     1       0.478  -2.299  -0.303  1.00  0.00    -0.352 N 
ATOM      3  H2  UNL     1      -0.326  -2.914  -0.179  1.00  0.00     0.166 HD
HETATM    4  C6  UNL     1       1.387  -2.685  -1.240  1.00  0.00     0.146 C 
HETATM    5  C7  UNL     1       2.299  -1.863  -1.893  1.00  0.00     0.213 C 
HETATM    6  O1  UNL     1       2.778  -2.297  -2.975  1.00  0.00    -0.285 OA
HETATM    7  C8  UNL     1       2.732  -0.604  -1.465  1.00  0.00     0.129 C 
HETATM    8  N3  UNL     1       3.600   0.050  -2.374  1.00  0.00    -0.096 NA
HETATM    9  C9  UNL     1       2.430   0.068  -0.295  1.00  0.00     0.127 C 
HETATM   10  N5  UNL     1       1.492  -0.290   0.622  1.00  0.00    -0.340 N 
ATOM     11  H5  UNL     1       1.534   0.189   1.522  1.00  0.00     0.167 HD
ENDROOT
BRANCH   1  12
HETATM   12  C4  UNL     1      -0.710  -0.988   1.294  1.00  0.00     0.076 C 
BRANCH  12  13
HETATM   13  C3  UNL     1      -1.650  -0.142   0.476  1.00  0.00     0.009 C 
BRANCH  13  14
HETATM   14  C2  UNL     1      -2.940   0.165   1.182  1.00  0.00     0.027 C 
BRANCH  14  15
HETATM   15  C1  UNL     1      -3.777   1.015   0.245  1.00  0.00     0.229 C 
BRANCH  15  16
HETATM   16  N1  UNL     1      -5.042   1.379   0.803  1.00  0.00    -0.079 N 
ATOM     17  H13 UNL     1      -5.558   0.553   1.105  1.00  0.00     0.274 HD
ATOM     18  H12 UNL     1      -4.923   1.840   1.705  1.00  0.00     0.274 HD
ATOM     19  H11 UNL     1      -5.605   1.951   0.173  1.00  0.00     0.274 HD
ENDBRANCH  15  16
ENDBRANCH  14  15
ENDBRANCH  13  14
ENDBRANCH  12  13
ENDBRANCH   1  12
BRANCH   9  20
HETATM   20  C10 UNL     1       3.178   1.267  -0.014  1.00  0.00     0.283 C 
HETATM   21  N4  UNL     1       2.946   2.022   1.150  1.00  0.00    -0.056 NA
HETATM   22  O2  UNL     1       4.057   1.659  -0.810  1.00  0.00    -0.269 OA
ENDBRANCH   9  20
TORSDOF 6
