REMARK  6 active torsions:
REMARK  status: ('A' for Active; 'I' for Inactive)
REMARK    1  A    between atoms: C1_2  and  C2_4 
REMARK    2  A    between atoms: C2_4  and  C3_5 
REMARK    3  A    between atoms: C3_5  and  C4_6 
REMARK    4  A    between atoms: C4_6  and  C5_7 
REMARK    5  A    between atoms: C5_7  and  C6_8 
REMARK    6  A    between atoms: C6_8  and  N2_9 
ROOT
HETATM    1  N2  UNL     1      -2.123  -0.365  -0.560  1.00  0.00    -0.241 N 
HETATM    2  N3  UNL     1      -2.577   0.832  -0.224  1.00  0.00    -0.277 N 
ATOM      3  H3  UNL     1      -2.070   1.644  -0.575  1.00  0.00     0.188 HD
HETATM    4  C7  UNL     1      -3.642   1.055   0.535  1.00  0.00     0.199 A 
HETATM    5  N4  UNL     1      -4.073   2.382   0.857  1.00  0.00    -0.075 NA
HETATM    6  C8  UNL     1      -4.333  -0.045   1.012  1.00  0.00     0.292 A 
HETATM    7  O2  UNL     1      -5.365   0.122   1.746  1.00  0.00    -0.264 OA
HETATM    8  N5  UNL     1      -3.899  -1.276   0.688  1.00  0.00    -0.271 N 
ATOM      9  H5  UNL     1      -4.399  -2.096   1.032  1.00  0.00     0.174 HD
HETATM   10  C9  UNL     1      -2.805  -1.433  -0.090  1.00  0.00     0.344 A 
HETATM   11  O3  UNL     1      -2.402  -2.603  -0.390  1.00  0.00    -0.245 OA
ENDROOT
BRANCH   1  12
HETATM   12  C6  UNL     1      -0.950  -0.520  -1.395  1.00  0.00     0.154 C 
BRANCH  12  13
HETATM   13  C5  UNL     1       0.320  -0.595  -0.579  1.00  0.00     0.022 C 
BRANCH  13  14
HETATM   14  C4  UNL     1       1.494  -0.756  -1.513  1.00  0.00     0.002 C 
BRANCH  14  15
HETATM   15  C3  UNL     1       2.796  -0.849  -0.797  1.00  0.00     0.009 C 
BRANCH  15  16
HETATM   16  C2  UNL     1       3.046   0.381   0.006  1.00  0.00     0.099 C 
BRANCH  16  17
HETATM   17  C1  UNL     1       4.358   0.277   0.711  1.00  0.00     0.231 C 
HETATM   18  N1  UNL     1       4.768   1.368   1.532  1.00  0.00    -0.062 NA
HETATM   19  O1  UNL     1       5.054  -0.757   0.562  1.00  0.00    -0.277 OA
ENDBRANCH  16  17
ENDBRANCH  15  16
ENDBRANCH  14  15
ENDBRANCH  13  14
ENDBRANCH  12  13
ENDBRANCH   1  12
TORSDOF 6
