REMARK  4 active torsions:
REMARK  status: ('A' for Active; 'I' for Inactive)
REMARK    1  A    between atoms: C1_2  and  C2_4 
REMARK    2  A    between atoms: C4_6  and  C5_7 
REMARK    3  A    between atoms: C8_16  and  N4_17 
REMARK    4  A    between atoms: N4_17  and  C9_19 
ROOT
HETATM    1  C2  UNL     1       1.651  -0.857   0.229  1.00  0.00     0.100 A 
HETATM    2  C3  UNL     1       0.393  -1.406   0.040  1.00  0.00     0.049 A 
HETATM    3  C4  UNL     1      -0.698  -0.574  -0.032  1.00  0.00     0.004 A 
HETATM    4  C7  UNL     1      -0.446   0.797   0.094  1.00  0.00     0.062 A 
HETATM    5  C8  UNL     1       0.797   1.325   0.280  1.00  0.00     0.108 A 
HETATM    6  N5  UNL     1       1.852   0.461   0.345  1.00  0.00    -0.338 N 
ATOM      7  H5  UNL     1       2.796   0.821   0.482  1.00  0.00     0.167 HD
ENDROOT
BRANCH   3   8
HETATM    8  C5  UNL     1      -2.055  -1.070  -0.228  1.00  0.00     0.136 A 
HETATM    9  N2  UNL     1      -2.608  -2.120   0.417  1.00  0.00    -0.235 N 
HETATM   10  O2  UNL     1      -3.841  -2.280  -0.010  1.00  0.00    -0.153 OA
ATOM     11  H2  UNL     1      -2.145  -2.695   1.121  1.00  0.00     0.197 HD
HETATM   12  N3  UNL     1      -4.139  -1.402  -0.898  1.00  0.00    -0.204 N 
HETATM   13  C6  UNL     1      -3.046  -0.613  -1.073  1.00  0.00     0.296 A 
ATOM     14  H3  UNL     1      -5.032  -1.313  -1.383  1.00  0.00     0.200 HD
HETATM   15  O3  UNL     1      -2.911   0.367  -1.850  1.00  0.00    -0.264 OA
ENDBRANCH   3   8
BRANCH   1  16
HETATM   16  C1  UNL     1       2.803  -1.774   0.302  1.00  0.00     0.281 C 
HETATM   17  N1  UNL     1       4.104  -1.237   0.495  1.00  0.00    -0.056 NA
HETATM   18  O1  UNL     1       2.644  -3.017   0.196  1.00  0.00    -0.269 OA
ENDBRANCH   1  16
BRANCH   5  19
HETATM   19  N4  UNL     1       1.060   2.722   0.409  1.00  0.00    -0.320 N 
ATOM     20  H4  UNL     1       2.021   3.037   0.546  1.00  0.00     0.169 HD
BRANCH  19  21
HETATM   21  C9  UNL     1       0.027   3.676   0.352  1.00  0.00     0.354 C 
HETATM   22  O4  UNL     1       0.252   4.915   0.465  1.00  0.00    -0.283 OA
ENDBRANCH  19  21
ENDBRANCH   5  19
TORSDOF 4
