REMARK  2 active torsions:
REMARK  status: ('A' for Active; 'I' for Inactive)
REMARK    1  A    between atoms: O1_1  and  C1_3 
REMARK    2  A    between atoms: C7_10  and  O3_11 
ROOT
HETATM    1  C1  UNL     1      -0.053   1.312  -0.341  1.00  0.00     0.155 C 
HETATM    2  C2  UNL     1      -1.173   0.341  -0.061  1.00  0.00     0.041 C 
HETATM    3  C3  UNL     1      -0.801  -0.372   1.247  1.00  0.00     0.012 C 
HETATM    4  C4  UNL     1       0.339  -1.307   0.880  1.00  0.00     0.035 C 
HETATM    5  C5  UNL     1       0.914  -0.916  -0.481  1.00  0.00     0.152 C 
HETATM    6  O2  UNL     1      -0.015  -1.097  -1.500  1.00  0.00    -0.383 OA
HETATM    7  C6  UNL     1      -1.291  -0.736  -1.105  1.00  0.00     0.175 C 
HETATM    8  C7  UNL     1       1.264   0.567  -0.367  1.00  0.00     0.176 C 
ENDROOT
BRANCH   1   9
HETATM    9  O1  UNL     1       0.008   2.182   0.761  1.00  0.00    -0.392 OA
ATOM     10  H1  UNL     1       0.713   2.793   0.585  1.00  0.00     0.210 HD
ENDBRANCH   1   9
BRANCH   8  11
HETATM   11  O3  UNL     1       2.104   0.981  -1.377  1.00  0.00    -0.390 OA
ATOM     12  H3  UNL     1       2.931   0.513  -1.393  1.00  0.00     0.210 HD
ENDBRANCH   8  11
TORSDOF 2
