REMARK  2 active torsions:
REMARK  status: ('A' for Active; 'I' for Inactive)
REMARK    1  A    between atoms: C3_3  and  O1_4 
REMARK    2  A    between atoms: C4_6  and  O2_7 
ROOT
HETATM    1  C1  UNL     1      -1.162  -1.937  -0.409  1.00  0.00     0.035 C 
HETATM    2  C2  UNL     1      -0.316  -0.730  -0.574  1.00  0.00     0.110 C 
HETATM    3  C3  UNL     1       0.978  -0.793   0.219  1.00  0.00     0.173 C 
HETATM    4  C4  UNL     1       1.834   0.371  -0.176  1.00  0.00     0.173 C 
HETATM    5  C5  UNL     1       1.119   1.649  -0.332  1.00  0.00     0.024 C 
HETATM    6  C6  UNL     1      -0.193   1.688  -0.338  1.00  0.00     0.084 C 
HETATM    7  N1  UNL     1      -0.944   0.502  -0.195  1.00  0.00    -0.388 N 
HETATM    8  C7  UNL     1      -2.294   0.607   0.324  1.00  0.00     0.149 C 
ENDROOT
BRANCH   3   9
HETATM    9  O1  UNL     1       0.675  -0.754   1.579  1.00  0.00    -0.391 OA
ATOM     10  H1  UNL     1       1.484  -0.793   2.075  1.00  0.00     0.210 HD
ENDBRANCH   3   9
BRANCH   4  11
HETATM   11  O2  UNL     1       2.811   0.608   0.824  1.00  0.00    -0.389 OA
ATOM     12  H2  UNL     1       3.354   1.346   0.573  1.00  0.00     0.210 HD
ENDBRANCH   4  11
TORSDOF 2
