REMARK  12 active torsions:
REMARK  status: ('A' for Active; 'I' for Inactive)
REMARK    1  A    between atoms: O1_2  and  C2_3 
REMARK    2  A    between atoms: C2_3  and  N1_5 
REMARK    3  A    between atoms: C4_6  and  N2_7 
REMARK    4  A    between atoms: N3_10  and  O2_11 
REMARK    5  A    between atoms: C6_14  and  C7_15 
REMARK       I    between atoms: C7_15  and  N4_17 
REMARK    6  A    between atoms: N4_17  and  N5_19 
REMARK    7  A    between atoms: C8_21  and  C9_22 
REMARK    8  A    between atoms: C8_21  and  C11_32 
REMARK    9  A    between atoms: C9_22  and  C10_23 
REMARK   10  A    between atoms: C11_32  and  O4_33 
REMARK   11  A    between atoms: C11_32  and  N10_35 
REMARK   12  A    between atoms: N10_35  and  O5_37 
ROOT
HETATM    1  C7  UNL     1       1.040  -1.573  -0.287  1.00  0.00     0.289 C 
HETATM    2  O3  UNL     1       1.627  -2.641  -0.696  1.00  0.00    -0.264 OA
HETATM    3  N4  UNL     1       1.811  -0.718   0.519  1.00  0.00    -0.264 N 
ATOM      4  H4  UNL     1       1.407   0.153   0.863  1.00  0.00     0.190 HD
ENDROOT
BRANCH   1   5
HETATM    5  C6  UNL     1      -0.334  -1.312  -0.674  1.00  0.00     0.152 A 
HETATM    6  C5  UNL     1      -1.301  -0.912   0.208  1.00  0.00     0.159 A 
HETATM    7  N3  UNL     1      -1.379  -0.767   1.521  1.00  0.00    -0.046 N 
HETATM    8  C13 UNL     1      -2.545  -0.589  -0.297  1.00  0.00     0.174 A 
HETATM    9  C4  UNL     1      -2.638  -0.362   1.817  1.00  0.00     0.709 A 
HETATM   10  N1  UNL     1      -3.367  -0.246   0.722  1.00  0.00    -0.137 N 
HETATM   11  N13 UNL     1      -2.838  -0.657  -1.611  1.00  0.00    -0.174 N 
HETATM   12  C12 UNL     1      -1.883  -1.054  -2.467  1.00  0.00     0.678 A 
ATOM     13  H13 UNL     1      -3.769  -0.411  -1.949  1.00  0.00     0.186 HD
HETATM   14  N11 UNL     1      -0.674  -1.369  -2.000  1.00  0.00    -0.184 N 
HETATM   15  N12 UNL     1      -2.150  -1.125  -3.732  1.00  0.00    -0.234 N 
ATOM     16  H11 UNL     1       0.037  -1.669  -2.667  1.00  0.00     0.184 HD
ATOM     17 2H12 UNL     1      -1.424  -1.427  -4.382  1.00  0.00     0.174 HD
ATOM     18 1H12 UNL     1      -3.075  -0.884  -4.089  1.00  0.00     0.174 HD
BRANCH   7  19
HETATM   19  O2  UNL     1      -0.377  -1.027   2.440  1.00  0.00    -0.269 OA
ATOM     20  H2  UNL     1       0.506  -1.311   2.233  1.00  0.00     0.245 HD
ENDBRANCH   7  19
BRANCH   9  21
HETATM   21  N2  UNL     1      -3.048  -0.126   3.005  1.00  0.00    -0.232 N 
ATOM     22  H22 UNL     1      -3.996   0.179   3.228  1.00  0.00     0.174 HD
ATOM     23  H21 UNL     1      -2.485  -0.216   3.851  1.00  0.00     0.174 HD
ENDBRANCH   9  21
BRANCH  10  24
HETATM   24  C2  UNL     1      -4.773   0.162   0.585  1.00  0.00     0.243 C 
HETATM   25  C3  UNL     1      -5.599  -0.368   1.732  1.00  0.00     0.064 C 
BRANCH  24  26
HETATM   26  O1  UNL     1      -4.911   1.506   0.379  1.00  0.00    -0.371 OA
HETATM   27  C1  UNL     1      -5.447   1.859  -0.838  1.00  0.00     0.204 C 
ENDBRANCH  24  26
ENDBRANCH  10  24
ENDBRANCH   1   5
BRANCH   3  28
HETATM   28  N5  UNL     1       3.108  -1.046   0.848  1.00  0.00    -0.297 N 
HETATM   29  C8  UNL     1       4.121  -0.568   0.169  1.00  0.00     0.085 C 
ATOM     30  H5  UNL     1       3.282  -1.672   1.634  1.00  0.00     0.187 HD
BRANCH  29  31
HETATM   31  C9  UNL     1       3.813   0.319  -0.942  1.00  0.00     0.142 C 
BRANCH  31  32
HETATM   32  C10 UNL     1       4.053   1.744  -0.605  1.00  0.00     0.118 A 
HETATM   33  N6  UNL     1       3.307   2.470   0.299  1.00  0.00    -0.272 N 
HETATM   34  N7  UNL     1       3.722   3.705   0.355  1.00  0.00    -0.227 N 
ATOM     35  H6  UNL     1       2.535   2.093   0.849  1.00  0.00     0.190 HD
HETATM   36  N8  UNL     1       4.718   3.794  -0.492  1.00  0.00    -0.227 N 
ATOM     37  H7  UNL     1       3.347   4.451   0.940  1.00  0.00     0.210 HD
HETATM   38  N9  UNL     1       4.923   2.638  -1.066  1.00  0.00    -0.272 N 
ATOM     39  H8  UNL     1       5.255   4.642  -0.676  1.00  0.00     0.210 HD
ATOM     40  H9  UNL     1       5.643   2.450  -1.764  1.00  0.00     0.190 HD
ENDBRANCH  31  32
ENDBRANCH  29  31
BRANCH  29  41
HETATM   41  C11 UNL     1       5.447  -0.893   0.621  1.00  0.00     0.184 C 
BRANCH  41  42
HETATM   42  O4  UNL     1       5.577  -1.654   1.843  1.00  0.00    -0.343 OA
ATOM     43  H4  UNL     1       6.453  -1.869   2.142  1.00  0.00     0.219 HD
ENDBRANCH  41  42
BRANCH  41  44
HETATM   44  N10 UNL     1       6.510  -0.596   0.064  1.00  0.00    -0.246 N 
ATOM     45  H10 UNL     1       7.304  -0.946   0.600  1.00  0.00     0.196 HD
BRANCH  44  46
HETATM   46  O5  UNL     1       6.919   0.028  -0.999  1.00  0.00    -0.288 OA
ATOM     47  H5  UNL     1       7.736   0.256  -1.427  1.00  0.00     0.244 HD
ENDBRANCH  44  46
ENDBRANCH  41  44
ENDBRANCH  29  41
ENDBRANCH   3  28
TORSDOF 12
