REMARK  12 active torsions:
REMARK  status: ('A' for Active; 'I' for Inactive)
REMARK    1  A    between atoms: C1_2  and  C2_4 
REMARK    2  A    between atoms: C3_5  and  N2_6 
REMARK    3  A    between atoms: C4_9  and  C5_10 
REMARK    4  A    between atoms: C5_10  and  O4_11 
REMARK    5  A    between atoms: C5_10  and  O5_13 
REMARK    6  A    between atoms: C6_15  and  N3_16 
REMARK    7  A    between atoms: N3_16  and  C7_18 
REMARK    8  A    between atoms: N4_21  and  O6_23 
REMARK    9  A    between atoms: C10_25  and  C11_26 
REMARK   10  A    between atoms: C11_26  and  O7_27 
REMARK   11  A    between atoms: C11_26  and  O8_29 
REMARK   12  A    between atoms: N5_32  and  N6_33 
ROOT
HETATM    1  C2  UNL     1      -3.505  -0.575  -0.647  1.00  0.00     0.132 A 
HETATM    2  C3  UNL     1      -3.001  -0.540   0.647  1.00  0.00     0.138 A 
HETATM    3  C4  UNL     1      -1.765   0.095   0.810  1.00  0.00     0.076 A 
HETATM    4  C6  UNL     1      -1.023   0.662  -0.160  1.00  0.00     0.140 A 
HETATM    5  N5  UNL     1      -1.585   0.599  -1.436  1.00  0.00    -0.209 N 
HETATM    6  C12 UNL     1      -2.757   0.010  -1.641  1.00  0.00     0.285 A 
HETATM    7  O9  UNL     1      -3.226  -0.019  -2.833  1.00  0.00    -0.265 OA
ENDROOT
BRANCH   4   8
HETATM    8  N3  UNL     1       0.312   1.105  -0.174  1.00  0.00    -0.360 N 
ATOM      9  H3  UNL     1       0.537   1.751  -0.931  1.00  0.00     0.162 HD
BRANCH   8  10
HETATM   10  C7  UNL     1       1.384   0.808   0.676  1.00  0.00     0.151 C 
HETATM   11  C8  UNL     1       2.660   1.553   0.291  1.00  0.00     0.092 C 
HETATM   12  C9  UNL     1       3.772   0.668   0.122  1.00  0.00     0.031 C 
HETATM   13  N4  UNL     1       4.837   0.892  -0.613  1.00  0.00    -0.276 N 
HETATM   14  C10 UNL     1       3.668  -0.623   0.874  1.00  0.00     0.151 C 
ATOM     15  H4  UNL     1       5.566   0.180  -0.653  1.00  0.00     0.193 HD
HETATM   16  S1  UNL     1       1.905  -0.971   0.474  1.00  0.00    -0.128 SA
BRANCH  13  17
HETATM   17  O6  UNL     1       5.002   2.044  -1.324  1.00  0.00    -0.290 OA
ATOM     18  H6  UNL     1       5.772   2.206  -1.856  1.00  0.00     0.244 HD
ENDBRANCH  13  17
BRANCH  14  19
HETATM   19  C11 UNL     1       4.565  -1.685   0.363  1.00  0.00     0.273 C 
BRANCH  19  20
HETATM   20  O7  UNL     1       4.334  -2.022  -0.954  1.00  0.00    -0.370 OA
ATOM     21  H7  UNL     1       4.909  -2.703  -1.282  1.00  0.00     0.212 HD
ENDBRANCH  19  20
BRANCH  19  22
HETATM   22  O8  UNL     1       4.454  -2.784   1.222  1.00  0.00    -0.370 OA
ATOM     23  H8  UNL     1       5.029  -3.465   0.894  1.00  0.00     0.212 HD
ENDBRANCH  19  22
ENDBRANCH  14  19
ENDBRANCH   8  10
ENDBRANCH   4   8
BRANCH   3  24
HETATM   24  C5  UNL     1      -1.293   0.254   2.224  1.00  0.00     0.294 C 
BRANCH  24  25
HETATM   25  O4  UNL     1      -0.998   1.643   2.364  1.00  0.00    -0.367 OA
ATOM     26  H4  UNL     1      -0.699   1.744   3.260  1.00  0.00     0.213 HD
ENDBRANCH  24  25
BRANCH  24  27
HETATM   27  O5  UNL     1      -2.270   0.015   3.170  1.00  0.00    -0.367 OA
ATOM     28  H5  UNL     1      -1.971   0.116   4.066  1.00  0.00     0.213 HD
ENDBRANCH  24  27
ENDBRANCH   3  24
BRANCH   5  29
HETATM   29  N6  UNL     1      -0.922   1.156  -2.532  1.00  0.00    -0.334 N 
ATOM     30  H62 UNL     1      -0.022   1.609  -2.374  1.00  0.00     0.177 HD
ATOM     31  H61 UNL     1      -1.333   1.110  -3.465  1.00  0.00     0.177 HD
ENDBRANCH   5  29
BRANCH   2  32
HETATM   32  N2  UNL     1      -3.736  -1.148   1.693  1.00  0.00    -0.114 N 
HETATM   33  O2  UNL     1      -4.770  -0.636   2.216  1.00  0.00    -0.532 OA
HETATM   34  O3  UNL     1      -3.264  -2.388   2.131  1.00  0.00    -0.532 OA
ENDBRANCH   2  32
BRANCH   1  35
HETATM   35  C1  UNL     1      -4.762  -1.211  -1.003  1.00  0.00     0.273 C 
HETATM   36  N1  UNL     1      -5.243  -1.174  -2.364  1.00  0.00    -0.057 NA
HETATM   37  O1  UNL     1      -5.511  -1.821  -0.207  1.00  0.00    -0.271 OA
ENDBRANCH   1  35
TORSDOF 12
