REMARK  12 active torsions:
REMARK  status: ('A' for Active; 'I' for Inactive)
REMARK    1  A    between atoms: C2_2  and  N1_3 
REMARK    2  A    between atoms: C2_2  and  C10_33 
REMARK    3  A    between atoms: N1_3  and  C3_4 
REMARK    4  A    between atoms: C4_10  and  O2_11 
REMARK    5  A    between atoms: O2_11  and  C5_12 
REMARK    6  A    between atoms: C5_12  and  C6_13 
REMARK    7  A    between atoms: C7_14  and  N4_15 
REMARK    8  A    between atoms: N4_15  and  O3_16 
REMARK    9  A    between atoms: N4_15  and  N5_18 
REMARK   10  A    between atoms: N5_18  and  O4_19 
REMARK   11  A    between atoms: C8_23  and  N7_24 
REMARK   12  A    between atoms: C9_29  and  N9_30 
ROOT
HETATM    1  C3  UNL     1       0.941  -1.677   1.347  1.00  0.00     0.254 A 
HETATM    2  N2  UNL     1       1.061  -2.601   2.364  1.00  0.00    -0.210 N 
ATOM      3  H2  UNL     1       1.937  -3.037   2.652  1.00  0.00     0.199 HD
HETATM    4  O1  UNL     1      -0.072  -2.834   2.893  1.00  0.00    -0.152 OA
HETATM    5  N3  UNL     1      -0.969  -2.130   2.307  1.00  0.00    -0.215 N 
ATOM      6  H3  UNL     1      -1.960  -2.138   2.549  1.00  0.00     0.199 HD
HETATM    7  C4  UNL     1      -0.431  -1.383   1.335  1.00  0.00     0.226 A 
ENDROOT
BRANCH   7   8
HETATM    8  O2  UNL     1      -1.074  -0.478   0.461  1.00  0.00    -0.326 OA
BRANCH   8   9
HETATM    9  C5  UNL     1      -2.443  -0.352   0.647  1.00  0.00     0.224 C 
BRANCH   9  10
HETATM   10  C6  UNL     1      -3.212   0.546  -0.194  1.00  0.00     0.058 A 
HETATM   11  C7  UNL     1      -4.597   0.608   0.096  1.00  0.00     0.177 A 
HETATM   12  N6  UNL     1      -5.407   1.406  -0.600  1.00  0.00    -0.173 N 
HETATM   13  C8  UNL     1      -4.924   2.170  -1.595  1.00  0.00     0.679 A 
ATOM     14  H6  UNL     1      -6.402   1.437  -0.376  1.00  0.00     0.186 HD
HETATM   15  N8  UNL     1      -3.629   2.118  -1.874  1.00  0.00    -0.177 N 
HETATM   16  C9  UNL     1      -2.725   1.320  -1.202  1.00  0.00     0.127 A 
ATOM     17  H8  UNL     1      -3.279   2.704  -2.632  1.00  0.00     0.186 HD
BRANCH  11  18
HETATM   18  N4  UNL     1      -5.165  -0.188   1.129  1.00  0.00    -0.123 N 
BRANCH  18  19
HETATM   19  O3  UNL     1      -4.966   0.109   2.426  1.00  0.00    -0.268 OA
ATOM     20  H3  UNL     1      -5.345  -0.423   3.116  1.00  0.00     0.246 HD
ENDBRANCH  18  19
BRANCH  18  21
HETATM   21  N5  UNL     1      -5.955  -1.275   0.795  1.00  0.00     0.049 NA
BRANCH  21  22
HETATM   22  O4  UNL     1      -5.546  -1.944  -0.300  1.00  0.00    -0.275 OA
ATOM     23  H4  UNL     1      -6.088  -2.690  -0.529  1.00  0.00     0.240 HD
ENDBRANCH  21  22
ENDBRANCH  18  21
ENDBRANCH  11  18
BRANCH  13  24
HETATM   24  N7  UNL     1      -5.679   2.949  -2.283  1.00  0.00    -0.234 N 
ATOM     25  H72 UNL     1      -6.675   2.989  -2.068  1.00  0.00     0.174 HD
ATOM     26  H71 UNL     1      -5.313   3.529  -3.038  1.00  0.00     0.174 HD
ENDBRANCH  13  24
BRANCH  16  27
HETATM   27  N9  UNL     1      -1.505   1.392  -1.595  1.00  0.00    -0.384 N 
ATOM     28  H92 UNL     1      -0.837   0.802  -1.098  1.00  0.00     0.157 HD
ATOM     29  H91 UNL     1      -1.140   1.972  -2.350  1.00  0.00     0.157 HD
ENDBRANCH  16  27
ENDBRANCH   9  10
ENDBRANCH   8   9
ENDBRANCH   7   8
BRANCH   1  30
HETATM   30  N1  UNL     1       1.933  -1.229   0.611  1.00  0.00    -0.382 NA
BRANCH  30  31
HETATM   31  C2  UNL     1       2.616  -0.861  -0.245  1.00  0.00     0.128 C 
HETATM   32  C1  UNL     1       2.144  -0.764  -1.680  1.00  0.00     0.089 C 
BRANCH  31  33
HETATM   33  C10 UNL     1       4.021  -0.444  -0.037  1.00  0.00     0.158 A 
HETATM   34  N10 UNL     1       4.484  -0.452   1.216  1.00  0.00    -0.321 N 
HETATM   35  C11 UNL     1       5.754  -0.105   1.483  1.00  0.00     0.171 A 
ATOM     36  H10 UNL     1       3.865  -0.725   1.980  1.00  0.00     0.169 HD
HETATM   37  N11 UNL     1       6.161  -0.122   2.702  1.00  0.00    -0.381 N 
HETATM   38  C12 UNL     1       6.536   0.253   0.422  1.00  0.00     0.305 A 
ATOM     39 2H11 UNL     1       5.577  -0.389   3.494  1.00  0.00     0.157 HD
ATOM     40 1H11 UNL     1       7.125   0.141   2.905  1.00  0.00     0.157 HD
HETATM   41  O5  UNL     1       7.729   0.582   0.643  1.00  0.00    -0.262 OA
HETATM   42  N12 UNL     1       6.083   0.267  -0.856  1.00  0.00    -0.257 N 
HETATM   43  C13 UNL     1       6.932   0.647  -1.966  1.00  0.00     0.181 C 
HETATM   44  N13 UNL     1       4.809  -0.090  -1.049  1.00  0.00    -0.278 N 
ATOM     45  H13 UNL     1       4.431  -0.091  -1.997  1.00  0.00     0.189 HD
ENDBRANCH  31  33
ENDBRANCH  30  31
ENDBRANCH   1  30
TORSDOF 12
