REMARK  10 active torsions:
REMARK  status: ('A' for Active; 'I' for Inactive)
REMARK    1  A    between atoms: C1_2  and  O2_7 
REMARK    2  A    between atoms: N2_3  and  O1_5 
REMARK    3  A    between atoms: O2_7  and  N3_8 
REMARK       I    between atoms: N3_8  and  C2_10 
REMARK    4  A    between atoms: C2_10  and  C3_12 
REMARK    5  A    between atoms: N6_17  and  C4_18 
REMARK    6  A    between atoms: C5_20  and  C6_21 
REMARK    7  A    between atoms: C7_24  and  O6_25 
REMARK    8  A    between atoms: C8_27  and  N7_28 
REMARK    9  A    between atoms: N7_28  and  N8_30 
REMARK   10  A    between atoms: N8_30  and  C9_32 
ROOT
HETATM    1  C4  UNL     1      -0.716  -0.216  -0.603  1.00  0.00     0.149 A 
HETATM    2  S1  UNL     1      -0.217  -0.061  -2.227  1.00  0.00    -0.057 SA
HETATM    3  C5  UNL     1      -1.730  -0.001  -2.981  1.00  0.00     0.119 A 
HETATM    4  C7  UNL     1      -2.612  -0.105  -1.932  1.00  0.00     0.120 A 
HETATM    5  C8  UNL     1      -2.082  -0.216  -0.690  1.00  0.00     0.121 A 
ENDROOT
BRANCH   1   6
HETATM    6  N6  UNL     1       0.143  -0.317   0.536  1.00  0.00    -0.171 N 
HETATM    7  N5  UNL     1      -0.137  -0.349   1.785  1.00  0.00    -0.219 N 
HETATM    8  N4  UNL     1       0.976  -0.459   2.542  1.00  0.00    -0.264 N 
ATOM      9  H5  UNL     1      -1.084  -0.298   2.162  1.00  0.00     0.210 HD
HETATM   10  C3  UNL     1       2.022  -0.500   1.666  1.00  0.00     0.209 A 
ATOM     11  H4  UNL     1       1.025  -0.503   3.560  1.00  0.00     0.190 HD
HETATM   12  N13 UNL     1       1.477  -0.412   0.456  1.00  0.00    -0.256 N 
ATOM     13  H13 UNL     1       2.005  -0.416  -0.417  1.00  0.00     0.191 HD
BRANCH  10  14
HETATM   14  C2  UNL     1       3.446  -0.615   2.001  1.00  0.00     0.312 C 
HETATM   15  N3  UNL     1       4.371  -0.649   0.911  1.00  0.00    -0.219 N 
ATOM     16  H3  UNL     1       4.025  -0.595  -0.047  1.00  0.00     0.198 HD
HETATM   17  O3  UNL     1       3.833  -0.681   3.191  1.00  0.00    -0.262 OA
BRANCH  15  18
HETATM   18  O2  UNL     1       5.714  -0.753   1.141  1.00  0.00    -0.199 OA
BRANCH  18  19
HETATM   19  C1  UNL     1       6.600   0.124   0.485  1.00  0.00     0.275 C 
HETATM   20  N1  UNL     1       7.962  -0.221   0.497  1.00  0.00    -0.053 NA
HETATM   21  N2  UNL     1       6.107   1.166  -0.071  1.00  0.00    -0.234 N 
ATOM     22  H2  UNL     1       5.099   1.309  -0.012  1.00  0.00     0.197 HD
BRANCH  21  23
HETATM   23  O1  UNL     1       6.854   2.106  -0.744  1.00  0.00    -0.287 OA
ATOM     24  H1  UNL     1       6.488   2.879  -1.157  1.00  0.00     0.244 HD
ENDBRANCH  21  23
ENDBRANCH  18  19
ENDBRANCH  15  18
ENDBRANCH  10  14
ENDBRANCH   1   6
BRANCH   5  25
HETATM   25  N7  UNL     1      -2.856  -0.334   0.541  1.00  0.00    -0.281 N 
ATOM     26  H7  UNL     1      -2.849   0.451   1.192  1.00  0.00     0.187 HD
BRANCH  25  27
HETATM   27  N8  UNL     1      -3.601  -1.456   0.874  1.00  0.00    -0.129 N 
ATOM     28  H8  UNL     1      -3.273  -2.398   0.662  1.00  0.00     0.205 HD
BRANCH  27  29
HETATM   29  C9  UNL     1      -4.751  -1.245   1.476  1.00  0.00     0.722 A 
HETATM   30  N9  UNL     1      -5.602  -2.202   1.871  1.00  0.00    -0.115 N 
HETATM   31  N10 UNL     1      -6.671  -1.607   2.436  1.00  0.00     0.006 NA
ATOM     32  H9  UNL     1      -5.464  -3.207   1.763  1.00  0.00     0.202 HD
HETATM   33  N11 UNL     1      -6.480  -0.279   2.391  1.00  0.00     0.006 NA
HETATM   34  N12 UNL     1      -5.313  -0.075   1.807  1.00  0.00    -0.115 N 
ATOM     35  H12 UNL     1      -4.899   0.841   1.633  1.00  0.00     0.202 HD
ENDBRANCH  27  29
ENDBRANCH  25  27
ENDBRANCH   5  25
BRANCH   3  36
HETATM   36  C6  UNL     1      -2.086   0.125  -4.421  1.00  0.00     0.219 C 
HETATM   37  O4  UNL     1      -1.063   0.206  -5.168  1.00  0.00    -0.643 OA
HETATM   38  O5  UNL     1      -3.383   0.146  -4.811  1.00  0.00    -0.643 OA
ENDBRANCH   3  36
BRANCH   4  39
HETATM   39  O6  UNL     1      -4.027  -0.098  -2.140  1.00  0.00    -0.357 OA
ATOM     40  H6  UNL     1      -4.637  -0.170  -1.415  1.00  0.00     0.218 HD
ENDBRANCH   4  39
TORSDOF 10
