REMARK  15 active torsions:
REMARK  status: ('A' for Active; 'I' for Inactive)
REMARK    1  A    between atoms: N4_5  and  C2_6 
REMARK    2  A    between atoms: C3_9  and  C4_10 
REMARK    3  A    between atoms: C5_13  and  C6_14 
REMARK    4  A    between atoms: C6_14  and  O3_15 
REMARK    5  A    between atoms: C6_14  and  O4_17 
REMARK    6  A    between atoms: N6_19  and  N7_20 
REMARK    7  A    between atoms: N7_20  and  C7_22 
REMARK    8  A    between atoms: C7_22  and  C8_23 
REMARK    9  A    between atoms: C7_22  and  C10_31 
REMARK   10  A    between atoms: C8_23  and  C9_24 
REMARK   11  A    between atoms: C10_31  and  C11_32 
REMARK   12  A    between atoms: C11_32  and  N12_33 
REMARK   13  A    between atoms: C14_38  and  N14_39 
REMARK   14  A    between atoms: N17_48  and  O5_50 
REMARK   15  A    between atoms: C17_52  and  N18_53 
ROOT
HETATM    1  C7  UNL     1       0.189   0.903   0.116  1.00  0.00     0.156 C 
ENDROOT
BRANCH   1   2
HETATM    2  N7  UNL     1      -0.226  -0.289  -0.549  1.00  0.00    -0.317 N 
ATOM      3  H7  UNL     1       0.500  -0.988  -0.707  1.00  0.00     0.181 HD
BRANCH   2   4
HETATM    4  N6  UNL     1      -1.489  -0.616  -1.006  1.00  0.00    -0.237 N 
HETATM    5  C5  UNL     1      -1.623  -1.690  -1.850  1.00  0.00     0.123 A 
HETATM    6  C3  UNL     1      -2.858  -2.126  -2.202  1.00  0.00     0.141 A 
HETATM    7  N5  UNL     1      -3.977  -1.492  -1.726  1.00  0.00    -0.330 N 
HETATM    8  C2  UNL     1      -3.909  -0.456  -0.920  1.00  0.00     0.185 A 
ATOM      9  H5  UNL     1      -4.895  -1.837  -2.007  1.00  0.00     0.168 HD
HETATM   10  C17 UNL     1      -2.618  -0.003  -0.546  1.00  0.00     0.168 A 
BRANCH   5  11
HETATM   11  C6  UNL     1      -0.372  -2.277  -2.432  1.00  0.00     0.309 C 
BRANCH  11  12
HETATM   12  O3  UNL     1       0.545  -1.269  -2.822  1.00  0.00    -0.366 OA
ATOM     13  H3  UNL     1       1.338  -1.641  -3.191  1.00  0.00     0.213 HD
ENDBRANCH  11  12
BRANCH  11  14
HETATM   14  O4  UNL     1       0.215  -3.235  -1.660  1.00  0.00    -0.366 OA
ATOM     15  H4  UNL     1       1.008  -3.607  -2.029  1.00  0.00     0.213 HD
ENDBRANCH  11  14
ENDBRANCH   5  11
BRANCH   6  16
HETATM   16  C4  UNL     1      -3.119  -3.279  -3.041  1.00  0.00     0.229 C 
HETATM   17  O1  UNL     1      -2.265  -4.003  -3.524  1.00  0.00    -0.643 OA
HETATM   18  O2  UNL     1      -4.454  -3.646  -3.361  1.00  0.00    -0.643 OA
ENDBRANCH   6  16
BRANCH   8  19
HETATM   19  N4  UNL     1      -5.057   0.222  -0.417  1.00  0.00    -0.165 N 
HETATM   20  N1  UNL     1      -5.278   1.307   0.416  1.00  0.00    -0.108 NA
HETATM   21  C1  UNL     1      -5.585   0.999   1.799  1.00  0.00     0.162 C 
HETATM   22  N2  UNL     1      -6.510   1.473  -0.278  1.00  0.00    -0.012 NA
HETATM   23  N3  UNL     1      -6.430   0.080  -0.550  1.00  0.00     0.009 NA
ENDBRANCH   8  19
BRANCH  10  24
HETATM   24  N18 UNL     1      -2.616   0.935   0.219  1.00  0.00    -0.381 N 
ATOM     25 2H18 UNL     1      -3.460   1.393   0.563  1.00  0.00     0.157 HD
ATOM     26 1H18 UNL     1      -1.688   1.261   0.488  1.00  0.00     0.157 HD
ENDBRANCH  10  24
ENDBRANCH   2   4
ENDBRANCH   1   2
BRANCH   1  27
HETATM   27  C8  UNL     1       0.239   2.122  -0.800  1.00  0.00     0.111 C 
BRANCH  27  28
HETATM   28  C9  UNL     1       0.654   3.305  -0.047  1.00  0.00     0.109 A 
HETATM   29  N8  UNL     1       1.913   3.729   0.131  1.00  0.00    -0.274 N 
HETATM   30  N9  UNL     1       1.933   4.831   0.862  1.00  0.00    -0.007 NA
ATOM     31  H8  UNL     1       2.741   3.266  -0.245  1.00  0.00     0.185 HD
HETATM   32  N10 UNL     1       0.669   5.129   1.164  1.00  0.00    -0.007 NA
HETATM   33  N11 UNL     1      -0.115   4.194   0.607  1.00  0.00    -0.274 N 
ATOM     34  H11 UNL     1      -1.133   4.162   0.669  1.00  0.00     0.185 HD
ENDBRANCH  27  28
ENDBRANCH   1  27
BRANCH   1  35
HETATM   35  C10 UNL     1       1.605   0.758   0.627  1.00  0.00     0.052 C 
HETATM   36  N17 UNL     1       1.822   0.896   1.890  1.00  0.00    -0.274 N 
ATOM     37  H17 UNL     1       2.772   0.802   2.250  1.00  0.00     0.193 HD
BRANCH  35  38
HETATM   38  C11 UNL     1       2.692   0.467  -0.303  1.00  0.00     0.188 C 
BRANCH  38  39
HETATM   39  N12 UNL     1       3.957   0.325   0.368  1.00  0.00    -0.322 N 
HETATM   40  C12 UNL     1       4.835   1.304   0.617  1.00  0.00     0.185 A 
HETATM   41  N13 UNL     1       5.909   0.766   1.273  1.00  0.00    -0.346 N 
HETATM   42  C13 UNL     1       5.702  -0.541   1.432  1.00  0.00     0.122 A 
ATOM     43  H13 UNL     1       6.732   1.280   1.588  1.00  0.00     0.167 HD
HETATM   44  C14 UNL     1       6.427  -1.542   2.004  1.00  0.00     0.131 A 
HETATM   45  C16 UNL     1       4.463  -0.812   0.856  1.00  0.00     0.140 A 
HETATM   46  N15 UNL     1       5.972  -2.824   2.033  1.00  0.00    -0.337 N 
HETATM   47  C15 UNL     1       4.769  -3.085   1.473  1.00  0.00     0.183 A 
ATOM     48  H15 UNL     1       6.522  -3.567   2.465  1.00  0.00     0.168 HD
HETATM   49  N16 UNL     1       4.042  -2.107   0.904  1.00  0.00    -0.336 N 
ATOM     50  H16 UNL     1       3.140  -2.344   0.492  1.00  0.00     0.168 HD
BRANCH  44  51
HETATM   51  N14 UNL     1       7.567  -1.278   2.533  1.00  0.00    -0.383 N 
ATOM     52 2H14 UNL     1       7.908  -0.317   2.511  1.00  0.00     0.157 HD
ATOM     53 1H14 UNL     1       8.110  -2.028   2.961  1.00  0.00     0.157 HD
ENDBRANCH  44  51
ENDBRANCH  38  39
ENDBRANCH  35  38
BRANCH  36  54
HETATM   54  O5  UNL     1       0.801   1.166   2.751  1.00  0.00    -0.290 OA
ATOM     55  H5  UNL     1       0.961   1.268   3.682  1.00  0.00     0.244 HD
ENDBRANCH  36  54
ENDBRANCH   1  35
TORSDOF 15
