REMARK  11 active torsions:
REMARK  status: ('A' for Active; 'I' for Inactive)
REMARK    1  A    between atoms: C3_4  and  O1_5 
REMARK    2  A    between atoms: C5_10  and  C6_11 
REMARK    3  A    between atoms: N4_15  and  N5_17 
REMARK    4  A    between atoms: N5_17  and  C8_19 
REMARK    5  A    between atoms: C13_30  and  O2_31 
REMARK    6  A    between atoms: O2_31  and  C14_32 
REMARK    7  A    between atoms: C14_32  and  C15_33 
REMARK    8  A    between atoms: C15_33  and  C16_34 
REMARK    9  A    between atoms: C16_34  and  O3_35 
REMARK   10  A    between atoms: O3_35  and  N9_36 
REMARK   11  A    between atoms: C17_41  and  N14_42 
ROOT
HETATM    1  N1  UNL     1      -6.616   5.235  -0.550  1.00  0.00    -0.191 NA
HETATM    2  C1  UNL     1      -5.527   4.981  -0.168  1.00  0.00     0.106 C 
HETATM    3  C2  UNL     1      -4.160   4.662   0.177  1.00  0.00     0.120 A 
HETATM    4  C3  UNL     1      -3.303   5.724   0.466  1.00  0.00     0.163 A 
HETATM    5  N2  UNL     1      -2.051   5.389   0.719  1.00  0.00    -0.345 N 
ATOM      6  H2  UNL     1      -1.402   6.133   0.975  1.00  0.00     0.167 HD
HETATM    7  C4  UNL     1      -1.585   4.159   0.663  1.00  0.00     0.107 A 
HETATM    8  C5  UNL     1      -2.382   3.031   0.362  1.00  0.00     0.050 A 
HETATM    9  C18 UNL     1      -3.717   3.361   0.142  1.00  0.00     0.086 A 
HETATM   10  N16 UNL     1      -4.601   2.302  -0.046  1.00  0.00    -0.100 NA
ENDROOT
BRANCH   4  11
HETATM   11  O1  UNL     1      -3.739   7.045   0.445  1.00  0.00    -0.345 OA
ATOM     12  H1  UNL     1      -3.155   7.768   0.642  1.00  0.00     0.219 HD
ENDBRANCH   4  11
BRANCH   8  13
HETATM   13  C6  UNL     1      -1.780   1.750   0.057  1.00  0.00     0.137 A 
HETATM   14  N3  UNL     1      -2.319   0.521   0.199  1.00  0.00    -0.174 N 
HETATM   15  C7  UNL     1      -1.511  -0.557  -0.079  1.00  0.00     0.701 A 
ATOM     16  H3  UNL     1      -3.286   0.397   0.500  1.00  0.00     0.186 HD
HETATM   17  N4  UNL     1      -1.913  -1.767   0.210  1.00  0.00    -0.130 N 
HETATM   18  N8  UNL     1      -0.282  -0.418  -0.500  1.00  0.00    -0.153 N 
ATOM     19  H4  UNL     1      -1.336  -2.579  -0.009  1.00  0.00     0.205 HD
HETATM   20  C13 UNL     1       0.305   0.790  -0.644  1.00  0.00     0.239 A 
ATOM     21  H8  UNL     1       0.255  -1.254  -0.729  1.00  0.00     0.188 HD
HETATM   22  N15 UNL     1      -0.494   1.846  -0.354  1.00  0.00    -0.306 N 
ATOM     23  H15 UNL     1      -0.097   2.781  -0.453  1.00  0.00     0.171 HD
BRANCH  17  24
HETATM   24  N5  UNL     1      -3.164  -1.915   0.831  1.00  0.00    -0.274 N 
ATOM     25  H5  UNL     1      -3.375  -1.287   1.606  1.00  0.00     0.189 HD
BRANCH  24  26
HETATM   26  C8  UNL     1      -4.156  -2.856   0.478  1.00  0.00     0.102 C 
HETATM   27  N6  UNL     1      -4.716  -3.643   1.280  1.00  0.00    -0.360 N 
HETATM   28  C9  UNL     1      -5.804  -4.579   0.924  1.00  0.00     0.199 C 
ATOM     29  H6  UNL     1      -4.397  -3.636   2.249  1.00  0.00     0.162 HD
HETATM   30  C10 UNL     1      -5.329  -5.731   0.189  1.00  0.00     0.085 C 
HETATM   31  C11 UNL     1      -6.998  -3.898   0.344  1.00  0.00     0.114 C 
HETATM   32  N7  UNL     1      -5.014  -6.658  -0.435  1.00  0.00    -0.195 NA
HETATM   33  S1  UNL     1      -6.450  -2.721  -0.947  1.00  0.00    -0.159 SA
HETATM   34  C12 UNL     1      -4.652  -2.770  -0.932  1.00  0.00     0.151 C 
ENDBRANCH  24  26
ENDBRANCH  17  24
BRANCH  20  35
HETATM   35  O2  UNL     1       1.588   0.969  -0.988  1.00  0.00    -0.321 OA
BRANCH  35  36
HETATM   36  C14 UNL     1       2.572   0.071  -1.248  1.00  0.00     0.181 C 
BRANCH  36  37
HETATM   37  C15 UNL     1       3.914   0.688  -1.520  1.00  0.00     0.056 C 
BRANCH  37  38
HETATM   38  C16 UNL     1       4.574   1.264  -0.239  1.00  0.00     0.205 C 
BRANCH  38  39
HETATM   39  O3  UNL     1       4.844   0.208   0.571  1.00  0.00    -0.262 OA
BRANCH  39  40
HETATM   40  N9  UNL     1       5.846  -0.552   0.370  1.00  0.00    -0.136 N 
HETATM   41  N10 UNL     1       5.577  -1.922   0.557  1.00  0.00     0.016 NA
HETATM   42  N11 UNL     1       6.566  -2.486   1.355  1.00  0.00     0.003 NA
HETATM   43  N12 UNL     1       7.833  -2.254   0.871  1.00  0.00    -0.016 NA
HETATM   44  N13 UNL     1       8.114  -0.890   0.888  1.00  0.00    -0.071 NA
HETATM   45  C17 UNL     1       7.120  -0.240  -0.032  1.00  0.00     0.436 C 
BRANCH  45  46
HETATM   46  N14 UNL     1       7.466  -0.835  -1.322  1.00  0.00    -0.039 N 
ATOM     47 3H14 UNL     1       7.323  -1.845  -1.309  1.00  0.00     0.278 HD
ATOM     48 2H14 UNL     1       6.784  -0.581  -2.037  1.00  0.00     0.278 HD
ATOM     49 1H14 UNL     1       8.413  -0.603  -1.621  1.00  0.00     0.278 HD
ENDBRANCH  45  46
ENDBRANCH  39  40
ENDBRANCH  38  39
ENDBRANCH  37  38
ENDBRANCH  36  37
ENDBRANCH  35  36
ENDBRANCH  20  35
ENDBRANCH   8  13
TORSDOF 11
