REMARK  16 active torsions:
REMARK  status: ('A' for Active; 'I' for Inactive)
REMARK    1  A    between atoms: C2_2  and  N1_3 
REMARK    2  A    between atoms: C2_2  and  C3_7 
REMARK       I    between atoms: C3_7  and  N2_9 
REMARK       I    between atoms: N2_9  and  C4_11 
REMARK    3  A    between atoms: C4_11  and  O3_13 
REMARK    4  A    between atoms: O3_13  and  C5_14 
REMARK    5  A    between atoms: C5_14  and  N3_15 
REMARK       I    between atoms: N3_15  and  C6_17 
REMARK    6  A    between atoms: C6_17  and  C7_19 
REMARK    7  A    between atoms: C7_19  and  N4_20 
REMARK    8  A    between atoms: C9_26  and  S1_27 
REMARK    9  A    between atoms: S1_27  and  O7_30 
REMARK   10  A    between atoms: O7_30  and  N7_31 
REMARK   11  A    between atoms: N7_31  and  C10_33 
REMARK   12  A    between atoms: C10_33  and  C11_37 
REMARK   13  A    between atoms: C12_38  and  O8_39 
REMARK   14  A    between atoms: N9_41  and  N10_42 
REMARK   15  A    between atoms: N11_47  and  N12_48 
REMARK   16  A    between atoms: C14_51  and  N13_52 
ROOT
HETATM    1  S1  UNL     1       2.118  -0.749  -0.754  1.00  0.00     0.352 S 
HETATM    2  O5  UNL     1       1.308  -0.908  -1.994  1.00  0.00    -0.188 OA
HETATM    3  O6  UNL     1       3.188   0.270  -1.054  1.00  0.00    -0.188 OA
ENDROOT
BRANCH   1   4
HETATM    4  C9  UNL     1       1.096  -0.262   0.569  1.00  0.00     0.251 A 
HETATM    5  N4  UNL     1      -0.203  -0.421   0.702  1.00  0.00    -0.255 N 
HETATM    6  N5  UNL     1      -0.598   0.034   1.910  1.00  0.00    -0.291 N 
HETATM    7  C8  UNL     1       0.482   0.491   2.540  1.00  0.00     0.199 A 
ATOM      8  H5  UNL     1      -1.551   0.029   2.274  1.00  0.00     0.188 HD
HETATM    9  N6  UNL     1       1.528   0.317   1.732  1.00  0.00    -0.325 N 
ATOM     10  H6  UNL     1       2.492   0.573   1.945  1.00  0.00     0.169 HD
BRANCH   5  11
HETATM   11  C7  UNL     1      -1.198  -0.918  -0.243  1.00  0.00     0.254 C 
BRANCH  11  12
HETATM   12  C6  UNL     1      -1.857   0.226  -0.907  1.00  0.00     0.239 C 
HETATM   13  N3  UNL     1      -3.174   0.587  -0.484  1.00  0.00    -0.338 N 
ATOM     14  H3  UNL     1      -3.628   0.052   0.256  1.00  0.00     0.164 HD
HETATM   15  O4  UNL     1      -1.340   0.918  -1.831  1.00  0.00    -0.272 OA
BRANCH  13  16
HETATM   16  C5  UNL     1      -3.874   1.703  -1.092  1.00  0.00     0.306 C 
BRANCH  16  17
HETATM   17  O3  UNL     1      -5.193   1.842  -0.573  1.00  0.00    -0.284 OA
BRANCH  17  18
HETATM   18  C4  UNL     1      -6.090   0.776  -0.750  1.00  0.00     0.368 C 
HETATM   19  N2  UNL     1      -7.428   0.805  -0.279  1.00  0.00    -0.271 N 
HETATM   20  C3  UNL     1      -8.268  -0.311  -0.526  1.00  0.00     0.256 C 
ATOM     21  H2  UNL     1      -7.781   1.616   0.229  1.00  0.00     0.174 HD
HETATM   22  O1  UNL     1      -7.786  -1.306  -1.164  1.00  0.00    -0.271 OA
HETATM   23  O2  UNL     1      -5.647  -0.229  -1.361  1.00  0.00    -0.238 OA
BRANCH  20  24
HETATM   24  C2  UNL     1      -9.680  -0.363  -0.075  1.00  0.00     0.271 C 
HETATM   25  C1  UNL     1      -9.930  -1.626   0.731  1.00  0.00     0.050 C 
BRANCH  24  26
HETATM   26  N1  UNL     1     -10.000   0.808   0.704  1.00  0.00    -0.067 N 
ATOM     27  H13 UNL     1     -10.953   0.773   1.067  1.00  0.00     0.275 HD
ATOM     28  H12 UNL     1      -9.499   0.820   1.592  1.00  0.00     0.275 HD
ATOM     29  H11 UNL     1      -9.832   1.656   0.163  1.00  0.00     0.275 HD
ENDBRANCH  24  26
ENDBRANCH  20  24
ENDBRANCH  17  18
ENDBRANCH  16  17
ENDBRANCH  13  16
ENDBRANCH  11  12
ENDBRANCH   5  11
ENDBRANCH   1   4
BRANCH   1  30
HETATM   30  O7  UNL     1       2.840  -2.236  -0.463  1.00  0.00    -0.143 OA
BRANCH  30  31
HETATM   31  N7  UNL     1       4.169  -2.134  -0.205  1.00  0.00    -0.232 N 
ATOM     32  H7  UNL     1       4.515  -2.568   0.651  1.00  0.00     0.197 HD
BRANCH  31  33
HETATM   33  C10 UNL     1       5.107  -1.479  -1.021  1.00  0.00     0.138 C 
HETATM   34  N8  UNL     1       5.084  -1.707  -2.301  1.00  0.00    -0.383 N 
ATOM     35  H82 UNL     1       4.379  -2.354  -2.653  1.00  0.00     0.157 HD
ATOM     36  H81 UNL     1       5.765  -1.232  -2.893  1.00  0.00     0.157 HD
BRANCH  33  37
HETATM   37  C11 UNL     1       6.111  -0.558  -0.520  1.00  0.00     0.107 A 
HETATM   38  C12 UNL     1       6.279  -0.200   0.794  1.00  0.00     0.181 A 
HETATM   39  N9  UNL     1       7.250   0.674   1.196  1.00  0.00    -0.211 N 
HETATM   40  C13 UNL     1       8.083   1.222   0.303  1.00  0.00     0.222 A 
HETATM   41  S2  UNL     1       9.261   2.271   0.721  1.00  0.00    -0.037 SA
HETATM   42  N11 UNL     1       7.955   0.897  -1.015  1.00  0.00    -0.218 N 
HETATM   43  C14 UNL     1       7.007   0.040  -1.416  1.00  0.00     0.141 A 
BRANCH  38  44
HETATM   44  O8  UNL     1       5.458  -0.726   1.754  1.00  0.00    -0.344 OA
ATOM     45  H8  UNL     1       5.574  -0.478   2.664  1.00  0.00     0.219 HD
ENDBRANCH  38  44
BRANCH  39  46
HETATM   46  N10 UNL     1       7.404   1.020   2.550  1.00  0.00    -0.334 N 
ATOM     47 2H10 UNL     1       6.769   0.602   3.230  1.00  0.00     0.177 HD
ATOM     48 1H10 UNL     1       8.129   1.672   2.850  1.00  0.00     0.177 HD
ENDBRANCH  39  46
BRANCH  42  49
HETATM   49  N12 UNL     1       8.810   1.446  -1.972  1.00  0.00    -0.335 N 
ATOM     50 2H12 UNL     1       9.532   2.099  -1.667  1.00  0.00     0.177 HD
ATOM     51 1H12 UNL     1       8.714   1.203  -2.958  1.00  0.00     0.177 HD
ENDBRANCH  42  49
BRANCH  43  52
HETATM   52  N13 UNL     1       6.904  -0.248  -2.655  1.00  0.00    -0.383 N 
ATOM     53 2H13 UNL     1       6.182  -0.901  -2.960  1.00  0.00     0.157 HD
ATOM     54 1H13 UNL     1       7.556   0.187  -3.307  1.00  0.00     0.157 HD
ENDBRANCH  43  52
ENDBRANCH  33  37
ENDBRANCH  31  33
ENDBRANCH  30  31
ENDBRANCH   1  30
TORSDOF 16
