REMARK  19 active torsions:
REMARK  status: ('A' for Active; 'I' for Inactive)
REMARK    1  A    between atoms: O1_2  and  C2_3 
REMARK    2  A    between atoms: C3_4  and  O2_5 
REMARK    3  A    between atoms: C7_14  and  C8_15 
REMARK       I    between atoms: C8_15  and  N3_17 
REMARK    4  A    between atoms: N3_17  and  N4_18 
REMARK    5  A    between atoms: N4_18  and  C9_19 
REMARK    6  A    between atoms: C10_21  and  C11_22 
REMARK    7  A    between atoms: C11_22  and  O5_23 
REMARK    8  A    between atoms: C11_22  and  O6_25 
REMARK    9  A    between atoms: C12_27  and  C13_28 
REMARK   10  A    between atoms: C13_28  and  O7_29 
REMARK   11  A    between atoms: C13_28  and  O8_31 
REMARK   12  A    between atoms: C14_35  and  O9_36 
REMARK   13  A    between atoms: O9_36  and  C15_37 
REMARK   14  A    between atoms: C15_37  and  O10_38 
REMARK   15  A    between atoms: C15_37  and  C16_40 
REMARK   16  A    between atoms: C16_40  and  C17_42 
REMARK   17  A    between atoms: C17_42  and  N6_43 
REMARK   18  A    between atoms: C19_50  and  O12_51 
REMARK   19  A    between atoms: O12_51  and  N8_52 
ROOT
HETATM    1  C9  UNL     1      -2.114   0.358  -0.258  1.00  0.00     0.313 A 
HETATM    2  O4  UNL     1      -2.217   1.369  -1.080  1.00  0.00    -0.274 OA
HETATM    3  C10 UNL     1      -3.285   1.546  -1.871  1.00  0.00     0.138 A 
HETATM    4  C12 UNL     1      -4.301   0.644  -1.825  1.00  0.00     0.101 A 
HETATM    5  N5  UNL     1      -4.171  -0.402  -0.960  1.00  0.00    -0.329 N 
ATOM      6  H5  UNL     1      -4.929  -1.083  -0.919  1.00  0.00     0.168 HD
HETATM    7  C14 UNL     1      -3.120  -0.594  -0.165  1.00  0.00     0.216 A 
ENDROOT
BRANCH   1   8
HETATM    8  N4  UNL     1      -1.069   0.302   0.440  1.00  0.00    -0.214 NA
BRANCH   8   9
HETATM    9  N3  UNL     1      -0.220   0.113   1.112  1.00  0.00    -0.198 NA
HETATM   10  C8  UNL     1       0.908  -0.164   2.062  1.00  0.00     0.395 C 
HETATM   11  O3  UNL     1       0.777  -0.676   3.142  1.00  0.00    -0.244 OA
BRANCH  10  12
HETATM   12  C7  UNL     1       2.214   0.256   1.513  1.00  0.00     0.208 A 
HETATM   13  N2  UNL     1       2.239   1.203   0.547  1.00  0.00    -0.279 N 
HETATM   14  N1  UNL     1       3.377   1.563  -0.027  1.00  0.00    -0.296 N 
ATOM     15  H2  UNL     1       1.368   1.647   0.256  1.00  0.00     0.189 HD
HETATM   16  C6  UNL     1       4.522   0.990   0.347  1.00  0.00     0.086 A 
ATOM     17  H1  UNL     1       3.378   2.278  -0.755  1.00  0.00     0.187 HD
HETATM   18  C4  UNL     1       5.676   1.376  -0.290  1.00  0.00     0.004 A 
HETATM   19  C18 UNL     1       4.560   0.013   1.329  1.00  0.00     0.102 A 
HETATM   20  C3  UNL     1       6.864   0.776   0.060  1.00  0.00     0.110 A 
HETATM   21  C5  UNL     1       5.612   2.465  -1.323  1.00  0.00     0.054 C 
HETATM   22  C2  UNL     1       6.908  -0.208   1.044  1.00  0.00     0.140 A 
HETATM   23  C19 UNL     1       5.738  -0.594   1.691  1.00  0.00     0.163 A 
HETATM   24  N7  UNL     1       3.360  -0.323   1.892  1.00  0.00    -0.332 N 
ATOM     25  H7  UNL     1       3.337  -1.035   2.622  1.00  0.00     0.168 HD
BRANCH  20  26
HETATM   26  O2  UNL     1       8.021   1.150  -0.568  1.00  0.00    -0.357 OA
ATOM     27  H2  UNL     1       7.991   1.821  -1.239  1.00  0.00     0.217 HD
ENDBRANCH  20  26
BRANCH  22  28
HETATM   28  O1  UNL     1       8.085  -0.806   1.387  1.00  0.00    -0.350 OA
HETATM   29  C1  UNL     1       8.895  -0.357   2.437  1.00  0.00     0.210 C 
ENDBRANCH  22  28
BRANCH  23  30
HETATM   30  O12 UNL     1       5.736  -1.558   2.669  1.00  0.00    -0.240 OA
BRANCH  30  31
HETATM   31  N8  UNL     1       4.613  -1.910   3.331  1.00  0.00    -0.305 N 
ATOM     32  H82 UNL     1       3.745  -1.434   3.084  1.00  0.00     0.184 HD
ATOM     33  H81 UNL     1       4.612  -2.626   4.057  1.00  0.00     0.184 HD
ENDBRANCH  30  31
ENDBRANCH  23  30
ENDBRANCH  10  12
ENDBRANCH   8   9
ENDBRANCH   1   8
BRANCH   7  34
HETATM   34  O9  UNL     1      -2.964  -1.642   0.717  1.00  0.00    -0.293 OA
BRANCH  34  35
HETATM   35  C15 UNL     1      -3.903  -2.646   1.008  1.00  0.00     0.338 C 
BRANCH  35  36
HETATM   36  O10 UNL     1      -3.598  -3.833   0.411  1.00  0.00    -0.364 OA
ATOM     37  H10 UNL     1      -4.233  -4.512   0.608  1.00  0.00     0.213 HD
ENDBRANCH  35  36
BRANCH  35  38
HETATM   38  C16 UNL     1      -5.303  -2.155   0.783  1.00  0.00     0.206 C 
HETATM   39  O11 UNL     1      -5.608  -1.150   1.416  1.00  0.00    -0.291 OA
BRANCH  38  40
HETATM   40  C17 UNL     1      -6.293  -2.769  -0.110  1.00  0.00     0.312 C 
BRANCH  40  41
HETATM   41  N6  UNL     1      -7.464  -1.899  -0.259  1.00  0.00    -0.073 N 
ATOM     42  H63 UNL     1      -7.870  -1.653   0.644  1.00  0.00     0.274 HD
ATOM     43  H62 UNL     1      -7.203  -0.963  -0.570  1.00  0.00     0.274 HD
ATOM     44  H61 UNL     1      -8.152  -2.326  -0.880  1.00  0.00     0.274 HD
ENDBRANCH  40  41
ENDBRANCH  38  40
ENDBRANCH  35  38
ENDBRANCH  34  35
ENDBRANCH   7  34
BRANCH   3  45
HETATM   45  C11 UNL     1      -3.318   2.726  -2.754  1.00  0.00     0.315 C 
BRANCH  45  46
HETATM   46  O5  UNL     1      -2.682   3.824  -2.103  1.00  0.00    -0.365 OA
ATOM     47  H5  UNL     1      -2.703   4.584  -2.672  1.00  0.00     0.213 HD
ENDBRANCH  45  46
BRANCH  45  48
HETATM   48  O6  UNL     1      -4.623   3.136  -3.089  1.00  0.00    -0.365 OA
ATOM     49  H6  UNL     1      -4.644   3.896  -3.658  1.00  0.00     0.213 HD
ENDBRANCH  45  48
ENDBRANCH   3  45
BRANCH   4  50
HETATM   50  C13 UNL     1      -5.464   0.663  -2.720  1.00  0.00     0.308 C 
BRANCH  50  51
HETATM   51  O7  UNL     1      -5.726  -0.701  -3.067  1.00  0.00    -0.366 OA
ATOM     52  H7  UNL     1      -6.479  -0.689  -3.646  1.00  0.00     0.213 HD
ENDBRANCH  50  51
BRANCH  50  53
HETATM   53  O8  UNL     1      -6.632   1.157  -2.214  1.00  0.00    -0.366 OA
ATOM     54  H8  UNL     1      -7.385   1.169  -2.793  1.00  0.00     0.213 HD
ENDBRANCH  50  53
ENDBRANCH   4  50
TORSDOF 19
