REMARK  7 active torsions:
REMARK  status: ('A' for Active; 'I' for Inactive)
REMARK    1  A    between atoms: C2_2  and  C3_3 
REMARK    2  A    between atoms: C3_3  and  C4_4 
REMARK    3  A    between atoms: C4_4  and  C5_5 
REMARK    4  A    between atoms: C10_13  and  C11_14 
REMARK    5  A    between atoms: C11_14  and  C12_15 
REMARK    6  A    between atoms: C12_15  and  N2_16 
REMARK    7  A    between atoms: C16_24  and  C17_25 
ROOT
HETATM    1  C5  UNL     1       3.367  -0.989  -1.430  1.00  0.00    -0.006 C 
HETATM    2  C6  UNL     1       2.018  -1.593  -1.269  1.00  0.00     0.007 C 
HETATM    3  C7  UNL     1       1.158  -1.009  -0.207  1.00  0.00     0.020 C 
HETATM    4  C8  UNL     1      -0.018  -1.927   0.140  1.00  0.00     0.122 C 
HETATM    5  N1  UNL     1      -0.669  -2.377  -1.062  1.00  0.00    -0.359 N 
ATOM      6  H1  UNL     1      -0.082  -2.758  -1.804  1.00  0.00     0.162 HD
HETATM    7  C9  UNL     1      -2.062  -2.329  -1.287  1.00  0.00     0.240 C 
HETATM    8  O1  UNL     1      -2.580  -3.238  -1.983  1.00  0.00    -0.271 OA
HETATM    9  C10 UNL     1      -2.959  -1.247  -0.738  1.00  0.00     0.180 C 
HETATM   10  N3  UNL     1      -3.325  -0.348  -1.807  1.00  0.00    -0.341 N 
HETATM   11  C14 UNL     1      -3.876  -1.021  -2.990  1.00  0.00     0.153 C 
HETATM   12  C15 UNL     1      -3.187   1.059  -1.815  1.00  0.00     0.245 C 
HETATM   13  O2  UNL     1      -2.677   1.543  -2.906  1.00  0.00    -0.271 OA
HETATM   14  C16 UNL     1      -3.542   2.018  -0.768  1.00  0.00     0.209 C 
HETATM   15  N4  UNL     1      -3.310   1.626   0.580  1.00  0.00    -0.345 N 
ATOM     16  H4  UNL     1      -3.951   0.943   0.983  1.00  0.00     0.163 HD
HETATM   17  C18 UNL     1      -2.265   2.102   1.411  1.00  0.00     0.218 C 
HETATM   18  O3  UNL     1      -2.483   2.082   2.651  1.00  0.00    -0.274 OA
HETATM   19  C19 UNL     1      -0.971   2.607   0.938  1.00  0.00     0.103 C 
HETATM   20  C20 UNL     1      -0.862   4.097   0.887  1.00  0.00     0.009 C 
HETATM   21  C21 UNL     1       0.514   4.560   1.388  1.00  0.00     0.001 C 
HETATM   22  C22 UNL     1       1.584   3.595   0.956  1.00  0.00     0.002 C 
HETATM   23  C23 UNL     1       2.730   4.264   0.251  1.00  0.00     0.020 C 
HETATM   24  C24 UNL     1       3.786   3.188  -0.002  1.00  0.00     0.122 C 
HETATM   25  N5  UNL     1       3.786   2.773  -1.389  1.00  0.00    -0.361 N 
ATOM     26  H5  UNL     1       4.079   3.448  -2.096  1.00  0.00     0.162 HD
HETATM   27  C25 UNL     1       3.399   1.474  -1.816  1.00  0.00     0.217 C 
HETATM   28  O4  UNL     1       2.938   1.284  -2.952  1.00  0.00    -0.274 OA
HETATM   29  C26 UNL     1       3.576   0.350  -0.824  1.00  0.00     0.107 C 
ENDROOT
BRANCH   9  30
HETATM   30  C11 UNL     1      -4.142  -1.972  -0.119  1.00  0.00     0.062 C 
BRANCH  30  31
HETATM   31  C12 UNL     1      -3.537  -2.865   0.967  1.00  0.00     0.234 C 
BRANCH  31  32
HETATM   32  N2  UNL     1      -4.575  -3.621   1.642  1.00  0.00    -0.079 N 
HETATM   33  C13 UNL     1      -4.000  -4.463   2.665  1.00  0.00     0.266 C 
ATOM     34  H22 UNL     1      -5.305  -3.014   2.015  1.00  0.00     0.276 HD
ATOM     35  H21 UNL     1      -5.144  -4.156   0.985  1.00  0.00     0.276 HD
ENDBRANCH  31  32
ENDBRANCH  30  31
ENDBRANCH   9  30
BRANCH  14  36
HETATM   36  C17 UNL     1      -4.953   2.561  -0.920  1.00  0.00     0.210 C 
HETATM   37 CL1  UNL     1      -5.162   3.400  -2.475  1.00  0.00    -0.105 Cl
HETATM   38 CL2  UNL     1      -6.193   1.297  -0.776  1.00  0.00    -0.105 Cl
ENDBRANCH  14  36
BRANCH   1  39
HETATM   39  C4  UNL     1       4.489  -1.968  -1.179  1.00  0.00     0.005 C 
BRANCH  39  40
HETATM   40  C3  UNL     1       4.550  -2.593   0.155  1.00  0.00     0.000 C 
BRANCH  40  41
HETATM   41  C2  UNL     1       4.750  -1.649   1.300  1.00  0.00    -0.005 C 
HETATM   42  C1  UNL     1       4.811  -2.451   2.612  1.00  0.00     0.005 C 
ENDBRANCH  40  41
ENDBRANCH  39  40
ENDBRANCH   1  39
TORSDOF 7
