REMARK  9 active torsions:
REMARK  status: ('A' for Active; 'I' for Inactive)
REMARK    1  A    between atoms: C7_8  and  C9_10 
REMARK    2  A    between atoms: C9_10  and  N1_11 
REMARK    3  A    between atoms: C9_10  and  C10_15 
REMARK    4  A    between atoms: C11_17  and  O1_18 
REMARK    5  A    between atoms: C20_28  and  C21_29 
REMARK    6  A    between atoms: C21_29  and  C22_30 
REMARK    7  A    between atoms: C22_30  and  C24_33 
REMARK       I    between atoms: C24_33  and  N3_35 
REMARK    8  A    between atoms: N3_35  and  C25_37 
REMARK    9  A    between atoms: C25_37  and  C26_38 
ROOT
HETATM    1  C22 UNL     1       5.433  -0.923   0.023  1.00  0.00     0.185 C 
HETATM    2  C23 UNL     1       5.604  -1.442  -1.296  1.00  0.00     0.073 C 
HETATM    3  N2  UNL     1       5.786  -1.851  -2.366  1.00  0.00    -0.196 NA
ENDROOT
BRANCH   1   4
HETATM    4  C21 UNL     1       4.079  -0.468   0.454  1.00  0.00     0.034 C 
BRANCH   4   5
HETATM    5  C20 UNL     1       3.054  -1.557   0.443  1.00  0.00    -0.004 C 
HETATM    6  C18 UNL     1       1.713  -1.089   0.945  1.00  0.00    -0.036 C 
HETATM    7  C17 UNL     1       1.566   0.383   1.085  1.00  0.00     0.010 C 
HETATM    8  C19 UNL     1       1.621  -1.659   2.372  1.00  0.00     0.016 C 
HETATM    9  C29 UNL     1       0.654  -1.686   0.026  1.00  0.00     0.003 C 
HETATM   10  C16 UNL     1       0.157   0.775   1.486  1.00  0.00     0.007 C 
HETATM   11  C15 UNL     1      -0.891  -0.152   0.946  1.00  0.00     0.003 C 
HETATM   12  C13 UNL     1      -2.293   0.270   1.081  1.00  0.00    -0.034 C 
HETATM   13  C30 UNL     1      -0.427  -0.771  -0.359  1.00  0.00     0.026 C 
HETATM   14  C5  UNL     1      -2.864   1.281   0.193  1.00  0.00    -0.002 C 
HETATM   15  C12 UNL     1      -3.156  -0.976   1.243  1.00  0.00     0.042 C 
HETATM   16  C14 UNL     1      -2.310   0.925   2.492  1.00  0.00     0.016 C 
HETATM   17  C4  UNL     1      -2.539   1.181  -1.258  1.00  0.00     0.047 C 
HETATM   18  C6  UNL     1      -4.360   1.420   0.322  1.00  0.00     0.019 C 
HETATM   19  C3  UNL     1      -1.079   1.510  -1.442  1.00  0.00     0.199 C 
HETATM   20  C2  UNL     1      -0.312   0.193  -1.428  1.00  0.00    -0.051 C 
HETATM   21  F1  UNL     1      -1.029   2.093  -2.724  1.00  0.00    -0.245 F 
HETATM   22  C1  UNL     1       0.399   0.103  -2.504  1.00  0.00     0.017 C 
HETATM   23  C7  UNL     1      -5.146   0.169   0.313  1.00  0.00     0.011 C 
HETATM   24  C8  UNL     1      -5.918   0.126   1.658  1.00  0.00     0.020 C 
HETATM   25  C11 UNL     1      -4.308  -1.082   0.315  1.00  0.00     0.129 C 
HETATM   26  C28 UNL     1       1.310  -2.635  -0.857  1.00  0.00     0.006 C 
HETATM   27  C27 UNL     1       2.811  -2.237  -0.863  1.00  0.00     0.006 C 
BRANCH  23  28
HETATM   28  C9  UNL     1      -6.250   0.084  -0.713  1.00  0.00     0.207 C 
BRANCH  28  29
HETATM   29  N1  UNL     1      -7.240   1.132  -0.530  1.00  0.00    -0.073 N 
ATOM     30  H13 UNL     1      -7.614   1.128   0.419  1.00  0.00     0.274 HD
ATOM     31  H12 UNL     1      -6.807   2.055  -0.527  1.00  0.00     0.274 HD
ATOM     32  H11 UNL     1      -7.986   1.075  -1.223  1.00  0.00     0.274 HD
ENDBRANCH  28  29
BRANCH  28  33
HETATM   33  C10 UNL     1      -5.793   0.203  -2.145  1.00  0.00     0.148 C 
HETATM   34 CL1  UNL     1      -7.302   0.055  -3.128  1.00  0.00    -0.128 Cl
ENDBRANCH  28  33
ENDBRANCH  23  28
BRANCH  25  35
HETATM   35  O1  UNL     1      -5.146  -2.094   0.856  1.00  0.00    -0.395 OA
ATOM     36  H1  UNL     1      -4.617  -2.883   0.857  1.00  0.00     0.210 HD
ENDBRANCH  25  35
ENDBRANCH   4   5
ENDBRANCH   1   4
BRANCH   1  37
HETATM   37  C24 UNL     1       6.412   0.209   0.227  1.00  0.00     0.235 C 
HETATM   38  O2  UNL     1       7.374   0.048   0.971  1.00  0.00    -0.272 OA
HETATM   39  N3  UNL     1       6.171   1.411  -0.456  1.00  0.00    -0.352 N 
ATOM     40  H3  UNL     1       5.346   1.475  -1.053  1.00  0.00     0.162 HD
BRANCH  39  41
HETATM   41  C25 UNL     1       7.039   2.562  -0.352  1.00  0.00     0.222 C 
BRANCH  41  42
HETATM   42  C26 UNL     1       8.367   2.226  -0.886  1.00  0.00     0.248 C 
HETATM   43  N4  UNL     1       8.707   0.978  -1.439  1.00  0.00    -0.061 NA
HETATM   44  O3  UNL     1       9.255   3.131  -0.841  1.00  0.00    -0.275 OA
ENDBRANCH  41  42
ENDBRANCH  39  41
ENDBRANCH   1  37
TORSDOF 9
