REMARK  9 active torsions:
REMARK  status: ('A' for Active; 'I' for Inactive)
REMARK    1  A    between atoms: C2_2  and  N1_3 
REMARK    2  A    between atoms: N1_3  and  C3_5 
REMARK    3  A    between atoms: C3_5  and  N2_7 
REMARK    4  A    between atoms: C4_8  and  C5_9 
REMARK       I    between atoms: C5_9  and  N3_11 
REMARK    5  A    between atoms: N3_11  and  C6_13 
REMARK    6  A    between atoms: C13_22  and  N4_23 
REMARK       I    between atoms: N4_23  and  C14_25 
REMARK    7  A    between atoms: C14_25  and  C15_27 
REMARK    8  A    between atoms: C15_27  and  C16_28 
REMARK    9  A    between atoms: C16_28  and  C17_29 
REMARK       I    between atoms: C17_29  and  N5_31 
ROOT
HETATM    1  N2  UNL     1      -1.922  -1.735   0.156  1.00  0.00    -0.331 N 
HETATM    2  C4  UNL     1      -1.476  -0.714   1.076  1.00  0.00     0.182 C 
HETATM    3  C12 UNL     1      -0.012  -0.646   1.335  1.00  0.00     0.060 C 
HETATM    4  C13 UNL     1       0.797  -1.232   0.167  1.00  0.00     0.094 C 
HETATM    5  C19 UNL     1       0.270  -2.598   0.011  1.00  0.00     0.046 C 
HETATM    6  C20 UNL     1       1.115  -3.545  -0.767  1.00  0.00    -0.000 C 
HETATM    7  C21 UNL     1       1.426  -3.080  -2.164  1.00  0.00     0.011 C 
HETATM    8  C22 UNL     1       0.325  -4.850  -0.774  1.00  0.00     0.080 C 
HETATM    9  S2  UNL     1      -1.428  -4.277  -0.757  1.00  0.00    -0.143 SA
HETATM   10  C23 UNL     1      -1.063  -2.489  -0.695  1.00  0.00     0.156 C 
ENDROOT
BRANCH   2  11
HETATM   11  C5  UNL     1      -1.905   0.628   0.528  1.00  0.00     0.245 C 
HETATM   12  O1  UNL     1      -2.464   0.651  -0.566  1.00  0.00    -0.271 OA
HETATM   13  N3  UNL     1      -1.635   1.756   1.311  1.00  0.00    -0.324 N 
ATOM     14  H3  UNL     1      -1.164   1.583   2.199  1.00  0.00     0.169 HD
BRANCH  13  15
HETATM   15  C6  UNL     1      -1.937   3.112   1.018  1.00  0.00     0.058 A 
HETATM   16  C7  UNL     1      -2.568   3.509  -0.127  1.00  0.00     0.031 A 
HETATM   17  C8  UNL     1      -2.824   4.858  -0.331  1.00  0.00     0.004 A 
HETATM   18  C9  UNL     1      -2.471   5.822   0.573  1.00  0.00     0.026 A 
HETATM   19  C10 UNL     1      -1.841   5.425   1.718  1.00  0.00     0.058 A 
HETATM   20 CL1  UNL     1      -1.343   6.592   2.953  1.00  0.00    -0.082 Cl
HETATM   21  C11 UNL     1      -1.576   4.102   1.943  1.00  0.00     0.082 A 
HETATM   22 CL2  UNL     1      -0.753   3.619   3.442  1.00  0.00    -0.080 Cl
ENDBRANCH  13  15
ENDBRANCH   2  11
BRANCH   1  23
HETATM   23  C3  UNL     1      -3.328  -1.978   0.124  1.00  0.00     0.171 C 
HETATM   24  S1  UNL     1      -3.873  -3.120  -0.947  1.00  0.00    -0.041 SA
BRANCH  23  25
HETATM   25  N1  UNL     1      -4.266  -1.291   0.938  1.00  0.00    -0.367 N 
ATOM     26  H1  UNL     1      -3.958  -0.577   1.598  1.00  0.00     0.161 HD
BRANCH  25  27
HETATM   27  C2  UNL     1      -5.676  -1.627   0.812  1.00  0.00     0.117 C 
HETATM   28  C1  UNL     1      -5.966  -3.016   1.320  1.00  0.00     0.026 C 
ENDBRANCH  25  27
ENDBRANCH  23  25
ENDBRANCH   1  23
BRANCH   4  29
HETATM   29  N4  UNL     1       2.205  -1.144   0.407  1.00  0.00    -0.356 N 
HETATM   30  C14 UNL     1       3.114  -0.398  -0.369  1.00  0.00     0.218 C 
HETATM   31  O2  UNL     1       2.688   0.247  -1.347  1.00  0.00    -0.274 OA
ATOM     32  H4  UNL     1       2.580  -1.662   1.202  1.00  0.00     0.162 HD
BRANCH  30  33
HETATM   33  C15 UNL     1       4.547  -0.368  -0.045  1.00  0.00     0.112 C 
BRANCH  33  34
HETATM   34  C16 UNL     1       5.386   0.493  -0.925  1.00  0.00     0.112 C 
BRANCH  34  35
HETATM   35  C17 UNL     1       5.050   1.927  -0.920  1.00  0.00     0.217 C 
HETATM   36  O3  UNL     1       4.159   2.378  -0.182  1.00  0.00    -0.274 OA
HETATM   37  N5  UNL     1       5.770   2.786  -1.780  1.00  0.00    -0.365 N 
HETATM   38  C18 UNL     1       5.462   4.200  -1.793  1.00  0.00     0.149 C 
ATOM     39  H5  UNL     1       6.500   2.413  -2.386  1.00  0.00     0.161 HD
ENDBRANCH  34  35
ENDBRANCH  33  34
ENDBRANCH  30  33
ENDBRANCH   4  29
TORSDOF 9
