REMARK  8 active torsions:
REMARK  status: ('A' for Active; 'I' for Inactive)
REMARK    1  A    between atoms: C2_2  and  C3_3 
REMARK    2  A    between atoms: C3_3  and  C13_19 
REMARK    3  A    between atoms: N1_4  and  C4_6 
REMARK    4  A    between atoms: C4_6  and  C5_8 
REMARK    5  A    between atoms: C7_10  and  C8_11 
REMARK    6  A    between atoms: C8_11  and  C9_12 
REMARK    7  A    between atoms: C14_20  and  S1_21 
REMARK    8  A    between atoms: S1_21  and  N3_24 
ROOT
HETATM    1  C13 UNL     1      -2.259   0.920  -0.221  1.00  0.00     0.078 A 
HETATM    2  C14 UNL     1      -3.420   0.213  -0.461  1.00  0.00     0.109 A 
HETATM    3  C16 UNL     1      -4.273  -0.080   0.629  1.00  0.00     0.017 A 
HETATM    4  C17 UNL     1      -5.429  -0.787   0.402  1.00  0.00     0.039 A 
HETATM    5  C18 UNL     1      -6.315  -1.103   1.456  1.00  0.00     0.035 A 
HETATM    6 CL1  UNL     1      -7.788  -2.009   1.109  1.00  0.00    -0.084 Cl
HETATM    7  C19 UNL     1      -6.005  -0.697   2.722  1.00  0.00     0.033 A 
HETATM    8  C20 UNL     1      -4.844   0.010   2.956  1.00  0.00    -0.033 A 
HETATM    9  C21 UNL     1      -4.521   0.439   4.373  1.00  0.00     0.050 C 
HETATM   10  C22 UNL     1      -3.993   0.315   1.921  1.00  0.00     0.053 A 
HETATM   11  N4  UNL     1      -2.884   0.996   2.145  1.00  0.00    -0.322 N 
ATOM     12  H4  UNL     1      -2.656   1.303   3.091  1.00  0.00     0.169 HD
HETATM   13  C23 UNL     1      -2.061   1.282   1.134  1.00  0.00     0.259 A 
HETATM   14  O3  UNL     1      -1.023   1.930   1.382  1.00  0.00    -0.267 OA
ENDROOT
BRANCH   1  15
HETATM   15  C3  UNL     1      -1.249   1.208  -1.255  1.00  0.00     0.023 C 
HETATM   16  N1  UNL     1      -0.502   0.269  -1.907  1.00  0.00    -0.376 N 
ATOM     17  H1  UNL     1      -0.978  -0.561  -2.261  1.00  0.00     0.160 HD
BRANCH  15  18
HETATM   18  C2  UNL     1      -1.314   2.656  -1.717  1.00  0.00     0.053 C 
HETATM   19  C1  UNL     1      -0.041   3.436  -1.735  1.00  0.00     0.011 C 
ENDBRANCH  15  18
BRANCH  16  20
HETATM   20  C4  UNL     1       0.880   0.376  -2.120  1.00  0.00     0.184 C 
HETATM   21 BR1  UNL     1       1.336  -1.385  -2.984  1.00  0.00    -0.067 Br
BRANCH  20  22
HETATM   22  C5  UNL     1       1.866   0.541  -1.094  1.00  0.00     0.221 C 
HETATM   23  C6  UNL     1       3.325   0.668  -1.643  1.00  0.00     0.069 C 
HETATM   24  C7  UNL     1       3.701   0.146  -0.218  1.00  0.00     0.189 C 
HETATM   25  N2  UNL     1       2.454  -0.639  -0.431  1.00  0.00    -0.064 N 
ATOM     26  H22 UNL     1       1.979  -1.083   0.355  1.00  0.00     0.278 HD
ATOM     27  H21 UNL     1       2.483  -1.541  -0.907  1.00  0.00     0.278 HD
BRANCH  24  28
HETATM   28  C8  UNL     1       5.007  -0.496  -0.326  1.00  0.00     0.041 C 
BRANCH  28  29
HETATM   29  C9  UNL     1       5.614  -1.059   0.939  1.00  0.00    -0.050 C 
HETATM   30  C10 UNL     1       7.012  -1.635   0.567  1.00  0.00     0.014 C 
HETATM   31  C11 UNL     1       4.822  -2.216   1.483  1.00  0.00     0.014 C 
HETATM   32  C12 UNL     1       5.820  -0.017   1.987  1.00  0.00     0.014 C 
ENDBRANCH  28  29
ENDBRANCH  24  28
ENDBRANCH  20  22
ENDBRANCH  16  20
ENDBRANCH   1  15
BRANCH   2  33
HETATM   33  S1  UNL     1      -3.932  -0.237  -2.004  1.00  0.00     0.260 S 
HETATM   34  O1  UNL     1      -5.403   0.256  -2.305  1.00  0.00    -0.200 OA
HETATM   35  O2  UNL     1      -3.126   0.206  -3.186  1.00  0.00    -0.200 OA
BRANCH  33  36
HETATM   36  N3  UNL     1      -4.063  -1.920  -2.188  1.00  0.00    -0.320 N 
HETATM   37  C15 UNL     1      -2.943  -2.750  -2.022  1.00  0.00     0.159 C 
ATOM     38  H3  UNL     1      -4.966  -2.333  -2.422  1.00  0.00     0.171 HD
ENDBRANCH  33  36
ENDBRANCH   2  33
TORSDOF 8
