REMARK  10 active torsions:
REMARK  status: ('A' for Active; 'I' for Inactive)
REMARK    1  A    between atoms: C2_2  and  N1_3 
REMARK    2  A    between atoms: N1_3  and  C3_4 
REMARK    3  A    between atoms: N1_3  and  S1_40 
REMARK    4  A    between atoms: C3_4  and  C4_5 
REMARK    5  A    between atoms: C3_4  and  C19_37 
REMARK    6  A    between atoms: C4_5  and  O1_6 
REMARK    7  A    between atoms: C4_5  and  N2_8 
REMARK       I    between atoms: N2_8  and  C5_10 
REMARK       I    between atoms: C5_10  and  N3_12 
REMARK    8  A    between atoms: N3_12  and  C6_14 
REMARK    9  A    between atoms: C9_19  and  N5_20 
REMARK   10  A    between atoms: N5_20  and  C10_22 
ROOT
HETATM    1  C6  UNL     1       1.354   1.377  -0.479  1.00  0.00     0.117 A 
HETATM    2  N4  UNL     1       2.196   2.422  -0.815  1.00  0.00    -0.351 N 
ATOM      3  H4  UNL     1       1.776   3.329  -1.020  1.00  0.00     0.166 HD
HETATM    4  C7  UNL     1       3.508   2.318  -0.887  1.00  0.00     0.107 A 
HETATM    5  C8  UNL     1       4.153   1.139  -0.629  1.00  0.00     0.053 A 
HETATM    6  C9  UNL     1       5.471   0.733  -0.628  1.00  0.00     0.134 A 
HETATM    7  N6  UNL     1       5.448  -0.567  -0.289  1.00  0.00    -0.284 N 
ATOM      8  H6  UNL     1       6.274  -1.159  -0.200  1.00  0.00     0.188 HD
HETATM    9  N7  UNL     1       4.207  -0.970  -0.088  1.00  0.00    -0.298 N 
ATOM     10  H7  UNL     1       3.937  -1.917   0.178  1.00  0.00     0.187 HD
HETATM   11  C16 UNL     1       3.342   0.059  -0.286  1.00  0.00     0.073 A 
HETATM   12  C17 UNL     1       1.972   0.183  -0.214  1.00  0.00     0.011 A 
HETATM   13  C18 UNL     1       1.192  -1.007   0.163  1.00  0.00     0.054 C 
ENDROOT
BRANCH   1  14
HETATM   14  N3  UNL     1       0.145   1.661  -0.467  1.00  0.00    -0.294 N 
HETATM   15  C5  UNL     1      -1.049   0.990  -0.205  1.00  0.00     0.327 C 
HETATM   16  N2  UNL     1      -1.565   0.795   1.090  1.00  0.00    -0.291 N 
HETATM   17  O2  UNL     1      -1.624   0.572  -1.275  1.00  0.00    -0.247 OA
ATOM     18  H2  UNL     1      -0.994   1.213   1.824  1.00  0.00     0.172 HD
ATOM     19  H3  UNL     1      -0.016   2.638  -0.712  1.00  0.00     0.172 HD
BRANCH  16  20
HETATM   20  C4  UNL     1      -2.693   0.149   1.566  1.00  0.00     0.143 C 
BRANCH  20  21
HETATM   21  C3  UNL     1      -3.822  -0.539   0.907  1.00  0.00     0.170 C 
BRANCH  21  22
HETATM   22  N1  UNL     1      -4.295   0.220  -0.210  1.00  0.00    -0.331 N 
BRANCH  22  23
HETATM   23  C2  UNL     1      -4.751   1.545   0.217  1.00  0.00     0.128 C 
HETATM   24  C1  UNL     1      -6.002   1.547   1.032  1.00  0.00     0.027 C 
ENDBRANCH  22  23
BRANCH  22  25
HETATM   25  S1  UNL     1      -5.216  -0.392  -1.556  1.00  0.00     0.016 S 
HETATM   26  C22 UNL     1      -6.658  -1.075  -0.610  1.00  0.00     0.136 C 
HETATM   27  C23 UNL     1      -5.548   1.218  -2.550  1.00  0.00     0.136 C 
HETATM   28  O3  UNL     1      -5.487  -1.391  -2.931  1.00  0.00    -0.251 OA
ENDBRANCH  22  25
ENDBRANCH  21  22
BRANCH  21  29
HETATM   29  C19 UNL     1      -3.336  -1.918   0.737  1.00  0.00     0.009 C 
HETATM   30  C20 UNL     1      -2.894  -2.366   2.161  1.00  0.00     0.012 C 
HETATM   31  C21 UNL     1      -4.155  -3.030   0.279  1.00  0.00     0.012 C 
ENDBRANCH  21  29
ENDBRANCH  20  21
BRANCH  20  32
HETATM   32  O1  UNL     1      -2.771   0.147   2.871  1.00  0.00    -0.348 OA
ATOM     33  H1  UNL     1      -2.045   0.589   3.295  1.00  0.00     0.219 HD
ENDBRANCH  20  32
ENDBRANCH  16  20
ENDBRANCH   1  14
BRANCH   6  34
HETATM   34  N5  UNL     1       6.477   1.492  -0.901  1.00  0.00    -0.338 N 
ATOM     35  H5  UNL     1       6.305   2.469  -1.138  1.00  0.00     0.167 HD
BRANCH  34  36
HETATM   36  C10 UNL     1       7.809   1.020  -0.884  1.00  0.00     0.077 A 
HETATM   37  C11 UNL     1       8.319   0.359  -1.982  1.00  0.00     0.062 A 
HETATM   38 CL1  UNL     1       7.376   0.074  -3.430  1.00  0.00    -0.082 Cl
HETATM   39  C12 UNL     1       9.618  -0.098  -1.947  1.00  0.00     0.026 A 
HETATM   40  C13 UNL     1      10.442   0.078  -0.850  1.00  0.00     0.003 A 
HETATM   41  C14 UNL     1       9.917   0.739   0.235  1.00  0.00     0.026 A 
HETATM   42  C15 UNL     1       8.612   1.207   0.221  1.00  0.00     0.062 A 
HETATM   43 CL2  UNL     1       8.046   2.034   1.658  1.00  0.00    -0.082 Cl
ENDBRANCH  34  36
ENDBRANCH   6  34
TORSDOF 10
