REMARK  15 active torsions:
REMARK  status: ('A' for Active; 'I' for Inactive)
REMARK    1  A    between atoms: N1_1  and  C1_5 
REMARK    2  A    between atoms: C3_10  and  O1_11 
REMARK    3  A    between atoms: O1_11  and  C4_12 
REMARK    4  A    between atoms: C5_13  and  O2_14 
REMARK    5  A    between atoms: C6_16  and  O3_17 
REMARK    6  A    between atoms: C6_16  and  C7_19 
REMARK       I    between atoms: C7_19  and  N3_21 
REMARK    7  A    between atoms: N3_21  and  C8_23 
REMARK    8  A    between atoms: C8_23  and  C9_24 
REMARK    9  A    between atoms: C9_24  and  C10_25 
REMARK   10  A    between atoms: C10_25  and  C11_26 
REMARK   11  A    between atoms: C11_26  and  O5_27 
REMARK   12  A    between atoms: C12_30  and  O7_31 
REMARK   13  A    between atoms: C12_30  and  C13_33 
REMARK   14  A    between atoms: C17_41  and  O12_42 
REMARK   15  A    between atoms: N4_44  and  O13_45 
ROOT
HETATM    1  C4  UNL     1      -1.337   0.174  -0.125  1.00  0.00     0.194 C 
HETATM    2  C5  UNL     1       0.117   0.551   0.111  1.00  0.00     0.222 C 
HETATM    3  C6  UNL     1       0.855   0.153  -1.163  1.00  0.00     0.278 C 
HETATM    4  O6  UNL     1       0.693  -1.198  -1.271  1.00  0.00    -0.296 OA
HETATM    5  C12 UNL     1      -0.582  -1.648  -1.518  1.00  0.00     0.285 C 
HETATM    6  C14 UNL     1      -1.584  -1.255  -0.484  1.00  0.00     0.159 C 
HETATM    7  C15 UNL     1      -2.966  -1.176  -1.208  1.00  0.00     0.215 C 
HETATM    8  O10 UNL     1      -3.419  -2.493  -1.482  1.00  0.00    -0.316 OA
HETATM    9  C16 UNL     1      -3.493  -3.387  -0.411  1.00  0.00     0.304 C 
HETATM   10  O11 UNL     1      -4.197  -4.390  -0.475  1.00  0.00    -0.261 OA
HETATM   11  C17 UNL     1      -2.694  -3.062   0.776  1.00  0.00     0.319 C 
HETATM   12  N4  UNL     1      -1.689  -2.083   0.665  1.00  0.00    -0.140 NA
ENDROOT
BRANCH   1  13
HETATM   13  O1  UNL     1      -2.152   0.674   0.844  1.00  0.00    -0.328 OA
BRANCH  13  14
HETATM   14  C3  UNL     1      -2.937   1.736   0.521  1.00  0.00     0.471 C 
HETATM   15  N2  UNL     1      -2.418   2.861   1.330  1.00  0.00    -0.021 N 
HETATM   16  C2  UNL     1      -3.574   3.715   1.492  1.00  0.00     0.299 C 
ATOM     17  H22 UNL     1      -1.600   3.325   0.935  1.00  0.00     0.283 HD
ATOM     18  H21 UNL     1      -1.970   2.584   2.203  1.00  0.00     0.283 HD
HETATM   19  C1  UNL     1      -4.711   2.731   1.445  1.00  0.00     0.348 C 
HETATM   20  O14 UNL     1      -4.224   1.557   0.926  1.00  0.00    -0.304 OA
BRANCH  19  21
HETATM   21  N1  UNL     1      -5.794   3.282   0.658  1.00  0.00    -0.051 N 
ATOM     22  H13 UNL     1      -6.090   4.197   0.997  1.00  0.00     0.277 HD
ATOM     23  H12 UNL     1      -5.489   3.563  -0.274  1.00  0.00     0.277 HD
ATOM     24  H11 UNL     1      -6.565   2.615   0.626  1.00  0.00     0.277 HD
ENDBRANCH  19  21
ENDBRANCH  13  14
ENDBRANCH   1  13
BRANCH   2  25
HETATM   25  O2  UNL     1       0.716  -0.021   1.179  1.00  0.00    -0.387 OA
ATOM     26  H2  UNL     1       1.624   0.215   1.326  1.00  0.00     0.210 HD
ENDBRANCH   2  25
BRANCH   3  27
HETATM   27  O3  UNL     1       0.274   0.872  -2.253  1.00  0.00    -0.356 OA
ATOM     28  H3  UNL     1       0.734   0.624  -3.047  1.00  0.00     0.213 HD
ENDBRANCH   3  27
BRANCH   3  29
HETATM   29  C7  UNL     1       2.262   0.533  -1.131  1.00  0.00     0.283 C 
HETATM   30  O4  UNL     1       2.669   1.469  -1.916  1.00  0.00    -0.267 OA
HETATM   31  N3  UNL     1       3.250  -0.025  -0.317  1.00  0.00    -0.356 N 
ATOM     32  H3  UNL     1       3.000  -0.774   0.328  1.00  0.00     0.162 HD
BRANCH  31  33
HETATM   33  C8  UNL     1       4.618   0.436  -0.369  1.00  0.00     0.123 C 
BRANCH  33  34
HETATM   34  C9  UNL     1       5.504  -0.316   0.600  1.00  0.00     0.022 C 
BRANCH  34  35
HETATM   35  C10 UNL     1       6.922   0.144   0.564  1.00  0.00     0.028 C 
BRANCH  35  36
HETATM   36  C11 UNL     1       7.083   1.602   0.911  1.00  0.00     0.164 C 
BRANCH  36  37
HETATM   37  O5  UNL     1       6.581   1.775   2.217  1.00  0.00    -0.401 OA
ATOM     38  H5  UNL     1       6.682   2.694   2.436  1.00  0.00     0.209 HD
ENDBRANCH  36  37
ENDBRANCH  35  36
ENDBRANCH  34  35
ENDBRANCH  33  34
ENDBRANCH  31  33
ENDBRANCH   3  29
BRANCH   5  39
HETATM   39  O7  UNL     1      -1.041  -0.993  -2.704  1.00  0.00    -0.355 OA
ATOM     40  H7  UNL     1      -1.922  -1.304  -2.875  1.00  0.00     0.213 HD
ENDBRANCH   5  39
BRANCH   5  41
HETATM   41  C13 UNL     1      -0.557  -3.076  -1.900  1.00  0.00     0.241 C 
HETATM   42  O8  UNL     1      -0.054  -3.896  -1.111  1.00  0.00    -0.644 OA
HETATM   43  O9  UNL     1      -1.059  -3.541  -3.082  1.00  0.00    -0.644 OA
ENDBRANCH   5  41
BRANCH  12  44
HETATM   44  O13 UNL     1      -1.741  -1.360   1.837  1.00  0.00    -0.309 OA
ATOM     45  H13 UNL     1      -1.811  -1.914   2.606  1.00  0.00     0.237 HD
ENDBRANCH  12  44
BRANCH  11  46
HETATM   46  O12 UNL     1      -2.243  -4.244   1.425  1.00  0.00    -0.370 OA
ATOM     47  H12 UNL     1      -1.726  -4.034   2.194  1.00  0.00     0.212 HD
ENDBRANCH  11  46
TORSDOF 15
