REMARK  13 active torsions:
REMARK  status: ('A' for Active; 'I' for Inactive)
REMARK    1  A    between atoms: N1_1  and  C1_4 
REMARK    2  A    between atoms: N3_8  and  C3_9 
REMARK    3  A    between atoms: C4_13  and  C5_14 
REMARK       I    between atoms: C5_14  and  N5_16 
REMARK    4  A    between atoms: N5_16  and  C6_18 
REMARK    5  A    between atoms: C6_18  and  C7_19 
REMARK    6  A    between atoms: C7_19  and  N6_20 
REMARK    7  A    between atoms: N6_20  and  C8_23 
REMARK    8  A    between atoms: C9_25  and  C10_26 
REMARK    9  A    between atoms: C10_26  and  O3_27 
REMARK   10  A    between atoms: N7_31  and  N8_32 
REMARK   11  A    between atoms: C12_33  and  O5_34 
REMARK   12  A    between atoms: C15_41  and  O7_42 
REMARK   13  A    between atoms: C16_44  and  O8_45 
ROOT
HETATM    1  C5  UNL     1       1.706  -0.792   0.393  1.00  0.00     0.251 C 
HETATM    2  O1  UNL     1       1.608  -0.087  -0.656  1.00  0.00    -0.271 OA
HETATM    3  N5  UNL     1       0.589  -0.780   1.264  1.00  0.00    -0.358 N 
ATOM      4  H5  UNL     1       0.657  -1.338   2.115  1.00  0.00     0.162 HD
ENDROOT
BRANCH   1   5
HETATM    5  C4  UNL     1       2.933  -1.587   0.680  1.00  0.00     0.310 C 
HETATM    6  N4  UNL     1       3.836  -1.391  -0.416  1.00  0.00    -0.036 N 
HETATM    7  C3  UNL     1       5.092  -0.921   0.112  1.00  0.00     0.328 C 
ATOM      8  H42 UNL     1       3.455  -0.773  -1.133  1.00  0.00     0.280 HD
ATOM      9  H41 UNL     1       3.940  -2.225  -0.993  1.00  0.00     0.280 HD
HETATM   10  C16 UNL     1       4.710  -0.227   1.366  1.00  0.00     0.200 C 
HETATM   11  C15 UNL     1       3.630  -1.115   1.931  1.00  0.00     0.190 C 
BRANCH   7  12
HETATM   12  N3  UNL     1       5.688  -0.048  -0.876  1.00  0.00    -0.263 N 
HETATM   13  C2  UNL     1       5.131   0.030  -2.110  1.00  0.00     0.207 A 
HETATM   14  N2  UNL     1       5.661   0.839  -3.041  1.00  0.00    -0.188 N 
HETATM   15  C1  UNL     1       6.748   1.585  -2.776  1.00  0.00     0.680 A 
ATOM     16  H2  UNL     1       5.232   0.889  -3.965  1.00  0.00     0.185 HD
HETATM   17  N10 UNL     1       7.306   1.504  -1.538  1.00  0.00    -0.141 N 
HETATM   18  C17 UNL     1       6.771   0.691  -0.606  1.00  0.00     0.343 A 
ATOM     19  H10 UNL     1       8.131   2.060  -1.315  1.00  0.00     0.189 HD
HETATM   20  O9  UNL     1       7.268   0.602   0.542  1.00  0.00    -0.246 OA
BRANCH  15  21
HETATM   21  N1  UNL     1       7.267   2.374  -3.674  1.00  0.00    -0.234 N 
ATOM     22  H12 UNL     1       6.849   2.435  -4.602  1.00  0.00     0.174 HD
ATOM     23  H11 UNL     1       8.092   2.940  -3.473  1.00  0.00     0.174 HD
ENDBRANCH  15  21
ENDBRANCH   7  12
BRANCH  10  24
HETATM   24  O8  UNL     1       4.156   1.024   1.129  1.00  0.00    -0.389 OA
ATOM     25  H8  UNL     1       3.911   1.468   1.932  1.00  0.00     0.210 HD
ENDBRANCH  10  24
BRANCH  11  26
HETATM   26  O7  UNL     1       2.806  -0.425   2.810  1.00  0.00    -0.390 OA
ATOM     27  H7  UNL     1       3.245  -0.128   3.598  1.00  0.00     0.210 HD
ENDBRANCH  11  26
ENDBRANCH   1   5
BRANCH   3  28
HETATM   28  C6  UNL     1      -0.622  -0.056   1.055  1.00  0.00     0.150 C 
BRANCH  28  29
HETATM   29  C7  UNL     1      -1.355  -0.462  -0.190  1.00  0.00     0.257 C 
BRANCH  29  30
HETATM   30  N6  UNL     1      -2.583   0.270  -0.388  1.00  0.00    -0.027 N 
ATOM     31  H62 UNL     1      -2.422   1.276  -0.429  1.00  0.00     0.282 HD
ATOM     32  H61 UNL     1      -2.956   0.137  -1.328  1.00  0.00     0.282 HD
BRANCH  30  33
HETATM   33  C8  UNL     1      -3.539  -0.074   0.615  1.00  0.00     0.454 C 
HETATM   34  O2  UNL     1      -3.720  -1.455   0.674  1.00  0.00    -0.325 OA
HETATM   35  C9  UNL     1      -5.023  -1.691   1.103  1.00  0.00     0.243 C 
HETATM   36  C11 UNL     1      -5.775  -0.416   0.910  1.00  0.00     0.274 C 
HETATM   37  O4  UNL     1      -6.954  -0.166   1.216  1.00  0.00    -0.268 OA
HETATM   38  N7  UNL     1      -4.858   0.458   0.301  1.00  0.00    -0.191 N 
BRANCH  35  39
HETATM   39  C10 UNL     1      -5.708  -2.745   0.263  1.00  0.00     0.206 C 
BRANCH  39  40
HETATM   40  O3  UNL     1      -4.983  -3.928   0.355  1.00  0.00    -0.398 OA
ATOM     41  H3  UNL     1      -5.413  -4.590  -0.173  1.00  0.00     0.209 HD
ENDBRANCH  39  40
ENDBRANCH  35  39
BRANCH  38  42
HETATM   42  N8  UNL     1      -5.079   1.590  -0.455  1.00  0.00    -0.172 N 
HETATM   43  C12 UNL     1      -5.697   1.658  -1.665  1.00  0.00     0.182 A 
HETATM   44  C13 UNL     1      -5.707   2.953  -2.065  1.00  0.00     0.150 A 
HETATM   45  N9  UNL     1      -5.108   3.690  -1.129  1.00  0.00    -0.313 N 
HETATM   46  C14 UNL     1      -4.732   2.850  -0.157  1.00  0.00     0.348 A 
ATOM     47  H9  UNL     1      -4.964   4.700  -1.150  1.00  0.00     0.170 HD
HETATM   48  O6  UNL     1      -4.124   3.227   0.903  1.00  0.00    -0.245 OA
BRANCH  43  49
HETATM   49  O5  UNL     1      -6.210   0.525  -2.318  1.00  0.00    -0.344 OA
ATOM     50  H5  UNL     1      -6.642   0.572  -3.163  1.00  0.00     0.219 HD
ENDBRANCH  43  49
ENDBRANCH  38  42
ENDBRANCH  30  33
ENDBRANCH  29  30
ENDBRANCH  28  29
ENDBRANCH   3  28
TORSDOF 13
