REMARK  15 active torsions:
REMARK  status: ('A' for Active; 'I' for Inactive)
REMARK    1  A    between atoms: C1_2  and  C2_4 
REMARK    2  A    between atoms: C2_4  and  O2_5 
REMARK    3  A    between atoms: C2_4  and  C3_7 
REMARK    4  A    between atoms: C3_7  and  O3_8 
REMARK    5  A    between atoms: C4_10  and  O4_11 
REMARK    6  A    between atoms: C7_15  and  O5_16 
REMARK    7  A    between atoms: C12_25  and  C13_26 
REMARK    8  A    between atoms: C13_26  and  O6_27 
REMARK    9  A    between atoms: C13_26  and  C14_29 
REMARK   10  A    between atoms: C14_29  and  O7_30 
REMARK   11  A    between atoms: C14_29  and  C15_32 
REMARK   12  A    between atoms: C15_32  and  O8_33 
REMARK   13  A    between atoms: C18_42  and  N4_43 
REMARK   14  A    between atoms: N4_43  and  C19_46 
REMARK   15  A    between atoms: C19_46  and  C20_47 
ROOT
HETATM    1  C3  UNL     1      -1.395   1.912   0.352  1.00  0.00     0.152 C 
HETATM    2  C4  UNL     1      -0.159   2.757   0.216  1.00  0.00     0.159 C 
HETATM    3  C5  UNL     1       0.529   2.040  -0.930  1.00  0.00     0.049 C 
HETATM    4  C6  UNL     1       0.565   0.610  -0.366  1.00  0.00     0.086 C 
HETATM    5  C7  UNL     1       1.751   0.506   0.450  1.00  0.00     0.063 C 
HETATM    6  C8  UNL     1       2.575  -0.723   0.495  1.00  0.00     0.054 C 
HETATM    7  C9  UNL     1       2.379  -1.927   0.107  1.00  0.00     0.048 C 
HETATM    8  C10 UNL     1       1.226  -2.562  -0.554  1.00  0.00     0.103 C 
HETATM    9  C11 UNL     1      -0.071  -2.153   0.053  1.00  0.00     0.291 C 
HETATM   10  N2  UNL     1      -0.797  -1.470  -1.002  1.00  0.00    -0.052 N 
ATOM     11  H21 UNL     1      -1.277  -2.128  -1.617  1.00  0.00     0.278 HD
ATOM     12  H22 UNL     1      -0.165  -1.053  -1.686  1.00  0.00     0.278 HD
HETATM   13  C12 UNL     1      -1.711  -0.489  -0.447  1.00  0.00     0.257 C 
HETATM   14  C16 UNL     1      -0.835   0.518   0.217  1.00  0.00     0.147 C 
HETATM   15  O9  UNL     1      -0.547  -0.107   1.489  1.00  0.00    -0.302 OA
HETATM   16  C17 UNL     1      -0.024  -1.429   1.328  1.00  0.00     0.291 C 
HETATM   17  O10 UNL     1       0.484  -1.981   2.318  1.00  0.00    -0.263 OA
HETATM   18  N3  UNL     1       3.584  -2.677   0.474  1.00  0.00    -0.268 N 
ATOM     19  H3  UNL     1       3.965  -3.502   0.011  1.00  0.00     0.194 HD
HETATM   20  O11 UNL     1       4.094  -2.026   1.584  1.00  0.00    -0.241 OA
HETATM   21  C18 UNL     1       4.019  -0.740   1.039  1.00  0.00     0.388 C 
ENDROOT
BRANCH  13  22
HETATM   22  C13 UNL     1      -2.711  -1.240   0.341  1.00  0.00     0.182 C 
BRANCH  22  23
HETATM   23  O6  UNL     1      -3.656  -0.462   1.027  1.00  0.00    -0.391 OA
ATOM     24  H6  UNL     1      -4.299  -0.945   1.533  1.00  0.00     0.210 HD
ENDBRANCH  22  23
BRANCH  22  25
HETATM   25  C14 UNL     1      -3.500  -2.220  -0.579  1.00  0.00     0.172 C 
BRANCH  25  26
HETATM   26  O7  UNL     1      -4.252  -1.519  -1.512  1.00  0.00    -0.391 OA
ATOM     27  H7  UNL     1      -4.733  -2.116  -2.073  1.00  0.00     0.210 HD
ENDBRANCH  25  26
BRANCH  25  28
HETATM   28  C15 UNL     1      -4.410  -3.023   0.350  1.00  0.00     0.198 C 
BRANCH  28  29
HETATM   29  O8  UNL     1      -3.602  -3.705   1.270  1.00  0.00    -0.398 OA
ATOM     30  H8  UNL     1      -4.168  -4.204   1.847  1.00  0.00     0.209 HD
ENDBRANCH  28  29
ENDBRANCH  25  28
ENDBRANCH  22  25
ENDBRANCH  13  22
BRANCH   1  31
HETATM   31  C2  UNL     1      -2.297   2.458  -0.618  1.00  0.00     0.247 C 
BRANCH  31  32
HETATM   32  C1  UNL     1      -2.852   3.776  -0.053  1.00  0.00     0.263 C 
HETATM   33  N1  UNL     1      -3.694   4.609  -0.833  1.00  0.00    -0.060 NA
HETATM   34  O1  UNL     1      -2.552   4.106   1.088  1.00  0.00    -0.274 OA
ENDBRANCH  31  32
BRANCH  31  35
HETATM   35  O2  UNL     1      -3.465   1.939  -1.060  1.00  0.00    -0.383 OA
ATOM     36  H2  UNL     1      -3.122   1.125  -1.409  1.00  0.00     0.210 HD
ENDBRANCH  31  35
ENDBRANCH   1  31
BRANCH   1  37
HETATM   37  O3  UNL     1      -1.938   1.948   1.621  1.00  0.00    -0.381 OA
ATOM     38  H3  UNL     1      -1.340   1.586   2.264  1.00  0.00     0.211 HD
ENDBRANCH   1  37
BRANCH   2  39
HETATM   39  O4  UNL     1      -0.353   4.047  -0.311  1.00  0.00    -0.392 OA
ATOM     40  H4  UNL     1       0.428   4.581  -0.397  1.00  0.00     0.210 HD
ENDBRANCH   2  39
BRANCH   5  41
HETATM   41  O5  UNL     1       1.707   1.066   1.748  1.00  0.00    -0.364 OA
ATOM     42  H5  UNL     1       2.488   0.998   2.285  1.00  0.00     0.217 HD
ENDBRANCH   5  41
BRANCH  21  43
HETATM   43  N4  UNL     1       4.921  -0.702  -0.109  1.00  0.00    -0.036 N 
ATOM     44  H42 UNL     1       5.151  -1.632  -0.458  1.00  0.00     0.281 HD
ATOM     45  H41 UNL     1       4.469  -0.345  -0.951  1.00  0.00     0.281 HD
BRANCH  43  46
HETATM   46  C19 UNL     1       6.088   0.055   0.256  1.00  0.00     0.304 C 
BRANCH  46  47
HETATM   47  C20 UNL     1       7.098   0.054  -0.857  1.00  0.00     0.258 C 
HETATM   48  O12 UNL     1       7.000  -0.683  -1.840  1.00  0.00    -0.305 OA
ENDBRANCH  46  47
ENDBRANCH  43  46
ENDBRANCH  21  43
TORSDOF 15
