REMARK  13 active torsions:
REMARK  status: ('A' for Active; 'I' for Inactive)
REMARK    1  A    between atoms: N1_1  and  C1_4 
REMARK    2  A    between atoms: C4_12  and  N4_13 
REMARK    3  A    between atoms: C7_19  and  C8_20 
REMARK       I    between atoms: C8_20  and  N6_22 
REMARK       I    between atoms: N6_22  and  C9_24 
REMARK    4  A    between atoms: C9_24  and  C10_26 
REMARK    5  A    between atoms: C10_26  and  O4_27 
REMARK    6  A    between atoms: C10_26  and  O5_29 
REMARK    7  A    between atoms: N8_34  and  C12_35 
REMARK    8  A    between atoms: C13_37  and  C14_38 
REMARK    9  A    between atoms: C14_38  and  O7_39 
REMARK   10  A    between atoms: C14_38  and  C15_41 
REMARK   11  A    between atoms: C15_41  and  O8_42 
REMARK   12  A    between atoms: C16_44  and  O9_45 
REMARK   13  A    between atoms: C17_47  and  O10_48 
ROOT
HETATM    1  C1  UNL     1      -2.054   1.015  -2.357  1.00  0.00     0.684 A 
HETATM    2  N2  UNL     1      -1.252   0.875  -3.413  1.00  0.00    -0.154 N 
ATOM      3  H2  UNL     1      -1.601   1.102  -4.344  1.00  0.00     0.187 HD
HETATM    4  C2  UNL     1      -0.005   0.444  -3.267  1.00  0.00     0.290 A 
HETATM    5  O1  UNL     1       0.767   0.304  -4.227  1.00  0.00    -0.265 OA
HETATM    6  C3  UNL     1       0.428   0.146  -1.996  1.00  0.00     0.163 A 
HETATM    7  N3  UNL     1       1.578  -0.346  -1.540  1.00  0.00    -0.182 N 
ATOM      8  H3  UNL     1       2.393  -0.562  -2.114  1.00  0.00     0.184 HD
HETATM    9  C4  UNL     1       1.498  -0.521  -0.154  1.00  0.00     0.684 A 
HETATM   10  N7  UNL     1       0.274  -0.114   0.196  1.00  0.00    -0.173 N 
ATOM     11  H7  UNL     1      -0.089  -0.114   1.149  1.00  0.00     0.186 HD
HETATM   12  C11 UNL     1      -0.419   0.300  -0.899  1.00  0.00     0.174 A 
HETATM   13  N8  UNL     1      -1.676   0.738  -1.056  1.00  0.00    -0.136 N 
ENDROOT
BRANCH   9  14
HETATM   14  N4  UNL     1       2.467  -1.143   0.585  1.00  0.00    -0.177 N 
HETATM   15  C5  UNL     1       2.384  -2.600   0.910  1.00  0.00     0.171 C 
HETATM   16  C6  UNL     1       3.616  -2.957   0.027  1.00  0.00     0.255 C 
HETATM   17  N5  UNL     1       4.481  -1.810   0.147  1.00  0.00    -0.043 N 
HETATM   18  C7  UNL     1       3.791  -0.846   1.073  1.00  0.00     0.393 C 
ATOM     19  H52 UNL     1       5.427  -2.048   0.445  1.00  0.00     0.280 HD
ATOM     20  H51 UNL     1       4.730  -1.397  -0.752  1.00  0.00     0.280 HD
BRANCH  18  21
HETATM   21  C8  UNL     1       4.193   0.515   0.747  1.00  0.00     0.275 C 
HETATM   22  O2  UNL     1       3.327   1.264   0.168  1.00  0.00    -0.269 OA
HETATM   23  N6  UNL     1       5.459   1.093   0.997  1.00  0.00    -0.290 N 
HETATM   24  C9  UNL     1       6.624   0.388   1.403  1.00  0.00     0.279 C 
ATOM     25  H6  UNL     1       5.543   2.102   0.876  1.00  0.00     0.172 HD
HETATM   26  O3  UNL     1       6.663  -0.779   1.803  1.00  0.00    -0.268 OA
BRANCH  24  27
HETATM   27  C10 UNL     1       7.933   1.119   1.340  1.00  0.00     0.349 C 
BRANCH  27  28
HETATM   28  O4  UNL     1       7.729   2.405   0.862  1.00  0.00    -0.363 OA
ATOM     29  H4  UNL     1       8.558   2.868   0.822  1.00  0.00     0.213 HD
ENDBRANCH  27  28
BRANCH  27  30
HETATM   30  O5  UNL     1       8.759   0.468   0.381  1.00  0.00    -0.363 OA
ATOM     31  H5  UNL     1       9.588   0.931   0.341  1.00  0.00     0.213 HD
ENDBRANCH  27  30
ENDBRANCH  24  27
ENDBRANCH  18  21
ENDBRANCH   9  14
BRANCH  13  32
HETATM   32  C12 UNL     1      -2.636   0.954  -0.006  1.00  0.00     0.279 C 
HETATM   33  O6  UNL     1      -3.899   0.881  -0.651  1.00  0.00    -0.352 OA
HETATM   34  C13 UNL     1      -4.828   0.882   0.358  1.00  0.00     0.186 C 
HETATM   35  C16 UNL     1      -4.244   0.108   1.501  1.00  0.00     0.182 C 
HETATM   36  C17 UNL     1      -2.752  -0.037   1.083  1.00  0.00     0.199 C 
BRANCH  34  37
HETATM   37  C14 UNL     1      -6.080   0.243  -0.195  1.00  0.00     0.173 C 
BRANCH  37  38
HETATM   38  O7  UNL     1      -5.958  -1.075  -0.540  1.00  0.00    -0.391 OA
ATOM     39  H7  UNL     1      -6.745  -1.477  -0.888  1.00  0.00     0.210 HD
ENDBRANCH  37  38
BRANCH  37  40
HETATM   40  C15 UNL     1      -7.274   0.551   0.632  1.00  0.00     0.198 C 
BRANCH  40  41
HETATM   41  O8  UNL     1      -7.247   1.955   0.851  1.00  0.00    -0.398 OA
ATOM     42  H8  UNL     1      -8.011   2.152   1.380  1.00  0.00     0.209 HD
ENDBRANCH  40  41
ENDBRANCH  37  40
ENDBRANCH  34  37
BRANCH  35  43
HETATM   43  O9  UNL     1      -4.783  -1.159   1.670  1.00  0.00    -0.390 OA
ATOM     44  H9  UNL     1      -4.413  -1.650   2.394  1.00  0.00     0.210 HD
ENDBRANCH  35  43
BRANCH  36  45
HETATM   45  O10 UNL     1      -2.576  -1.345   0.665  1.00  0.00    -0.388 OA
ATOM     46  H10 UNL     1      -2.651  -1.982   1.365  1.00  0.00     0.210 HD
ENDBRANCH  36  45
ENDBRANCH  13  32
BRANCH   1  47
HETATM   47  N1  UNL     1      -3.249   1.363  -2.549  1.00  0.00    -0.234 N 
ATOM     48  H12 UNL     1      -3.528   1.567  -3.509  1.00  0.00     0.174 HD
ATOM     49  H11 UNL     1      -3.863   1.470  -1.741  1.00  0.00     0.174 HD
ENDBRANCH   1  47
TORSDOF 13
