REMARK  15 active torsions:
REMARK  status: ('A' for Active; 'I' for Inactive)
REMARK    1  A    between atoms: N1_1  and  N2_4 
REMARK    2  A    between atoms: C1_6  and  C2_8 
REMARK    3  A    between atoms: C2_8  and  O1_9 
REMARK    4  A    between atoms: O1_9  and  N4_10 
REMARK    5  A    between atoms: N5_12  and  N6_14 
REMARK    6  A    between atoms: N6_14  and  C3_16 
REMARK    7  A    between atoms: N9_23  and  C6_24 
REMARK    8  A    between atoms: C7_26  and  C8_27 
REMARK    9  A    between atoms: C8_27  and  O3_28 
REMARK   10  A    between atoms: C9_30  and  O4_31 
REMARK   11  A    between atoms: C10_33  and  O5_34 
REMARK   12  A    between atoms: C10_33  and  C11_36 
REMARK   13  A    between atoms: C11_36  and  O6_37 
REMARK   14  A    between atoms: N10_41  and  C13_42 
REMARK   15  A    between atoms: C14_46  and  O8_47 
ROOT
HETATM    1  C3  UNL     1       1.722   0.342  -0.631  1.00  0.00     0.701 A 
HETATM    2  N7  UNL     1       1.197   1.562  -0.428  1.00  0.00    -0.171 N 
ATOM      3  H7  UNL     1       1.680   2.454  -0.541  1.00  0.00     0.186 HD
HETATM    4  C4  UNL     1      -0.098   1.389  -0.044  1.00  0.00     0.180 A 
HETATM    5  C5  UNL     1      -0.396   0.043  -0.003  1.00  0.00     0.175 A 
HETATM    6  N8  UNL     1       0.766  -0.570  -0.376  1.00  0.00    -0.171 N 
ATOM      7  H8  UNL     1       0.892  -1.579  -0.451  1.00  0.00     0.186 HD
HETATM    8  N9  UNL     1      -1.675  -0.127   0.377  1.00  0.00    -0.250 N 
HETATM    9  C12 UNL     1      -2.189   1.074   0.576  1.00  0.00     0.341 A 
HETATM   10  O7  UNL     1      -3.371   1.301   0.942  1.00  0.00    -0.246 OA
HETATM   11  N10 UNL     1      -1.242   1.989   0.323  1.00  0.00    -0.208 N 
ENDROOT
BRANCH   1  12
HETATM   12  N6  UNL     1       2.937   0.057  -1.007  1.00  0.00    -0.116 N 
ATOM     13  H6  UNL     1       3.593   0.820  -1.176  1.00  0.00     0.207 HD
BRANCH  12  14
HETATM   14  N5  UNL     1       3.369  -1.254  -1.185  1.00  0.00    -0.209 N 
HETATM   15  N4  UNL     1       4.551  -1.638  -1.041  1.00  0.00    -0.192 N 
ATOM     16  H4  UNL     1       4.784  -2.620  -1.190  1.00  0.00     0.217 HD
ATOM     17  H5  UNL     1       2.673  -1.951  -1.452  1.00  0.00     0.211 HD
BRANCH  15  18
HETATM   18  O1  UNL     1       5.537  -0.752  -0.684  1.00  0.00    -0.257 OA
BRANCH  18  19
HETATM   19  C2  UNL     1       5.973  -0.614   0.655  1.00  0.00     0.277 C 
BRANCH  19  20
HETATM   20  C1  UNL     1       7.034   0.416   0.685  1.00  0.00     0.133 C 
HETATM   21  N2  UNL     1       8.203   0.103   1.101  1.00  0.00    -0.296 N 
ATOM     22  H2  UNL     1       8.945   0.802   1.128  1.00  0.00     0.187 HD
HETATM   23  N3  UNL     1       6.795   1.753   0.264  1.00  0.00    -0.084 NA
BRANCH  21  24
HETATM   24  N1  UNL     1       8.450  -1.203   1.516  1.00  0.00    -0.344 N 
ATOM     25  H12 UNL     1       7.697  -1.890   1.483  1.00  0.00     0.176 HD
ATOM     26  H11 UNL     1       9.382  -1.452   1.848  1.00  0.00     0.176 HD
ENDBRANCH  21  24
ENDBRANCH  19  20
ENDBRANCH  18  19
ENDBRANCH  15  18
ENDBRANCH  12  14
ENDBRANCH   1  12
BRANCH  11  27
HETATM   27  C13 UNL     1      -1.377   3.420   0.417  1.00  0.00     0.251 C 
HETATM   28  N11 UNL     1      -2.199   4.030   1.192  1.00  0.00    -0.264 N 
HETATM   29  N12 UNL     1      -2.092   5.415   1.054  1.00  0.00    -0.078 NA
ATOM     30  H11 UNL     1      -2.847   3.563   1.827  1.00  0.00     0.186 HD
HETATM   31  C14 UNL     1      -1.169   5.649  -0.058  1.00  0.00     0.386 C 
HETATM   32  O9  UNL     1      -0.652   4.355  -0.304  1.00  0.00    -0.272 OA
BRANCH  31  33
HETATM   33  O8  UNL     1      -0.149   6.449   0.433  1.00  0.00    -0.356 OA
ATOM     34  H8  UNL     1       0.450   6.601  -0.289  1.00  0.00     0.214 HD
ENDBRANCH  31  33
ENDBRANCH  11  27
BRANCH   8  35
HETATM   35  C6  UNL     1      -2.259  -1.443   0.505  1.00  0.00     0.274 C 
HETATM   36  O2  UNL     1      -3.460  -1.431   1.193  1.00  0.00    -0.353 OA
HETATM   37  C7  UNL     1      -3.869  -2.757   1.095  1.00  0.00     0.179 C 
HETATM   38  C9  UNL     1      -3.448  -3.265  -0.249  1.00  0.00     0.190 C 
HETATM   39  C10 UNL     1      -2.681  -2.054  -0.808  1.00  0.00     0.151 C 
BRANCH  37  40
HETATM   40  C8  UNL     1      -5.368  -2.879   1.308  1.00  0.00     0.198 C 
BRANCH  40  41
HETATM   41  O3  UNL     1      -5.789  -4.198   1.213  1.00  0.00    -0.398 OA
ATOM     42  H3  UNL     1      -6.727  -4.274   1.346  1.00  0.00     0.209 HD
ENDBRANCH  40  41
ENDBRANCH  37  40
BRANCH  38  43
HETATM   43  O4  UNL     1      -2.545  -4.340  -0.156  1.00  0.00    -0.390 OA
ATOM     44  H4  UNL     1      -2.278  -4.662  -1.009  1.00  0.00     0.210 HD
ENDBRANCH  38  43
BRANCH  39  45
HETATM   45  O5  UNL     1      -1.618  -2.470  -1.596  1.00  0.00    -0.380 OA
ATOM     46  H5  UNL     1      -1.884  -2.855  -2.423  1.00  0.00     0.211 HD
ENDBRANCH  39  45
BRANCH  39  47
HETATM   47  C11 UNL     1      -3.692  -1.247  -1.567  1.00  0.00     0.209 C 
BRANCH  47  48
HETATM   48  O6  UNL     1      -3.206  -0.101  -2.137  1.00  0.00    -0.398 OA
ATOM     49  H6  UNL     1      -3.846   0.410  -2.618  1.00  0.00     0.209 HD
ENDBRANCH  47  48
ENDBRANCH  39  47
ENDBRANCH   8  35
TORSDOF 15
