REMARK  14 active torsions:
REMARK  status: ('A' for Active; 'I' for Inactive)
REMARK    1  A    between atoms: C3_4  and  C4_5 
REMARK    2  A    between atoms: C4_5  and  C16_17 
REMARK    3  A    between atoms: C5_6  and  C6_7 
REMARK    4  A    between atoms: C6_7  and  C7_8 
REMARK    5  A    between atoms: C7_8  and  C8_9 
REMARK    6  A    between atoms: C8_9  and  C10_11 
REMARK    7  A    between atoms: C10_11  and  C11_12 
REMARK    8  A    between atoms: C11_12  and  C12_13 
REMARK    9  A    between atoms: C16_17  and  C18_19 
REMARK   10  A    between atoms: C18_19  and  N1_20 
REMARK   11  A    between atoms: N2_26  and  C24_27 
REMARK   12  A    between atoms: C24_27  and  O2_28 
REMARK   13  A    between atoms: C24_27  and  C25_30 
REMARK   14  A    between atoms: C29_34  and  N3_35 
ROOT
HETATM    1  C1  UNL     1      -4.462  -0.942   0.132  1.00  0.00     0.072 C 
HETATM    2  C2  UNL     1      -3.248  -0.560   0.528  1.00  0.00     0.137 C 
HETATM    3  O1  UNL     1      -2.058  -0.990  -0.033  1.00  0.00    -0.326 OA
HETATM    4  C3  UNL     1      -1.013  -1.335   0.897  1.00  0.00     0.161 C 
HETATM    5  C22 UNL     1      -0.891  -0.342   1.999  1.00  0.00     0.057 C 
HETATM    6  C23 UNL     1      -2.213  -0.022   2.656  1.00  0.00     0.136 C 
HETATM    7  N2  UNL     1      -3.201   0.354   1.609  1.00  0.00    -0.308 N 
ENDROOT
BRANCH   4   8
HETATM    8  C4  UNL     1       0.270  -1.599   0.188  1.00  0.00    -0.045 C 
HETATM    9  C5  UNL     1       1.381  -0.987   0.552  1.00  0.00     0.006 C 
BRANCH   9  10
HETATM   10  C6  UNL     1       2.727  -1.073   0.033  1.00  0.00     0.001 C 
BRANCH  10  11
HETATM   11  C7  UNL     1       3.391   0.039  -0.582  1.00  0.00     0.002 C 
BRANCH  11  12
HETATM   12  C8  UNL     1       2.982   1.243  -0.816  1.00  0.00    -0.084 C 
HETATM   13  C9  UNL     1       1.663   1.781  -0.485  1.00  0.00     0.043 C 
BRANCH  12  14
HETATM   14  C10 UNL     1       3.920   2.247  -1.498  1.00  0.00     0.037 C 
BRANCH  14  15
HETATM   15  C11 UNL     1       4.119   3.407  -0.568  1.00  0.00     0.031 C 
BRANCH  15  16
HETATM   16  C12 UNL     1       4.717   2.989   0.725  1.00  0.00    -0.024 C 
HETATM   17  C13 UNL     1       5.877   3.462   1.160  1.00  0.00    -0.091 C 
HETATM   18  C14 UNL     1       6.471   3.037   2.458  1.00  0.00     0.042 C 
HETATM   19  C15 UNL     1       6.586   4.456   0.294  1.00  0.00     0.042 C 
ENDBRANCH  15  16
ENDBRANCH  14  15
ENDBRANCH  12  14
ENDBRANCH  11  12
ENDBRANCH  10  11
ENDBRANCH   9  10
BRANCH   8  20
HETATM   20  C16 UNL     1       0.282  -2.557  -0.935  1.00  0.00     0.039 C 
HETATM   21  C17 UNL     1      -0.644  -2.069  -2.034  1.00  0.00     0.016 C 
BRANCH  20  22
HETATM   22  C18 UNL     1      -0.167  -3.889  -0.384  1.00  0.00     0.244 C 
BRANCH  22  23
HETATM   23  N1  UNL     1      -0.223  -4.966  -1.303  1.00  0.00    -0.078 N 
HETATM   24  C19 UNL     1       0.802  -5.002  -2.311  1.00  0.00     0.271 C 
HETATM   25  C20 UNL     1      -0.040  -6.199  -0.513  1.00  0.00     0.271 C 
HETATM   26  C21 UNL     1      -1.552  -5.091  -1.880  1.00  0.00     0.271 C 
ENDBRANCH  22  23
ENDBRANCH  20  22
ENDBRANCH   8  20
ENDBRANCH   4   8
BRANCH   7  27
HETATM   27  C24 UNL     1      -3.900   1.566   1.729  1.00  0.00     0.154 C 
BRANCH  27  28
HETATM   28  O2  UNL     1      -3.729   2.082   2.930  1.00  0.00    -0.345 OA
ATOM     29  H2  UNL     1      -4.202   2.902   3.011  1.00  0.00     0.219 HD
ENDBRANCH  27  28
BRANCH  27  30
HETATM   30  C25 UNL     1      -4.717   2.293   0.819  1.00  0.00     0.017 A 
HETATM   31  C26 UNL     1      -5.583   3.250   1.361  1.00  0.00     0.016 A 
HETATM   32  C27 UNL     1      -6.368   4.082   0.631  1.00  0.00     0.003 A 
HETATM   33  C28 UNL     1      -6.337   4.007  -0.739  1.00  0.00     0.036 A 
HETATM   34  C29 UNL     1      -5.503   3.085  -1.323  1.00  0.00     0.103 A 
HETATM   35  C30 UNL     1      -4.702   2.238  -0.543  1.00  0.00     0.051 A 
BRANCH  34  36
HETATM   36  N3  UNL     1      -5.474   3.013  -2.740  1.00  0.00    -0.116 N 
HETATM   37  O3  UNL     1      -6.180   3.756  -3.443  1.00  0.00    -0.532 OA
HETATM   38  O4  UNL     1      -4.658   2.114  -3.382  1.00  0.00    -0.532 OA
ENDBRANCH  34  36
ENDBRANCH  27  30
ENDBRANCH   7  27
TORSDOF 14
