REMARK  14 active torsions:
REMARK  status: ('A' for Active; 'I' for Inactive)
REMARK    1  A    between atoms: C2_2  and  N1_3 
REMARK    2  A    between atoms: N1_3  and  C3_4 
REMARK    3  A    between atoms: N1_3  and  C5_6 
REMARK    4  A    between atoms: N1_3  and  C7_8 
REMARK    5  A    between atoms: C7_8  and  C8_9 
REMARK    6  A    between atoms: C8_9  and  C9_10 
REMARK    7  A    between atoms: C9_10  and  C10_11 
REMARK    8  A    between atoms: C10_11  and  C11_12 
REMARK    9  A    between atoms: C11_12  and  O1_13 
REMARK   10  A    between atoms: C11_12  and  C12_15 
REMARK   11  A    between atoms: C17_20  and  C18_21 
REMARK   12  A    between atoms: C18_21  and  O3_23 
REMARK   13  A    between atoms: O3_23  and  C19_24 
REMARK   14  A    between atoms: C19_24  and  C20_26 
ROOT
HETATM    1  C12 UNL     1      -0.300   0.313  -0.329  1.00  0.00    -0.025 C 
HETATM    2  C13 UNL     1       0.716  -0.115   0.377  1.00  0.00    -0.060 C 
HETATM    3  C14 UNL     1       0.870  -0.382   1.812  1.00  0.00     0.040 C 
HETATM    4  C15 UNL     1       2.208  -1.089   1.965  1.00  0.00     0.000 C 
HETATM    5  C16 UNL     1       2.827  -0.630   3.251  1.00  0.00     0.011 C 
HETATM    6  C17 UNL     1       2.995  -0.777   0.739  1.00  0.00     0.103 C 
HETATM    7  C24 UNL     1       2.018  -0.411  -0.304  1.00  0.00     0.004 C 
HETATM    8  C25 UNL     1       1.741  -1.602  -1.239  1.00  0.00     0.016 C 
HETATM    9  C26 UNL     1       1.583  -1.030  -2.621  1.00  0.00     0.007 C 
HETATM   10  C27 UNL     1       1.241   0.419  -2.310  1.00  0.00    -0.001 C 
HETATM   11  C28 UNL     1      -0.135   0.484  -1.808  1.00  0.00     0.046 C 
HETATM   12  C29 UNL     1       2.304   0.686  -1.226  1.00  0.00    -0.031 C 
HETATM   13  C30 UNL     1       3.596   0.659  -1.976  1.00  0.00     0.016 C 
HETATM   14  C31 UNL     1       1.978   2.068  -0.693  1.00  0.00     0.016 C 
ENDROOT
BRANCH   1  15
HETATM   15  C11 UNL     1      -1.608   0.648   0.186  1.00  0.00     0.050 C 
BRANCH  15  16
HETATM   16  C10 UNL     1      -2.122   0.603   1.551  1.00  0.00     0.065 C 
BRANCH  16  17
HETATM   17  C9  UNL     1      -2.925  -0.640   1.840  1.00  0.00     0.008 C 
BRANCH  17  18
HETATM   18  C8  UNL     1      -4.142  -0.821   0.986  1.00  0.00     0.028 C 
BRANCH  18  19
HETATM   19  C7  UNL     1      -5.104   0.285   1.196  1.00  0.00     0.237 C 
BRANCH  19  20
HETATM   20  N1  UNL     1      -6.333   0.188   0.426  1.00  0.00    -0.068 N 
BRANCH  20  21
HETATM   21  C2  UNL     1      -6.861   1.488   0.042  1.00  0.00     0.233 C 
HETATM   22  C1  UNL     1      -5.854   2.444  -0.492  1.00  0.00     0.035 C 
ENDBRANCH  20  21
BRANCH  20  23
HETATM   23  C3  UNL     1      -7.337  -0.378   1.315  1.00  0.00     0.233 C 
HETATM   24  C4  UNL     1      -7.255  -1.854   1.488  1.00  0.00     0.035 C 
ENDBRANCH  20  23
BRANCH  20  25
HETATM   25  C5  UNL     1      -6.158  -0.579  -0.764  1.00  0.00     0.233 C 
HETATM   26  C6  UNL     1      -7.472  -0.879  -1.445  1.00  0.00     0.035 C 
ENDBRANCH  20  25
ENDBRANCH  19  20
ENDBRANCH  18  19
ENDBRANCH  17  18
ENDBRANCH  16  17
ENDBRANCH  15  16
BRANCH  15  27
HETATM   27  O1  UNL     1      -2.441   1.050  -0.735  1.00  0.00    -0.364 OA
ATOM     28  H1  UNL     1      -2.106   1.079  -1.624  1.00  0.00     0.217 HD
ENDBRANCH  15  27
ENDBRANCH   1  15
BRANCH   6  29
HETATM   29  C18 UNL     1       4.145   0.101   0.961  1.00  0.00     0.272 C 
HETATM   30  O2  UNL     1       4.136   1.185   1.601  1.00  0.00    -0.264 OA
BRANCH  29  31
HETATM   31  O3  UNL     1       5.424  -0.220   0.443  1.00  0.00    -0.244 OA
BRANCH  31  32
HETATM   32  C19 UNL     1       6.534   0.561   0.617  1.00  0.00     0.274 C 
HETATM   33  O4  UNL     1       6.436   1.619   1.262  1.00  0.00    -0.264 OA
BRANCH  32  34
HETATM   34  C20 UNL     1       7.816   0.113   0.027  1.00  0.00     0.037 C 
HETATM   35  C21 UNL     1       8.247  -1.209   0.651  1.00  0.00     0.025 C 
HETATM   36  C22 UNL     1       7.703  -0.153  -1.468  1.00  0.00     0.025 C 
HETATM   37  C23 UNL     1       8.854   1.177   0.301  1.00  0.00     0.025 C 
ENDBRANCH  32  34
ENDBRANCH  31  32
ENDBRANCH  29  31
ENDBRANCH   6  29
TORSDOF 14
