REMARK  12 active torsions:
REMARK  status: ('A' for Active; 'I' for Inactive)
REMARK    1  A    between atoms: C2_2  and  C3_3 
REMARK    2  A    between atoms: C3_3  and  C4_4 
REMARK    3  A    between atoms: C4_4  and  C5_5 
REMARK    4  A    between atoms: C5_5  and  C6_6 
REMARK    5  A    between atoms: C6_6  and  C7_7 
REMARK    6  A    between atoms: C7_7  and  C8_8 
REMARK    7  A    between atoms: C8_8  and  C9_9 
REMARK    8  A    between atoms: C9_9  and  C10_10 
REMARK    9  A    between atoms: C9_9  and  C13_13 
REMARK   10  A    between atoms: C10_10  and  C11_11 
REMARK   11  A    between atoms: C28_31  and  O3_32 
REMARK   12  A    between atoms: O3_32  and  C29_33 
ROOT
HETATM    1  C13 UNL     1       0.524  -1.167   0.592  1.00  0.00     0.096 C 
HETATM    2  C14 UNL     1       0.193   0.262   0.724  1.00  0.00     0.141 C 
HETATM    3  O1  UNL     1       0.405   1.156   1.507  1.00  0.00    -0.297 OA
HETATM    4  C15 UNL     1      -0.547   0.102  -0.590  1.00  0.00     0.072 C 
HETATM    5  C16 UNL     1      -1.818   0.826  -0.602  1.00  0.00     0.003 C 
HETATM    6  C17 UNL     1      -1.616   2.341  -0.468  1.00  0.00     0.008 C 
HETATM    7  C18 UNL     1      -2.912   2.990  -0.858  1.00  0.00     0.026 C 
HETATM    8  C19 UNL     1      -4.032   2.512   0.018  1.00  0.00     0.095 C 
HETATM    9  N1  UNL     1      -5.299   3.040  -0.378  1.00  0.00    -0.351 N 
HETATM   10  C20 UNL     1      -5.508   4.051  -1.381  1.00  0.00     0.153 C 
HETATM   11  C21 UNL     1      -6.460   2.517   0.280  1.00  0.00     0.219 C 
HETATM   12  O2  UNL     1      -7.614   2.840  -0.062  1.00  0.00    -0.273 OA
HETATM   13  C22 UNL     1      -6.220   1.572   1.391  1.00  0.00     0.103 C 
HETATM   14  C23 UNL     1      -5.111   0.609   1.148  1.00  0.00     0.020 C 
HETATM   15  C24 UNL     1      -4.138   1.015   0.083  1.00  0.00    -0.019 C 
HETATM   16  C25 UNL     1      -4.561   0.521  -1.281  1.00  0.00     0.018 C 
HETATM   17  C26 UNL     1      -2.780   0.437   0.486  1.00  0.00     0.003 C 
HETATM   18  C27 UNL     1      -2.864  -1.012   0.737  1.00  0.00     0.039 C 
HETATM   19  C28 UNL     1      -1.803  -1.910   0.292  1.00  0.00     0.142 C 
HETATM   20  C31 UNL     1      -0.559  -1.363  -0.352  1.00  0.00     0.008 C 
HETATM   21  C32 UNL     1      -0.343  -2.101  -1.655  1.00  0.00     0.020 C 
ENDROOT
BRANCH   1  22
HETATM   22  C9  UNL     1       1.964  -1.543   0.411  1.00  0.00    -0.068 C 
BRANCH  22  23
HETATM   23  C8  UNL     1       2.645  -0.946  -0.729  1.00  0.00    -0.023 C 
BRANCH  23  24
HETATM   24  C7  UNL     1       3.182   0.422  -0.710  1.00  0.00     0.027 C 
BRANCH  24  25
HETATM   25  C6  UNL     1       4.345   0.740   0.157  1.00  0.00     0.004 C 
BRANCH  25  26
HETATM   26  C5  UNL     1       5.584  -0.002  -0.325  1.00  0.00     0.001 C 
BRANCH  26  27
HETATM   27  C4  UNL     1       6.774   0.280   0.543  1.00  0.00     0.004 C 
BRANCH  27  28
HETATM   28  C3  UNL     1       7.131   1.749   0.572  1.00  0.00     0.026 C 
BRANCH  28  29
HETATM   29  C2  UNL     1       7.458   2.255  -0.787  1.00  0.00    -0.037 C 
HETATM   30  C1  UNL     1       8.653   2.774  -1.073  1.00  0.00     0.007 C 
ENDBRANCH  28  29
ENDBRANCH  27  28
ENDBRANCH  26  27
ENDBRANCH  25  26
ENDBRANCH  24  25
ENDBRANCH  23  24
ENDBRANCH  22  23
BRANCH  22  31
HETATM   31  C10 UNL     1       2.625  -1.751   1.726  1.00  0.00     0.061 C 
BRANCH  31  32
HETATM   32  C11 UNL     1       3.781  -2.650   1.768  1.00  0.00    -0.033 C 
HETATM   33  C12 UNL     1       3.723  -3.745   2.566  1.00  0.00     0.007 C 
ENDBRANCH  31  32
ENDBRANCH  22  31
ENDBRANCH   1  22
BRANCH  19  34
HETATM   34  O3  UNL     1      -2.350  -3.030  -0.415  1.00  0.00    -0.315 OA
BRANCH  34  35
HETATM   35  C29 UNL     1      -2.345  -4.320   0.024  1.00  0.00     0.255 C 
HETATM   36  C30 UNL     1      -2.928  -5.460  -0.749  1.00  0.00     0.126 C 
HETATM   37  O4  UNL     1      -1.820  -4.555   1.139  1.00  0.00    -0.266 OA
ENDBRANCH  34  35
ENDBRANCH  19  34
TORSDOF 12
