REMARK  12 active torsions:
REMARK  status: ('A' for Active; 'I' for Inactive)
REMARK    1  A    between atoms: C4_4  and  C5_5 
REMARK    2  A    between atoms: C6_6  and  C7_7 
REMARK    3  A    between atoms: C7_7  and  C8_8 
REMARK    4  A    between atoms: C8_8  and  C9_9 
REMARK    5  A    between atoms: C10_10  and  C11_11 
REMARK    6  A    between atoms: C12_12  and  C13_13 
REMARK    7  A    between atoms: C13_13  and  C14_14 
REMARK    8  A    between atoms: C14_14  and  C15_15 
REMARK    9  A    between atoms: C16_16  and  C17_17 
REMARK   10  A    between atoms: C18_18  and  C19_19 
REMARK   11  A    between atoms: C23_24  and  C24_25 
REMARK   12  A    between atoms: C27_28  and  S1_29 
ROOT
HETATM    1  C1  UNL     1      14.606   0.717   0.340  1.00  0.00     0.017 C 
HETATM    2  C2  UNL     1      13.552   0.296   0.702  1.00  0.00    -0.089 C 
HETATM    3  C3  UNL     1      12.297  -0.186   1.159  1.00  0.00     0.063 C 
HETATM    4  C4  UNL     1      11.708  -1.261   0.675  1.00  0.00     0.009 C 
ENDROOT
BRANCH   4   5
HETATM    5  C5  UNL     1      10.412  -1.703   1.197  1.00  0.00    -0.003 C 
HETATM    6  C6  UNL     1       9.780  -2.754   0.746  1.00  0.00    -0.026 C 
BRANCH   6   7
HETATM    7  C7  UNL     1       8.445  -3.147   1.321  1.00  0.00     0.031 C 
BRANCH   7   8
HETATM    8  C8  UNL     1       7.494  -3.026   0.071  1.00  0.00     0.031 C 
BRANCH   8   9
HETATM    9  C9  UNL     1       7.590  -1.612  -0.336  1.00  0.00    -0.026 C 
HETATM   10  C10 UNL     1       6.488  -0.861  -0.425  1.00  0.00    -0.003 C 
BRANCH  10  11
HETATM   11  C11 UNL     1       6.682   0.506  -0.830  1.00  0.00     0.008 C 
HETATM   12  C12 UNL     1       5.694   1.393  -0.976  1.00  0.00     0.055 C 
BRANCH  12  13
HETATM   13  C13 UNL     1       4.345   1.109  -0.750  1.00  0.00    -0.128 C 
BRANCH  13  14
HETATM   14  C14 UNL     1       3.125   1.049  -0.620  1.00  0.00     0.055 C 
BRANCH  14  15
HETATM   15  C15 UNL     1       2.510  -0.205  -0.099  1.00  0.00     0.008 C 
HETATM   16  C16 UNL     1       1.224  -0.316   0.032  1.00  0.00     0.001 C 
BRANCH  16  17
HETATM   17  C17 UNL     1       0.229   0.682  -0.281  1.00  0.00     0.000 C 
HETATM   18  C18 UNL     1      -1.055   0.405  -0.093  1.00  0.00     0.002 C 
BRANCH  18  19
HETATM   19  C19 UNL     1      -2.119   1.338  -0.378  1.00  0.00     0.033 C 
HETATM   20  C20 UNL     1      -3.383   1.059  -0.194  1.00  0.00     0.081 C 
HETATM   21  C21 UNL     1      -4.035  -0.159   0.307  1.00  0.00     0.206 C 
HETATM   22  N1  UNL     1      -4.462   1.981  -0.468  1.00  0.00    -0.378 N 
HETATM   23  O1  UNL     1      -3.493  -1.208   0.660  1.00  0.00    -0.285 OA
HETATM   24  C22 UNL     1      -5.504   0.064   0.324  1.00  0.00     0.013 C 
HETATM   25  C23 UNL     1      -6.390  -0.911   0.339  1.00  0.00     0.024 C 
HETATM   26  C31 UNL     1      -5.635   1.535   0.297  1.00  0.00     0.165 C 
HETATM   27  C32 UNL     1      -4.456   3.135  -1.337  1.00  0.00     0.150 C 
BRANCH  25  28
HETATM   28  C24 UNL     1      -7.832  -0.648   0.361  1.00  0.00    -0.035 A 
HETATM   29  C25 UNL     1      -8.687  -1.347  -0.450  1.00  0.00     0.013 A 
HETATM   30  C26 UNL     1     -10.057  -1.123  -0.427  1.00  0.00     0.024 A 
HETATM   31  C27 UNL     1     -10.585  -0.177   0.429  1.00  0.00     0.058 A 
HETATM   32  C29 UNL     1      -9.707   0.514   1.237  1.00  0.00     0.024 A 
HETATM   33  C30 UNL     1      -8.352   0.303   1.223  1.00  0.00     0.013 A 
BRANCH  31  34
HETATM   34  S1  UNL     1     -12.316   0.165   0.515  1.00  0.00     0.171 S 
HETATM   35  C28 UNL     1     -12.621   1.508  -0.620  1.00  0.00     0.167 C 
HETATM   36  O2  UNL     1     -12.691   0.525   1.924  1.00  0.00    -0.223 OA
HETATM   37  O3  UNL     1     -13.030  -1.049   0.012  1.00  0.00    -0.223 OA
ENDBRANCH  31  34
ENDBRANCH  25  28
ENDBRANCH  18  19
ENDBRANCH  16  17
ENDBRANCH  14  15
ENDBRANCH  13  14
ENDBRANCH  12  13
ENDBRANCH  10  11
ENDBRANCH   8   9
ENDBRANCH   7   8
ENDBRANCH   6   7
ENDBRANCH   4   5
TORSDOF 12
