REMARK  4 active torsions:
REMARK  status: ('A' for Active; 'I' for Inactive)
REMARK    1  A    between atoms: C4_5  and  N2_6 
REMARK       I    between atoms: N2_6  and  C5_8 
REMARK    2  A    between atoms: C5_8  and  C6_10 
REMARK       I    between atoms: N3_14  and  C9_15 
REMARK    3  A    between atoms: C11_20  and  C12_21 
REMARK    4  A    between atoms: C12_21  and  N6_22 
REMARK       I    between atoms: N6_22  and  C13_24 
ROOT
HETATM    1  C1  UNL     1       1.553  -3.821   0.016  1.00  0.00     0.221 C 
HETATM    2  N1  UNL     1       1.178  -2.755   0.232  1.00  0.00    -0.464 NA
HETATM    3  C2  UNL     1       0.734  -1.456   0.517  1.00  0.00     0.187 C 
HETATM    4  C3  UNL     1      -0.729  -1.489   0.881  1.00  0.00     0.068 C 
HETATM    5  C4  UNL     1      -1.614  -0.776  -0.109  1.00  0.00     0.105 C 
HETATM    6  C8  UNL     1      -1.197   0.675  -0.284  1.00  0.00     0.151 C 
HETATM    7  N3  UNL     1       0.283   0.743  -0.288  1.00  0.00    -0.344 N 
HETATM    8  C9  UNL     1       0.952   1.937   0.009  1.00  0.00     0.186 C 
HETATM    9  N4  UNL     1       1.690   2.607  -0.993  1.00  0.00    -0.064 NA
HETATM   10  N5  UNL     1       0.891   2.427   1.193  1.00  0.00    -0.369 N 
ATOM     11  H5  UNL     1       0.354   1.943   1.912  1.00  0.00     0.161 HD
HETATM   12  C10 UNL     1       1.577   3.661   1.519  1.00  0.00     0.148 C 
HETATM   13  C11 UNL     1       0.924  -0.509  -0.619  1.00  0.00     0.140 C 
ENDROOT
BRANCH  13  14
HETATM   14  C12 UNL     1       2.337  -0.394  -1.086  1.00  0.00     0.151 C 
BRANCH  14  15
HETATM   15  N6  UNL     1       3.276   0.054  -0.103  1.00  0.00    -0.359 N 
HETATM   16  C13 UNL     1       4.634   0.195  -0.469  1.00  0.00     0.213 C 
HETATM   17  C14 UNL     1       5.631   0.657   0.525  1.00  0.00     0.117 C 
HETATM   18  O2  UNL     1       5.014  -0.069  -1.634  1.00  0.00    -0.274 OA
ATOM     19  H6  UNL     1       2.970   0.268   0.846  1.00  0.00     0.162 HD
ENDBRANCH  14  15
ENDBRANCH  13  14
BRANCH   5  20
HETATM   20  N2  UNL     1      -2.950  -0.795   0.440  1.00  0.00    -0.354 N 
HETATM   21  C5  UNL     1      -3.998  -1.369  -0.318  1.00  0.00     0.232 C 
HETATM   22  O1  UNL     1      -3.740  -1.847  -1.448  1.00  0.00    -0.272 OA
ATOM     23  H2  UNL     1      -3.135  -0.400   1.362  1.00  0.00     0.163 HD
BRANCH  21  24
HETATM   24  C6  UNL     1      -5.401  -1.432   0.166  1.00  0.00     0.145 C 
HETATM   25  C7  UNL     1      -6.294  -2.094  -0.852  1.00  0.00     0.032 C 
HETATM   26 BR1  UNL     1      -6.049   0.355   0.483  1.00  0.00    -0.082 Br
ENDBRANCH  21  24
ENDBRANCH   5  20
TORSDOF 4
