REMARK  8 active torsions:
REMARK  status: ('A' for Active; 'I' for Inactive)
REMARK    1  A    between atoms: C4_7  and  N2_8 
REMARK    2  A    between atoms: N2_8  and  C5_10 
REMARK    3  A    between atoms: C5_10  and  C6_14 
REMARK    4  A    between atoms: C6_14  and  C7_16 
REMARK    5  A    between atoms: C8_17  and  C9_18 
REMARK    6  A    between atoms: C10_19  and  C11_20 
REMARK    7  A    between atoms: C11_20  and  C12_21 
REMARK    8  A    between atoms: C12_21  and  N4_22 
ROOT
HETATM    1  C5  UNL     1       3.045  -1.493   0.470  1.00  0.00     0.098 C 
HETATM    2  N3  UNL     1       2.368  -0.643   1.141  1.00  0.00    -0.387 N 
ATOM      3  H31 UNL     1       1.356  -0.579   1.028  1.00  0.00     0.157 HD
ATOM      4  H32 UNL     1       2.853  -0.028   1.794  1.00  0.00     0.157 HD
ENDROOT
BRANCH   1   5
HETATM    5  N2  UNL     1       4.459  -1.582   0.628  1.00  0.00    -0.359 N 
ATOM      6  H2  UNL     1       4.947  -2.445   0.388  1.00  0.00     0.162 HD
BRANCH   5   7
HETATM    7  C4  UNL     1       5.194  -0.453   1.127  1.00  0.00     0.247 C 
HETATM    8  C3  UNL     1       6.651  -0.732   1.224  1.00  0.00     0.248 C 
HETATM    9  N1  UNL     1       7.379   0.340   0.609  1.00  0.00    -0.348 N 
HETATM   10  O1  UNL     1       7.111  -1.768   1.772  1.00  0.00    -0.271 OA
HETATM   11  C2  UNL     1       6.451   1.410   0.382  1.00  0.00     0.152 C 
ATOM     12  H1  UNL     1       8.372   0.341   0.376  1.00  0.00     0.163 HD
HETATM   13  C1  UNL     1       6.811   2.257  -0.813  1.00  0.00     0.040 C 
HETATM   14  C16 UNL     1       5.164   0.709   0.218  1.00  0.00     0.180 C 
HETATM   15  O2  UNL     1       4.264   1.023  -0.514  1.00  0.00    -0.293 OA
ENDBRANCH   5   7
ENDBRANCH   1   5
BRANCH   1  16
HETATM   16  C6  UNL     1       2.340  -2.387  -0.478  1.00  0.00     0.204 C 
HETATM   17 BR1  UNL     1       2.966  -2.163  -2.293  1.00  0.00    -0.069 Br
BRANCH  16  18
HETATM   18  C7  UNL     1       0.911  -2.095  -0.444  1.00  0.00    -0.069 C 
HETATM   19  C8  UNL     1      -0.284  -1.855  -0.397  1.00  0.00    -0.013 C 
BRANCH  19  20
HETATM   20  C9  UNL     1      -1.671  -1.591  -0.325  1.00  0.00    -0.015 C 
HETATM   21  C10 UNL     1      -2.870  -1.381  -0.255  1.00  0.00    -0.091 C 
BRANCH  21  22
HETATM   22  C11 UNL     1      -4.317  -1.152  -0.167  1.00  0.00     0.122 C 
BRANCH  22  23
HETATM   23  C12 UNL     1      -4.573   0.276  -0.522  1.00  0.00     0.248 C 
BRANCH  23  24
HETATM   24  N4  UNL     1      -5.950   0.662  -0.483  1.00  0.00    -0.078 N 
HETATM   25  C13 UNL     1      -6.308   1.315  -1.735  1.00  0.00     0.271 C 
HETATM   26  C14 UNL     1      -6.132   1.653   0.565  1.00  0.00     0.271 C 
HETATM   27  C15 UNL     1      -6.859  -0.416  -0.228  1.00  0.00     0.271 C 
ENDBRANCH  23  24
ENDBRANCH  22  23
ENDBRANCH  21  22
ENDBRANCH  19  20
ENDBRANCH  16  18
ENDBRANCH   1  16
TORSDOF 8
