REMARK  7 active torsions:
REMARK  status: ('A' for Active; 'I' for Inactive)
REMARK    1  A    between atoms: C2_2  and  C16_25 
REMARK    2  A    between atoms: N1_3  and  N2_5 
REMARK    3  A    between atoms: C3_7  and  N3_8 
REMARK    4  A    between atoms: C3_7  and  C8_14 
REMARK    5  A    between atoms: N3_8  and  C4_10 
REMARK    6  A    between atoms: C8_14  and  C9_16 
REMARK       I    between atoms: C9_16  and  N4_18 
REMARK    7  A    between atoms: C16_25  and  C17_27 
ROOT
HETATM    1  N2  UNL     1      -1.025   1.239   0.139  1.00  0.00    -0.282 N 
ATOM      2  H2  UNL     1      -1.591   2.086   0.077  1.00  0.00     0.188 HD
HETATM    3  C3  UNL     1       0.241   1.370  -0.058  1.00  0.00     0.173 C 
ENDROOT
BRANCH   3   4
HETATM    4  N3  UNL     1       0.861   2.597  -0.347  1.00  0.00    -0.364 N 
ATOM      5  H3  UNL     1       1.306   2.676  -1.261  1.00  0.00     0.162 HD
BRANCH   4   6
HETATM    6  C4  UNL     1       0.937   3.740   0.492  1.00  0.00     0.021 C 
HETATM    7  C5  UNL     1       1.785   4.811  -0.202  1.00  0.00     0.037 C 
HETATM    8  C6  UNL     1      -0.439   4.399   0.689  1.00  0.00     0.037 C 
HETATM    9  C7  UNL     1       1.501   3.537   1.858  1.00  0.00     0.037 C 
ENDBRANCH   4   6
ENDBRANCH   3   4
BRANCH   3  10
HETATM   10  C8  UNL     1       1.071   0.168   0.024  1.00  0.00     0.283 C 
HETATM   11  O1  UNL     1       0.523  -0.964   0.291  1.00  0.00    -0.278 OA
BRANCH  10  12
HETATM   12  C9  UNL     1       2.504   0.176  -0.183  1.00  0.00     0.298 C 
HETATM   13  O2  UNL     1       3.085   1.280  -0.460  1.00  0.00    -0.264 OA
HETATM   14  N4  UNL     1       3.337  -0.936  -0.107  1.00  0.00    -0.336 N 
HETATM   15  C10 UNL     1       3.142  -2.343   0.170  1.00  0.00     0.088 C 
HETATM   16  C13 UNL     1       4.813  -0.971  -0.316  1.00  0.00     0.088 C 
HETATM   17  C11 UNL     1       3.731  -2.962  -1.084  1.00  0.00     0.027 C 
HETATM   18  C15 UNL     1       4.158  -2.543   1.285  1.00  0.00     0.027 C 
HETATM   19  C12 UNL     1       4.903  -2.038  -1.357  1.00  0.00     0.027 C 
HETATM   20  C14 UNL     1       5.245  -1.523   1.003  1.00  0.00     0.027 C 
ENDBRANCH  10  12
ENDBRANCH   3  10
BRANCH   1  21
HETATM   21  N1  UNL     1      -1.694   0.058   0.427  1.00  0.00    -0.305 N 
HETATM   22  C2  UNL     1      -2.460  -0.534  -0.467  1.00  0.00     0.034 C 
HETATM   23  C1  UNL     1      -2.620   0.062  -1.815  1.00  0.00     0.068 C 
ATOM     24  H1  UNL     1      -1.591  -0.361   1.351  1.00  0.00     0.186 HD
BRANCH  22  25
HETATM   25  C16 UNL     1      -3.146  -1.774  -0.125  1.00  0.00     0.224 C 
HETATM   26  F1  UNL     1      -2.709  -2.211   1.138  1.00  0.00    -0.242 F 
BRANCH  25  27
HETATM   27  C17 UNL     1      -4.624  -1.784  -0.124  1.00  0.00    -0.015 C 
HETATM   28  C18 UNL     1      -5.093  -3.201   0.290  1.00  0.00     0.018 C 
HETATM   29  C19 UNL     1      -5.254  -1.579  -1.483  1.00  0.00     0.018 C 
HETATM   30  C20 UNL     1      -5.265  -0.824   0.829  1.00  0.00     0.018 C 
ENDBRANCH  25  27
ENDBRANCH  22  25
ENDBRANCH   1  21
TORSDOF 7
