REMARK  6 active torsions:
REMARK  status: ('A' for Active; 'I' for Inactive)
REMARK    1  A    between atoms: C2_2  and  O1_3 
REMARK    2  A    between atoms: O1_3  and  C3_4 
REMARK    3  A    between atoms: C5_6  and  C6_7 
REMARK    4  A    between atoms: C6_7  and  C7_8 
REMARK    5  A    between atoms: C13_18  and  O3_19 
REMARK    6  A    between atoms: O3_19  and  C14_20 
ROOT
HETATM    1  C3  UNL     1      -1.251  -0.323   0.419  1.00  0.00     0.103 A 
HETATM    2  C4  UNL     1       0.030  -0.345  -0.076  1.00  0.00     0.047 A 
HETATM    3  C5  UNL     1       0.686   0.835  -0.446  1.00  0.00    -0.052 A 
HETATM    4  C11 UNL     1       0.037   2.041  -0.312  1.00  0.00     0.029 A 
HETATM    5  C12 UNL     1      -1.254   2.099   0.184  1.00  0.00     0.048 A 
HETATM    6  S1  UNL     1      -1.992   3.710   0.349  1.00  0.00    -0.050 SA
HETATM    7  C13 UNL     1      -1.890   0.941   0.543  1.00  0.00     0.119 A 
ENDROOT
BRANCH   3   8
HETATM    8  C6  UNL     1       2.038   0.744  -0.962  1.00  0.00     0.063 C 
BRANCH   8   9
HETATM    9  C7  UNL     1       3.166   0.862  -0.015  1.00  0.00     0.089 C 
HETATM   10  C8  UNL     1       3.168  -0.186   1.051  1.00  0.00     0.034 C 
HETATM   11  C9  UNL     1       3.730  -1.425   0.358  1.00  0.00     0.105 C 
HETATM   12  C10 UNL     1       4.397  -0.890  -0.853  1.00  0.00     0.217 C 
HETATM   13  O2  UNL     1       4.884  -1.586  -1.788  1.00  0.00    -0.274 OA
HETATM   14  N1  UNL     1       4.380   0.522  -0.750  1.00  0.00    -0.356 N 
ATOM     15  H1  UNL     1       5.076   1.171  -1.116  1.00  0.00     0.162 HD
ENDBRANCH   8   9
ENDBRANCH   3   8
BRANCH   1  16
HETATM   16  O1  UNL     1      -1.955  -1.446   0.799  1.00  0.00    -0.349 OA
BRANCH  16  17
HETATM   17  C2  UNL     1      -1.446  -2.737   0.703  1.00  0.00     0.171 C 
HETATM   18  C1  UNL     1      -1.115  -3.202  -0.678  1.00  0.00     0.034 C 
ENDBRANCH  16  17
ENDBRANCH   1  16
BRANCH   7  19
HETATM   19  O3  UNL     1      -3.155   0.950   1.035  1.00  0.00    -0.347 OA
BRANCH  19  20
HETATM   20  C14 UNL     1      -4.354   0.788   0.342  1.00  0.00     0.171 C 
HETATM   21  C15 UNL     1      -4.613   1.802  -0.736  1.00  0.00     0.034 C 
ENDBRANCH  19  20
ENDBRANCH   7  19
TORSDOF 6
