REMARK  7 active torsions:
REMARK  status: ('A' for Active; 'I' for Inactive)
REMARK    1  A    between atoms: C2_2  and  C3_3 
REMARK    2  A    between atoms: C3_3  and  C4_4 
REMARK    3  A    between atoms: C4_4  and  C5_5 
REMARK    4  A    between atoms: C5_5  and  C6_6 
REMARK    5  A    between atoms: C6_6  and  C7_7 
REMARK    6  A    between atoms: C7_7  and  C8_8 
REMARK    7  A    between atoms: C14_14  and  O1_15 
ROOT
HETATM    1  C8  UNL     1      -0.571   0.434   0.362  1.00  0.00     0.098 C 
HETATM    2  C9  UNL     1      -2.022   0.860   0.558  1.00  0.00     0.068 C 
HETATM    3  C10 UNL     1      -2.907   0.458  -0.570  1.00  0.00     0.109 C 
HETATM    4  C11 UNL     1      -4.333   0.842  -0.167  1.00  0.00     0.042 C 
HETATM    5  C12 UNL     1      -4.939  -0.417   0.410  1.00  0.00     0.006 C 
HETATM    6  C13 UNL     1      -4.181  -1.564  -0.174  1.00  0.00     0.035 C 
HETATM    7  C14 UNL     1      -2.935  -1.012  -0.822  1.00  0.00     0.154 C 
HETATM    8  O2  UNL     1      -2.646   1.118  -1.754  1.00  0.00    -0.245 OA
HETATM    9  S1  UNL     1      -1.105   1.720  -1.863  1.00  0.00     0.358 S 
HETATM   10  O3  UNL     1      -1.055   3.121  -1.324  1.00  0.00    -0.176 OA
HETATM   11  O4  UNL     1      -0.614   1.736  -3.283  1.00  0.00    -0.176 OA
HETATM   12  N1  UNL     1      -0.063   0.711  -0.939  1.00  0.00    -0.292 N 
ATOM     13  H1  UNL     1       0.825   0.349  -1.286  1.00  0.00     0.174 HD
ENDROOT
BRANCH   1  14
HETATM   14  C7  UNL     1       0.272   1.121   1.393  1.00  0.00     0.026 C 
BRANCH  14  15
HETATM   15  C6  UNL     1       1.736   0.695   1.157  1.00  0.00     0.002 C 
BRANCH  15  16
HETATM   16  C5  UNL     1       1.852  -0.758   1.300  1.00  0.00     0.000 C 
BRANCH  16  17
HETATM   17  C4  UNL     1       3.194  -1.342   1.268  1.00  0.00     0.000 C 
BRANCH  17  18
HETATM   18  C3  UNL     1       4.066  -1.160   0.103  1.00  0.00    -0.000 C 
BRANCH  18  19
HETATM   19  C2  UNL     1       4.577   0.196  -0.191  1.00  0.00    -0.005 C 
HETATM   20  C1  UNL     1       5.490   0.166  -1.444  1.00  0.00     0.005 C 
ENDBRANCH  18  19
ENDBRANCH  17  18
ENDBRANCH  16  17
ENDBRANCH  15  16
ENDBRANCH  14  15
ENDBRANCH   1  14
BRANCH   7  21
HETATM   21  O1  UNL     1      -2.961  -1.309  -2.203  1.00  0.00    -0.392 OA
ATOM     22  H1  UNL     1      -2.979  -2.245  -2.363  1.00  0.00     0.210 HD
ENDBRANCH   7  21
TORSDOF 7
