REMARK  6 active torsions:
REMARK  status: ('A' for Active; 'I' for Inactive)
REMARK    1  A    between atoms: C2_2  and  C3_3 
REMARK    2  A    between atoms: C3_3  and  C4_4 
REMARK    3  A    between atoms: C4_4  and  C5_5 
REMARK    4  A    between atoms: C5_5  and  C6_6 
REMARK    5  A    between atoms: C6_6  and  C7_7 
REMARK    6  A    between atoms: C8_10  and  C9_11 
ROOT
HETATM    1  C7  UNL     1       0.560  -1.355  -0.916  1.00  0.00     0.084 A 
HETATM    2  N1  UNL     1      -0.074  -0.201  -0.911  1.00  0.00    -0.343 N 
ATOM      3  H1  UNL     1       0.364   0.698  -1.112  1.00  0.00     0.167 HD
HETATM    4  C8  UNL     1      -1.407  -0.367  -0.599  1.00  0.00     0.072 A 
HETATM    5  C14 UNL     1      -1.491  -1.729  -0.420  1.00  0.00     0.132 A 
HETATM    6  N3  UNL     1      -0.300  -2.338  -0.611  1.00  0.00    -0.329 N 
HETATM    7  C15 UNL     1      -0.092  -3.757  -0.505  1.00  0.00     0.150 C 
HETATM    8  C16 UNL     1      -1.103  -4.427   0.371  1.00  0.00     0.143 C 
HETATM    9  N4  UNL     1      -2.441  -3.920   0.103  1.00  0.00    -0.354 N 
ATOM     10  H4  UNL     1      -3.228  -4.564   0.021  1.00  0.00     0.162 HD
HETATM   11  C17 UNL     1      -2.643  -2.521  -0.044  1.00  0.00     0.270 C 
HETATM   12  O1  UNL     1      -3.762  -2.047   0.150  1.00  0.00    -0.266 OA
ENDROOT
BRANCH   4  13
HETATM   13  C9  UNL     1      -2.297   0.747  -0.607  1.00  0.00    -0.029 C 
HETATM   14  C10 UNL     1      -1.416   1.982  -0.385  1.00  0.00     0.068 C 
HETATM   15  C11 UNL     1      -2.062   3.279  -0.646  1.00  0.00     0.237 C 
HETATM   16  N2  UNL     1      -3.113   3.375   0.397  1.00  0.00    -0.072 N 
HETATM   17  C12 UNL     1      -4.029   2.371   0.005  1.00  0.00     0.260 C 
ATOM     18  H22 UNL     1      -2.774   3.295   1.356  1.00  0.00     0.277 HD
ATOM     19  H21 UNL     1      -3.519   4.304   0.512  1.00  0.00     0.277 HD
HETATM   20  C13 UNL     1      -3.520   0.939   0.064  1.00  0.00     0.010 C 
ENDBRANCH   4  13
BRANCH   1  21
HETATM   21  C6  UNL     1       1.984  -1.547  -1.230  1.00  0.00     0.076 C 
BRANCH  21  22
HETATM   22  C5  UNL     1       2.917  -1.441  -0.076  1.00  0.00     0.007 C 
BRANCH  22  23
HETATM   23  C4  UNL     1       2.905  -0.070   0.603  1.00  0.00     0.000 C 
BRANCH  23  24
HETATM   24  C3  UNL     1       3.327   1.006  -0.335  1.00  0.00    -0.000 C 
BRANCH  24  25
HETATM   25  C2  UNL     1       3.318   2.373   0.276  1.00  0.00    -0.005 C 
HETATM   26  C1  UNL     1       4.252   2.508   1.442  1.00  0.00     0.005 C 
ENDBRANCH  24  25
ENDBRANCH  23  24
ENDBRANCH  22  23
ENDBRANCH  21  22
ENDBRANCH   1  21
TORSDOF 6
