REMARK  7 active torsions:
REMARK  status: ('A' for Active; 'I' for Inactive)
REMARK    1  A    between atoms: C2_2  and  C3_3 
REMARK    2  A    between atoms: C3_3  and  C4_4 
REMARK    3  A    between atoms: N3_12  and  C9_13 
REMARK    4  A    between atoms: C9_13  and  C10_14 
REMARK    5  A    between atoms: C10_14  and  C11_15 
REMARK    6  A    between atoms: C11_15  and  C12_16 
REMARK    7  A    between atoms: C12_16  and  O1_17 
ROOT
HETATM    1  C4  UNL     1       2.733   0.026   0.542  1.00  0.00    -0.016 A 
HETATM    2  C5  UNL     1       3.422  -1.131   0.738  1.00  0.00     0.099 A 
HETATM    3  N1  UNL     1       2.835  -2.341   0.749  1.00  0.00    -0.350 N 
ATOM      4  H1  UNL     1       3.400  -3.177   0.902  1.00  0.00     0.166 HD
HETATM    5  C6  UNL     1       1.512  -2.456   0.560  1.00  0.00     0.131 A 
HETATM    6  C7  UNL     1       0.753  -1.287   0.352  1.00  0.00     0.108 A 
HETATM    7  C8  UNL     1       1.350  -0.057   0.341  1.00  0.00     0.085 A 
HETATM    8  N2  UNL     1       0.604   1.117   0.149  1.00  0.00    -0.099 NA
HETATM    9  N3  UNL     1      -0.672  -1.374   0.146  1.00  0.00    -0.314 N 
HETATM   10  C14 UNL     1      -1.178  -2.731   0.176  1.00  0.00     0.102 C 
HETATM   11  S1  UNL     1      -2.745  -3.003   0.618  1.00  0.00    -0.063 SA
HETATM   12  C15 UNL     1      -0.317  -3.884  -0.182  1.00  0.00     0.191 C 
HETATM   13  N4  UNL     1       0.928  -3.753   0.572  1.00  0.00    -0.368 N 
ATOM     14  H4  UNL     1       1.349  -4.536   1.072  1.00  0.00     0.161 HD
ENDROOT
BRANCH   9  15
HETATM   15  C9  UNL     1      -1.563  -0.314  -0.103  1.00  0.00     0.071 C 
BRANCH  15  16
HETATM   16  C10 UNL     1      -2.073  -0.290  -1.537  1.00  0.00     0.047 C 
BRANCH  16  17
HETATM   17  C11 UNL     1      -2.953   0.854  -1.843  1.00  0.00     0.031 C 
BRANCH  17  18
HETATM   18  C12 UNL     1      -4.209   0.997  -1.078  1.00  0.00     0.167 C 
BRANCH  18  19
HETATM   19  O1  UNL     1      -4.008   1.125   0.281  1.00  0.00    -0.396 OA
HETATM   20  C13 UNL     1      -5.245   1.293   0.948  1.00  0.00     0.201 C 
ENDBRANCH  18  19
ENDBRANCH  17  18
ENDBRANCH  16  17
ENDBRANCH  15  16
ENDBRANCH   9  15
BRANCH   1  21
HETATM   21  C3  UNL     1       3.322   1.376   0.508  1.00  0.00     0.042 C 
BRANCH  21  22
HETATM   22  C2  UNL     1       4.758   1.402   0.005  1.00  0.00     0.000 C 
HETATM   23  C1  UNL     1       5.175   2.863   0.044  1.00  0.00     0.005 C 
ENDBRANCH  21  22
ENDBRANCH   1  21
TORSDOF 7
