REMARK  7 active torsions:
REMARK  status: ('A' for Active; 'I' for Inactive)
REMARK    1  A    between atoms: C3_3  and  O1_4 
REMARK    2  A    between atoms: N2_9  and  C5_11 
REMARK    3  A    between atoms: C5_11  and  C6_12 
REMARK    4  A    between atoms: C6_12  and  C7_13 
REMARK    5  A    between atoms: C7_13  and  C8_14 
REMARK    6  A    between atoms: C8_14  and  C9_15 
REMARK    7  A    between atoms: C9_15  and  N3_16 
ROOT
HETATM    1  C1  UNL     1      -6.153  -2.074   0.161  1.00  0.00     0.053 C 
HETATM    2  C2  UNL     1      -4.964  -1.219  -0.034  1.00  0.00    -0.004 A 
HETATM    3  C3  UNL     1      -3.991  -1.598  -0.929  1.00  0.00     0.148 A 
HETATM    4  N1  UNL     1      -2.921  -0.834  -1.110  1.00  0.00    -0.323 N 
ATOM      5  H1  UNL     1      -2.211  -1.132  -1.779  1.00  0.00     0.169 HD
HETATM    6  C4  UNL     1      -2.734   0.364  -0.416  1.00  0.00     0.109 A 
HETATM    7  N2  UNL     1      -1.700   0.979  -0.671  1.00  0.00    -0.376 N 
ATOM      8  H2  UNL     1      -1.147   0.482  -1.369  1.00  0.00     0.161 HD
HETATM    9  C14 UNL     1      -3.720   0.720   0.471  1.00  0.00    -0.012 A 
HETATM   10  C15 UNL     1      -3.610   1.967   1.250  1.00  0.00     0.052 C 
HETATM   11  C16 UNL     1      -4.845  -0.056   0.681  1.00  0.00    -0.042 A 
HETATM   12  C17 UNL     1      -5.882   0.356   1.647  1.00  0.00     0.049 C 
ENDROOT
BRANCH   7  13
HETATM   13  C5  UNL     1      -1.073   2.138  -0.291  1.00  0.00     0.121 C 
BRANCH  13  14
HETATM   14  C6  UNL     1       0.423   2.174  -0.679  1.00  0.00     0.020 C 
BRANCH  14  15
HETATM   15  C7  UNL     1       1.113   1.017  -0.001  1.00  0.00     0.003 C 
BRANCH  15  16
HETATM   16  C8  UNL     1       2.587   1.008  -0.356  1.00  0.00     0.030 C 
BRANCH  16  17
HETATM   17  C9  UNL     1       3.218  -0.170   0.352  1.00  0.00     0.272 C 
BRANCH  17  18
HETATM   18  N3  UNL     1       4.615  -0.213   0.044  1.00  0.00     0.092 N 
HETATM   19  C10 UNL     1       4.803  -0.545  -1.335  1.00  0.00     0.298 C 
HETATM   20  C11 UNL     1       6.251  -0.862  -1.651  1.00  0.00     0.198 C 
HETATM   21  O2  UNL     1       6.792  -1.766  -0.718  1.00  0.00    -0.388 OA
HETATM   22  C12 UNL     1       6.740  -1.168   0.522  1.00  0.00     0.198 C 
HETATM   23  C13 UNL     1       5.281  -1.101   0.949  1.00  0.00     0.298 C 
ENDBRANCH  17  18
ENDBRANCH  16  17
ENDBRANCH  15  16
ENDBRANCH  14  15
ENDBRANCH  13  14
ENDBRANCH   7  13
BRANCH   3  24
HETATM   24  O1  UNL     1      -4.089  -2.787  -1.674  1.00  0.00    -0.346 OA
ATOM     25  H1  UNL     1      -3.417  -3.049  -2.292  1.00  0.00     0.219 HD
ENDBRANCH   3  24
TORSDOF 7
