REMARK  9 active torsions:
REMARK  status: ('A' for Active; 'I' for Inactive)
REMARK    1  A    between atoms: C2_2  and  C3_3 
REMARK    2  A    between atoms: C3_3  and  C4_4 
REMARK    3  A    between atoms: C4_4  and  C5_5 
REMARK    4  A    between atoms: C5_5  and  C6_6 
REMARK    5  A    between atoms: C5_5  and  N1_8 
REMARK    6  A    between atoms: N1_8  and  C7_11 
REMARK    7  A    between atoms: C7_11  and  C8_12 
REMARK    8  A    between atoms: C8_12  and  O1_13 
REMARK    9  A    between atoms: C8_12  and  C9_15 
ROOT
HETATM    1  C8  UNL     1      -1.928  -1.643  -0.076  1.00  0.00     0.195 C 
ENDROOT
BRANCH   1   2
HETATM    2  C7  UNL     1      -0.620  -1.122   0.290  1.00  0.00     0.270 C 
BRANCH   2   3
HETATM    3  N1  UNL     1       0.092  -0.042  -0.245  1.00  0.00    -0.066 N 
ATOM      4  H12 UNL     1      -0.323   0.869  -0.050  1.00  0.00     0.277 HD
ATOM      5  H11 UNL     1       0.043   0.028  -1.261  1.00  0.00     0.277 HD
BRANCH   3   6
HETATM    6  C5  UNL     1       1.482  -0.211   0.292  1.00  0.00     0.214 C 
BRANCH   6   7
HETATM    7  C4  UNL     1       2.330   0.957  -0.007  1.00  0.00     0.035 C 
BRANCH   7   8
HETATM    8  C3  UNL     1       3.736   0.772   0.432  1.00  0.00     0.002 C 
BRANCH   8   9
HETATM    9  C2  UNL     1       4.654   1.957   0.187  1.00  0.00    -0.004 C 
HETATM   10  C1  UNL     1       6.032   1.458   0.660  1.00  0.00     0.005 C 
ENDBRANCH   8   9
ENDBRANCH   7   8
ENDBRANCH   6   7
BRANCH   6  11
HETATM   11  C6  UNL     1       1.932  -1.507  -0.318  1.00  0.00     0.255 C 
HETATM   12  F1  UNL     1       3.191  -1.872   0.179  1.00  0.00    -0.253 F 
ENDBRANCH   6  11
ENDBRANCH   3   6
ENDBRANCH   2   3
ENDBRANCH   1   2
BRANCH   1  13
HETATM   13  O1  UNL     1      -2.217  -2.881   0.556  1.00  0.00    -0.388 OA
ATOM     14  H1  UNL     1      -3.071  -3.221   0.317  1.00  0.00     0.210 HD
ENDBRANCH   1  13
BRANCH   1  15
HETATM   15  C9  UNL     1      -3.130  -0.773   0.094  1.00  0.00     0.064 A 
HETATM   16  N2  UNL     1      -3.605   0.273  -0.597  1.00  0.00    -0.358 N 
HETATM   17  C10 UNL     1      -4.859   0.589  -0.154  1.00  0.00     0.029 A 
ATOM     18  H2  UNL     1      -3.106   0.760  -1.341  1.00  0.00     0.165 HD
HETATM   19  C11 UNL     1      -5.834   1.595  -0.589  1.00  0.00     0.070 C 
HETATM   20  C12 UNL     1      -5.204  -0.293   0.868  1.00  0.00     0.080 A 
HETATM   21 CL1  UNL     1      -6.694  -0.362   1.827  1.00  0.00    -0.080 Cl
HETATM   22  C13 UNL     1      -4.135  -1.137   1.018  1.00  0.00     0.083 A 
HETATM   23 CL2  UNL     1      -4.005  -2.422   2.225  1.00  0.00    -0.080 Cl
ENDBRANCH   1  15
TORSDOF 9
