REMARK  10 active torsions:
REMARK  status: ('A' for Active; 'I' for Inactive)
REMARK    1  A    between atoms: O1_1  and  C1_3 
REMARK    2  A    between atoms: C1_3  and  C2_4 
REMARK    3  A    between atoms: C2_4  and  C3_5 
REMARK    4  A    between atoms: C3_5  and  C4_6 
REMARK    5  A    between atoms: C4_6  and  N1_7 
REMARK    6  A    between atoms: N1_7  and  C5_10 
REMARK    7  A    between atoms: C5_10  and  C6_11 
REMARK    8  A    between atoms: C6_11  and  O2_12 
REMARK    9  A    between atoms: C6_11  and  C7_14 
REMARK   10  A    between atoms: C7_14  and  C8_15 
ROOT
HETATM    1  C6  UNL     1       0.119   1.133  -0.164  1.00  0.00     0.158 C 
ENDROOT
BRANCH   1   2
HETATM    2  C5  UNL     1      -0.579   0.004   0.515  1.00  0.00     0.264 C 
BRANCH   2   3
HETATM    3  N1  UNL     1      -1.914  -0.231   0.009  1.00  0.00    -0.073 N 
ATOM      4  H12 UNL     1      -1.901  -0.370  -1.001  1.00  0.00     0.277 HD
ATOM      5  H11 UNL     1      -2.475   0.620   0.053  1.00  0.00     0.277 HD
BRANCH   3   6
HETATM    6  C4  UNL     1      -2.577  -1.312   0.663  1.00  0.00     0.232 C 
BRANCH   6   7
HETATM    7  C3  UNL     1      -3.960  -1.543   0.107  1.00  0.00     0.029 C 
BRANCH   7   8
HETATM    8  C2  UNL     1      -4.859  -0.340   0.259  1.00  0.00     0.028 C 
BRANCH   8   9
HETATM    9  C1  UNL     1      -6.249  -0.641  -0.319  1.00  0.00     0.164 C 
BRANCH   9  10
HETATM   10  O1  UNL     1      -7.033   0.491  -0.155  1.00  0.00    -0.401 OA
ATOM     11  H1  UNL     1      -7.893   0.305  -0.513  1.00  0.00     0.209 HD
ENDBRANCH   9  10
ENDBRANCH   8   9
ENDBRANCH   7   8
ENDBRANCH   6   7
ENDBRANCH   3   6
ENDBRANCH   2   3
ENDBRANCH   1   2
BRANCH   1  12
HETATM   12  O2  UNL     1      -0.671   2.269   0.034  1.00  0.00    -0.393 OA
ATOM     13  H2  UNL     1      -0.226   2.988  -0.399  1.00  0.00     0.210 HD
ENDBRANCH   1  12
BRANCH   1  14
HETATM   14  C7  UNL     1       1.568   1.329   0.149  1.00  0.00     0.057 C 
HETATM   15  C14 UNL     1       2.030   2.627  -0.494  1.00  0.00     0.024 C 
HETATM   16  C15 UNL     1       2.817   2.907   0.763  1.00  0.00     0.081 C 
HETATM   17  C16 UNL     1       1.779   2.041   1.436  1.00  0.00     0.254 C 
HETATM   18  F1  UNL     1       0.713   2.840   1.777  1.00  0.00    -0.205 F 
HETATM   19  F2  UNL     1       2.187   1.346   2.525  1.00  0.00    -0.205 F 
BRANCH  14  20
HETATM   20  C8  UNL     1       2.509   0.215  -0.169  1.00  0.00     0.002 C 
HETATM   21  C9  UNL     1       2.464  -0.247  -1.598  1.00  0.00     0.005 C 
HETATM   22  C10 UNL     1       3.554  -1.153  -2.011  1.00  0.00     0.000 C 
HETATM   23  C11 UNL     1       4.005  -2.068  -0.907  1.00  0.00     0.000 C 
HETATM   24  C12 UNL     1       2.777  -2.277  -0.008  1.00  0.00     0.000 C 
HETATM   25  C13 UNL     1       2.608  -0.953   0.716  1.00  0.00     0.005 C 
ENDBRANCH  14  20
ENDBRANCH   1  14
TORSDOF 10
