REMARK  9 active torsions:
REMARK  status: ('A' for Active; 'I' for Inactive)
REMARK    1  A    between atoms: C2_2  and  C3_3 
REMARK    2  A    between atoms: C3_3  and  C4_4 
REMARK    3  A    between atoms: C4_4  and  N1_5 
REMARK    4  A    between atoms: C9_12  and  C10_13 
REMARK    5  A    between atoms: C10_13  and  C11_14 
REMARK    6  A    between atoms: C11_14  and  N2_16 
REMARK    7  A    between atoms: N2_16  and  C13_18 
REMARK    8  A    between atoms: C13_18  and  C14_19 
REMARK    9  A    between atoms: C15_22  and  N3_23 
ROOT
HETATM    1  N1  UNL     1       3.166   0.298   0.765  1.00  0.00    -0.376 N 
ATOM      2  H1  UNL     1       3.325   0.852   1.606  1.00  0.00     0.164 HD
HETATM    3  C5  UNL     1       1.961   0.087   0.503  1.00  0.00    -0.010 C 
HETATM    4  C6  UNL     1       1.672  -0.705  -0.689  1.00  0.00     0.089 C 
HETATM    5  C7  UNL     1       0.426  -0.369  -1.434  1.00  0.00     0.175 C 
HETATM    6  F1  UNL     1      -0.172  -1.515  -1.904  1.00  0.00    -0.249 F 
HETATM    7  C8  UNL     1      -0.495   0.618  -0.797  1.00  0.00     0.044 C 
HETATM    8  C9  UNL     1      -1.190   0.304   0.430  1.00  0.00     0.021 C 
HETATM    9  C15 UNL     1      -0.235  -0.093   1.583  1.00  0.00     0.193 C 
HETATM   10  C16 UNL     1       1.029   0.709   1.516  1.00  0.00     0.085 C 
ENDROOT
BRANCH   8  11
HETATM   11  C10 UNL     1      -2.433  -0.458   0.529  1.00  0.00     0.031 C 
BRANCH  11  12
HETATM   12  C11 UNL     1      -3.681   0.047  -0.112  1.00  0.00     0.077 C 
HETATM   13  C12 UNL     1      -3.586   0.175  -1.567  1.00  0.00     0.032 C 
BRANCH  12  14
HETATM   14  N2  UNL     1      -4.777  -0.723   0.387  1.00  0.00    -0.393 N 
ATOM     15  H2  UNL     1      -4.608  -1.474   1.057  1.00  0.00     0.159 HD
BRANCH  14  16
HETATM   16  C13 UNL     1      -6.077  -0.451  -0.039  1.00  0.00     0.126 C 
BRANCH  16  17
HETATM   17  C14 UNL     1      -6.710   0.835   0.386  1.00  0.00     0.391 C 
HETATM   18  F2  UNL     1      -6.091   1.975   0.003  1.00  0.00    -0.209 F 
HETATM   19  F3  UNL     1      -7.998   0.860  -0.170  1.00  0.00    -0.209 F 
ENDBRANCH  16  17
ENDBRANCH  14  16
ENDBRANCH  12  14
ENDBRANCH  11  12
ENDBRANCH   8  11
BRANCH   9  20
HETATM   20  N3  UNL     1       0.030  -1.495   1.605  1.00  0.00    -0.074 N 
ATOM     21  H33 UNL     1      -0.835  -2.034   1.641  1.00  0.00     0.274 HD
ATOM     22  H32 UNL     1       0.385  -1.818   0.705  1.00  0.00     0.274 HD
ATOM     23  H31 UNL     1       0.659  -1.756   2.364  1.00  0.00     0.274 HD
ENDBRANCH   9  20
BRANCH   1  24
HETATM   24  C4  UNL     1       4.336  -0.097   0.100  1.00  0.00     0.060 C 
BRANCH  24  25
HETATM   25  C3  UNL     1       4.887   0.886  -0.886  1.00  0.00     0.044 C 
BRANCH  25  26
HETATM   26  C2  UNL     1       6.152   0.257  -1.486  1.00  0.00     0.001 C 
HETATM   27  C1  UNL     1       7.095   0.019  -0.318  1.00  0.00     0.005 C 
ENDBRANCH  25  26
ENDBRANCH  24  25
ENDBRANCH   1  24
TORSDOF 9
