REMARK  11 active torsions:
REMARK  status: ('A' for Active; 'I' for Inactive)
REMARK    1  A    between atoms: C2_2  and  C4_4 
REMARK    2  A    between atoms: C2_2  and  C5_8 
REMARK    3  A    between atoms: C4_4  and  O1_5 
REMARK    4  A    between atoms: C5_8  and  O2_9 
REMARK    5  A    between atoms: C5_8  and  N1_11 
REMARK    6  A    between atoms: C9_17  and  C10_18 
REMARK    7  A    between atoms: C10_18  and  O3_19 
REMARK    8  A    between atoms: C10_18  and  C11_22 
REMARK    9  A    between atoms: C11_22  and  C12_25 
REMARK   10  A    between atoms: C12_25  and  C13_28 
REMARK   11  A    between atoms: C13_28  and  C14_31 
ROOT
HETATM    1  N1  UNL     1      -0.896  -0.734   0.234  1.00  0.00     0.134 N 
HETATM    2  C6  UNL     1      -1.619  -1.882   0.770  1.00  0.00     0.355 C 
HETATM    3  C7  UNL     1      -0.641  -3.022   0.591  1.00  0.00     0.272 C 
HETATM    4  F2  UNL     1      -1.032  -3.903  -0.389  1.00  0.00    -0.204 F 
HETATM    5  F3  UNL     1      -0.418  -3.699   1.780  1.00  0.00    -0.204 F 
HETATM    6  C8  UNL     1       0.689  -2.352   0.238  1.00  0.00     0.123 C 
HETATM    7  C9  UNL     1       0.376  -0.949   0.787  1.00  0.00     0.305 C 
ENDROOT
BRANCH   7   8
HETATM    8  C10 UNL     1       1.496  -0.022   0.620  1.00  0.00     0.307 C 
HETATM    9  F4  UNL     1       2.466  -0.514   1.548  1.00  0.00    -0.202 F 
BRANCH   8  10
HETATM   10  O3  UNL     1       1.179   1.208   1.159  1.00  0.00    -0.355 OA
ATOM     11  H3  UNL     1       1.906   1.810   1.051  1.00  0.00     0.213 HD
ENDBRANCH   8  10
BRANCH   8  12
HETATM   12  C11 UNL     1       2.204   0.024  -0.678  1.00  0.00     0.375 C 
HETATM   13  F5  UNL     1       2.814  -1.169  -1.019  1.00  0.00    -0.193 F 
HETATM   14  F6  UNL     1       1.181   0.064  -1.704  1.00  0.00    -0.193 F 
BRANCH  12  15
HETATM   15  C12 UNL     1       3.086   1.141  -1.013  1.00  0.00     0.383 C 
HETATM   16  F7  UNL     1       3.617   0.933  -2.313  1.00  0.00    -0.192 F 
HETATM   17  F8  UNL     1       2.428   2.361  -1.176  1.00  0.00    -0.192 F 
BRANCH  15  18
HETATM   18  C13 UNL     1       4.281   1.424  -0.164  1.00  0.00     0.371 C 
HETATM   19  F9  UNL     1       4.949   2.564  -0.721  1.00  0.00    -0.193 F 
HETATM   20  F10 UNL     1       3.998   1.853   1.116  1.00  0.00    -0.193 F 
BRANCH  18  21
HETATM   21  C14 UNL     1       5.302   0.322  -0.214  1.00  0.00     0.431 C 
HETATM   22  F11 UNL     1       6.401   0.614   0.588  1.00  0.00    -0.208 F 
HETATM   23  F12 UNL     1       5.723   0.168  -1.543  1.00  0.00    -0.208 F 
ENDBRANCH  18  21
ENDBRANCH  15  18
ENDBRANCH  12  15
ENDBRANCH   8  12
ENDBRANCH   7   8
BRANCH   1  24
HETATM   24  C5  UNL     1      -1.534   0.507   0.434  1.00  0.00     0.370 C 
BRANCH  24  25
HETATM   25  C2  UNL     1      -2.873   0.710  -0.191  1.00  0.00     0.061 C 
HETATM   26  C1  UNL     1      -3.188   2.213  -0.046  1.00  0.00     0.025 C 
HETATM   27  C3  UNL     1      -4.012  -0.002   0.491  1.00  0.00     0.025 C 
BRANCH  25  28
HETATM   28  C4  UNL     1      -2.935   0.408  -1.655  1.00  0.00     0.316 C 
HETATM   29  F1  UNL     1      -4.179   0.723  -2.172  1.00  0.00    -0.219 F 
BRANCH  28  30
HETATM   30  O1  UNL     1      -2.010   1.157  -2.393  1.00  0.00    -0.366 OA
ATOM     31  H1  UNL     1      -2.049   0.965  -3.323  1.00  0.00     0.213 HD
ENDBRANCH  28  30
ENDBRANCH  25  28
ENDBRANCH  24  25
BRANCH  24  32
HETATM   32  O2  UNL     1      -1.606   0.875   1.774  1.00  0.00    -0.367 OA
ATOM     33  H2  UNL     1      -0.753   0.746   2.172  1.00  0.00     0.212 HD
ENDBRANCH  24  32
ENDBRANCH   1  24
TORSDOF 11
