REMARK  9 active torsions:
REMARK  status: ('A' for Active; 'I' for Inactive)
REMARK    1  A    between atoms: C1_2  and  C2_4 
REMARK    2  A    between atoms: C3_5  and  C4_6 
REMARK    3  A    between atoms: C4_6  and  C5_8 
REMARK    4  A    between atoms: C4_6  and  C9_19 
REMARK    5  A    between atoms: C5_8  and  C6_10 
REMARK    6  A    between atoms: C6_10  and  C7_13 
REMARK    7  A    between atoms: C7_13  and  C8_16 
REMARK    8  A    between atoms: C8_16  and  O2_17 
REMARK    9  A    between atoms: C9_19  and  C10_22 
ROOT
HETATM    1  C4  UNL     1      -0.198   0.889   0.332  1.00  0.00     0.238 C 
HETATM    2  F1  UNL     1       0.505   0.771   1.646  1.00  0.00    -0.227 F 
ENDROOT
BRANCH   1   3
HETATM    3  C3  UNL     1      -1.292  -0.089   0.521  1.00  0.00     0.009 A 
HETATM    4  C2  UNL     1      -2.071  -0.601  -0.464  1.00  0.00     0.064 A 
HETATM    5  C14 UNL     1      -3.097  -1.546  -0.136  1.00  0.00     0.090 A 
HETATM    6  C13 UNL     1      -3.320  -1.952   1.143  1.00  0.00     0.160 A 
HETATM    7 CL2  UNL     1      -4.134  -2.217  -1.389  1.00  0.00    -0.080 Cl
HETATM    8  C12 UNL     1      -2.553  -1.451   2.142  1.00  0.00     0.075 A 
HETATM    9  F11 UNL     1      -4.290  -2.847   1.455  1.00  0.00    -0.203 F 
HETATM   10  C11 UNL     1      -1.588  -0.560   1.819  1.00  0.00     0.039 A 
HETATM   11 CL1  UNL     1      -2.777  -1.924   3.827  1.00  0.00    -0.081 Cl
BRANCH   4  12
HETATM   12  C1  UNL     1      -2.048  -0.271  -1.830  1.00  0.00     0.267 C 
HETATM   13  N1  UNL     1      -2.328  -1.346  -2.791  1.00  0.00    -0.057 NA
HETATM   14  O1  UNL     1      -1.831   0.758  -2.410  1.00  0.00    -0.271 OA
ENDBRANCH   4  12
ENDBRANCH   1   3
BRANCH   1  15
HETATM   15  C5  UNL     1       0.905   0.558  -0.541  1.00  0.00     0.299 C 
HETATM   16  F2  UNL     1       1.832   1.643  -0.552  1.00  0.00    -0.239 F 
BRANCH  15  17
HETATM   17  C6  UNL     1       1.703  -0.666  -0.487  1.00  0.00     0.343 C 
HETATM   18  F3  UNL     1       2.643  -0.493  -1.566  1.00  0.00    -0.196 F 
HETATM   19  F4  UNL     1       0.972  -1.763  -0.978  1.00  0.00    -0.196 F 
BRANCH  17  20
HETATM   20  C7  UNL     1       2.501  -1.167   0.606  1.00  0.00     0.331 C 
HETATM   21  F5  UNL     1       1.924  -1.498   1.804  1.00  0.00    -0.197 F 
HETATM   22  F6  UNL     1       2.985  -2.433   0.170  1.00  0.00    -0.197 F 
BRANCH  20  23
HETATM   23  C8  UNL     1       3.812  -0.436   0.868  1.00  0.00     0.249 C 
BRANCH  23  24
HETATM   24  O2  UNL     1       4.616  -0.508  -0.243  1.00  0.00    -0.395 OA
ATOM     25  H2  UNL     1       5.433  -0.052  -0.080  1.00  0.00     0.209 HD
ENDBRANCH  23  24
ENDBRANCH  20  23
ENDBRANCH  17  20
ENDBRANCH  15  17
ENDBRANCH   1  15
BRANCH   1  26
HETATM   26  C9  UNL     1      -0.630   2.297   0.522  1.00  0.00     0.343 C 
HETATM   27  F7  UNL     1      -1.174   2.379   1.893  1.00  0.00    -0.196 F 
HETATM   28  F8  UNL     1      -1.601   2.819  -0.282  1.00  0.00    -0.196 F 
BRANCH  26  29
HETATM   29  C10 UNL     1       0.411   3.384   0.634  1.00  0.00     0.428 C 
HETATM   30  F9  UNL     1       1.288   3.214   1.688  1.00  0.00    -0.208 F 
HETATM   31  F10 UNL     1      -0.276   4.588   1.021  1.00  0.00    -0.208 F 
ENDBRANCH  26  29
ENDBRANCH   1  26
TORSDOF 9
