REMARK  9 active torsions:
REMARK  status: ('A' for Active; 'I' for Inactive)
REMARK       I    between atoms: C1_2  and  N1_3 
REMARK       I    between atoms: C1_2  and  N2_9 
REMARK    1  A    between atoms: N1_3  and  C2_5 
REMARK    2  A    between atoms: C2_5  and  C3_6 
REMARK    3  A    between atoms: C3_6  and  O2_7 
REMARK    4  A    between atoms: N2_9  and  C4_11 
REMARK    5  A    between atoms: C9_20  and  C10_21 
REMARK    6  A    between atoms: C10_21  and  C11_23 
REMARK    7  A    between atoms: C11_23  and  C12_26 
REMARK    8  A    between atoms: C12_26  and  C13_29 
REMARK    9  A    between atoms: C14_31  and  C15_32 
ROOT
HETATM    1  C4  UNL     1      -0.980  -1.718  -1.183  1.00  0.00     0.091 A 
HETATM    2  C5  UNL     1      -1.655  -2.701  -1.857  1.00  0.00     0.185 A 
HETATM    3  F1  UNL     1      -2.969  -2.548  -2.188  1.00  0.00    -0.200 F 
HETATM    4  C6  UNL     1      -0.963  -3.837  -2.186  1.00  0.00     0.198 A 
HETATM    5  F2  UNL     1      -1.628  -4.821  -2.858  1.00  0.00    -0.199 F 
HETATM    6  C7  UNL     1       0.355  -4.013  -1.866  1.00  0.00     0.197 A 
HETATM    7  F3  UNL     1       1.047  -5.140  -2.190  1.00  0.00    -0.199 F 
HETATM    8  C8  UNL     1       1.051  -3.008  -1.175  1.00  0.00     0.169 A 
HETATM    9  F4  UNL     1       2.379  -3.262  -0.903  1.00  0.00    -0.202 F 
HETATM   10  C9  UNL     1       0.393  -1.868  -0.834  1.00  0.00     0.053 A 
ENDROOT
BRANCH  10  11
HETATM   11  C10 UNL     1       0.995  -0.737  -0.156  1.00  0.00     0.287 C 
HETATM   12  F5  UNL     1       0.233  -0.564   1.032  1.00  0.00    -0.237 F 
BRANCH  11  13
HETATM   13  C11 UNL     1       2.417  -0.621   0.143  1.00  0.00     0.349 C 
HETATM   14  F6  UNL     1       3.013  -1.522   0.956  1.00  0.00    -0.195 F 
HETATM   15  F7  UNL     1       3.171  -0.542  -1.042  1.00  0.00    -0.195 F 
BRANCH  13  16
HETATM   16  C12 UNL     1       2.699   0.768   0.791  1.00  0.00     0.363 C 
HETATM   17  F8  UNL     1       1.952   0.860   1.971  1.00  0.00    -0.191 F 
HETATM   18  F9  UNL     1       2.249   1.668  -0.116  1.00  0.00    -0.191 F 
BRANCH  16  19
HETATM   19  C13 UNL     1       4.114   0.840   1.141  1.00  0.00     0.173 C 
HETATM   20  F10 UNL     1       4.610  -0.105   2.062  1.00  0.00    -0.204 F 
HETATM   21  C14 UNL     1       5.025   1.673   0.719  1.00  0.00     0.087 C 
BRANCH  21  22
HETATM   22  C15 UNL     1       4.783   2.758  -0.243  1.00  0.00     0.379 C 
HETATM   23  F11 UNL     1       4.085   3.835   0.310  1.00  0.00    -0.210 F 
HETATM   24  F12 UNL     1       6.007   3.247  -0.714  1.00  0.00    -0.210 F 
ENDBRANCH  21  22
ENDBRANCH  16  19
ENDBRANCH  13  16
ENDBRANCH  11  13
ENDBRANCH  10  11
BRANCH   1  25
HETATM   25  N2  UNL     1      -1.708  -0.537  -0.893  1.00  0.00    -0.305 N 
HETATM   26  C1  UNL     1      -2.679  -0.387   0.123  1.00  0.00     0.320 C 
HETATM   27  O1  UNL     1      -2.996  -1.344   0.870  1.00  0.00    -0.247 OA
HETATM   28  N1  UNL     1      -3.317   0.849   0.320  1.00  0.00    -0.341 N 
ATOM     29  H1  UNL     1      -3.066   1.632  -0.283  1.00  0.00     0.164 HD
ATOM     30  H2  UNL     1      -1.513   0.280  -1.471  1.00  0.00     0.171 HD
BRANCH  28  31
HETATM   31  C2  UNL     1      -4.311   1.053   1.340  1.00  0.00     0.150 C 
BRANCH  31  32
HETATM   32  C3  UNL     1      -4.840   2.457   1.345  1.00  0.00     0.183 C 
BRANCH  32  33
HETATM   33  O2  UNL     1      -5.437   2.770   0.107  1.00  0.00    -0.399 OA
ATOM     34  H2  UNL     1      -5.772   3.659   0.110  1.00  0.00     0.209 HD
ENDBRANCH  32  33
ENDBRANCH  31  32
ENDBRANCH  28  31
ENDBRANCH   1  25
TORSDOF 9
