REMARK  11 active torsions:
REMARK  status: ('A' for Active; 'I' for Inactive)
REMARK    1  A    between atoms: C2_2  and  C3_3 
REMARK    2  A    between atoms: C2_2  and  N2_8 
REMARK    3  A    between atoms: C3_3  and  N1_4 
REMARK    4  A    between atoms: N2_8  and  C4_10 
REMARK    5  A    between atoms: C7_17  and  N5_18 
REMARK    6  A    between atoms: N5_18  and  C8_20 
REMARK    7  A    between atoms: C8_20  and  N6_21 
REMARK    8  A    between atoms: C8_20  and  C9_25 
REMARK    9  A    between atoms: C9_25  and  C10_26 
REMARK   10  A    between atoms: C10_26  and  C11_27 
REMARK   11  A    between atoms: C11_27  and  N7_28 
ROOT
HETATM    1  C4  UNL     1      -1.568   1.081  -0.014  1.00  0.00     0.146 A 
HETATM    2  N3  UNL     1      -2.245   2.207   0.250  1.00  0.00    -0.348 N 
ATOM      3  H3  UNL     1      -3.262   2.166   0.315  1.00  0.00     0.167 HD
HETATM    4  C5  UNL     1      -1.626   3.398   0.434  1.00  0.00     0.107 A 
HETATM    5  C6  UNL     1      -0.252   3.468   0.349  1.00  0.00     0.107 A 
HETATM    6  N4  UNL     1       0.421   2.323   0.082  1.00  0.00    -0.348 N 
ATOM      7  H4  UNL     1       1.438   2.359   0.016  1.00  0.00     0.167 HD
HETATM    8  C7  UNL     1      -0.191   1.148  -0.099  1.00  0.00     0.147 A 
ENDROOT
BRANCH   8   9
HETATM    9  N5  UNL     1       0.461   0.062  -0.354  1.00  0.00    -0.346 N 
ATOM     10  H5  UNL     1      -0.071  -0.799  -0.482  1.00  0.00     0.163 HD
BRANCH   9  11
HETATM   11  C8  UNL     1       1.888  -0.003  -0.468  1.00  0.00     0.283 C 
BRANCH  11  12
HETATM   12  N6  UNL     1       2.403   0.586  -1.679  1.00  0.00    -0.058 N 
ATOM     13  H63 UNL     1       1.958   0.171  -2.498  1.00  0.00     0.276 HD
ATOM     14  H62 UNL     1       2.078   1.548  -1.777  1.00  0.00     0.276 HD
ATOM     15  H61 UNL     1       3.419   0.540  -1.760  1.00  0.00     0.276 HD
ENDBRANCH  11  12
BRANCH  11  16
HETATM   16  C9  UNL     1       2.312  -1.453  -0.451  1.00  0.00     0.056 C 
BRANCH  16  17
HETATM   17  C10 UNL     1       3.826  -1.586  -0.569  1.00  0.00     0.031 C 
BRANCH  17  18
HETATM   18  C11 UNL     1       4.536  -0.899   0.559  1.00  0.00     0.230 C 
BRANCH  18  19
HETATM   19  N7  UNL     1       5.958  -1.078   0.362  1.00  0.00    -0.079 N 
ATOM     20  H73 UNL     1       6.224  -2.058   0.266  1.00  0.00     0.274 HD
ATOM     21  H72 UNL     1       6.273  -0.762  -0.555  1.00  0.00     0.274 HD
ATOM     22  H71 UNL     1       6.441  -0.611   1.129  1.00  0.00     0.274 HD
ENDBRANCH  18  19
ENDBRANCH  17  18
ENDBRANCH  16  17
ENDBRANCH  11  16
ENDBRANCH   9  11
ENDBRANCH   8   9
BRANCH   1  23
HETATM   23  N2  UNL     1      -2.141  -0.058  -0.191  1.00  0.00    -0.367 N 
ATOM     24  H2  UNL     1      -1.538  -0.857  -0.387  1.00  0.00     0.161 HD
BRANCH  23  25
HETATM   25  C2  UNL     1      -3.541  -0.301  -0.137  1.00  0.00     0.104 C 
HETATM   26  C1  UNL     1      -4.143  -0.159   1.234  1.00  0.00     0.034 C 
BRANCH  25  27
HETATM   27  C3  UNL     1      -3.752  -1.764  -0.552  1.00  0.00     0.254 C 
BRANCH  27  28
HETATM   28  N1  UNL     1      -5.160  -2.094  -0.584  1.00  0.00    -0.077 N 
ATOM     29  H13 UNL     1      -5.616  -1.885   0.304  1.00  0.00     0.274 HD
ATOM     30  H12 UNL     1      -5.683  -1.454  -1.181  1.00  0.00     0.274 HD
ATOM     31  H11 UNL     1      -5.300  -3.066  -0.860  1.00  0.00     0.274 HD
ENDBRANCH  27  28
ENDBRANCH  25  27
ENDBRANCH  23  25
ENDBRANCH   1  23
TORSDOF 11
