REMARK  8 active torsions:
REMARK  status: ('A' for Active; 'I' for Inactive)
REMARK    1  A    between atoms: N1_1  and  C1_4 
REMARK    2  A    between atoms: C2_7  and  C3_8 
REMARK    3  A    between atoms: C3_8  and  N3_9 
REMARK    4  A    between atoms: N4_14  and  C7_15 
REMARK    5  A    between atoms: C7_15  and  C8_16 
REMARK    6  A    between atoms: C8_16  and  C9_17 
REMARK    7  A    between atoms: C9_17  and  C10_18 
REMARK    8  A    between atoms: C10_18  and  N5_19 
ROOT
HETATM    1  N3  UNL     1       2.310   1.066   0.364  1.00  0.00    -0.369 N 
ATOM      2  H3  UNL     1       2.734   1.437   1.214  1.00  0.00     0.161 HD
HETATM    3  C4  UNL     1       1.038   1.045   0.330  1.00  0.00     0.103 A 
HETATM    4  C5  UNL     1       0.284   0.584  -0.726  1.00  0.00     0.065 A 
HETATM    5  C6  UNL     1      -1.109   0.613  -0.644  1.00  0.00     0.095 A 
HETATM    6  N4  UNL     1      -1.775   1.074   0.428  1.00  0.00    -0.353 N 
HETATM    7  C11 UNL     1      -0.981   1.522   1.452  1.00  0.00     0.184 A 
HETATM    8  N6  UNL     1       0.357   1.503   1.394  1.00  0.00    -0.339 N 
ATOM      9  H6  UNL     1       0.883   1.852   2.195  1.00  0.00     0.168 HD
ENDROOT
BRANCH   1  10
HETATM   10  C3  UNL     1       3.206   0.630  -0.651  1.00  0.00     0.199 C 
BRANCH  10  11
HETATM   11  C2  UNL     1       4.494   0.112  -0.103  1.00  0.00     0.130 A 
HETATM   12  N2  UNL     1       5.515  -0.362  -0.838  1.00  0.00    -0.177 N 
HETATM   13  C1  UNL     1       6.521  -0.746  -0.025  1.00  0.00     0.691 A 
ATOM     14  H2  UNL     1       5.527  -0.422  -1.856  1.00  0.00     0.185 HD
HETATM   15  N8  UNL     1       6.123  -0.508   1.237  1.00  0.00    -0.131 N 
HETATM   16  N7  UNL     1       4.898   0.009   1.176  1.00  0.00    -0.273 N 
ATOM     17  H8  UNL     1       6.661  -0.690   2.085  1.00  0.00     0.205 HD
ATOM     18  H7  UNL     1       4.343   0.288   1.985  1.00  0.00     0.189 HD
BRANCH  13  19
HETATM   19  N1  UNL     1       7.652  -1.247  -0.398  1.00  0.00    -0.233 N 
ATOM     20  H12 UNL     1       7.954  -1.428  -1.355  1.00  0.00     0.174 HD
ATOM     21  H11 UNL     1       8.413  -1.537   0.217  1.00  0.00     0.174 HD
ENDBRANCH  13  19
ENDBRANCH  10  11
ENDBRANCH   1  10
BRANCH   6  22
HETATM   22  C7  UNL     1      -3.215   1.115   0.553  1.00  0.00     0.129 C 
BRANCH  22  23
HETATM   23  C8  UNL     1      -3.813  -0.094   1.161  1.00  0.00     0.022 C 
BRANCH  23  24
HETATM   24  C9  UNL     1      -3.636  -1.387   0.479  1.00  0.00     0.029 C 
BRANCH  24  25
HETATM   25  C10 UNL     1      -4.198  -1.515  -0.890  1.00  0.00     0.229 C 
BRANCH  25  26
HETATM   26  N5  UNL     1      -5.643  -1.305  -0.926  1.00  0.00    -0.079 N 
ATOM     27  H53 UNL     1      -6.120  -1.928  -0.274  1.00  0.00     0.274 HD
ATOM     28  H52 UNL     1      -5.893  -0.408  -0.510  1.00  0.00     0.274 HD
ATOM     29  H51 UNL     1      -6.029  -1.393  -1.866  1.00  0.00     0.274 HD
ENDBRANCH  25  26
ENDBRANCH  24  25
ENDBRANCH  23  24
ENDBRANCH  22  23
ENDBRANCH   6  22
TORSDOF 8
