REMARK  11 active torsions:
REMARK  status: ('A' for Active; 'I' for Inactive)
REMARK    1  A    between atoms: C2_2  and  C3_3 
REMARK    2  A    between atoms: C3_3  and  C4_4 
REMARK    3  A    between atoms: C4_4  and  N1_5 
REMARK    4  A    between atoms: N1_5  and  C5_7 
REMARK    5  A    between atoms: C6_10  and  N3_11 
REMARK    6  A    between atoms: N3_11  and  C7_13 
REMARK    7  A    between atoms: C7_13  and  O1_14 
REMARK    8  A    between atoms: C8_18  and  N5_19 
REMARK    9  A    between atoms: N5_19  and  C9_21 
REMARK   10  A    between atoms: C9_21  and  C10_22 
REMARK   11  A    between atoms: C10_22  and  N6_23 
ROOT
HETATM    1  C5  UNL     1       0.378  -0.405   0.083  1.00  0.00     0.707 A 
HETATM    2  N2  UNL     1      -0.036  -1.643   0.349  1.00  0.00    -0.021 N 
ATOM      3  H2  UNL     1       0.648  -2.391   0.463  1.00  0.00     0.203 HD
HETATM    4  C6  UNL     1      -1.335  -1.912   0.468  1.00  0.00     0.708 A 
HETATM    5  N4  UNL     1      -2.225  -0.917   0.316  1.00  0.00    -0.021 N 
ATOM      6  H4  UNL     1      -3.219  -1.125   0.407  1.00  0.00     0.203 HD
HETATM    7  C8  UNL     1      -1.847   0.336   0.049  1.00  0.00     0.707 A 
HETATM    8  N7  UNL     1      -0.519   0.567  -0.064  1.00  0.00    -0.022 N 
ATOM      9  H7  UNL     1      -0.196   1.513  -0.268  1.00  0.00     0.203 HD
ENDROOT
BRANCH   7  10
HETATM   10  N5  UNL     1      -2.639   1.319  -0.106  1.00  0.00    -0.223 N 
ATOM     11  H5  UNL     1      -2.225   2.229  -0.307  1.00  0.00     0.177 HD
BRANCH  10  12
HETATM   12  C9  UNL     1      -4.072   1.246  -0.020  1.00  0.00     0.165 C 
BRANCH  12  13
HETATM   13  C10 UNL     1      -4.672   2.522  -0.596  1.00  0.00     0.249 C 
BRANCH  13  14
HETATM   14  N6  UNL     1      -4.201   3.669   0.154  1.00  0.00    -0.078 N 
ATOM     15  H63 UNL     1      -4.385   3.576   1.153  1.00  0.00     0.274 HD
ATOM     16  H62 UNL     1      -3.183   3.709   0.194  1.00  0.00     0.274 HD
ATOM     17  H61 UNL     1      -4.603   4.523  -0.232  1.00  0.00     0.274 HD
ENDBRANCH  13  14
ENDBRANCH  12  13
ENDBRANCH  10  12
ENDBRANCH   7  10
BRANCH   4  18
HETATM   18  N3  UNL     1      -1.771  -3.101   0.725  1.00  0.00    -0.204 N 
ATOM     19  H3  UNL     1      -2.773  -3.274   0.810  1.00  0.00     0.180 HD
BRANCH  18  20
HETATM   20  C7  UNL     1      -0.832  -4.179   0.891  1.00  0.00     0.305 C 
BRANCH  20  21
HETATM   21  O1  UNL     1      -0.268  -4.514  -0.347  1.00  0.00    -0.382 OA
ATOM     22  H1  UNL     1       0.352  -5.226  -0.237  1.00  0.00     0.211 HD
ENDBRANCH  20  21
ENDBRANCH  18  20
ENDBRANCH   4  18
BRANCH   1  23
HETATM   23  N1  UNL     1       1.648  -0.190  -0.023  1.00  0.00    -0.225 N 
ATOM     24  H1  UNL     1       2.277  -0.983   0.103  1.00  0.00     0.177 HD
BRANCH  23  25
HETATM   25  C4  UNL     1       2.232   1.090  -0.306  1.00  0.00     0.138 C 
BRANCH  25  26
HETATM   26  C3  UNL     1       3.683   1.063   0.124  1.00  0.00     0.020 C 
BRANCH  26  27
HETATM   27  C2  UNL     1       4.455  -0.004  -0.615  1.00  0.00    -0.003 C 
HETATM   28  C1  UNL     1       5.887   0.052  -0.114  1.00  0.00     0.005 C 
ENDBRANCH  26  27
ENDBRANCH  25  26
ENDBRANCH  23  25
ENDBRANCH   1  23
TORSDOF 11
