REMARK  10 active torsions:
REMARK  status: ('A' for Active; 'I' for Inactive)
REMARK    1  A    between atoms: C3_3  and  N1_4 
REMARK    2  A    between atoms: N1_4  and  C4_6 
REMARK    3  A    between atoms: C5_9  and  N3_10 
REMARK    4  A    between atoms: N3_10  and  C6_12 
REMARK    5  A    between atoms: C6_12  and  C7_13 
REMARK    6  A    between atoms: C7_13  and  N4_14 
REMARK    7  A    between atoms: C8_20  and  N6_21 
REMARK    8  A    between atoms: N6_21  and  C9_23 
REMARK    9  A    between atoms: C9_23  and  C10_24 
REMARK   10  A    between atoms: C10_24  and  C11_25 
ROOT
HETATM    1  C1  UNL     1      -3.369   5.024   0.175  1.00  0.00     0.014 C 
HETATM    2  C2  UNL     1      -2.451   4.239   0.223  1.00  0.00    -0.097 C 
HETATM    3  C3  UNL     1      -1.345   3.283   0.306  1.00  0.00     0.231 C 
ENDROOT
BRANCH   3   4
HETATM    4  N1  UNL     1      -1.833   1.916   0.186  1.00  0.00    -0.215 N 
ATOM      5  H1  UNL     1      -2.838   1.752   0.252  1.00  0.00     0.178 HD
BRANCH   4   6
HETATM    6  C4  UNL     1      -1.068   0.916   0.003  1.00  0.00     0.708 A 
HETATM    7  N2  UNL     1      -1.598  -0.311  -0.097  1.00  0.00    -0.021 N 
HETATM    8  C5  UNL     1      -0.797  -1.366  -0.289  1.00  0.00     0.707 A 
ATOM      9  H2  UNL     1      -2.607  -0.440  -0.027  1.00  0.00     0.203 HD
HETATM   10  N5  UNL     1       0.524  -1.178  -0.378  1.00  0.00    -0.022 N 
HETATM   11  C8  UNL     1       1.071   0.047  -0.279  1.00  0.00     0.707 A 
ATOM     12  H5  UNL     1       1.132  -1.984  -0.525  1.00  0.00     0.203 HD
HETATM   13  N7  UNL     1       0.255   1.112  -0.085  1.00  0.00    -0.021 N 
ATOM     14  H7  UNL     1       0.643   2.052  -0.007  1.00  0.00     0.203 HD
BRANCH   8  15
HETATM   15  N3  UNL     1      -1.267  -2.567  -0.390  1.00  0.00    -0.223 N 
ATOM     16  H3  UNL     1      -0.640  -3.359  -0.535  1.00  0.00     0.177 HD
BRANCH  15  17
HETATM   17  C6  UNL     1      -2.686  -2.767  -0.294  1.00  0.00     0.165 C 
BRANCH  17  18
HETATM   18  C7  UNL     1      -2.948  -4.257  -0.259  1.00  0.00     0.249 C 
BRANCH  18  19
HETATM   19  N4  UNL     1      -4.392  -4.425  -0.161  1.00  0.00    -0.078 N 
ATOM     20  H43 UNL     1      -4.803  -3.925   0.627  1.00  0.00     0.274 HD
ATOM     21  H42 UNL     1      -4.905  -3.943  -0.899  1.00  0.00     0.274 HD
ATOM     22  H41 UNL     1      -4.569  -5.429  -0.137  1.00  0.00     0.274 HD
ENDBRANCH  18  19
ENDBRANCH  17  18
ENDBRANCH  15  17
ENDBRANCH   8  15
BRANCH  11  23
HETATM   23  N6  UNL     1       2.335   0.218  -0.366  1.00  0.00    -0.225 N 
ATOM     24  H6  UNL     1       2.934  -0.594  -0.513  1.00  0.00     0.177 HD
BRANCH  23  25
HETATM   25  C9  UNL     1       2.942   1.527  -0.263  1.00  0.00     0.142 C 
BRANCH  25  26
HETATM   26  C10 UNL     1       4.373   1.435  -0.668  1.00  0.00     0.046 C 
BRANCH  26  27
HETATM   27  C11 UNL     1       5.119   0.545   0.231  1.00  0.00    -0.035 C 
HETATM   28  C12 UNL     1       4.698  -0.033   1.312  1.00  0.00     0.007 C 
ENDBRANCH  26  27
ENDBRANCH  25  26
ENDBRANCH  23  25
ENDBRANCH  11  23
ENDBRANCH   4   6
ENDBRANCH   3   4
TORSDOF 10
