REMARK  6 active torsions:
REMARK  status: ('A' for Active; 'I' for Inactive)
REMARK    1  A    between atoms: C2_2  and  C4_4 
REMARK    2  A    between atoms: C5_9  and  C6_10 
REMARK    3  A    between atoms: C6_10  and  N3_11 
REMARK    4  A    between atoms: C9_14  and  O1_15 
REMARK    5  A    between atoms: O1_15  and  C10_16 
REMARK    6  A    between atoms: C10_16  and  C11_17 
ROOT
HETATM    1  N3  UNL     1      -1.397   1.652   1.268  1.00  0.00     0.096 N 
HETATM    2  C7  UNL     1      -0.297   2.558   1.104  1.00  0.00     0.275 C 
HETATM    3  C8  UNL     1       0.813   1.869   0.331  1.00  0.00     0.062 C 
HETATM    4  C9  UNL     1       1.420   0.891   1.312  1.00  0.00     0.125 C 
HETATM    5  C16 UNL     1       0.364  -0.010   1.830  1.00  0.00     0.062 C 
HETATM    6  C17 UNL     1      -1.043   0.307   1.559  1.00  0.00     0.275 C 
ENDROOT
BRANCH   1   7
HETATM    7  C6  UNL     1      -2.225   1.758   0.099  1.00  0.00     0.358 C 
BRANCH   7   8
HETATM    8  C5  UNL     1      -3.426   0.890   0.167  1.00  0.00     0.168 A 
HETATM    9  N2  UNL     1      -3.886   0.222   1.236  1.00  0.00    -0.280 N 
HETATM   10  N1  UNL     1      -4.979  -0.433   0.878  1.00  0.00    -0.281 N 
ATOM     11  H2  UNL     1      -3.465   0.219   2.165  1.00  0.00     0.189 HD
HETATM   12  C4  UNL     1      -5.219  -0.184  -0.425  1.00  0.00     0.143 A 
ATOM     13  H1  UNL     1      -5.544  -1.026   1.485  1.00  0.00     0.189 HD
HETATM   14  O2  UNL     1      -4.275   0.606  -0.812  1.00  0.00    -0.280 OA
BRANCH  12  15
HETATM   15  C2  UNL     1      -6.329  -0.696  -1.270  1.00  0.00     0.054 C 
HETATM   16  C1  UNL     1      -7.642  -0.178  -0.721  1.00  0.00     0.018 C 
HETATM   17  C3  UNL     1      -6.345  -2.190  -1.337  1.00  0.00     0.018 C 
ENDBRANCH  12  15
ENDBRANCH   7   8
ENDBRANCH   1   7
BRANCH   4  18
HETATM   18  O1  UNL     1       2.418   0.191   0.632  1.00  0.00    -0.380 OA
BRANCH  18  19
HETATM   19  C10 UNL     1       3.683   0.487   1.144  1.00  0.00     0.220 C 
BRANCH  19  20
HETATM   20  C11 UNL     1       4.739  -0.266   0.408  1.00  0.00     0.006 C 
HETATM   21  N4  UNL     1       5.495  -1.072   1.004  1.00  0.00    -0.395 N 
HETATM   22  C12 UNL     1       6.538  -1.856   0.454  1.00  0.00     0.119 C 
ATOM     23  H4  UNL     1       5.339  -1.175   2.007  1.00  0.00     0.159 HD
HETATM   24  C13 UNL     1       6.800  -1.655  -1.000  1.00  0.00     0.020 C 
HETATM   25  C14 UNL     1       5.571  -1.182  -1.752  1.00  0.00     0.007 C 
HETATM   26  C15 UNL     1       4.888  -0.050  -1.048  1.00  0.00     0.054 C 
ENDBRANCH  19  20
ENDBRANCH  18  19
ENDBRANCH   4  18
TORSDOF 6
