REMARK  5 active torsions:
REMARK  status: ('A' for Active; 'I' for Inactive)
REMARK    1  A    between atoms: O1_2  and  C2_3 
REMARK    2  A    between atoms: C5_6  and  C6_7 
REMARK    3  A    between atoms: C6_7  and  O2_8 
REMARK    4  A    between atoms: O2_8  and  C7_9 
REMARK    5  A    between atoms: C12_18  and  C13_19 
ROOT
HETATM    1  C7  UNL     1      -0.761  -0.465  -0.116  1.00  0.00     0.171 A 
HETATM    2  N1  UNL     1      -0.376  -1.683  -0.543  1.00  0.00    -0.337 N 
ATOM      3  H1  UNL     1       0.621  -1.873  -0.639  1.00  0.00     0.168 HD
HETATM    4  C8  UNL     1      -1.250  -2.660  -0.849  1.00  0.00     0.029 A 
HETATM    5  C9  UNL     1      -0.740  -3.977  -1.313  1.00  0.00     0.070 C 
HETATM    6  C10 UNL     1      -2.607  -2.441  -0.733  1.00  0.00     0.028 A 
HETATM    7  C11 UNL     1      -3.613  -3.490  -1.059  1.00  0.00     0.070 C 
HETATM    8  N2  UNL     1      -3.006  -1.229  -0.307  1.00  0.00    -0.354 N 
ATOM      9  H2  UNL     1      -4.004  -1.042  -0.212  1.00  0.00     0.166 HD
HETATM   10  C12 UNL     1      -2.127  -0.257  -0.003  1.00  0.00     0.099 A 
ENDROOT
BRANCH   1  11
HETATM   11  O2  UNL     1       0.147   0.538   0.198  1.00  0.00    -0.334 OA
BRANCH  11  12
HETATM   12  C6  UNL     1       1.521   0.241   0.055  1.00  0.00     0.184 C 
BRANCH  12  13
HETATM   13  C5  UNL     1       2.393   1.417   0.429  1.00  0.00     0.039 C 
HETATM   14  C2  UNL     1       3.869   1.116   0.281  1.00  0.00     0.127 C 
HETATM   15  C3  UNL     1       4.032   2.429  -0.402  1.00  0.00     0.033 C 
HETATM   16  C4  UNL     1       2.546   2.337  -0.787  1.00  0.00     0.012 C 
BRANCH  14  17
HETATM   17  O1  UNL     1       4.562   0.815   1.386  1.00  0.00    -0.390 OA
HETATM   18  C1  UNL     1       5.259  -0.346   1.449  1.00  0.00     0.202 C 
ENDBRANCH  14  17
ENDBRANCH  12  13
ENDBRANCH  11  12
ENDBRANCH   1  11
BRANCH  10  19
HETATM   19  C13 UNL     1      -2.542   1.065   0.460  1.00  0.00     0.050 A 
HETATM   20  C14 UNL     1      -2.745   1.460   1.764  1.00  0.00     0.043 A 
HETATM   21  C15 UNL     1      -2.586   0.621   3.004  1.00  0.00     0.071 C 
HETATM   22  N3  UNL     1      -3.115   2.750   1.699  1.00  0.00    -0.265 N 
HETATM   23  O3  UNL     1      -3.141   3.131   0.457  1.00  0.00    -0.242 OA
ATOM     24  H3  UNL     1      -3.341   3.339   2.501  1.00  0.00     0.194 HD
HETATM   25  C16 UNL     1      -2.805   2.159  -0.338  1.00  0.00     0.087 A 
HETATM   26  C17 UNL     1      -2.725   2.234  -1.832  1.00  0.00     0.080 C 
ENDBRANCH  10  19
TORSDOF 5
