REMARK  6 active torsions:
REMARK  status: ('A' for Active; 'I' for Inactive)
REMARK    1  A    between atoms: C4_5  and  C5_6 
REMARK    2  A    between atoms: C5_6  and  C6_7 
REMARK    3  A    between atoms: C6_7  and  C7_8 
REMARK    4  A    between atoms: C7_8  and  N1_9 
REMARK    5  A    between atoms: C11_13  and  C12_14 
REMARK    6  A    between atoms: C13_17  and  C14_18 
ROOT
HETATM    1  N1  UNL     1       0.405  -0.889  -0.535  1.00  0.00     0.101 N 
HETATM    2  C8  UNL     1       0.521  -1.559   0.698  1.00  0.00     0.273 C 
HETATM    3  C9  UNL     1       0.536  -3.041   0.310  1.00  0.00     0.033 C 
HETATM    4  C10 UNL     1       1.185  -3.032  -1.041  1.00  0.00     0.046 C 
HETATM    5  C11 UNL     1       1.426  -1.565  -1.349  1.00  0.00     0.299 C 
ENDROOT
BRANCH   1   6
HETATM    6  C7  UNL     1      -0.785  -0.866  -1.252  1.00  0.00     0.273 C 
BRANCH   6   7
HETATM    7  C6  UNL     1      -1.935  -0.054  -0.833  1.00  0.00     0.037 C 
BRANCH   7   8
HETATM    8  C5  UNL     1      -2.467  -0.333   0.516  1.00  0.00     0.067 C 
BRANCH   8   9
HETATM    9  C4  UNL     1      -3.707   0.538   0.702  1.00  0.00     0.051 A 
HETATM   10  S1  UNL     1      -4.740   0.714   2.047  1.00  0.00    -0.087 SA
HETATM   11  C3  UNL     1      -5.840   1.842   1.378  1.00  0.00     0.076 A 
HETATM   12  C2  UNL     1      -5.322   2.016   0.119  1.00  0.00     0.012 A 
HETATM   13  C1  UNL     1      -6.004   2.958  -0.858  1.00  0.00     0.068 C 
HETATM   14  N4  UNL     1      -4.256   1.350  -0.185  1.00  0.00    -0.357 N 
ATOM     15  H4  UNL     1      -3.838   1.451  -1.110  1.00  0.00     0.166 HD
ENDBRANCH   8   9
ENDBRANCH   7   8
ENDBRANCH   6   7
ENDBRANCH   1   6
BRANCH   5  16
HETATM   16  C12 UNL     1       2.783  -1.175  -0.935  1.00  0.00     0.182 A 
HETATM   17  N2  UNL     1       3.206   0.045  -0.615  1.00  0.00    -0.325 N 
HETATM   18  C13 UNL     1       4.508  -0.030  -0.297  1.00  0.00     0.108 A 
ATOM     19  H2  UNL     1       2.638   0.892  -0.612  1.00  0.00     0.169 HD
HETATM   20  N3  UNL     1       4.850  -1.322  -0.437  1.00  0.00    -0.247 N 
HETATM   21  O1  UNL     1       3.805  -1.975  -0.816  1.00  0.00    -0.221 OA
ATOM     22  H3  UNL     1       5.776  -1.717  -0.272  1.00  0.00     0.196 HD
BRANCH  18  23
HETATM   23  C14 UNL     1       5.429   1.040   0.130  1.00  0.00     0.055 A 
HETATM   24  C15 UNL     1       5.064   2.454   0.140  1.00  0.00     0.013 A 
HETATM   25  C16 UNL     1       4.991   1.721   1.466  1.00  0.00     0.013 A 
ENDBRANCH  18  23
ENDBRANCH   5  16
TORSDOF 6
