REMARK  6 active torsions:
REMARK  status: ('A' for Active; 'I' for Inactive)
REMARK    1  A    between atoms: C2_2  and  C3_3 
REMARK    2  A    between atoms: C4_7  and  C5_8 
REMARK    3  A    between atoms: C5_8  and  C6_9 
REMARK    4  A    between atoms: C6_9  and  C7_10 
REMARK    5  A    between atoms: N2_15  and  C12_16 
REMARK    6  A    between atoms: C12_16  and  C13_17 
ROOT
HETATM    1  C7  UNL     1      -0.275  -2.014  -0.583  1.00  0.00     0.224 C 
HETATM    2  C8  UNL     1      -0.883  -3.145   0.157  1.00  0.00     0.036 C 
HETATM    3  C9  UNL     1      -2.179  -3.538  -0.459  1.00  0.00     0.004 C 
HETATM    4  C10 UNL     1      -3.043  -2.385  -0.887  1.00  0.00     0.030 C 
HETATM    5  C11 UNL     1      -2.267  -1.214  -1.395  1.00  0.00     0.273 C 
HETATM    6  N2  UNL     1      -1.160  -0.860  -0.507  1.00  0.00     0.099 N 
ENDROOT
BRANCH   1   7
HETATM    7  C6  UNL     1       1.109  -1.648  -0.103  1.00  0.00     0.044 C 
BRANCH   7   8
HETATM    8  C5  UNL     1       1.566  -0.472  -0.978  1.00  0.00     0.089 C 
BRANCH   8   9
HETATM    9  C4  UNL     1       2.946  -0.107  -0.500  1.00  0.00     0.148 A 
HETATM   10  O1  UNL     1       4.092  -0.579  -0.926  1.00  0.00    -0.223 OA
HETATM   11  N1  UNL     1       5.078  -0.041  -0.289  1.00  0.00    -0.247 N 
HETATM   12  C3  UNL     1       4.585   0.832   0.605  1.00  0.00     0.103 A 
ATOM     13  H1  UNL     1       6.066  -0.245  -0.440  1.00  0.00     0.196 HD
HETATM   14  N4  UNL     1       3.248   0.782   0.463  1.00  0.00    -0.327 N 
ATOM     15  H4  UNL     1       2.574   1.329   0.998  1.00  0.00     0.169 HD
BRANCH  12  16
HETATM   16  C2  UNL     1       5.364   1.690   1.567  1.00  0.00     0.074 C 
HETATM   17  C1  UNL     1       5.635   2.993   0.803  1.00  0.00     0.013 C 
ENDBRANCH  12  16
ENDBRANCH   8   9
ENDBRANCH   7   8
ENDBRANCH   1   7
BRANCH   6  18
HETATM   18  C12 UNL     1      -1.617  -0.668   0.829  1.00  0.00     0.337 C 
BRANCH  18  19
HETATM   19  C13 UNL     1      -2.447   0.591   0.893  1.00  0.00     0.079 A 
HETATM   20  N3  UNL     1      -2.509   1.603   0.045  1.00  0.00    -0.356 N 
HETATM   21  C14 UNL     1      -3.293   2.602   0.284  1.00  0.00     0.012 A 
ATOM     22  H3  UNL     1      -1.937   1.595  -0.799  1.00  0.00     0.166 HD
HETATM   23  C15 UNL     1      -3.404   3.792  -0.655  1.00  0.00     0.068 C 
HETATM   24  C16 UNL     1      -4.042   2.569   1.432  1.00  0.00     0.076 A 
HETATM   25  S1  UNL     1      -3.559   1.069   2.105  1.00  0.00    -0.085 SA
ENDBRANCH  18  19
ENDBRANCH   6  18
TORSDOF 6
