REMARK  7 active torsions:
REMARK  status: ('A' for Active; 'I' for Inactive)
REMARK    1  A    between atoms: C2_2  and  C3_3 
REMARK    2  A    between atoms: C2_2  and  O1_19 
REMARK    3  A    between atoms: C3_3  and  S1_4 
REMARK    4  A    between atoms: S1_4  and  C4_5 
REMARK    5  A    between atoms: C5_10  and  C6_11 
REMARK    6  A    between atoms: N3_14  and  C9_15 
REMARK    7  A    between atoms: O1_19  and  C13_20 
ROOT
HETATM    1  C4  UNL     1      -0.796  -0.658  -0.175  1.00  0.00     0.163 A 
HETATM    2  N1  UNL     1      -0.006  -0.067  -1.064  1.00  0.00    -0.278 N 
ATOM      3  H1  UNL     1       0.999  -0.216  -1.157  1.00  0.00     0.189 HD
HETATM    4  N2  UNL     1      -0.722   0.730  -1.794  1.00  0.00    -0.286 N 
ATOM      5  H2  UNL     1      -0.384   1.315  -2.558  1.00  0.00     0.188 HD
HETATM    6  C5  UNL     1      -2.011   0.642  -1.352  1.00  0.00     0.104 A 
HETATM    7  N3  UNL     1      -2.079  -0.220  -0.341  1.00  0.00    -0.310 N 
ENDROOT
BRANCH   1   8
HETATM    8  S1  UNL     1      -0.306  -1.832   1.048  1.00  0.00    -0.090 SA
BRANCH   8   9
HETATM    9  C3  UNL     1       1.464  -2.210   1.025  1.00  0.00     0.114 C 
BRANCH   9  10
HETATM   10  C2  UNL     1       2.208  -0.939   1.447  1.00  0.00     0.128 C 
HETATM   11  C1  UNL     1       1.683  -0.629   2.834  1.00  0.00     0.040 C 
BRANCH  10  12
HETATM   12  O1  UNL     1       3.524  -0.982   1.307  1.00  0.00    -0.376 OA
BRANCH  12  13
HETATM   13  C13 UNL     1       4.264  -0.201   0.530  1.00  0.00     0.050 C 
HETATM   14  C14 UNL     1       5.758  -0.458   0.577  1.00  0.00     0.045 C 
HETATM   15  C15 UNL     1       3.880  -0.513  -0.918  1.00  0.00     0.045 C 
HETATM   16  C16 UNL     1       4.026   1.293   0.676  1.00  0.00     0.045 C 
ENDBRANCH  12  13
ENDBRANCH  10  12
ENDBRANCH   9  10
ENDBRANCH   8   9
ENDBRANCH   1   8
BRANCH   7  17
HETATM   17  C9  UNL     1      -3.205  -0.622   0.421  1.00  0.00     0.093 C 
HETATM   18  C10 UNL     1      -4.381  -1.224  -0.291  1.00  0.00     0.026 C 
HETATM   19  C11 UNL     1      -5.276  -0.424   0.660  1.00  0.00     0.004 C 
HETATM   20  C12 UNL     1      -4.060   0.413   1.072  1.00  0.00     0.026 C 
ENDBRANCH   7  17
BRANCH   6  21
HETATM   21  C6  UNL     1      -3.089   1.418  -1.962  1.00  0.00     0.055 A 
HETATM   22  C7  UNL     1      -2.989   1.697  -3.481  1.00  0.00     0.013 A 
HETATM   23  C8  UNL     1      -2.652   2.792  -2.572  1.00  0.00     0.013 A 
ENDBRANCH   6  21
TORSDOF 7
