REMARK  9 active torsions:
REMARK  status: ('A' for Active; 'I' for Inactive)
REMARK    1  A    between atoms: N1_2  and  C3_4 
REMARK    2  A    between atoms: C6_7  and  O1_8 
REMARK    3  A    between atoms: N2_13  and  C10_14 
REMARK    4  A    between atoms: C10_14  and  C11_15 
REMARK    5  A    between atoms: C11_15  and  C12_16 
REMARK    6  A    between atoms: C12_16  and  C13_17 
REMARK    7  A    between atoms: C13_17  and  C14_18 
REMARK    8  A    between atoms: C14_18  and  N3_19 
REMARK    9  A    between atoms: C29_35  and  O3_36 
ROOT
HETATM    1  C3  UNL     1      -3.001   2.594   0.381  1.00  0.00     0.109 C 
HETATM    2  C4  UNL     1      -1.892   2.725   1.394  1.00  0.00     0.030 C 
HETATM    3  C5  UNL     1      -0.802   1.814   0.898  1.00  0.00     0.044 C 
HETATM    4  C6  UNL     1      -1.439   0.399   0.725  1.00  0.00     0.108 C 
HETATM    5  C7  UNL     1      -1.991   0.482  -0.669  1.00  0.00     0.054 C 
HETATM    6  C8  UNL     1      -0.901   0.348  -1.722  1.00  0.00     0.050 C 
HETATM    7  C9  UNL     1       0.437  -0.090  -1.269  1.00  0.00     0.275 C 
HETATM    8  N2  UNL     1       0.736  -0.047   0.098  1.00  0.00     0.101 N 
HETATM    9  C17 UNL     1      -0.282  -0.458   1.026  1.00  0.00     0.188 C 
HETATM   10  C18 UNL     1       0.178  -0.021   2.444  1.00  0.00     0.053 C 
HETATM   11  C19 UNL     1      -0.311  -1.916   1.083  1.00  0.00     0.045 C 
HETATM   12  C20 UNL     1      -1.431  -2.560   1.812  1.00  0.00     0.008 C 
HETATM   13  C21 UNL     1      -2.505  -3.149   0.945  1.00  0.00    -0.006 C 
HETATM   14  C22 UNL     1      -2.348  -4.688   0.965  1.00  0.00     0.005 C 
HETATM   15  C23 UNL     1      -1.785  -4.917  -0.447  1.00  0.00     0.001 C 
HETATM   16  C24 UNL     1      -2.866  -4.064  -1.157  1.00  0.00     0.010 C 
HETATM   17  C25 UNL     1      -2.558  -2.727  -0.439  1.00  0.00     0.023 C 
HETATM   18  C26 UNL     1      -3.469  -1.647  -0.850  1.00  0.00    -0.043 A 
HETATM   19  C27 UNL     1      -4.745  -2.109  -1.211  1.00  0.00     0.011 A 
HETATM   20  C28 UNL     1      -5.726  -1.281  -1.717  1.00  0.00     0.040 A 
HETATM   21  C29 UNL     1      -5.409   0.042  -1.861  1.00  0.00     0.099 A 
HETATM   22  C30 UNL     1      -4.136   0.508  -1.501  1.00  0.00     0.110 A 
HETATM   23  C31 UNL     1      -3.162  -0.330  -0.991  1.00  0.00    -0.001 A 
HETATM   24  O4  UNL     1      -3.712   1.813  -1.620  1.00  0.00    -0.339 OA
HETATM   25  C32 UNL     1      -2.533   1.892  -0.866  1.00  0.00     0.167 C 
ENDROOT
BRANCH   8  26
HETATM   26  C10 UNL     1       2.027  -0.595   0.382  1.00  0.00     0.273 C 
BRANCH  26  27
HETATM   27  C11 UNL     1       3.119   0.323  -0.155  1.00  0.00     0.030 C 
BRANCH  27  28
HETATM   28  C12 UNL     1       4.455  -0.332   0.227  1.00  0.00     0.004 C 
BRANCH  28  29
HETATM   29  C13 UNL     1       5.602   0.530  -0.271  1.00  0.00     0.036 C 
BRANCH  29  30
HETATM   30  C14 UNL     1       6.893  -0.148   0.137  1.00  0.00     0.311 C 
BRANCH  30  31
HETATM   31  N3  UNL     1       7.971   0.685  -0.347  1.00  0.00     0.005 N 
HETATM   32  C15 UNL     1       9.237   0.055   0.013  1.00  0.00     0.355 C 
HETATM   33  C16 UNL     1       7.865   1.985   0.299  1.00  0.00     0.355 C 
HETATM   34  O2  UNL     1       7.925   0.779  -1.682  1.00  0.00    -0.065 OA
ENDBRANCH  30  31
ENDBRANCH  29  30
ENDBRANCH  28  29
ENDBRANCH  27  28
ENDBRANCH  26  27
ENDBRANCH   8  26
BRANCH   4  35
HETATM   35  O1  UNL     1      -2.438   0.363   1.663  1.00  0.00    -0.386 OA
ATOM     36  H1  UNL     1      -2.826  -0.498   1.558  1.00  0.00     0.210 HD
ENDBRANCH   4  35
BRANCH   1  37
HETATM   37  N1  UNL     1      -3.443   3.921   0.139  1.00  0.00    -0.414 N 
HETATM   38  C1  UNL     1      -3.987   4.599   1.266  1.00  0.00     0.143 C 
HETATM   39  C2  UNL     1      -3.576   4.460  -1.116  1.00  0.00     0.143 C 
ENDBRANCH   1  37
BRANCH  21  40
HETATM   40  O3  UNL     1      -6.355   0.919  -2.366  1.00  0.00    -0.358 OA
ATOM     41  H3  UNL     1      -6.135   1.838  -2.466  1.00  0.00     0.217 HD
ENDBRANCH  21  40
TORSDOF 9
