REMARK  8 active torsions:
REMARK  status: ('A' for Active; 'I' for Inactive)
REMARK    1  A    between atoms: C2_2  and  C3_3 
REMARK    2  A    between atoms: C3_3  and  C5_5 
REMARK       I    between atoms: C5_5  and  N1_7 
REMARK    3  A    between atoms: N1_7  and  C6_9 
REMARK    4  A    between atoms: C19_24  and  N3_25 
REMARK    5  A    between atoms: N4_34  and  C26_35 
REMARK    6  A    between atoms: C26_35  and  C27_36 
REMARK    7  A    between atoms: C26_35  and  C28_39 
REMARK    8  A    between atoms: C27_36  and  O4_37 
ROOT
HETATM    1  C6  UNL     1       3.387  -0.051   0.521  1.00  0.00     0.036 A 
HETATM    2  C7  UNL     1       3.863   1.158   0.973  1.00  0.00     0.038 A 
HETATM    3  C8  UNL     1       2.965   2.102   1.413  1.00  0.00    -0.032 A 
HETATM    4  C9  UNL     1       3.385   3.430   1.913  1.00  0.00     0.050 C 
HETATM    5  C10 UNL     1       1.592   1.839   1.402  1.00  0.00     0.049 A 
HETATM    6  N2  UNL     1       0.569   2.612   1.794  1.00  0.00    -0.358 N 
ATOM      7  H2  UNL     1       0.646   3.557   2.171  1.00  0.00     0.166 HD
HETATM    8  C11 UNL     1      -0.561   1.940   1.608  1.00  0.00     0.020 A 
HETATM    9  C12 UNL     1      -0.289   0.690   1.081  1.00  0.00     0.005 A 
HETATM   10  C13 UNL     1       1.127   0.631   0.949  1.00  0.00     0.004 A 
HETATM   11  C14 UNL     1       2.029  -0.308   0.511  1.00  0.00     0.044 A 
HETATM   12  C15 UNL     1      -1.569   0.035   0.941  1.00  0.00     0.068 C 
HETATM   13  C16 UNL     1      -2.073  -0.293   2.399  1.00  0.00     0.044 C 
HETATM   14  C17 UNL     1      -2.426   1.281   0.617  1.00  0.00     0.047 C 
HETATM   15  C18 UNL     1      -2.060   2.132   1.772  1.00  0.00     0.067 C 
HETATM   16  C19 UNL     1      -3.797   1.162   0.230  1.00  0.00     0.095 C 
HETATM   17  C24 UNL     1      -3.757   0.266  -1.041  1.00  0.00     0.128 C 
HETATM   18  C25 UNL     1      -3.237  -1.008  -0.420  1.00  0.00     0.223 C 
HETATM   19  O3  UNL     1      -4.000  -1.952  -0.419  1.00  0.00    -0.273 OA
HETATM   20  N4  UNL     1      -1.892  -1.070   0.147  1.00  0.00    -0.331 N 
ENDROOT
BRANCH   1  21
HETATM   21  N1  UNL     1       4.226  -1.061   0.038  1.00  0.00    -0.327 N 
HETATM   22  C5  UNL     1       5.537  -0.954  -0.445  1.00  0.00     0.226 C 
HETATM   23  O1  UNL     1       6.107   0.154  -0.495  1.00  0.00    -0.273 OA
ATOM     24  H1  UNL     1       3.830  -2.001   0.037  1.00  0.00     0.169 HD
BRANCH  22  25
HETATM   25  C3  UNL     1       6.318  -2.133  -0.919  1.00  0.00     0.074 C 
HETATM   26  C4  UNL     1       5.623  -2.896  -2.018  1.00  0.00     0.020 C 
BRANCH  25  27
HETATM   27  C2  UNL     1       7.680  -1.711  -1.416  1.00  0.00     0.009 C 
HETATM   28  C1  UNL     1       8.459  -0.933  -0.378  1.00  0.00     0.006 C 
ENDBRANCH  25  27
ENDBRANCH  22  25
ENDBRANCH   1  21
BRANCH  20  29
HETATM   29  C26 UNL     1      -1.172  -2.231  -0.168  1.00  0.00     0.115 C 
BRANCH  29  30
HETATM   30  C27 UNL     1      -1.747  -3.511   0.516  1.00  0.00     0.189 C 
BRANCH  30  31
HETATM   31  O4  UNL     1      -0.896  -4.584   0.133  1.00  0.00    -0.399 OA
ATOM     32  H4  UNL     1      -1.246  -5.363   0.549  1.00  0.00     0.209 HD
ENDBRANCH  30  31
ENDBRANCH  29  30
BRANCH  29  33
HETATM   33  C28 UNL     1      -0.905  -2.700  -1.520  1.00  0.00     0.002 C 
HETATM   34  C29 UNL     1      -2.056  -3.096  -2.419  1.00  0.00     0.011 C 
HETATM   35  C30 UNL     1       0.061  -1.819  -2.352  1.00  0.00     0.011 C 
ENDBRANCH  29  33
ENDBRANCH  20  29
BRANCH  16  36
HETATM   36  N3  UNL     1      -4.503   2.331   0.056  1.00  0.00    -0.403 N 
HETATM   37  C20 UNL     1      -4.810   3.184   1.123  1.00  0.00     0.143 C 
HETATM   38  C21 UNL     1      -6.298   3.536   1.191  1.00  0.00     0.187 C 
HETATM   39  O2  UNL     1      -6.750   3.952  -0.057  1.00  0.00    -0.388 OA
HETATM   40  C22 UNL     1      -6.639   2.880  -0.934  1.00  0.00     0.187 C 
HETATM   41  C23 UNL     1      -5.141   2.651  -1.174  1.00  0.00     0.143 C 
ENDBRANCH  16  36
TORSDOF 8
