REMARK  10 active torsions:
REMARK  status: ('A' for Active; 'I' for Inactive)
REMARK    1  A    between atoms: C2_2  and  C4_4 
REMARK    2  A    between atoms: C4_4  and  C5_5 
REMARK    3  A    between atoms: C5_5  and  N1_6 
REMARK    4  A    between atoms: C5_5  and  C27_34 
REMARK    5  A    between atoms: N1_6  and  C6_8 
REMARK    6  A    between atoms: C6_8  and  O1_9 
REMARK    7  A    between atoms: C6_8  and  C7_11 
REMARK    8  A    between atoms: C14_19  and  C15_20 
REMARK    9  A    between atoms: C15_20  and  N2_21 
REMARK   10  A    between atoms: C30_37  and  N4_38 
ROOT
HETATM    1  C7  UNL     1      -0.157   0.440   0.116  1.00  0.00     0.008 C 
HETATM    2  C8  UNL     1       0.452   1.409  -0.469  1.00  0.00     0.007 C 
HETATM    3  C9  UNL     1      -0.253   2.399  -1.316  1.00  0.00     0.157 C 
HETATM    4  O2  UNL     1      -1.297   2.946  -0.923  1.00  0.00    -0.293 OA
HETATM    5  C10 UNL     1       0.535   2.535  -2.574  1.00  0.00     0.085 C 
HETATM    6  C11 UNL     1       1.938   2.148  -2.117  1.00  0.00     0.022 C 
HETATM    7  C12 UNL     1       1.874   1.879  -0.611  1.00  0.00    -0.007 C 
HETATM    8  C13 UNL     1       2.038   3.234   0.059  1.00  0.00     0.021 C 
HETATM    9  C14 UNL     1       2.890   0.899  -0.173  1.00  0.00     0.027 C 
HETATM   10  C21 UNL     1       2.451  -0.478  -0.623  1.00  0.00     0.013 C 
HETATM   11  C22 UNL     1       1.796  -1.105   0.577  1.00  0.00     0.004 A 
HETATM   12  C23 UNL     1       0.547  -0.555   1.010  1.00  0.00     0.036 A 
HETATM   13  C24 UNL     1       0.598  -1.945   0.387  1.00  0.00    -0.035 A 
HETATM   14  C25 UNL     1       0.470  -3.135   1.316  1.00  0.00     0.016 C 
HETATM   15  C26 UNL     1       0.218  -2.186  -1.034  1.00  0.00     0.016 C 
ENDROOT
BRANCH   1  16
HETATM   16  C6  UNL     1      -1.543   0.178   0.019  1.00  0.00     0.143 C 
BRANCH  16  17
HETATM   17  N1  UNL     1      -2.710   0.579  -0.582  1.00  0.00    -0.366 N 
ATOM     18  H1  UNL     1      -2.686   1.342  -1.259  1.00  0.00     0.162 HD
BRANCH  17  19
HETATM   19  C5  UNL     1      -4.026  -0.082  -0.264  1.00  0.00     0.088 C 
BRANCH  19  20
HETATM   20  C4  UNL     1      -4.626  -0.564  -1.552  1.00  0.00     0.029 C 
BRANCH  20  21
HETATM   21  C2  UNL     1      -3.771  -1.558  -2.300  1.00  0.00    -0.021 C 
HETATM   22  C1  UNL     1      -4.488  -1.945  -3.608  1.00  0.00     0.009 C 
HETATM   23  C3  UNL     1      -3.674  -2.880  -1.538  1.00  0.00     0.009 C 
ENDBRANCH  20  21
ENDBRANCH  19  20
BRANCH  19  24
HETATM   24  C27 UNL     1      -4.890   0.928   0.461  1.00  0.00     0.008 C 
HETATM   25  C28 UNL     1      -4.251   1.388   1.750  1.00  0.00     0.009 C 
HETATM   26  C29 UNL     1      -4.515   0.478   2.905  1.00  0.00     0.033 C 
HETATM   27  C30 UNL     1      -6.008   0.383   3.114  1.00  0.00     0.183 C 
HETATM   28  C31 UNL     1      -6.562  -0.301   1.869  1.00  0.00     0.033 C 
HETATM   29  C32 UNL     1      -6.310   0.532   0.636  1.00  0.00     0.009 C 
BRANCH  27  30
HETATM   30  N4  UNL     1      -6.532   1.728   3.239  1.00  0.00    -0.075 N 
ATOM     31  H43 UNL     1      -6.066   2.266   3.969  1.00  0.00     0.274 HD
ATOM     32  H42 UNL     1      -6.282   2.323   2.449  1.00  0.00     0.274 HD
ATOM     33  H41 UNL     1      -7.540   1.664   3.380  1.00  0.00     0.274 HD
ENDBRANCH  27  30
ENDBRANCH  19  24
ENDBRANCH  17  19
ENDBRANCH  16  17
BRANCH  16  34
HETATM   34  O1  UNL     1      -1.834  -0.859   0.842  1.00  0.00    -0.346 OA
ATOM     35  H1  UNL     1      -1.026  -1.137   1.258  1.00  0.00     0.219 HD
ENDBRANCH  16  34
ENDBRANCH   1  16
BRANCH   9  36
HETATM   36  C15 UNL     1       4.255   1.256  -0.709  1.00  0.00     0.278 C 
BRANCH  36  37
HETATM   37  N2  UNL     1       5.279   0.316  -0.300  1.00  0.00     0.092 N 
HETATM   38  C16 UNL     1       6.529   0.803  -0.901  1.00  0.00     0.302 C 
HETATM   39  C17 UNL     1       7.580  -0.241  -0.597  1.00  0.00     0.302 C 
HETATM   40  N3  UNL     1       7.845  -0.177   0.821  1.00  0.00     0.087 N 
HETATM   41  C18 UNL     1       8.824  -1.191   1.210  1.00  0.00     0.310 C 
HETATM   42  C19 UNL     1       6.656  -0.414   1.576  1.00  0.00     0.302 C 
HETATM   43  C20 UNL     1       5.467   0.390   1.135  1.00  0.00     0.302 C 
ENDBRANCH  36  37
ENDBRANCH   9  36
TORSDOF 10
