REMARK  1 active torsions:
REMARK  status: ('A' for Active; 'I' for Inactive)
REMARK    1  A    between atoms: O1_1  and  C1_3 
ROOT
HETATM    1  C1  UNL     1      -0.793  -0.578  -1.108  1.00  0.00     0.068 C 
HETATM    2  C2  UNL     1      -0.405  -1.982  -0.740  1.00  0.00     0.039 C 
HETATM    3  C3  UNL     1       1.023  -2.262  -1.087  1.00  0.00     0.006 C 
HETATM    4  C4  UNL     1       1.875  -1.045  -1.197  1.00  0.00     0.038 C 
HETATM    5  C5  UNL     1       1.473   0.056  -0.234  1.00  0.00     0.067 C 
HETATM    6  C6  UNL     1       2.378   1.238  -0.540  1.00  0.00     0.038 C 
HETATM    7  C7  UNL     1       3.349   1.530   0.557  1.00  0.00     0.005 C 
HETATM    8  C8  UNL     1       3.911   0.277   1.164  1.00  0.00     0.026 C 
HETATM    9  C9  UNL     1       2.853  -0.761   1.437  1.00  0.00     0.168 C 
HETATM   10  O2  UNL     1       1.594  -0.397   1.053  1.00  0.00    -0.380 OA
HETATM   11  C10 UNL     1       0.028   0.467  -0.421  1.00  0.00     0.055 C 
HETATM   12  C11 UNL     1      -0.580   0.910   0.903  1.00  0.00     0.015 C 
HETATM   13  C12 UNL     1      -1.891   1.571   0.595  1.00  0.00    -0.014 C 
HETATM   14  C13 UNL     1      -2.989   1.136   1.574  1.00  0.00     0.005 C 
HETATM   15  C14 UNL     1      -3.818   0.055   0.960  1.00  0.00     0.001 C 
HETATM   16  C15 UNL     1      -2.949  -0.930   0.160  1.00  0.00     0.007 C 
HETATM   17  C16 UNL     1      -2.231  -0.275  -0.952  1.00  0.00     0.021 C 
HETATM   18  C17 UNL     1      -2.409   1.241  -0.786  1.00  0.00     0.012 C 
ENDROOT
BRANCH   1  19
HETATM   19  O1  UNL     1      -0.499  -0.455  -2.491  1.00  0.00    -0.389 OA
ATOM     20  H1  UNL     1      -0.744   0.433  -2.724  1.00  0.00     0.210 HD
ENDBRANCH   1  19
TORSDOF 1
