REMARK  0 active torsions:
REMARK  status: ('A' for Active; 'I' for Inactive)
ROOT
HETATM    1  C1  UNL     1      -2.492   1.638   0.645  1.00  0.00     0.016 C 
HETATM    2  C2  UNL     1      -1.499   0.506   0.268  1.00  0.00    -0.036 C 
HETATM    3  C3  UNL     1      -1.555   0.453  -1.181  1.00  0.00     0.010 C 
HETATM    4  C4  UNL     1      -3.000  -0.000  -1.453  1.00  0.00     0.001 C 
HETATM    5  C5  UNL     1      -3.534  -0.543  -0.154  1.00  0.00     0.005 C 
HETATM    6  C6  UNL     1      -2.290  -0.754   0.665  1.00  0.00    -0.006 C 
HETATM    7  C7  UNL     1      -1.499  -1.934   0.245  1.00  0.00     0.006 C 
HETATM    8  C8  UNL     1      -0.267  -1.984   1.080  1.00  0.00     0.009 C 
HETATM    9  C9  UNL     1       0.298  -0.721   1.556  1.00  0.00     0.029 C 
HETATM   10  C10 UNL     1      -0.269   0.569   1.041  1.00  0.00     0.008 C 
HETATM   11  C11 UNL     1       1.037   0.963   0.546  1.00  0.00     0.029 C 
HETATM   12  C12 UNL     1       1.337   1.281  -0.869  1.00  0.00     0.011 C 
HETATM   13  C13 UNL     1       2.801   1.774  -0.901  1.00  0.00     0.035 C 
HETATM   14  C14 UNL     1       3.594   0.717  -0.120  1.00  0.00     0.160 C 
HETATM   15  C15 UNL     1       3.342  -0.590  -0.776  1.00  0.00     0.038 C 
HETATM   16  C16 UNL     1       2.082  -1.214  -0.218  1.00  0.00     0.044 C 
HETATM   17  C17 UNL     1       1.598  -0.365   0.896  1.00  0.00     0.104 C 
HETATM   18  O1  UNL     1       2.687  -0.178   1.752  1.00  0.00    -0.228 OA
HETATM   19  O2  UNL     1       3.399   0.789   1.220  1.00  0.00    -0.235 OA
ENDROOT
TORSDOF 0
