REMARK  3 active torsions:
REMARK  status: ('A' for Active; 'I' for Inactive)
REMARK    1  A    between atoms: C2_2  and  C3_3 
REMARK    2  A    between atoms: C12_12  and  N1_13 
REMARK    3  A    between atoms: N1_13  and  C13_16 
ROOT
HETATM    1  C3  UNL     1      -2.256   0.260  -0.022  1.00  0.00     0.016 C 
HETATM    2  C4  UNL     1      -1.904  -0.768   1.061  1.00  0.00    -0.006 C 
HETATM    3  C5  UNL     1      -0.559  -0.570   1.644  1.00  0.00     0.012 C 
HETATM    4  C6  UNL     1       0.621  -0.933   0.809  1.00  0.00     0.017 C 
HETATM    5  C7  UNL     1       0.354  -1.953  -0.238  1.00  0.00     0.011 C 
HETATM    6  C8  UNL     1      -0.950  -1.502  -0.911  1.00  0.00    -0.009 C 
HETATM    7  C9  UNL     1      -1.996  -1.982   0.117  1.00  0.00     0.010 C 
HETATM    8  C10 UNL     1      -1.114  -0.016  -0.966  1.00  0.00    -0.000 C 
HETATM    9  C11 UNL     1       0.077   0.827  -0.805  1.00  0.00     0.039 C 
HETATM   10  C12 UNL     1       1.166   0.286   0.071  1.00  0.00     0.190 C 
ENDROOT
BRANCH  10  11
HETATM   11  N1  UNL     1       2.240  -0.206  -0.797  1.00  0.00    -0.071 N 
ATOM     12  H12 UNL     1       2.638  -1.074  -0.438  1.00  0.00     0.277 HD
ATOM     13  H11 UNL     1       1.871  -0.552  -1.683  1.00  0.00     0.277 HD
BRANCH  11  14
HETATM   14  C13 UNL     1       3.269   0.798  -1.010  1.00  0.00     0.228 C 
HETATM   15  C14 UNL     1       3.990   0.973   0.325  1.00  0.00     0.034 C 
ENDBRANCH  11  14
ENDBRANCH  10  11
BRANCH   1  16
HETATM   16  C2  UNL     1      -2.378   1.612   0.481  1.00  0.00    -0.031 C 
HETATM   17  C1  UNL     1      -3.494   2.294   0.212  1.00  0.00     0.007 C 
ENDBRANCH   1  16
TORSDOF 3
