REMARK  4 active torsions:
REMARK  status: ('A' for Active; 'I' for Inactive)
REMARK    1  A    between atoms: N1_1  and  C1_5 
REMARK    2  A    between atoms: C1_5  and  C2_6 
REMARK    3  A    between atoms: C2_6  and  C3_7 
REMARK    4  A    between atoms: C3_7  and  C4_8 
ROOT
HETATM    1  C4  UNL     1       0.144   0.118  -0.098  1.00  0.00    -0.039 C 
HETATM    2  C5  UNL     1      -0.240   0.267   1.334  1.00  0.00     0.014 C 
HETATM    3  C6  UNL     1      -1.749   0.211   1.427  1.00  0.00    -0.013 C 
HETATM    4  C7  UNL     1      -2.307  -1.070   0.871  1.00  0.00     0.009 C 
HETATM    5  C8  UNL     1      -1.880  -1.257  -0.558  1.00  0.00    -0.013 C 
HETATM    6  C9  UNL     1      -2.474  -0.131  -1.367  1.00  0.00     0.009 C 
HETATM    7  C10 UNL     1      -1.983   1.177  -0.804  1.00  0.00    -0.013 C 
HETATM    8  C11 UNL     1      -2.346   1.361   0.645  1.00  0.00     0.009 C 
HETATM    9  C12 UNL     1      -0.492   1.232  -0.925  1.00  0.00     0.014 C 
HETATM   10  C13 UNL     1      -0.367  -1.201  -0.633  1.00  0.00     0.014 C 
ENDROOT
BRANCH   1  11
HETATM   11  C3  UNL     1       1.625   0.187  -0.337  1.00  0.00     0.011 C 
BRANCH  11  12
HETATM   12  C2  UNL     1       2.399  -0.867   0.379  1.00  0.00     0.028 C 
BRANCH  12  13
HETATM   13  C1  UNL     1       3.873  -0.663   0.037  1.00  0.00     0.229 C 
BRANCH  13  14
HETATM   14  N1  UNL     1       4.328   0.647   0.456  1.00  0.00    -0.079 N 
ATOM     15  H13 UNL     1       3.746   1.389   0.068  1.00  0.00     0.274 HD
ATOM     16  H12 UNL     1       4.146   0.809   1.446  1.00  0.00     0.274 HD
ATOM     17  H11 UNL     1       5.313   0.783   0.228  1.00  0.00     0.274 HD
ENDBRANCH  13  14
ENDBRANCH  12  13
ENDBRANCH  11  12
ENDBRANCH   1  11
TORSDOF 4
