REMARK  3 active torsions:
REMARK  status: ('A' for Active; 'I' for Inactive)
REMARK    1  A    between atoms: C3_3  and  C4_4 
REMARK    2  A    between atoms: C4_4  and  N1_5 
REMARK    3  A    between atoms: N1_5  and  C5_7 
ROOT
HETATM    1  C1  UNL     1       5.912   0.223  -0.796  1.00  0.00     0.012 C 
HETATM    2  C2  UNL     1       4.901  -0.067  -0.208  1.00  0.00    -0.116 C 
HETATM    3  C3  UNL     1       3.709  -0.444   0.490  1.00  0.00     0.112 C 
ENDROOT
BRANCH   3   4
HETATM    4  C4  UNL     1       2.445  -0.093  -0.317  1.00  0.00     0.126 C 
BRANCH   4   5
HETATM    5  N1  UNL     1       1.374  -0.609   0.481  1.00  0.00    -0.412 N 
ATOM      6  H1  UNL     1       1.576  -1.238   1.258  1.00  0.00     0.154 HD
BRANCH   5   7
HETATM    7  C5  UNL     1       0.048  -0.252   0.196  1.00  0.00     0.026 C 
HETATM    8  C6  UNL     1      -0.562   0.185   1.541  1.00  0.00     0.035 C 
HETATM    9  C7  UNL     1      -2.001   0.565   1.406  1.00  0.00    -0.012 C 
HETATM   10  C8  UNL     1      -2.776  -0.643   0.954  1.00  0.00     0.009 C 
HETATM   11  C12 UNL     1      -2.103   1.696   0.397  1.00  0.00     0.009 C 
HETATM   12  C9  UNL     1      -2.218  -1.134  -0.342  1.00  0.00    -0.012 C 
HETATM   13  C10 UNL     1      -2.416  -0.038  -1.367  1.00  0.00     0.009 C 
HETATM   14  C14 UNL     1      -0.747  -1.437  -0.266  1.00  0.00     0.035 C 
HETATM   15  C11 UNL     1      -1.626   1.158  -0.928  1.00  0.00    -0.012 C 
HETATM   16  C13 UNL     1      -0.137   0.849  -0.813  1.00  0.00     0.035 C 
ENDBRANCH   5   7
ENDBRANCH   4   5
ENDBRANCH   3   4
TORSDOF 3
