REMARK  2 active torsions:
REMARK  status: ('A' for Active; 'I' for Inactive)
REMARK    1  A    between atoms: C2_2  and  C3_3 
REMARK    2  A    between atoms: C11_11  and  N1_12 
ROOT
HETATM    1  C3  UNL     1      -1.429  -0.305  -0.081  1.00  0.00    -0.010 C 
HETATM    2  C4  UNL     1      -0.437  -0.904   0.843  1.00  0.00     0.011 C 
HETATM    3  C5  UNL     1       0.856  -0.146   0.851  1.00  0.00     0.017 C 
HETATM    4  C6  UNL     1       0.596   1.285   1.252  1.00  0.00     0.011 C 
HETATM    5  C7  UNL     1      -0.410   1.956   0.389  1.00  0.00    -0.009 C 
HETATM    6  C8  UNL     1       0.331   2.462  -0.862  1.00  0.00     0.010 C 
HETATM    7  C9  UNL     1      -0.150   1.247  -1.574  1.00  0.00    -0.007 C 
HETATM    8  C10 UNL     1       0.838   0.130  -1.651  1.00  0.00     0.038 C 
HETATM    9  C11 UNL     1       1.602  -0.151  -0.428  1.00  0.00     0.190 C 
HETATM   10  C13 UNL     1      -1.194   1.085  -0.507  1.00  0.00    -0.002 C 
ENDROOT
BRANCH   9  11
HETATM   11  N1  UNL     1       2.367  -1.373  -0.615  1.00  0.00    -0.074 N 
HETATM   12  C12 UNL     1       3.387  -1.503   0.432  1.00  0.00     0.267 C 
ATOM     13  H12 UNL     1       1.765  -2.195  -0.663  1.00  0.00     0.277 HD
ATOM     14  H11 UNL     1       2.772  -1.428  -1.549  1.00  0.00     0.277 HD
ENDBRANCH   9  11
BRANCH   1  15
HETATM   15  C2  UNL     1      -2.868  -0.423   0.415  1.00  0.00     0.000 C 
HETATM   16  C1  UNL     1      -3.265  -1.868   0.595  1.00  0.00     0.005 C 
ENDBRANCH   1  15
TORSDOF 2
