REMARK  5 active torsions:
REMARK  status: ('A' for Active; 'I' for Inactive)
REMARK    1  A    between atoms: C2_2  and  N1_3 
REMARK    2  A    between atoms: C2_2  and  C3_7 
REMARK    3  A    between atoms: C3_7  and  N2_8 
REMARK    4  A    between atoms: C3_7  and  C4_12 
REMARK    5  A    between atoms: C4_12  and  C5_13 
ROOT
HETATM    1  C3  UNL     1      -1.946   0.276   0.251  1.00  0.00     0.213 C 
ENDROOT
BRANCH   1   2
HETATM    2  C2  UNL     1      -3.224  -0.457   0.605  1.00  0.00     0.209 C 
HETATM    3  C1  UNL     1      -4.280   0.627   0.835  1.00  0.00     0.042 C 
BRANCH   2   4
HETATM    4  N1  UNL     1      -3.683  -1.267  -0.511  1.00  0.00    -0.073 N 
ATOM      5  H13 UNL     1      -4.621  -1.644  -0.374  1.00  0.00     0.274 HD
ATOM      6  H12 UNL     1      -3.884  -0.719  -1.348  1.00  0.00     0.274 HD
ATOM      7  H11 UNL     1      -2.979  -1.989  -0.664  1.00  0.00     0.274 HD
ENDBRANCH   2   4
ENDBRANCH   1   2
BRANCH   1   8
HETATM    8  N2  UNL     1      -2.181   1.050  -0.940  1.00  0.00    -0.073 N 
ATOM      9  H23 UNL     1      -2.535   0.485  -1.711  1.00  0.00     0.274 HD
ATOM     10  H22 UNL     1      -2.980   1.677  -0.849  1.00  0.00     0.274 HD
ATOM     11  H21 UNL     1      -1.321   1.543  -1.178  1.00  0.00     0.274 HD
ENDBRANCH   1   8
BRANCH   1  12
HETATM   12  C4  UNL     1      -0.772  -0.662   0.095  1.00  0.00     0.040 C 
BRANCH  12  13
HETATM   13  C5  UNL     1       0.434   0.147  -0.251  1.00  0.00    -0.008 C 
HETATM   14  C6  UNL     1       0.835   1.170   0.737  1.00  0.00     0.005 C 
HETATM   15  C7  UNL     1       2.301   1.420   0.420  1.00  0.00     0.005 C 
HETATM   16  C8  UNL     1       2.689   0.466  -0.661  1.00  0.00    -0.010 C 
HETATM   17  C9  UNL     1       3.988  -0.235  -0.435  1.00  0.00     0.005 C 
HETATM   18  C12 UNL     1       1.679  -0.666  -0.456  1.00  0.00    -0.006 C 
HETATM   19  C10 UNL     1       3.715  -1.142   0.730  1.00  0.00     0.001 C 
HETATM   20  C11 UNL     1       2.192  -1.319   0.783  1.00  0.00     0.005 C 
ENDBRANCH  12  13
ENDBRANCH   1  12
TORSDOF 5
