REMARK  2 active torsions:
REMARK  status: ('A' for Active; 'I' for Inactive)
REMARK    1  A    between atoms: C1_4  and  O1_6 
REMARK    2  A    between atoms: O1_6  and  N3_7 
ROOT
HETATM    1  N3  UNL     1       0.471   0.048   0.054  1.00  0.00    -0.188 NA
HETATM    2  C2  UNL     1      -0.071  -0.288  -1.208  1.00  0.00     0.121 C 
HETATM    3  C3  UNL     1      -1.517  -0.058  -1.424  1.00  0.00     0.017 C 
HETATM    4  C4  UNL     1      -2.432  -0.504  -0.338  1.00  0.00     0.001 C 
HETATM    5  C5  UNL     1      -2.437   0.538   0.752  1.00  0.00     0.001 C 
HETATM    6  C6  UNL     1      -1.314   0.370   1.715  1.00  0.00     0.017 C 
HETATM    7  C7  UNL     1      -0.197  -0.514   1.187  1.00  0.00     0.121 C 
ENDROOT
BRANCH   1   8
HETATM    8  O1  UNL     1       1.771  -0.470   0.076  1.00  0.00    -0.228 OA
BRANCH   8   9
HETATM    9  C1  UNL     1       2.875   0.276  -0.243  1.00  0.00     0.243 C 
HETATM   10  N1  UNL     1       2.731   1.454  -0.729  1.00  0.00    -0.367 N 
ATOM     11  H12 UNL     1       3.553   2.009  -0.966  1.00  0.00     0.159 HD
ATOM     12  H11 UNL     1       1.814   1.870  -0.892  1.00  0.00     0.159 HD
HETATM   13  N2  UNL     1       4.165  -0.310  -0.013  1.00  0.00    -0.055 NA
ENDBRANCH   8   9
ENDBRANCH   1   8
TORSDOF 2
