REMARK  1 active torsions:
REMARK  status: ('A' for Active; 'I' for Inactive)
REMARK    1  A    between atoms: O1_1  and  C1_3 
ROOT
HETATM    1  C1  UNL     1       2.476  -0.665  -0.146  1.00  0.00     0.146 C 
HETATM    2  C2  UNL     1       2.255   0.772   0.329  1.00  0.00     0.264 C 
HETATM    3  N1  UNL     1       0.879   0.981  -0.043  1.00  0.00    -0.064 N 
ATOM      4  H11 UNL     1       0.772   1.327  -0.997  1.00  0.00     0.278 HD
ATOM      5  H12 UNL     1       0.453   1.775   0.435  1.00  0.00     0.278 HD
HETATM    6  C3  UNL     1       0.184  -0.245   0.186  1.00  0.00     0.128 C 
HETATM    7  C4  UNL     1      -0.653  -0.696  -0.978  1.00  0.00     0.039 C 
HETATM    8  C5  UNL     1      -1.821   0.191  -1.263  1.00  0.00     0.002 C 
HETATM    9  C6  UNL     1      -2.128   1.161  -0.155  1.00  0.00     0.000 C 
HETATM   10  C7  UNL     1      -2.031   0.400   1.154  1.00  0.00     0.002 C 
HETATM   11  C8  UNL     1      -0.649  -0.103   1.430  1.00  0.00     0.039 C 
HETATM   12  C9  UNL     1       1.223  -1.321   0.440  1.00  0.00     0.072 C 
ENDROOT
BRANCH   1  13
HETATM   13  O1  UNL     1       2.400  -0.781  -1.515  1.00  0.00    -0.394 OA
ATOM     14  H1  UNL     1       2.537  -1.674  -1.810  1.00  0.00     0.210 HD
ENDBRANCH   1  13
TORSDOF 1
