REMARK  2 active torsions:
REMARK  status: ('A' for Active; 'I' for Inactive)
REMARK    1  A    between atoms: N2_4  and  C1_6 
REMARK    2  A    between atoms: C1_6  and  O1_7 
ROOT
HETATM    1  C1  UNL     1       1.560  -0.405   0.138  1.00  0.00     0.144 C 
HETATM    2  C2  UNL     1       0.491   0.056   1.126  1.00  0.00     0.067 C 
HETATM    3  C3  UNL     1      -0.771  -0.613   0.675  1.00  0.00    -0.006 C 
HETATM    4  C4  UNL     1      -2.001   0.209   0.922  1.00  0.00     0.005 C 
HETATM    5  C5  UNL     1      -2.229   1.053  -0.317  1.00  0.00     0.001 C 
HETATM    6  C6  UNL     1      -0.993   0.826  -1.165  1.00  0.00     0.005 C 
HETATM    7  C7  UNL     1      -0.650  -0.602  -0.838  1.00  0.00    -0.006 C 
HETATM    8  C8  UNL     1       0.786  -0.935  -1.066  1.00  0.00     0.067 C 
ENDROOT
BRANCH   1   9
HETATM    9  N2  UNL     1       2.389   0.687  -0.255  1.00  0.00    -0.308 N 
HETATM   10  N1  UNL     1       3.519   0.865   0.260  1.00  0.00    -0.347 N 
ATOM     11  H12 UNL     1       3.836   0.207   0.972  1.00  0.00     0.176 HD
ATOM     12  H11 UNL     1       4.112   1.646  -0.021  1.00  0.00     0.176 HD
ATOM     13  H2  UNL     1       2.057   1.336  -0.969  1.00  0.00     0.183 HD
ENDBRANCH   1   9
BRANCH   1  14
HETATM   14  O1  UNL     1       2.353  -1.418   0.693  1.00  0.00    -0.370 OA
ATOM     15  H1  UNL     1       1.801  -2.145   0.955  1.00  0.00     0.212 HD
ENDBRANCH   1  14
TORSDOF 2
