REMARK  1 active torsions:
REMARK  status: ('A' for Active; 'I' for Inactive)
REMARK    1  A    between atoms: C5_7  and  O1_8 
ROOT
HETATM    1  C1  UNL     1       3.091   0.554  -0.930  1.00  0.00     0.145 C 
HETATM    2  N1  UNL     1       2.481  -0.590  -0.323  1.00  0.00    -0.401 N 
ATOM      3  H1  UNL     1       2.999  -1.461  -0.209  1.00  0.00     0.158 HD
HETATM    4  C2  UNL     1       1.281  -0.491   0.069  1.00  0.00    -0.018 C 
HETATM    5  C3  UNL     1       0.633  -1.664   0.698  1.00  0.00     0.054 C 
HETATM    6  C4  UNL     1      -0.743  -1.926   0.199  1.00  0.00     0.038 C 
HETATM    7  C5  UNL     1      -1.382  -0.738  -0.470  1.00  0.00     0.126 C 
HETATM    8  C6  UNL     1      -0.938   0.531   0.198  1.00  0.00    -0.017 C 
HETATM    9  C7  UNL     1      -1.192   0.544   1.682  1.00  0.00     0.018 C 
HETATM   10  C8  UNL     1      -1.677   1.712  -0.428  1.00  0.00     0.018 C 
HETATM   11  C9  UNL     1       0.533   0.756  -0.090  1.00  0.00     0.063 C 
ENDROOT
BRANCH   7  12
HETATM   12  O1  UNL     1      -1.105  -0.655  -1.817  1.00  0.00    -0.395 OA
ATOM     13  H1  UNL     1      -1.508   0.095  -2.239  1.00  0.00     0.210 HD
ENDBRANCH   7  12
TORSDOF 1
