REMARK  2 active torsions:
REMARK  status: ('A' for Active; 'I' for Inactive)
REMARK    1  A    between atoms: O1_1  and  C1_3 
REMARK    2  A    between atoms: C4_6  and  N1_7 
ROOT
HETATM    1  C1  UNL     1      -3.115  -0.354   0.590  1.00  0.00     0.120 C 
HETATM    2  C2  UNL     1      -2.887  -0.222  -0.905  1.00  0.00     0.034 C 
HETATM    3  C3  UNL     1      -1.548   0.507  -0.928  1.00  0.00     0.038 C 
HETATM    4  C4  UNL     1      -0.852   0.203   0.349  1.00  0.00     0.225 C 
HETATM    5  C10 UNL     1      -1.736  -0.840   1.024  1.00  0.00     0.067 C 
ENDROOT
BRANCH   4   6
HETATM    6  N1  UNL     1       0.494  -0.239   0.262  1.00  0.00     0.093 N 
HETATM    7  C5  UNL     1       1.234   0.369   1.340  1.00  0.00     0.273 C 
HETATM    8  C6  UNL     1       2.652  -0.102   1.442  1.00  0.00     0.030 C 
HETATM    9  C7  UNL     1       3.347   0.074   0.131  1.00  0.00     0.003 C 
HETATM   10  C8  UNL     1       2.570  -0.345  -1.065  1.00  0.00     0.030 C 
HETATM   11  C9  UNL     1       1.105  -0.124  -1.022  1.00  0.00     0.273 C 
ENDBRANCH   4   6
BRANCH   1  12
HETATM   12  O1  UNL     1      -3.312   0.917   1.091  1.00  0.00    -0.396 OA
ATOM     13  H1  UNL     1      -3.455   0.834   2.027  1.00  0.00     0.210 HD
ENDBRANCH   1  12
TORSDOF 2
