REMARK  1 active torsions:
REMARK  status: ('A' for Active; 'I' for Inactive)
REMARK    1  A    between atoms: N2_7  and  C4_8 
ROOT
HETATM    1  N1  UNL     1      -4.255  -0.178   1.113  1.00  0.00    -0.404 N 
ATOM      2  H11 UNL     1      -4.397  -0.450   2.086  1.00  0.00     0.155 HD
ATOM      3  H12 UNL     1      -5.165   0.128   0.768  1.00  0.00     0.155 HD
HETATM    4  C1  UNL     1      -3.189  -0.207   0.445  1.00  0.00     0.010 C 
HETATM    5  C2  UNL     1      -2.984   0.186  -0.962  1.00  0.00     0.084 C 
HETATM    6  C3  UNL     1      -1.481   0.443  -1.039  1.00  0.00     0.279 C 
HETATM    7  N2  UNL     1      -1.007   0.321   0.297  1.00  0.00     0.098 N 
HETATM    8  C10 UNL     1      -1.865  -0.652   0.947  1.00  0.00     0.324 C 
ENDROOT
BRANCH   7   9
HETATM    9  C4  UNL     1       0.373   0.150   0.499  1.00  0.00     0.223 C 
HETATM   10  C5  UNL     1       1.129   1.342   0.003  1.00  0.00     0.036 C 
HETATM   11  C6  UNL     1       2.527   1.194   0.612  1.00  0.00     0.002 C 
HETATM   12  C7  UNL     1       3.157   0.063  -0.177  1.00  0.00     0.000 C 
HETATM   13  C8  UNL     1       2.417  -1.230  -0.021  1.00  0.00     0.002 C 
HETATM   14  C9  UNL     1       0.940  -1.125  -0.029  1.00  0.00     0.036 C 
ENDBRANCH   7   9
TORSDOF 1
