REMARK  1 active torsions:
REMARK  status: ('A' for Active; 'I' for Inactive)
REMARK    1  A    between atoms: N1_1  and  C1_5 
ROOT
HETATM    1  C1  UNL     1       2.243  -0.065  -0.804  1.00  0.00     0.188 C 
HETATM    2  C2  UNL     1       1.327   1.153  -0.887  1.00  0.00     0.039 C 
HETATM    3  C3  UNL     1       0.670   0.715   0.350  1.00  0.00     0.002 C 
HETATM    4  C4  UNL     1       1.715  -0.390   0.554  1.00  0.00     0.021 C 
HETATM    5  C5  UNL     1       0.943  -1.672   0.690  1.00  0.00     0.008 C 
HETATM    6  C6  UNL     1      -0.383  -1.177   1.247  1.00  0.00     0.010 C 
HETATM    7  C7  UNL     1      -0.623   0.035   0.336  1.00  0.00    -0.036 C 
HETATM    8  C8  UNL     1      -1.685   0.946   0.914  1.00  0.00     0.010 C 
HETATM    9  C9  UNL     1      -2.819   0.958  -0.091  1.00  0.00     0.001 C 
HETATM   10  C10 UNL     1      -2.670  -0.430  -0.712  1.00  0.00     0.001 C 
HETATM   11  C11 UNL     1      -1.151  -0.454  -0.944  1.00  0.00     0.010 C 
ENDROOT
BRANCH   1  12
HETATM   12  N1  UNL     1       3.629   0.359  -0.774  1.00  0.00    -0.075 N 
ATOM     13  H13 UNL     1       3.862   0.960  -1.564  1.00  0.00     0.274 HD
ATOM     14  H12 UNL     1       3.809   1.025  -0.023  1.00  0.00     0.274 HD
ATOM     15  H11 UNL     1       4.241  -0.455  -0.719  1.00  0.00     0.274 HD
ENDBRANCH   1  12
TORSDOF 1
