REMARK  1 active torsions:
REMARK  status: ('A' for Active; 'I' for Inactive)
REMARK    1  A    between atoms: N1_9  and  C9_10 
ROOT
HETATM    1  C1  UNL     1      -2.303  -0.793   0.562  1.00  0.00     0.002 C 
HETATM    2  C2  UNL     1      -1.822  -1.038  -0.830  1.00  0.00     0.002 C 
HETATM    3  C3  UNL     1      -1.280   0.177  -1.515  1.00  0.00     0.025 C 
HETATM    4  C4  UNL     1       0.126   0.555  -1.018  1.00  0.00     0.080 C 
HETATM    5  C5  UNL     1      -0.025   1.888  -0.331  1.00  0.00     0.027 C 
HETATM    6  C6  UNL     1      -0.433   1.535   1.070  1.00  0.00     0.027 C 
HETATM    7  C7  UNL     1      -0.049   0.094   1.238  1.00  0.00     0.080 C 
HETATM    8  C8  UNL     1      -1.222  -0.795   1.598  1.00  0.00     0.025 C 
HETATM    9  N1  UNL     1       0.466  -0.377  -0.016  1.00  0.00    -0.400 N 
ENDROOT
BRANCH   9  10
HETATM   10  C9  UNL     1       1.749  -0.940   0.015  1.00  0.00     0.080 A 
HETATM   11  C10 UNL     1       2.902   0.050   0.248  1.00  0.00     0.027 A 
HETATM   12  C11 UNL     1       2.810  -0.797  -0.988  1.00  0.00     0.027 A 
ENDBRANCH   9  10
TORSDOF 1
