REMARK  3 active torsions:
REMARK  status: ('A' for Active; 'I' for Inactive)
REMARK    1  A    between atoms: C1_2  and  C2_3 
REMARK       I    between atoms: C1_2  and  N1_6 
REMARK    2  A    between atoms: C2_3  and  C3_4 
REMARK       I    between atoms: N1_6  and  C4_8 
REMARK    3  A    between atoms: C4_8  and  C5_10 
ROOT
HETATM    1  O1  UNL     1       3.239   0.426   2.205  1.00  0.00    -0.273 OA
HETATM    2  C1  UNL     1       2.668   0.258   1.097  1.00  0.00     0.224 C 
HETATM    3  N1  UNL     1       1.263   0.297   1.005  1.00  0.00    -0.297 N 
ATOM      4  H1  UNL     1       0.741   0.464   1.865  1.00  0.00     0.171 HD
HETATM    5  C4  UNL     1       0.522   0.123  -0.181  1.00  0.00     0.228 C 
HETATM    6  O2  UNL     1       1.110  -0.084  -1.260  1.00  0.00    -0.273 OA
ENDROOT
BRANCH   5   7
HETATM    7  C5  UNL     1      -0.944   0.189  -0.131  1.00  0.00     0.078 C 
HETATM    8  C6  UNL     1      -1.518  -0.885   0.799  1.00  0.00     0.014 C 
HETATM    9  C7  UNL     1      -3.008  -0.781   0.716  1.00  0.00     0.001 C 
HETATM   10  C8  UNL     1      -3.474   0.481   0.034  1.00  0.00     0.000 C 
HETATM   11  C9  UNL     1      -2.991   0.617  -1.371  1.00  0.00     0.001 C 
HETATM   12  C10 UNL     1      -1.604   0.015  -1.461  1.00  0.00     0.014 C 
ENDBRANCH   5   7
BRANCH   2  13
HETATM   13  C2  UNL     1       3.479   0.018  -0.114  1.00  0.00     0.114 C 
BRANCH  13  14
HETATM   14  C3  UNL     1       4.970   0.028   0.253  1.00  0.00     0.094 C 
HETATM   15 BR1  UNL     1       5.999  -0.289  -1.360  1.00  0.00    -0.096 Br
ENDBRANCH  13  14
ENDBRANCH   2  13
TORSDOF 3
