REMARK  4 active torsions:
REMARK  status: ('A' for Active; 'I' for Inactive)
REMARK    1  A    between atoms: C2_2  and  C3_3 
REMARK    2  A    between atoms: C3_3  and  C4_4 
REMARK    3  A    between atoms: C6_6  and  C7_7 
REMARK    4  A    between atoms: C8_10  and  C9_11 
ROOT
HETATM    1  C3  UNL     1      -0.770   0.125  -0.304  1.00  0.00    -0.002 A 
HETATM    2  C6  UNL     1      -0.359  -0.707   0.833  1.00  0.00     0.098 A 
HETATM    3  C8  UNL     1       0.520   0.364   0.332  1.00  0.00     0.052 A 
ENDROOT
BRANCH   1   4
HETATM    4  C2  UNL     1      -1.721   1.279  -0.183  1.00  0.00    -0.026 C 
HETATM    5  C1  UNL     1      -1.353   2.539  -0.193  1.00  0.00     0.008 C 
ENDBRANCH   1   4
BRANCH   1   6
HETATM    6  C4  UNL     1      -1.017  -0.646  -1.577  1.00  0.00     0.010 C 
HETATM    7  C5  UNL     1      -2.474  -1.139  -1.579  1.00  0.00     0.006 C 
ENDBRANCH   1   6
BRANCH   2   8
HETATM    8  C7  UNL     1      -1.012  -0.623   2.149  1.00  0.00     0.237 C 
HETATM    9  N1  UNL     1      -1.108  -1.760   2.964  1.00  0.00    -0.062 NA
HETATM   10  O1  UNL     1      -1.479   0.463   2.537  1.00  0.00    -0.276 OA
ENDBRANCH   2   8
BRANCH   3  11
HETATM   11  C9  UNL     1       1.789   0.189  -0.366  1.00  0.00    -0.009 C 
HETATM   12 BR1  UNL     1       1.928  -0.667  -2.042  1.00  0.00    -0.056 Br
HETATM   13  C10 UNL     1       2.925   0.677   0.186  1.00  0.00    -0.016 C 
HETATM   14  C11 UNL     1       4.215   0.503  -0.516  1.00  0.00     0.037 C 
ENDBRANCH   3  11
TORSDOF 4
