REMARK  4 active torsions:
REMARK  status: ('A' for Active; 'I' for Inactive)
REMARK    1  A    between atoms: C2_2  and  C3_4 
REMARK       I    between atoms: C3_4  and  N1_6 
REMARK    2  A    between atoms: N1_6  and  C4_8 
REMARK    3  A    between atoms: C6_10  and  C7_11 
REMARK    4  A    between atoms: C7_11  and  C8_12 
ROOT
HETATM    1  C4  UNL     1       0.799  -1.429  -0.503  1.00  0.00     0.089 A 
HETATM    2  C5  UNL     1       0.143  -1.701   0.830  1.00  0.00     0.032 A 
HETATM    3  C6  UNL     1      -0.614  -1.070  -0.334  1.00  0.00     0.010 A 
ENDROOT
BRANCH   1   4
HETATM    4  N1  UNL     1       1.840  -0.440  -0.590  1.00  0.00    -0.355 N 
HETATM    5  C3  UNL     1       3.031  -0.652  -1.333  1.00  0.00     0.232 C 
HETATM    6  O1  UNL     1       3.238  -1.718  -1.955  1.00  0.00    -0.272 OA
ATOM      7  H1  UNL     1       1.718   0.446  -0.100  1.00  0.00     0.162 HD
BRANCH   5   8
HETATM    8  C2  UNL     1       4.070   0.408  -1.385  1.00  0.00     0.145 C 
HETATM    9  C1  UNL     1       4.545   0.690   0.029  1.00  0.00     0.032 C 
HETATM   10 BR1  UNL     1       3.258   1.969  -2.177  1.00  0.00    -0.082 Br
ENDBRANCH   5   8
ENDBRANCH   1   4
BRANCH   3  11
HETATM   11  C7  UNL     1      -1.092   0.312  -0.053  1.00  0.00     0.011 C 
BRANCH  11  12
HETATM   12  C8  UNL     1      -2.592   0.263   0.053  1.00  0.00    -0.014 C 
HETATM   13  C9  UNL     1      -3.260   1.590   0.338  1.00  0.00     0.005 C 
HETATM   14  C10 UNL     1      -4.258   0.797   1.183  1.00  0.00     0.001 C 
HETATM   15  C11 UNL     1      -3.122  -0.215   1.388  1.00  0.00     0.005 C 
ENDBRANCH  11  12
ENDBRANCH   3  11
TORSDOF 4
