REMARK  4 active torsions:
REMARK  status: ('A' for Active; 'I' for Inactive)
REMARK       I    between atoms: C1_2  and  N1_3 
REMARK    1  A    between atoms: C1_2  and  C8_12 
REMARK    2  A    between atoms: N1_3  and  C2_5 
REMARK    3  A    between atoms: C2_5  and  C3_6 
REMARK    4  A    between atoms: C3_6  and  C4_7 
ROOT
HETATM    1  O1  UNL     1       1.558   1.714   0.906  1.00  0.00    -0.273 OA
HETATM    2  C1  UNL     1       2.117   0.790   0.269  1.00  0.00     0.221 C 
HETATM    3  N1  UNL     1       1.350   0.003  -0.600  1.00  0.00    -0.361 N 
ATOM      4  H1  UNL     1       1.808  -0.746  -1.119  1.00  0.00     0.162 HD
ENDROOT
BRANCH   3   5
HETATM    5  C2  UNL     1      -0.039   0.211  -0.784  1.00  0.00     0.123 C 
BRANCH   5   6
HETATM    6  C3  UNL     1      -0.896   0.055   0.444  1.00  0.00     0.025 C 
BRANCH   6   7
HETATM    7  C4  UNL     1      -2.323   0.315   0.012  1.00  0.00     0.001 C 
HETATM    8  C5  UNL     1      -3.343   0.198   1.146  1.00  0.00     0.007 C 
HETATM    9  C6  UNL     1      -4.289  -0.387   0.088  1.00  0.00     0.016 C 
HETATM   10  C7  UNL     1      -3.017  -0.883  -0.615  1.00  0.00     0.062 C 
HETATM   11 BR1  UNL     1      -3.121  -0.863  -2.523  1.00  0.00    -0.091 Br
ENDBRANCH   6   7
ENDBRANCH   5   6
ENDBRANCH   3   5
BRANCH   2  12
HETATM   12  C8  UNL     1       3.577   0.587   0.480  1.00  0.00     0.078 A 
HETATM   13  C9  UNL     1       4.426   0.074  -0.622  1.00  0.00     0.015 A 
HETATM   14  C10 UNL     1       4.092  -0.848   0.517  1.00  0.00     0.015 A 
ENDBRANCH   2  12
TORSDOF 4
