REMARK  4 active torsions:
REMARK  status: ('A' for Active; 'I' for Inactive)
REMARK    1  A    between atoms: C2_2  and  C3_3 
REMARK    2  A    between atoms: C3_3  and  N1_4 
REMARK    3  A    between atoms: C3_3  and  C6_11 
REMARK       I    between atoms: N1_4  and  C4_6 
REMARK    4  A    between atoms: C4_6  and  C5_8 
ROOT
HETATM    1  C6  UNL     1       0.158  -0.389   0.691  1.00  0.00     0.209 C 
HETATM    2  C7  UNL     1       0.604   0.755  -0.197  1.00  0.00     0.041 C 
HETATM    3  C8  UNL     1       2.125   0.583  -0.071  1.00  0.00     0.018 C 
HETATM    4  C9  UNL     1       2.867   1.201  -1.194  1.00  0.00     0.007 C 
HETATM    5  C10 UNL     1       2.872   0.158  -2.276  1.00  0.00     0.002 C 
HETATM    6  C11 UNL     1       2.627  -1.176  -1.617  1.00  0.00     0.033 C 
HETATM    7  C12 UNL     1       2.244  -0.921  -0.196  1.00  0.00     0.190 C 
HETATM    8  N2  UNL     1       0.961  -1.474   0.160  1.00  0.00    -0.064 N 
ATOM      9  H21 UNL     1       0.509  -1.964  -0.612  1.00  0.00     0.278 HD
ATOM     10  H22 UNL     1       1.031  -2.268   0.797  1.00  0.00     0.278 HD
ENDROOT
BRANCH   1  11
HETATM   11  C3  UNL     1      -1.321  -0.633   0.544  1.00  0.00     0.114 C 
BRANCH  11  12
HETATM   12  C2  UNL     1      -1.790  -1.755   1.407  1.00  0.00     0.023 C 
HETATM   13  C1  UNL     1      -1.655  -1.530   2.868  1.00  0.00     0.007 C 
ENDBRANCH  11  12
BRANCH  11  14
HETATM   14  N1  UNL     1      -2.024   0.604   0.775  1.00  0.00    -0.352 N 
HETATM   15  C4  UNL     1      -2.778   1.253  -0.227  1.00  0.00     0.251 C 
HETATM   16  O1  UNL     1      -2.833   0.726  -1.359  1.00  0.00    -0.271 OA
ATOM     17  H1  UNL     1      -1.975   1.028   1.701  1.00  0.00     0.163 HD
BRANCH  15  18
HETATM   18  C5  UNL     1      -3.482   2.510   0.041  1.00  0.00     0.269 C 
HETATM   19 CL1  UNL     1      -2.387   3.815   0.544  1.00  0.00    -0.098 Cl
HETATM   20 CL2  UNL     1      -4.708   2.334   1.316  1.00  0.00    -0.098 Cl
ENDBRANCH  15  18
ENDBRANCH  11  14
ENDBRANCH   1  11
TORSDOF 4
