REMARK  5 active torsions:
REMARK  status: ('A' for Active; 'I' for Inactive)
REMARK    1  A    between atoms: C1_2  and  C2_3 
REMARK       I    between atoms: C1_2  and  N1_6 
REMARK    2  A    between atoms: C2_3  and  C3_4 
REMARK    3  A    between atoms: N1_6  and  C4_8 
REMARK    4  A    between atoms: C4_8  and  C5_9 
REMARK    5  A    between atoms: C5_9  and  C6_10 
ROOT
HETATM    1  C6  UNL     1      -0.991   0.120   0.317  1.00  0.00    -0.032 C 
HETATM    2  C7  UNL     1      -1.532   0.713   1.628  1.00  0.00     0.015 C 
HETATM    3  C8  UNL     1      -2.925   1.157   1.176  1.00  0.00    -0.006 C 
HETATM    4  C9  UNL     1      -3.760  -0.133   1.200  1.00  0.00     0.048 C 
HETATM    5  C10 UNL     1      -3.301  -0.742  -0.117  1.00  0.00     0.105 C 
HETATM    6  F1  UNL     1      -4.010  -1.837  -0.479  1.00  0.00    -0.243 F 
HETATM    7  C11 UNL     1      -3.547   0.456  -1.043  1.00  0.00     0.048 C 
HETATM    8  C12 UNL     1      -2.763   1.524  -0.269  1.00  0.00    -0.006 C 
HETATM    9  C13 UNL     1      -1.289   1.264  -0.615  1.00  0.00     0.015 C 
HETATM   10  C14 UNL     1      -1.831  -1.048  -0.092  1.00  0.00     0.053 C 
ENDROOT
BRANCH   1  11
HETATM   11  C5  UNL     1       0.452  -0.226   0.438  1.00  0.00     0.054 C 
BRANCH  11  12
HETATM   12  C4  UNL     1       1.071  -0.805  -0.774  1.00  0.00     0.064 C 
BRANCH  12  13
HETATM   13  N1  UNL     1       2.434  -1.153  -0.729  1.00  0.00    -0.341 N 
HETATM   14  C1  UNL     1       3.536  -0.309  -0.477  1.00  0.00     0.222 C 
HETATM   15  O1  UNL     1       3.449   0.924  -0.248  1.00  0.00    -0.273 OA
ATOM     16  H1  UNL     1       2.651  -2.135  -0.899  1.00  0.00     0.167 HD
BRANCH  14  17
HETATM   17  C2  UNL     1       4.923  -0.833  -0.463  1.00  0.00     0.118 C 
BRANCH  17  18
HETATM   18  C3  UNL     1       5.949   0.212  -0.179  1.00  0.00     0.124 C 
HETATM   19 CL1  UNL     1       5.622   0.928   1.427  1.00  0.00    -0.130 Cl
ENDBRANCH  17  18
ENDBRANCH  14  17
ENDBRANCH  12  13
ENDBRANCH  11  12
ENDBRANCH   1  11
TORSDOF 5
