REMARK  6 active torsions:
REMARK  status: ('A' for Active; 'I' for Inactive)
REMARK    1  A    between atoms: C2_2  and  C3_3 
REMARK    2  A    between atoms: C6_6  and  N1_7 
REMARK    3  A    between atoms: N1_7  and  C8_9 
REMARK    4  A    between atoms: C8_9  and  N2_11 
REMARK    5  A    between atoms: N2_11  and  C9_13 
REMARK    6  A    between atoms: C9_13  and  C10_14 
ROOT
HETATM    1  C8  UNL     1       0.716   0.228   0.113  1.00  0.00     0.169 C 
HETATM    2  S1  UNL     1       0.733   1.853   0.420  1.00  0.00    -0.041 SA
ENDROOT
BRANCH   1   3
HETATM    3  N1  UNL     1      -0.493  -0.505   0.267  1.00  0.00    -0.357 N 
HETATM    4  C7  UNL     1      -0.460  -1.924  -0.014  1.00  0.00     0.152 C 
BRANCH   3   5
HETATM    5  C6  UNL     1      -1.666   0.185   0.685  1.00  0.00     0.093 C 
HETATM    6  C3  UNL     1      -2.839   0.141  -0.269  1.00  0.00     0.030 C 
HETATM    7  C4  UNL     1      -3.767  -0.164   0.912  1.00  0.00     0.012 C 
HETATM    8  C5  UNL     1      -2.521  -0.663   1.635  1.00  0.00     0.027 C 
BRANCH   6   9
HETATM    9  C2  UNL     1      -3.209   1.443  -0.867  1.00  0.00    -0.030 C 
HETATM   10  C1  UNL     1      -4.398   2.002  -0.728  1.00  0.00     0.007 C 
ENDBRANCH   6   9
ENDBRANCH   3   5
ENDBRANCH   1   3
BRANCH   1  11
HETATM   11  N2  UNL     1       1.930  -0.395  -0.303  1.00  0.00    -0.364 N 
ATOM     12  H2  UNL     1       1.949  -1.396  -0.500  1.00  0.00     0.162 HD
BRANCH  11  13
HETATM   13  C9  UNL     1       3.124   0.386  -0.444  1.00  0.00     0.164 C 
BRANCH  13  14
HETATM   14  C10 UNL     1       4.310  -0.437  -0.891  1.00  0.00     0.125 C 
HETATM   15  C11 UNL     1       5.522   0.462  -1.014  1.00  0.00     0.052 C 
HETATM   16 CL1  UNL     1       4.012  -1.220  -2.456  1.00  0.00    -0.100 Cl
HETATM   17 CL2  UNL     1       4.709  -1.701   0.286  1.00  0.00    -0.100 Cl
ENDBRANCH  13  14
ENDBRANCH  11  13
ENDBRANCH   1  11
TORSDOF 6
