REMARK  4 active torsions:
REMARK  status: ('A' for Active; 'I' for Inactive)
REMARK    1  A    between atoms: C3_3  and  N1_4 
REMARK       I    between atoms: N1_4  and  C4_6 
REMARK    2  A    between atoms: C4_6  and  C5_8 
REMARK    3  A    between atoms: C11_14  and  C12_15 
REMARK    4  A    between atoms: C12_15  and  C13_17 
ROOT
HETATM    1  C1  UNL     1       5.738  -0.478  -0.475  1.00  0.00     0.014 C 
HETATM    2  C2  UNL     1       4.957   0.431  -0.442  1.00  0.00    -0.098 C 
HETATM    3  C3  UNL     1       3.990   1.538  -0.425  1.00  0.00     0.216 C 
ENDROOT
BRANCH   3   4
HETATM    4  N1  UNL     1       2.655   0.989  -0.318  1.00  0.00    -0.350 N 
HETATM    5  C4  UNL     1       2.246   0.187   0.781  1.00  0.00     0.222 C 
HETATM    6  O1  UNL     1       3.100  -0.038   1.682  1.00  0.00    -0.273 OA
ATOM      7  H1  UNL     1       1.983   1.185  -1.059  1.00  0.00     0.163 HD
BRANCH   5   8
HETATM    8  C5  UNL     1       0.890  -0.376   0.900  1.00  0.00     0.078 C 
HETATM    9  C6  UNL     1       0.652  -1.270  -0.297  1.00  0.00     0.014 C 
HETATM   10  C7  UNL     1      -0.643  -1.984  -0.060  1.00  0.00     0.006 C 
HETATM   11  C8  UNL     1      -1.784  -1.114   0.319  1.00  0.00    -0.004 A 
HETATM   12  C9  UNL     1      -1.545   0.246   0.735  1.00  0.00    -0.003 A 
HETATM   13  C11 UNL     1      -2.135   0.006  -0.590  1.00  0.00     0.014 A 
HETATM   14  C10 UNL     1      -0.129   0.706   0.877  1.00  0.00     0.019 C 
BRANCH  13  15
HETATM   15  C12 UNL     1      -3.515   0.293  -1.014  1.00  0.00     0.101 C 
HETATM   16 CL1  UNL     1      -4.145  -1.168  -1.860  1.00  0.00    -0.123 Cl
BRANCH  15  17
HETATM   17  C13 UNL     1      -4.521   0.718  -0.027  1.00  0.00     0.135 C 
HETATM   18 CL2  UNL     1      -4.153   2.237   0.816  1.00  0.00    -0.129 Cl
ENDBRANCH  15  17
ENDBRANCH  13  15
ENDBRANCH   5   8
ENDBRANCH   3   4
TORSDOF 4
