REMARK  5 active torsions:
REMARK  status: ('A' for Active; 'I' for Inactive)
REMARK    1  A    between atoms: C2_2  and  C3_3 
REMARK    2  A    between atoms: C3_3  and  N1_5 
REMARK    3  A    between atoms: N1_5  and  C4_7 
REMARK    4  A    between atoms: C4_7  and  C5_8 
REMARK    5  A    between atoms: C5_8  and  C6_9 
ROOT
HETATM    1  C3  UNL     1      -1.574   0.821  -1.111  1.00  0.00     0.082 C 
HETATM    2  S1  UNL     1      -2.531   1.807  -2.003  1.00  0.00    -0.065 SA
ENDROOT
BRANCH   1   3
HETATM    3  C2  UNL     1      -2.148  -0.246  -0.266  1.00  0.00     0.015 C 
HETATM    4  C1  UNL     1      -1.728  -1.620  -0.723  1.00  0.00     0.023 C 
HETATM    5  C9  UNL     1      -2.003  -0.006   1.215  1.00  0.00     0.058 C 
HETATM    6  C10 UNL     1      -3.440  -0.385   1.395  1.00  0.00     0.115 C 
HETATM    7 CL1  UNL     1      -3.739  -2.058   1.892  1.00  0.00    -0.102 Cl
HETATM    8 CL2  UNL     1      -4.375   0.753   2.404  1.00  0.00    -0.102 Cl
HETATM    9  C11 UNL     1      -3.665  -0.109  -0.075  1.00  0.00     0.058 C 
ENDBRANCH   1   3
BRANCH   1  10
HETATM   10  N1  UNL     1      -0.170   1.010  -1.164  1.00  0.00    -0.384 N 
ATOM     11  H1  UNL     1       0.192   1.755  -1.759  1.00  0.00     0.160 HD
BRANCH  10  12
HETATM   12  C4  UNL     1       0.768   0.218  -0.433  1.00  0.00     0.120 C 
BRANCH  12  13
HETATM   13  C5  UNL     1       2.182   0.734  -0.728  1.00  0.00     0.024 C 
BRANCH  13  14
HETATM   14  C6  UNL     1       3.121  -0.146   0.075  1.00  0.00    -0.013 A 
HETATM   15  C7  UNL     1       4.622   0.187  -0.062  1.00  0.00     0.005 A 
HETATM   16  C8  UNL     1       3.862   0.435   1.221  1.00  0.00     0.005 A 
ENDBRANCH  13  14
ENDBRANCH  12  13
ENDBRANCH  10  12
ENDBRANCH   1  10
TORSDOF 5
