REMARK  4 active torsions:
REMARK  status: ('A' for Active; 'I' for Inactive)
REMARK    1  A    between atoms: C2_2  and  C4_4 
REMARK    2  A    between atoms: C4_4  and  N1_5 
REMARK    3  A    between atoms: N1_5  and  C5_7 
REMARK    4  A    between atoms: C5_7  and  C7_11 
ROOT
HETATM    1  C4  UNL     1      -1.158   0.264  -0.064  1.00  0.00     0.100 A 
HETATM    2  C10 UNL     1      -1.511   1.550  -0.673  1.00  0.00     0.023 A 
HETATM    3  C11 UNL     1      -0.701   1.938  -1.931  1.00  0.00     0.021 C 
HETATM    4  C12 UNL     1      -2.063   2.739   0.016  1.00  0.00     0.021 C 
HETATM    5  C13 UNL     1      -2.406   0.373  -0.976  1.00  0.00     0.152 A 
HETATM    6 CL1  UNL     1      -3.992   0.455  -0.209  1.00  0.00    -0.098 Cl
HETATM    7 CL2  UNL     1      -2.351  -0.435  -2.533  1.00  0.00    -0.098 Cl
ENDROOT
BRANCH   1   8
HETATM    8  C2  UNL     1      -1.523  -0.219   1.260  1.00  0.00    -0.061 C 
HETATM    9  C1  UNL     1      -2.197   0.392   2.214  1.00  0.00     0.016 C 
HETATM   10  C3  UNL     1      -1.071  -1.627   1.609  1.00  0.00     0.045 C 
ENDBRANCH   1   8
BRANCH   1  11
HETATM   11  N1  UNL     1      -0.029  -0.414  -0.726  1.00  0.00    -0.363 N 
ATOM     12  H1  UNL     1      -0.233  -0.915  -1.591  1.00  0.00     0.162 HD
BRANCH  11  13
HETATM   13  C5  UNL     1       1.293  -0.434  -0.280  1.00  0.00     0.076 C 
HETATM   14  N2  UNL     1       1.878   0.187   0.621  1.00  0.00    -0.384 N 
HETATM   15  C6  UNL     1       1.618   1.142   1.595  1.00  0.00     0.147 C 
ATOM     16  H2  UNL     1       2.858  -0.092   0.658  1.00  0.00     0.160 HD
BRANCH  13  17
HETATM   17  C7  UNL     1       2.211  -1.387  -1.055  1.00  0.00     0.044 C 
HETATM   18  C8  UNL     1       3.604  -1.363  -0.523  1.00  0.00     0.017 C 
HETATM   19  C9  UNL     1       1.585  -2.751  -0.951  1.00  0.00     0.017 C 
ENDBRANCH  13  17
ENDBRANCH  11  13
ENDBRANCH   1  11
TORSDOF 4
