REMARK  3 active torsions:
REMARK  status: ('A' for Active; 'I' for Inactive)
REMARK    1  A    between atoms: C2_2  and  C3_3 
REMARK    2  A    between atoms: C3_3  and  C4_4 
REMARK       I    between atoms: C4_4  and  N1_6 
REMARK    3  A    between atoms: N1_6  and  C5_8 
ROOT
HETATM    1  C3  UNL     1      -1.271   0.178  -0.324  1.00  0.00     0.097 A 
HETATM    2  C8  UNL     1      -1.982  -0.627   0.633  1.00  0.00     0.085 A 
HETATM    3  C9  UNL     1      -1.383  -1.327   1.816  1.00  0.00     0.037 C 
HETATM    4 CL1  UNL     1      -3.708  -0.179   0.944  1.00  0.00    -0.115 Cl
HETATM    5  C10 UNL     1      -1.819  -1.226  -0.747  1.00  0.00     0.135 A 
HETATM    6 CL2  UNL     1      -0.650  -2.533  -0.974  1.00  0.00    -0.103 Cl
HETATM    7 BR1  UNL     1      -3.299  -1.267  -1.969  1.00  0.00    -0.064 Br
ENDROOT
BRANCH   1   8
HETATM    8  C2  UNL     1      -2.080   1.324  -0.963  1.00  0.00     0.020 C 
HETATM    9  C1  UNL     1      -1.638   2.649  -0.459  1.00  0.00     0.006 C 
ENDBRANCH   1   8
BRANCH   1  10
HETATM   10  C4  UNL     1       0.159   0.261  -0.591  1.00  0.00     0.231 C 
HETATM   11  O1  UNL     1       0.490   0.979  -1.610  1.00  0.00    -0.273 OA
HETATM   12  N1  UNL     1       1.229  -0.326   0.100  1.00  0.00    -0.356 N 
ATOM     13  H1  UNL     1       1.032  -0.906   0.916  1.00  0.00     0.162 HD
BRANCH  12  14
HETATM   14  C5  UNL     1       2.601  -0.134  -0.309  1.00  0.00     0.084 A 
HETATM   15  C6  UNL     1       3.681  -0.001   0.696  1.00  0.00     0.027 A 
HETATM   16  C7  UNL     1       3.590  -1.248  -0.211  1.00  0.00     0.027 A 
ENDBRANCH  12  14
ENDBRANCH   1  10
TORSDOF 3
