REMARK  3 active torsions:
REMARK  status: ('A' for Active; 'I' for Inactive)
REMARK    1  A    between atoms: C2_2  and  C4_4 
REMARK       I    between atoms: N1_7  and  C7_8 
REMARK       I    between atoms: C7_8  and  N2_10 
REMARK    2  A    between atoms: N2_10  and  C8_12 
REMARK    3  A    between atoms: C8_12  and  C10_14 
ROOT
HETATM    1  C4  UNL     1      -2.282   0.203   0.780  1.00  0.00     0.033 C 
HETATM    2  C5  UNL     1      -1.985   1.169  -0.375  1.00  0.00     0.030 C 
HETATM    3  C6  UNL     1      -0.472   1.156  -0.347  1.00  0.00     0.128 C 
HETATM    4  N1  UNL     1      -0.120  -0.193   0.085  1.00  0.00    -0.334 N 
HETATM    5  C7  UNL     1       1.218  -0.662   0.102  1.00  0.00     0.318 C 
HETATM    6  O1  UNL     1       1.423  -1.838   0.489  1.00  0.00    -0.247 OA
HETATM    7  N2  UNL     1       2.320   0.137  -0.298  1.00  0.00    -0.335 N 
ATOM      8  H2  UNL     1       2.137   1.090  -0.611  1.00  0.00     0.164 HD
HETATM    9  C11 UNL     1      -1.328  -0.911   0.468  1.00  0.00     0.136 C 
ENDROOT
BRANCH   7  10
HETATM   10  C8  UNL     1       3.682  -0.326  -0.286  1.00  0.00     0.136 C 
HETATM   11  C9  UNL     1       4.576   0.518   0.599  1.00  0.00     0.036 C 
BRANCH  10  12
HETATM   12  C10 UNL     1       4.279  -0.310  -1.694  1.00  0.00     0.208 C 
HETATM   13 CL1  UNL     1       4.239   1.362  -2.320  1.00  0.00    -0.082 Cl
HETATM   14 CL2  UNL     1       3.412  -1.429  -2.765  1.00  0.00    -0.082 Cl
HETATM   15 CL3  UNL     1       5.985  -0.807  -1.650  1.00  0.00    -0.082 Cl
ENDBRANCH  10  12
ENDBRANCH   7  10
BRANCH   1  16
HETATM   16  C2  UNL     1      -3.710  -0.210   0.709  1.00  0.00    -0.087 C 
HETATM   17  C1  UNL     1      -4.421  -0.084   1.819  1.00  0.00     0.014 C 
HETATM   18  C3  UNL     1      -4.341  -0.736  -0.509  1.00  0.00     0.043 C 
ENDBRANCH   1  16
TORSDOF 3
