REMARK  3 active torsions:
REMARK  status: ('A' for Active; 'I' for Inactive)
REMARK    1  A    between atoms: C1_2  and  C2_3 
REMARK       I    between atoms: C1_2  and  N1_7 
REMARK    2  A    between atoms: C2_3  and  C3_4 
REMARK    3  A    between atoms: N1_7  and  C6_9 
ROOT
HETATM    1  C6  UNL     1      -1.277   0.598  -0.096  1.00  0.00     0.119 C 
HETATM    2  C7  UNL     1      -1.713   0.418   1.351  1.00  0.00     0.108 C 
HETATM    3  C8  UNL     1      -2.564  -0.794   1.477  1.00  0.00     0.246 C 
HETATM    4  F1  UNL     1      -2.051  -1.907   0.847  1.00  0.00    -0.206 F 
HETATM    5  F2  UNL     1      -2.810  -1.040   2.820  1.00  0.00    -0.206 F 
HETATM    6  C9  UNL     1      -3.880  -0.496   0.747  1.00  0.00     0.083 C 
HETATM    7  C10 UNL     1      -3.525  -0.562  -0.720  1.00  0.00     0.042 C 
HETATM    8  C11 UNL     1      -2.354   0.311  -1.044  1.00  0.00    -0.050 C 
HETATM    9  C12 UNL     1      -2.321   0.842  -2.257  1.00  0.00     0.060 C 
HETATM   10 BR1  UNL     1      -0.926   1.993  -2.888  1.00  0.00    -0.063 Br
ENDROOT
BRANCH   1  11
HETATM   11  N1  UNL     1      -0.067  -0.155  -0.270  1.00  0.00    -0.352 N 
HETATM   12  C1  UNL     1       1.243   0.399  -0.216  1.00  0.00     0.218 C 
HETATM   13  O1  UNL     1       1.422   1.619  -0.001  1.00  0.00    -0.274 OA
ATOM     14  H1  UNL     1      -0.152  -1.156  -0.444  1.00  0.00     0.163 HD
BRANCH  12  15
HETATM   15  C2  UNL     1       2.466  -0.418  -0.409  1.00  0.00     0.107 C 
BRANCH  15  16
HETATM   16  C3  UNL     1       3.720   0.379  -0.308  1.00  0.00    -0.006 A 
HETATM   17  C4  UNL     1       5.052  -0.200  -0.461  1.00  0.00     0.005 A 
HETATM   18  C5  UNL     1       4.554   0.146   0.922  1.00  0.00     0.005 A 
ENDBRANCH  15  16
ENDBRANCH  12  15
ENDBRANCH   1  11
TORSDOF 3
