REMARK  5 active torsions:
REMARK  status: ('A' for Active; 'I' for Inactive)
REMARK    1  A    between atoms: C2_2  and  C3_3 
REMARK    2  A    between atoms: C10_10  and  N1_11 
REMARK    3  A    between atoms: N1_11  and  C12_13 
REMARK    4  A    between atoms: C12_13  and  N2_14 
REMARK    5  A    between atoms: C12_13  and  C13_18 
ROOT
HETATM    1  N1  UNL     1       1.401   0.128  -0.244  1.00  0.00    -0.382 N 
HETATM    2  C11 UNL     1       1.500  -0.034  -1.663  1.00  0.00     0.146 C 
ENDROOT
BRANCH   1   3
HETATM    3  C10 UNL     1       0.221  -0.028   0.418  1.00  0.00     0.089 C 
HETATM    4  C3  UNL     1      -0.954   0.859   0.146  1.00  0.00     0.013 C 
HETATM    5  C4  UNL     1      -2.031   0.005  -0.483  1.00  0.00     0.000 C 
HETATM    6  C5  UNL     1      -2.692  -0.833   0.585  1.00  0.00    -0.009 C 
HETATM    7  C7  UNL     1      -1.323  -1.318  -0.810  1.00  0.00    -0.003 C 
HETATM    8  C6  UNL     1      -2.670  -1.963  -0.421  1.00  0.00     0.010 C 
HETATM    9  C9  UNL     1      -1.544  -1.265   1.477  1.00  0.00     0.012 C 
HETATM   10  C8  UNL     1      -0.450  -1.383   0.396  1.00  0.00     0.013 C 
BRANCH   4  11
HETATM   11  C2  UNL     1      -0.687   2.152  -0.523  1.00  0.00     0.002 C 
HETATM   12  C1  UNL     1      -1.950   3.039  -0.527  1.00  0.00     0.005 C 
ENDBRANCH   4  11
ENDBRANCH   1   3
BRANCH   1  13
HETATM   13  C12 UNL     1       2.546  -0.509   0.317  1.00  0.00     0.334 C 
BRANCH  13  14
HETATM   14  N2  UNL     1       3.660  -0.425  -0.675  1.00  0.00    -0.054 N 
ATOM     15  H23 UNL     1       3.405  -0.806  -1.586  1.00  0.00     0.277 HD
ATOM     16  H22 UNL     1       3.849   0.532  -0.974  1.00  0.00     0.277 HD
ATOM     17  H21 UNL     1       4.479  -0.881  -0.274  1.00  0.00     0.277 HD
ENDBRANCH  13  14
BRANCH  13  18
HETATM   18  C13 UNL     1       3.064  -0.127   1.635  1.00  0.00     0.233 C 
HETATM   19 CL1  UNL     1       3.498   1.590   1.778  1.00  0.00    -0.080 Cl
HETATM   20 CL2  UNL     1       2.159  -0.614   3.053  1.00  0.00    -0.080 Cl
HETATM   21 CL3  UNL     1       4.658  -1.046   1.790  1.00  0.00    -0.080 Cl
ENDBRANCH  13  18
ENDBRANCH   1  13
TORSDOF 5
