REMARK  14 active torsions:
REMARK  status: ('A' for Active; 'I' for Inactive)
REMARK    1  A    between atoms: C2_2  and  C3_3 
REMARK    2  A    between atoms: C3_3  and  C4_4 
REMARK    3  A    between atoms: C4_4  and  O2_6 
REMARK    4  A    between atoms: O2_6  and  C5_7 
REMARK    5  A    between atoms: C8_11  and  O4_12 
REMARK    6  A    between atoms: O4_12  and  C9_13 
REMARK    7  A    between atoms: C14_19  and  O6_20 
REMARK    8  A    between atoms: C17_24  and  C19_26 
REMARK    9  A    between atoms: C20_27  and  C21_28 
REMARK   10  A    between atoms: C21_28  and  O7_30 
REMARK   11  A    between atoms: C21_28  and  C25_34 
REMARK   12  A    between atoms: O7_30  and  C23_31 
REMARK   13  A    between atoms: C25_34  and  C27_36 
REMARK   14  A    between atoms: C27_36  and  C28_37 
ROOT
HETATM    1  C5  UNL     1      -1.809   0.318  -0.142  1.00  0.00     0.207 C 
HETATM    2  C6  UNL     1      -1.818   0.401   1.357  1.00  0.00     0.159 C 
HETATM    3  O3  UNL     1      -1.154   1.248   1.965  1.00  0.00    -0.295 OA
HETATM    4  C7  UNL     1      -2.615  -0.515   2.208  1.00  0.00     0.114 C 
HETATM    5  C8  UNL     1      -3.314  -1.493   1.290  1.00  0.00     0.147 C 
HETATM    6  C11 UNL     1      -2.425  -2.110   0.274  1.00  0.00    -0.007 C 
HETATM    7  C12 UNL     1      -3.281  -3.093  -0.540  1.00  0.00     0.018 C 
HETATM    8  C13 UNL     1      -1.425  -2.979   1.005  1.00  0.00     0.044 C 
HETATM    9  C14 UNL     1      -0.512  -3.687   0.063  1.00  0.00     0.123 C 
HETATM   10  C15 UNL     1      -0.333  -3.050  -1.250  1.00  0.00     0.022 C 
HETATM   11  C16 UNL     1       1.031  -3.387  -1.806  1.00  0.00     0.014 C 
HETATM   12  C17 UNL     1      -0.526  -1.542  -1.310  1.00  0.00    -0.014 C 
HETATM   13  C18 UNL     1      -0.750  -1.361  -2.848  1.00  0.00     0.020 C 
HETATM   14  C32 UNL     1      -1.780  -1.092  -0.649  1.00  0.00     0.046 C 
ENDROOT
BRANCH  12  15
HETATM   15  C19 UNL     1       0.710  -0.800  -1.050  1.00  0.00    -0.018 C 
HETATM   16  C20 UNL     1       1.349  -0.581   0.051  1.00  0.00     0.008 C 
BRANCH  16  17
HETATM   17  C21 UNL     1       2.603   0.179   0.271  1.00  0.00     0.088 C 
HETATM   18  C22 UNL     1       3.587  -0.030  -0.864  1.00  0.00     0.051 C 
BRANCH  17  19
HETATM   19  O7  UNL     1       2.459   1.513   0.610  1.00  0.00    -0.306 OA
BRANCH  19  20
HETATM   20  C23 UNL     1       1.917   2.543  -0.068  1.00  0.00     0.255 C 
HETATM   21  C24 UNL     1       1.813   3.944   0.431  1.00  0.00     0.126 C 
HETATM   22  O8  UNL     1       1.465   2.323  -1.194  1.00  0.00    -0.266 OA
ENDBRANCH  19  20
ENDBRANCH  17  19
BRANCH  17  23
HETATM   23  C25 UNL     1       3.260  -0.460   1.509  1.00  0.00     0.024 C 
HETATM   24  C26 UNL     1       3.584  -1.908   1.252  1.00  0.00     0.014 C 
BRANCH  23  25
HETATM   25  C27 UNL     1       4.409   0.226   2.101  1.00  0.00     0.035 C 
BRANCH  25  26
HETATM   26  C28 UNL     1       5.620   0.421   1.280  1.00  0.00    -0.024 C 
HETATM   27  C29 UNL     1       6.218   1.566   1.021  1.00  0.00    -0.091 C 
HETATM   28  C30 UNL     1       7.433   1.606   0.174  1.00  0.00     0.042 C 
HETATM   29  C31 UNL     1       5.688   2.824   1.584  1.00  0.00     0.042 C 
ENDBRANCH  25  26
ENDBRANCH  23  25
ENDBRANCH  17  23
ENDBRANCH  16  17
ENDBRANCH  12  15
BRANCH   9  30
HETATM   30  O6  UNL     1       0.687  -4.026   0.727  1.00  0.00    -0.395 OA
ATOM     31  H6  UNL     1       1.269  -4.477   0.127  1.00  0.00     0.210 HD
ENDBRANCH   9  30
BRANCH   1  32
HETATM   32  O2  UNL     1      -2.980   1.012  -0.530  1.00  0.00    -0.308 OA
BRANCH  32  33
HETATM   33  C4  UNL     1      -2.893   2.214  -1.178  1.00  0.00     0.259 C 
HETATM   34  O1  UNL     1      -1.831   2.798  -1.481  1.00  0.00    -0.265 OA
BRANCH  33  35
HETATM   35  C3  UNL     1      -4.163   2.921  -1.574  1.00  0.00     0.111 C 
BRANCH  35  36
HETATM   36  C2  UNL     1      -4.543   3.975  -0.572  1.00  0.00     0.005 C 
HETATM   37  C1  UNL     1      -3.501   5.045  -0.399  1.00  0.00     0.005 C 
ENDBRANCH  35  36
ENDBRANCH  33  35
ENDBRANCH  32  33
ENDBRANCH   1  32
BRANCH   5  38
HETATM   38  O4  UNL     1      -4.513  -0.977   0.776  1.00  0.00    -0.315 OA
BRANCH  38  39
HETATM   39  C9  UNL     1      -5.786  -1.385   1.144  1.00  0.00     0.255 C 
HETATM   40  C10 UNL     1      -6.939  -0.719   0.480  1.00  0.00     0.126 C 
HETATM   41  O5  UNL     1      -5.920  -2.279   2.005  1.00  0.00    -0.266 OA
ENDBRANCH  38  39
ENDBRANCH   5  38
TORSDOF 14
