REMARK  15 active torsions:
REMARK  status: ('A' for Active; 'I' for Inactive)
REMARK    1  A    between atoms: C2_2  and  C3_3 
REMARK    2  A    between atoms: C6_6  and  O1_7 
REMARK    3  A    between atoms: O1_7  and  C7_8 
REMARK    4  A    between atoms: C7_8  and  C8_10 
REMARK    5  A    between atoms: C11_13  and  C12_14 
REMARK    6  A    between atoms: C12_14  and  C13_15 
REMARK    7  A    between atoms: C12_14  and  C17_19 
REMARK    8  A    between atoms: C13_15  and  C14_16 
REMARK    9  A    between atoms: C14_16  and  C15_17 
REMARK   10  A    between atoms: C22_24  and  O3_25 
REMARK   11  A    between atoms: O3_25  and  C23_26 
REMARK   12  A    between atoms: C23_26  and  C24_28 
REMARK   13  A    between atoms: C30_35  and  O6_36 
REMARK   14  A    between atoms: C33_40  and  O7_41 
REMARK   15  A    between atoms: O7_41  and  C34_42 
ROOT
HETATM    1  C3  UNL     1      -1.394  -3.147  -0.739  1.00  0.00     0.003 C 
HETATM    2  C4  UNL     1      -0.766  -4.003   0.384  1.00  0.00     0.022 C 
HETATM    3  C5  UNL     1      -1.953  -1.977  -0.104  1.00  0.00     0.053 C 
HETATM    4  C6  UNL     1      -0.999  -0.803   0.189  1.00  0.00     0.163 C 
HETATM    5  C11 UNL     1      -0.374  -0.206  -1.002  1.00  0.00    -0.033 C 
HETATM    6  C20 UNL     1       0.975  -0.786  -1.334  1.00  0.00     0.038 C 
HETATM    7  C21 UNL     1       1.383  -0.275  -2.741  1.00  0.00     0.028 C 
HETATM    8  C22 UNL     1       2.179  -0.491  -0.507  1.00  0.00     0.078 C 
HETATM    9  C28 UNL     1       3.387  -1.256  -0.967  1.00  0.00    -0.008 C 
HETATM   10  C29 UNL     1       4.548  -0.717  -1.083  1.00  0.00     0.024 C 
HETATM   11  C30 UNL     1       3.284  -2.677  -1.311  1.00  0.00     0.153 C 
HETATM   12  C31 UNL     1       2.045  -2.967  -2.080  1.00  0.00     0.045 C 
HETATM   13  C32 UNL     1       0.875  -2.285  -1.372  1.00  0.00     0.038 C 
HETATM   14  C33 UNL     1      -0.357  -2.966  -1.813  1.00  0.00     0.148 C 
ENDROOT
BRANCH   5  15
HETATM   15  C12 UNL     1      -0.692   1.168  -1.450  1.00  0.00    -0.070 C 
BRANCH  15  16
HETATM   16  C13 UNL     1      -0.391   2.299  -0.507  1.00  0.00     0.035 C 
BRANCH  16  17
HETATM   17  C14 UNL     1      -0.761   3.673  -1.038  1.00  0.00     0.004 C 
BRANCH  17  18
HETATM   18  C15 UNL     1      -0.360   4.753  -0.040  1.00  0.00    -0.004 C 
HETATM   19  C16 UNL     1      -0.768   6.078  -0.654  1.00  0.00     0.005 C 
ENDBRANCH  17  18
ENDBRANCH  16  17
ENDBRANCH  15  16
BRANCH  15  20
HETATM   20  C17 UNL     1      -1.999   1.483  -2.077  1.00  0.00     0.007 C 
HETATM   21  C18 UNL     1      -3.276   1.354  -1.404  1.00  0.00     0.014 C 
HETATM   22  C19 UNL     1      -2.229   0.624  -3.370  1.00  0.00     0.014 C 
ENDBRANCH  15  20
ENDBRANCH   5  15
BRANCH   4  23
HETATM   23  O1  UNL     1      -1.735   0.026   1.057  1.00  0.00    -0.311 OA
BRANCH  23  24
HETATM   24  C7  UNL     1      -1.645  -0.011   2.451  1.00  0.00     0.263 C 
HETATM   25  O2  UNL     1      -0.823  -0.887   2.888  1.00  0.00    -0.265 OA
BRANCH  24  26
HETATM   26  C8  UNL     1      -2.380   0.827   3.384  1.00  0.00     0.077 C 
HETATM   27  C9  UNL     1      -2.113   2.292   3.324  1.00  0.00     0.020 C 
HETATM   28  C10 UNL     1      -3.869   0.518   3.156  1.00  0.00     0.020 C 
ENDBRANCH  24  26
ENDBRANCH  23  24
ENDBRANCH   4  23
BRANCH   8  29
HETATM   29  O3  UNL     1       2.112  -0.421   0.865  1.00  0.00    -0.279 OA
BRANCH  29  30
HETATM   30  C23 UNL     1       2.521   0.566   1.710  1.00  0.00     0.296 C 
HETATM   31  O4  UNL     1       3.033   1.537   1.096  1.00  0.00    -0.262 OA
BRANCH  30  32
HETATM   32  C24 UNL     1       2.417   0.575   3.188  1.00  0.00     0.256 A 
HETATM   33  O5  UNL     1       1.966   1.735   3.814  1.00  0.00    -0.359 OA
HETATM   34  C25 UNL     1       3.352   1.288   4.037  1.00  0.00     0.090 A 
HETATM   35  C26 UNL     1       3.595   0.763   5.437  1.00  0.00     0.049 C 
HETATM   36  C27 UNL     1       4.318   2.297   3.515  1.00  0.00     0.049 C 
ENDBRANCH  30  32
ENDBRANCH  29  30
ENDBRANCH   8  29
BRANCH   1  37
HETATM   37  C2  UNL     1      -2.472  -3.986  -1.332  1.00  0.00    -0.025 C 
HETATM   38  C1  UNL     1      -3.441  -3.487  -2.105  1.00  0.00     0.008 C 
ENDBRANCH   1  37
BRANCH  14  39
HETATM   39  O7  UNL     1      -0.826  -2.737  -3.102  1.00  0.00    -0.321 OA
BRANCH  39  40
HETATM   40  C34 UNL     1      -0.863  -3.595  -4.165  1.00  0.00     0.398 C 
HETATM   41  O8  UNL     1      -0.412  -4.761  -3.961  1.00  0.00    -0.276 OA
ENDBRANCH  39  40
ENDBRANCH  14  39
BRANCH  11  42
HETATM   42  O6  UNL     1       3.310  -3.386  -0.085  1.00  0.00    -0.391 OA
ATOM     43  H6  UNL     1       3.243  -4.307  -0.308  1.00  0.00     0.210 HD
ENDBRANCH  11  42
TORSDOF 15
