REMARK  16 active torsions:
REMARK  status: ('A' for Active; 'I' for Inactive)
REMARK    1  A    between atoms: C4_5  and  C6_7 
REMARK    2  A    between atoms: C8_9  and  O2_10 
REMARK    3  A    between atoms: C9_12  and  C11_14 
REMARK    4  A    between atoms: C11_14  and  C12_15 
REMARK    5  A    between atoms: C12_15  and  C13_16 
REMARK    6  A    between atoms: C13_16  and  C14_17 
REMARK    7  A    between atoms: C14_17  and  C16_19 
REMARK    8  A    between atoms: C16_19  and  C17_20 
REMARK    9  A    between atoms: C18_21  and  C19_22 
REMARK   10  A    between atoms: C19_22  and  C21_24 
REMARK   11  A    between atoms: C21_24  and  O4_26 
REMARK   12  A    between atoms: C24_29  and  O5_30 
REMARK   13  A    between atoms: O5_30  and  C25_31 
REMARK   14  A    between atoms: C28_35  and  O7_36 
REMARK   15  A    between atoms: O7_36  and  C29_37 
REMARK   16  A    between atoms: C29_37  and  C30_39 
ROOT
HETATM    1  C1  UNL     1      -4.417  -0.023  -2.655  1.00  0.00     0.023 C 
HETATM    2  C2  UNL     1      -3.495  -0.410  -1.800  1.00  0.00    -0.014 C 
HETATM    3  C3  UNL     1      -2.877  -1.696  -2.034  1.00  0.00     0.166 C 
HETATM    4  O1  UNL     1      -3.704  -2.507  -2.571  1.00  0.00    -0.292 OA
HETATM    5  C4  UNL     1      -1.567  -2.224  -1.792  1.00  0.00     0.048 C 
HETATM    6  C5  UNL     1      -0.829  -2.165  -3.154  1.00  0.00     0.026 C 
HETATM    7  C8  UNL     1      -0.675  -1.635  -0.776  1.00  0.00     0.142 C 
HETATM    8  C9  UNL     1      -0.857  -0.266  -0.299  1.00  0.00    -0.010 C 
HETATM    9  C10 UNL     1      -0.514   0.776  -1.376  1.00  0.00     0.018 C 
HETATM   10  C23 UNL     1      -2.179   0.092   0.250  1.00  0.00     0.037 C 
HETATM   11  C24 UNL     1      -2.904  -0.900   1.090  1.00  0.00     0.140 C 
HETATM   12  C27 UNL     1      -4.138  -0.013   1.469  1.00  0.00     0.066 C 
HETATM   13  C28 UNL     1      -4.453   0.606   0.151  1.00  0.00     0.143 C 
HETATM   14  C34 UNL     1      -3.217   0.531  -0.714  1.00  0.00     0.058 C 
ENDROOT
BRANCH   8  15
HETATM   15  C11 UNL     1       0.137   0.027   0.801  1.00  0.00     0.012 C 
BRANCH  15  16
HETATM   16  C12 UNL     1       1.581  -0.056   0.471  1.00  0.00     0.001 C 
BRANCH  16  17
HETATM   17  C13 UNL     1       2.287   0.366   1.796  1.00  0.00     0.004 C 
BRANCH  17  18
HETATM   18  C14 UNL     1       3.766   0.377   1.646  1.00  0.00    -0.015 C 
HETATM   19  C15 UNL     1       4.389   0.793   2.984  1.00  0.00     0.010 C 
BRANCH  18  20
HETATM   20  C16 UNL     1       4.332  -0.929   1.206  1.00  0.00     0.031 C 
BRANCH  20  21
HETATM   21  C17 UNL     1       5.822  -0.731   1.112  1.00  0.00    -0.029 C 
HETATM   22  C18 UNL     1       6.445  -0.898  -0.029  1.00  0.00    -0.017 C 
BRANCH  22  23
HETATM   23  C19 UNL     1       7.902  -0.710  -0.147  1.00  0.00     0.104 C 
HETATM   24  C20 UNL     1       8.536  -0.302   1.172  1.00  0.00     0.025 C 
BRANCH  23  25
HETATM   25  C21 UNL     1       8.208   0.371  -1.128  1.00  0.00     0.265 C 
HETATM   26  O3  UNL     1       7.245   0.950  -1.676  1.00  0.00    -0.265 OA
BRANCH  25  27
HETATM   27  O4  UNL     1       9.486   0.763  -1.459  1.00  0.00    -0.326 OA
HETATM   28  C22 UNL     1       9.728   1.810  -2.409  1.00  0.00     0.213 C 
ENDBRANCH  25  27
ENDBRANCH  23  25
ENDBRANCH  22  23
ENDBRANCH  20  21
ENDBRANCH  18  20
ENDBRANCH  17  18
ENDBRANCH  16  17
ENDBRANCH  15  16
ENDBRANCH   8  15
BRANCH   7  29
HETATM   29  O2  UNL     1       0.631  -1.693  -1.351  1.00  0.00    -0.394 OA
ATOM     30  H2  UNL     1       1.206  -1.314  -0.697  1.00  0.00     0.210 HD
ENDBRANCH   7  29
BRANCH   5  31
HETATM   31  C6  UNL     1      -1.664  -3.715  -1.508  1.00  0.00     0.015 C 
HETATM   32  C7  UNL     1      -2.230  -4.532  -2.608  1.00  0.00     0.006 C 
ENDBRANCH   5  31
BRANCH  11  33
HETATM   33  O5  UNL     1      -2.237  -1.216   2.298  1.00  0.00    -0.316 OA
BRANCH  33  34
HETATM   34  C25 UNL     1      -2.233  -2.493   2.782  1.00  0.00     0.255 C 
HETATM   35  C26 UNL     1      -1.543  -2.884   4.044  1.00  0.00     0.126 C 
HETATM   36  O6  UNL     1      -2.825  -3.403   2.167  1.00  0.00    -0.266 OA
ENDBRANCH  33  34
ENDBRANCH  11  33
BRANCH  13  37
HETATM   37  O7  UNL     1      -4.897   1.945   0.263  1.00  0.00    -0.311 OA
BRANCH  37  38
HETATM   38  C29 UNL     1      -6.124   2.407  -0.105  1.00  0.00     0.289 C 
HETATM   39  O8  UNL     1      -6.957   1.609  -0.591  1.00  0.00    -0.260 OA
BRANCH  38  40
HETATM   40  C30 UNL     1      -6.539   3.814   0.034  1.00  0.00     0.009 C 
HETATM   41  C31 UNL     1      -7.900   4.234  -0.412  1.00  0.00     0.054 C 
HETATM   42  C32 UNL     1      -5.745   4.724   0.536  1.00  0.00    -0.018 C 
HETATM   43  C33 UNL     1      -6.187   6.125   0.663  1.00  0.00     0.036 C 
ENDBRANCH  38  40
ENDBRANCH  37  38
ENDBRANCH  13  37
TORSDOF 16
