REMARK  15 active torsions:
REMARK  status: ('A' for Active; 'I' for Inactive)
REMARK    1  A    between atoms: C2_2  and  O2_4 
REMARK    2  A    between atoms: O2_4  and  C3_5 
REMARK    3  A    between atoms: C3_5  and  C4_6 
REMARK    4  A    between atoms: C4_6  and  C5_7 
REMARK    5  A    between atoms: C5_7  and  C6_8 
REMARK    6  A    between atoms: C6_8  and  C7_9 
REMARK    7  A    between atoms: C6_8  and  O4_18 
REMARK    8  A    between atoms: C7_9  and  C8_10 
REMARK    9  A    between atoms: C8_10  and  C10_12 
REMARK   10  A    between atoms: C10_12  and  C11_13 
REMARK   11  A    between atoms: C11_13  and  C12_15 
REMARK   12  A    between atoms: O4_18  and  C15_19 
REMARK   13  A    between atoms: C19_24  and  O6_25 
REMARK   14  A    between atoms: C24_31  and  O7_32 
REMARK   15  A    between atoms: O7_32  and  C25_33 
ROOT
HETATM    1  C4  UNL     1       0.274  -0.633  -0.478  1.00  0.00    -0.006 C 
HETATM    2  C17 UNL     1       0.168   0.484  -1.474  1.00  0.00     0.016 C 
HETATM    3  C18 UNL     1      -1.211   0.461  -2.092  1.00  0.00     0.040 C 
HETATM    4  C19 UNL     1      -2.030  -0.418  -1.218  1.00  0.00     0.073 C 
HETATM    5  C20 UNL     1      -3.289   0.306  -0.832  1.00  0.00    -0.008 C 
HETATM    6  C21 UNL     1      -4.200   0.136  -2.067  1.00  0.00     0.019 C 
HETATM    7  C22 UNL     1      -3.164   1.769  -0.626  1.00  0.00     0.015 C 
HETATM    8  C23 UNL     1      -3.939   2.340   0.516  1.00  0.00     0.034 C 
HETATM    9  C24 UNL     1      -5.283   1.784   0.768  1.00  0.00     0.140 C 
HETATM   10  C27 UNL     1      -5.234   0.293   0.800  1.00  0.00    -0.016 C 
HETATM   11  C28 UNL     1      -6.447  -0.270   0.029  1.00  0.00     0.018 C 
HETATM   12  C29 UNL     1      -5.483  -0.226   2.233  1.00  0.00     0.018 C 
HETATM   13  C30 UNL     1      -3.976  -0.369   0.332  1.00  0.00     0.007 C 
HETATM   14  C31 UNL     1      -3.067  -0.712   1.459  1.00  0.00     0.007 C 
HETATM   15  C32 UNL     1      -1.604  -0.412   1.210  1.00  0.00     0.013 C 
HETATM   16  C33 UNL     1      -1.175  -0.943  -0.129  1.00  0.00    -0.003 C 
HETATM   17  C34 UNL     1      -1.342  -2.449  -0.012  1.00  0.00     0.019 C 
ENDROOT
BRANCH   1  18
HETATM   18  C3  UNL     1       0.920  -1.788  -1.255  1.00  0.00     0.189 C 
BRANCH  18  19
HETATM   19  O2  UNL     1       1.124  -2.944  -0.543  1.00  0.00    -0.321 OA
BRANCH  19  20
HETATM   20  C2  UNL     1       1.714  -4.023  -1.182  1.00  0.00     0.254 C 
HETATM   21  C1  UNL     1       1.951  -5.296  -0.445  1.00  0.00     0.126 C 
HETATM   22  O1  UNL     1       2.045  -3.913  -2.384  1.00  0.00    -0.266 OA
ENDBRANCH  19  20
ENDBRANCH  18  19
ENDBRANCH   1  18
BRANCH   1  23
HETATM   23  C5  UNL     1       1.068  -0.254   0.692  1.00  0.00     0.045 C 
BRANCH  23  24
HETATM   24  C6  UNL     1       2.489   0.163   0.627  1.00  0.00     0.133 C 
BRANCH  24  25
HETATM   25  C7  UNL     1       2.881   1.332  -0.148  1.00  0.00     0.037 C 
BRANCH  25  26
HETATM   26  C8  UNL     1       4.324   1.758  -0.167  1.00  0.00    -0.009 C 
HETATM   27  C9  UNL     1       4.927   2.159   1.133  1.00  0.00     0.010 C 
BRANCH  26  28
HETATM   28  C10 UNL     1       5.191   0.766  -0.925  1.00  0.00     0.083 C 
BRANCH  28  29
HETATM   29  C11 UNL     1       6.618   1.179  -0.954  1.00  0.00     0.130 C 
HETATM   30  O3  UNL     1       6.936   2.267  -1.394  1.00  0.00    -0.298 OA
BRANCH  29  31
HETATM   31  C12 UNL     1       7.687   0.257  -0.437  1.00  0.00     0.047 C 
HETATM   32  C13 UNL     1       7.590  -1.032  -1.235  1.00  0.00     0.017 C 
HETATM   33  C14 UNL     1       9.042   0.880  -0.553  1.00  0.00     0.017 C 
ENDBRANCH  29  31
ENDBRANCH  28  29
ENDBRANCH  26  28
ENDBRANCH  25  26
ENDBRANCH  24  25
BRANCH  24  34
HETATM   34  O4  UNL     1       2.905   0.318   1.987  1.00  0.00    -0.316 OA
BRANCH  34  35
HETATM   35  C15 UNL     1       3.756  -0.576   2.577  1.00  0.00     0.255 C 
HETATM   36  C16 UNL     1       4.183  -0.406   3.978  1.00  0.00     0.126 C 
HETATM   37  O5  UNL     1       4.173  -1.544   1.919  1.00  0.00    -0.266 OA
ENDBRANCH  34  35
ENDBRANCH  24  34
ENDBRANCH  23  24
ENDBRANCH   1  23
BRANCH   4  38
HETATM   38  O6  UNL     1      -2.406  -1.534  -2.016  1.00  0.00    -0.388 OA
ATOM     39  H6  UNL     1      -2.930  -2.096  -1.457  1.00  0.00     0.210 HD
ENDBRANCH   4  38
BRANCH   9  40
HETATM   40  O7  UNL     1      -6.331   2.198  -0.029  1.00  0.00    -0.316 OA
BRANCH  40  41
HETATM   41  C25 UNL     1      -7.433   2.870   0.410  1.00  0.00     0.255 C 
HETATM   42  C26 UNL     1      -8.530   3.289  -0.491  1.00  0.00     0.126 C 
HETATM   43  O8  UNL     1      -7.444   3.100   1.614  1.00  0.00    -0.266 OA
ENDBRANCH  40  41
ENDBRANCH   9  40
TORSDOF 15
