REMARK  15 active torsions:
REMARK  status: ('A' for Active; 'I' for Inactive)
REMARK    1  A    between atoms: C2_2  and  C3_3 
REMARK    2  A    between atoms: C2_2  and  C26_33 
REMARK    3  A    between atoms: C3_3  and  C4_4 
REMARK    4  A    between atoms: C4_4  and  C5_5 
REMARK    5  A    between atoms: C5_5  and  O2_7 
REMARK    6  A    between atoms: O2_7  and  C6_8 
REMARK    7  A    between atoms: C16_18  and  O3_19 
REMARK    8  A    between atoms: O3_19  and  C17_20 
REMARK    9  A    between atoms: C17_20  and  C18_22 
REMARK   10  A    between atoms: C18_22  and  C19_23 
REMARK   11  A    between atoms: C24_29  and  O6_31 
REMARK   12  A    between atoms: C26_33  and  C27_34 
REMARK   13  A    between atoms: C26_33  and  C30_37 
REMARK   14  A    between atoms: C31_38  and  C33_40 
REMARK   15  A    between atoms: C33_40  and  O8_42 
ROOT
HETATM    1  C6  UNL     1      -0.088  -2.023  -0.137  1.00  0.00     0.222 C 
HETATM    2  C7  UNL     1      -0.894  -1.366  -1.172  1.00  0.00    -0.054 C 
HETATM    3  C8  UNL     1      -0.179  -0.842  -2.155  1.00  0.00     0.017 C 
HETATM    4  C9  UNL     1      -2.336  -1.137  -1.395  1.00  0.00     0.044 C 
HETATM    5  C10 UNL     1      -2.983  -0.232  -0.386  1.00  0.00     0.029 C 
HETATM    6  C11 UNL     1      -2.121  -0.212   0.827  1.00  0.00     0.134 C 
HETATM    7  C12 UNL     1      -2.471   0.834   1.840  1.00  0.00     0.060 C 
HETATM    8  C13 UNL     1      -3.812   0.710   2.414  1.00  0.00    -0.019 C 
HETATM    9  C14 UNL     1      -5.028   0.534   1.901  1.00  0.00    -0.058 C 
HETATM   10  C15 UNL     1      -6.167   0.455   2.837  1.00  0.00     0.046 C 
HETATM   11  C16 UNL     1      -5.258   0.418   0.437  1.00  0.00     0.168 C 
HETATM   12  C21 UNL     1      -4.393  -0.666  -0.204  1.00  0.00    -0.011 C 
HETATM   13  C22 UNL     1      -4.571  -1.988   0.501  1.00  0.00     0.018 C 
HETATM   14  C23 UNL     1      -4.970  -0.847  -1.602  1.00  0.00     0.018 C 
HETATM   15  O5  UNL     1      -1.970  -1.477   1.319  1.00  0.00    -0.347 OA
HETATM   16  C24 UNL     1      -0.746  -2.056   1.224  1.00  0.00     0.189 C 
HETATM   17  C25 UNL     1       0.159  -1.397   2.278  1.00  0.00     0.082 C 
ENDROOT
BRANCH   1  18
HETATM   18  O2  UNL     1       1.199  -1.514   0.026  1.00  0.00    -0.306 OA
BRANCH  18  19
HETATM   19  C5  UNL     1       2.340  -2.264  -0.110  1.00  0.00     0.259 C 
HETATM   20  O1  UNL     1       2.175  -3.464  -0.397  1.00  0.00    -0.265 OA
BRANCH  19  21
HETATM   21  C4  UNL     1       3.720  -1.648   0.082  1.00  0.00     0.115 C 
BRANCH  21  22
HETATM   22  C3  UNL     1       3.578  -0.199   0.327  1.00  0.00     0.044 C 
BRANCH  22  23
HETATM   23  C2  UNL     1       4.719   0.634   0.633  1.00  0.00    -0.077 C 
HETATM   24  C1  UNL     1       4.682   1.340   1.788  1.00  0.00     0.015 C 
BRANCH  23  25
HETATM   25  C26 UNL     1       5.914   0.877  -0.241  1.00  0.00     0.059 C 
BRANCH  25  26
HETATM   26  C27 UNL     1       6.518   2.181   0.027  1.00  0.00    -0.018 C 
HETATM   27  C28 UNL     1       6.350   3.236  -0.816  1.00  0.00    -0.034 C 
HETATM   28  C29 UNL     1       5.536   3.082  -2.044  1.00  0.00     0.036 C 
ENDBRANCH  25  26
BRANCH  25  29
HETATM   29  C30 UNL     1       6.818  -0.238  -0.394  1.00  0.00    -0.001 C 
HETATM   30  C31 UNL     1       8.072  -0.463  -0.412  1.00  0.00     0.010 C 
HETATM   31  C32 UNL     1       8.402  -1.987  -0.625  1.00  0.00     0.054 C 
BRANCH  30  32
HETATM   32  C33 UNL     1       9.269   0.315  -0.334  1.00  0.00     0.288 C 
HETATM   33  O7  UNL     1       9.377   1.542  -0.232  1.00  0.00    -0.260 OA
BRANCH  32  34
HETATM   34  O8  UNL     1      10.551  -0.334  -0.373  1.00  0.00    -0.323 OA
HETATM   35  C34 UNL     1      11.688   0.490  -0.291  1.00  0.00     0.213 C 
ENDBRANCH  32  34
ENDBRANCH  30  32
ENDBRANCH  25  29
ENDBRANCH  23  25
ENDBRANCH  22  23
ENDBRANCH  21  22
ENDBRANCH  19  21
ENDBRANCH  18  19
ENDBRANCH   1  18
BRANCH  16  36
HETATM   36  O6  UNL     1      -0.904  -3.382   1.703  1.00  0.00    -0.363 OA
ATOM     37  H6  UNL     1      -1.317  -3.403   2.558  1.00  0.00     0.213 HD
ENDBRANCH  16  36
BRANCH  11  38
HETATM   38  O3  UNL     1      -6.590   0.362   0.063  1.00  0.00    -0.311 OA
BRANCH  38  39
HETATM   39  C17 UNL     1      -7.304   1.272  -0.680  1.00  0.00     0.259 C 
HETATM   40  O4  UNL     1      -6.707   2.276  -1.077  1.00  0.00    -0.265 OA
BRANCH  39  41
HETATM   41  C18 UNL     1      -8.734   1.066  -0.998  1.00  0.00     0.111 C 
BRANCH  41  42
HETATM   42  C19 UNL     1      -9.300   2.174  -1.821  1.00  0.00     0.005 C 
HETATM   43  C20 UNL     1     -10.761   1.892  -2.102  1.00  0.00     0.005 C 
ENDBRANCH  41  42
ENDBRANCH  39  41
ENDBRANCH  38  39
ENDBRANCH  11  38
TORSDOF 15
