REMARK  14 active torsions:
REMARK  status: ('A' for Active; 'I' for Inactive)
REMARK    1  A    between atoms: C2_2  and  C4_4 
REMARK    2  A    between atoms: C4_4  and  C5_6 
REMARK    3  A    between atoms: C5_6  and  O2_7 
REMARK    4  A    between atoms: O2_7  and  C6_8 
REMARK    5  A    between atoms: C10_13  and  O4_14 
REMARK    6  A    between atoms: C15_21  and  C17_23 
REMARK    7  A    between atoms: C17_23  and  C18_25 
REMARK    8  A    between atoms: C19_26  and  C21_28 
REMARK    9  A    between atoms: C21_28  and  C22_29 
REMARK   10  A    between atoms: C22_29  and  C23_30 
REMARK   11  A    between atoms: C28_35  and  O7_36 
REMARK   12  A    between atoms: O7_36  and  C29_37 
REMARK   13  A    between atoms: C29_37  and  C30_39 
REMARK   14  A    between atoms: C30_39  and  C31_40 
ROOT
HETATM    1  C5  UNL     1      -4.519  -0.835  -0.671  1.00  0.00     0.136 C 
HETATM    2  C8  UNL     1      -4.269  -1.512  -1.994  1.00  0.00     0.050 C 
HETATM    3  C9  UNL     1      -2.853  -1.910  -2.237  1.00  0.00     0.050 C 
HETATM    4  C10 UNL     1      -1.886  -0.755  -1.999  1.00  0.00     0.125 C 
HETATM    5  C11 UNL     1      -0.543  -1.292  -2.284  1.00  0.00     0.170 C 
HETATM    6  O5  UNL     1      -0.500  -1.834  -3.397  1.00  0.00    -0.294 OA
HETATM    7  C12 UNL     1       0.715  -1.280  -1.463  1.00  0.00     0.031 C 
HETATM    8  C13 UNL     1       1.816  -1.802  -2.411  1.00  0.00     0.024 C 
HETATM    9  C14 UNL     1       0.648  -2.259  -0.355  1.00  0.00     0.024 C 
HETATM   10  C15 UNL     1       1.062   0.120  -1.167  1.00  0.00     0.037 C 
HETATM   11  C16 UNL     1       0.957   0.936  -2.434  1.00  0.00     0.025 C 
HETATM   12  C27 UNL     1       0.222   0.760  -0.098  1.00  0.00     0.051 C 
HETATM   13  C28 UNL     1      -1.206   1.033  -0.465  1.00  0.00     0.140 C 
HETATM   14  C33 UNL     1      -2.065  -0.186  -0.629  1.00  0.00     0.060 C 
HETATM   15  C34 UNL     1      -3.498   0.295  -0.536  1.00  0.00     0.057 C 
ENDROOT
BRANCH  10  16
HETATM   16  C17 UNL     1       2.482   0.184  -0.660  1.00  0.00     0.159 C 
HETATM   17  O6  UNL     1       3.306   0.721  -1.449  1.00  0.00    -0.292 OA
BRANCH  16  18
HETATM   18  C18 UNL     1       2.898  -0.322   0.615  1.00  0.00     0.053 C 
HETATM   19  C19 UNL     1       4.044  -0.366   1.192  1.00  0.00    -0.080 C 
HETATM   20  C20 UNL     1       4.117  -0.990   2.580  1.00  0.00     0.043 C 
BRANCH  19  21
HETATM   21  C21 UNL     1       5.330   0.115   0.693  1.00  0.00     0.037 C 
BRANCH  21  22
HETATM   22  C22 UNL     1       6.360  -1.000   0.588  1.00  0.00     0.031 C 
BRANCH  22  23
HETATM   23  C23 UNL     1       7.646  -0.434   0.077  1.00  0.00    -0.024 C 
HETATM   24  C24 UNL     1       8.771  -0.486   0.760  1.00  0.00    -0.091 C 
HETATM   25  C25 UNL     1      10.003   0.095   0.192  1.00  0.00     0.042 C 
HETATM   26  C26 UNL     1       8.780  -1.127   2.091  1.00  0.00     0.042 C 
ENDBRANCH  22  23
ENDBRANCH  21  22
ENDBRANCH  19  21
ENDBRANCH  16  18
ENDBRANCH  10  16
BRANCH  13  27
HETATM   27  O7  UNL     1      -1.738   1.752   0.660  1.00  0.00    -0.316 OA
BRANCH  27  28
HETATM   28  C29 UNL     1      -2.241   3.008   0.496  1.00  0.00     0.259 C 
HETATM   29  O8  UNL     1      -2.240   3.539  -0.637  1.00  0.00    -0.265 OA
BRANCH  28  30
HETATM   30  C30 UNL     1      -2.798   3.778   1.634  1.00  0.00     0.111 C 
BRANCH  30  31
HETATM   31  C31 UNL     1      -1.868   4.872   2.087  1.00  0.00     0.005 C 
HETATM   32  C32 UNL     1      -1.566   5.877   1.018  1.00  0.00     0.005 C 
ENDBRANCH  30  31
ENDBRANCH  28  30
ENDBRANCH  27  28
ENDBRANCH  13  27
BRANCH   4  33
HETATM   33  O4  UNL     1      -2.214   0.228  -2.926  1.00  0.00    -0.382 OA
ATOM     34  H4  UNL     1      -1.612   0.947  -2.778  1.00  0.00     0.211 HD
ENDBRANCH   4  33
BRANCH   1  35
HETATM   35  C4  UNL     1      -4.493  -1.722   0.479  1.00  0.00     0.189 C 
HETATM   36  O1  UNL     1      -3.749  -2.781   0.359  1.00  0.00    -0.289 OA
BRANCH  35  37
HETATM   37  C2  UNL     1      -5.178  -1.578   1.725  1.00  0.00    -0.022 C 
HETATM   38  C1  UNL     1      -5.930  -0.602   2.152  1.00  0.00     0.022 C 
HETATM   39  C3  UNL     1      -5.074  -2.750   2.706  1.00  0.00     0.051 C 
ENDBRANCH  35  37
ENDBRANCH   1  35
BRANCH   1  40
HETATM   40  O2  UNL     1      -5.754  -0.160  -0.761  1.00  0.00    -0.302 OA
BRANCH  40  41
HETATM   41  C6  UNL     1      -6.981  -0.791  -0.952  1.00  0.00     0.256 C 
HETATM   42  C7  UNL     1      -8.254  -0.044  -1.047  1.00  0.00     0.126 C 
HETATM   43  O3  UNL     1      -6.989  -2.037  -1.044  1.00  0.00    -0.266 OA
ENDBRANCH  40  41
ENDBRANCH   1  40
TORSDOF 14
