REMARK  10 active torsions:
REMARK  status: ('A' for Active; 'I' for Inactive)
REMARK    1  A    between atoms: C1_2  and  C2_4 
REMARK    2  A    between atoms: C2_4  and  C3_5 
REMARK    3  A    between atoms: C3_5  and  N2_6 
REMARK    4  A    between atoms: N2_6  and  C4_8 
REMARK    5  A    between atoms: C7_13  and  N4_14 
REMARK    6  A    between atoms: N4_14  and  C8_16 
REMARK    7  A    between atoms: C8_16  and  C9_17 
REMARK    8  A    between atoms: C9_17  and  C10_18 
REMARK    9  A    between atoms: C10_18  and  C11_19 
REMARK   10  A    between atoms: C11_19  and  N5_20 
ROOT
HETATM    1  C4  UNL     1       2.448  -0.455   0.743  1.00  0.00     0.679 A 
HETATM    2  N3  UNL     1       2.318   0.680   1.437  1.00  0.00    -0.202 N 
ATOM      3  H3  UNL     1       2.963   0.861   2.206  1.00  0.00     0.183 HD
HETATM    4  C5  UNL     1       1.355   1.606   1.155  1.00  0.00     0.110 A 
HETATM    5  C6  UNL     1       0.507   1.315   0.107  1.00  0.00     0.066 A 
HETATM    6  C7  UNL     1       0.617   0.170  -0.615  1.00  0.00     0.118 A 
HETATM    7  N8  UNL     1       1.600  -0.693  -0.268  1.00  0.00    -0.177 N 
ATOM      8  H8  UNL     1       1.700  -1.559  -0.797  1.00  0.00     0.185 HD
ENDROOT
BRANCH   6   9
HETATM    9  N4  UNL     1      -0.126  -0.150  -1.581  1.00  0.00    -0.376 N 
ATOM     10  H4  UNL     1       0.092  -1.047  -2.014  1.00  0.00     0.161 HD
BRANCH   9  11
HETATM   11  C8  UNL     1      -1.218   0.545  -2.158  1.00  0.00     0.121 C 
BRANCH  11  12
HETATM   12  C9  UNL     1      -2.503  -0.272  -2.158  1.00  0.00     0.021 C 
BRANCH  12  13
HETATM   13  C10 UNL     1      -2.886  -0.627  -0.736  1.00  0.00     0.021 C 
BRANCH  13  14
HETATM   14  C11 UNL     1      -4.165  -1.442  -0.706  1.00  0.00     0.122 C 
BRANCH  14  15
HETATM   15  N5  UNL     1      -5.264  -0.702  -1.293  1.00  0.00    -0.367 N 
HETATM   16  C12 UNL     1      -5.988   0.038  -0.537  1.00  0.00     0.196 C 
HETATM   17  N6  UNL     1      -5.726   0.139   0.861  1.00  0.00    -0.067 NA
HETATM   18  N7  UNL     1      -7.052   0.746  -1.149  1.00  0.00    -0.067 NA
ATOM     19  H5  UNL     1      -5.458  -0.769  -2.292  1.00  0.00     0.161 HD
ENDBRANCH  14  15
ENDBRANCH  13  14
ENDBRANCH  12  13
ENDBRANCH  11  12
ENDBRANCH   9  11
ENDBRANCH   6   9
BRANCH   1  20
HETATM   20  N2  UNL     1       3.386  -1.276   1.076  1.00  0.00    -0.226 N 
ATOM     21  H2  UNL     1       3.480  -2.141   0.543  1.00  0.00     0.177 HD
BRANCH  20  22
HETATM   22  C3  UNL     1       4.307  -1.041   2.156  1.00  0.00     0.147 C 
BRANCH  22  23
HETATM   23  C2  UNL     1       5.484  -0.182   1.751  1.00  0.00     0.119 C 
BRANCH  23  24
HETATM   24  C1  UNL     1       6.218  -0.862   0.661  1.00  0.00     0.232 C 
HETATM   25  N1  UNL     1       7.368  -0.208   0.137  1.00  0.00    -0.062 NA
HETATM   26  O1  UNL     1       5.836  -1.976   0.218  1.00  0.00    -0.277 OA
ENDBRANCH  23  24
ENDBRANCH  22  23
ENDBRANCH  20  22
ENDBRANCH   1  20
TORSDOF 10
