REMARK  10 active torsions:
REMARK  status: ('A' for Active; 'I' for Inactive)
REMARK    1  A    between atoms: N1_2  and  C2_3 
REMARK    2  A    between atoms: N1_2  and  C7_13 
REMARK    3  A    between atoms: C2_3  and  O1_4 
REMARK    4  A    between atoms: O1_4  and  C3_5 
REMARK    5  A    between atoms: C3_5  and  C4_6 
REMARK    6  A    between atoms: C4_6  and  C5_7 
REMARK    7  A    between atoms: C5_7  and  C6_8 
REMARK    8  A    between atoms: C6_8  and  N2_9 
REMARK    9  A    between atoms: C7_13  and  C8_14 
REMARK   10  A    between atoms: C11_18  and  N4_19 
REMARK       I    between atoms: N4_19  and  C12_21 
ROOT
HETATM    1  C8  UNL     1      -1.540   0.399   0.334  1.00  0.00     0.148 A 
HETATM    2  C9  UNL     1      -2.398   1.357  -0.405  1.00  0.00     0.028 A 
HETATM    3  C10 UNL     1      -3.457   1.066  -1.094  1.00  0.00     0.054 A 
HETATM    4  N3  UNL     1      -4.134   2.167  -1.730  1.00  0.00    -0.105 NA
HETATM    5  C11 UNL     1      -3.967  -0.300  -1.244  1.00  0.00     0.223 A 
HETATM    6  C13 UNL     1      -3.217  -1.285  -0.470  1.00  0.00     0.246 A 
HETATM    7  O2  UNL     1      -3.622  -2.475  -0.438  1.00  0.00    -0.271 OA
HETATM    8  N7  UNL     1      -2.045  -0.943   0.251  1.00  0.00    -0.347 N 
ATOM      9  H7  UNL     1      -1.537  -1.684   0.733  1.00  0.00     0.163 HD
ENDROOT
BRANCH   1  10
HETATM   10  C7  UNL     1      -0.120   0.509  -0.178  1.00  0.00     0.094 C 
BRANCH  10  11
HETATM   11  N1  UNL     1       0.806  -0.343   0.442  1.00  0.00    -0.354 N 
HETATM   12  C1  UNL     1       1.156  -0.127   1.790  1.00  0.00     0.156 C 
BRANCH  11  13
HETATM   13  C2  UNL     1       1.207  -1.535  -0.186  1.00  0.00     0.227 C 
BRANCH  13  14
HETATM   14  O1  UNL     1       2.621  -1.641  -0.183  1.00  0.00    -0.346 OA
BRANCH  14  15
HETATM   15  C3  UNL     1       3.063  -0.535  -0.922  1.00  0.00     0.176 C 
BRANCH  15  16
HETATM   16  C4  UNL     1       4.575  -0.493  -0.979  1.00  0.00     0.028 C 
BRANCH  16  17
HETATM   17  C5  UNL     1       5.168  -0.377   0.409  1.00  0.00     0.029 C 
BRANCH  17  18
HETATM   18  C6  UNL     1       6.658  -0.337   0.402  1.00  0.00     0.230 C 
BRANCH  18  19
HETATM   19  N2  UNL     1       7.209   0.758  -0.338  1.00  0.00    -0.079 N 
ATOM     20  H23 UNL     1       6.846   0.764  -1.291  1.00  0.00     0.274 HD
ATOM     21  H22 UNL     1       6.829   1.643  -0.003  1.00  0.00     0.274 HD
ATOM     22  H21 UNL     1       8.229   0.785  -0.343  1.00  0.00     0.274 HD
ENDBRANCH  18  19
ENDBRANCH  17  18
ENDBRANCH  16  17
ENDBRANCH  15  16
ENDBRANCH  14  15
ENDBRANCH  13  14
ENDBRANCH  11  13
ENDBRANCH  10  11
ENDBRANCH   1  10
BRANCH   5  23
HETATM   23  N4  UNL     1      -5.395  -0.342  -0.902  1.00  0.00    -0.347 N 
HETATM   24  C12 UNL     1      -5.760   0.024   0.417  1.00  0.00     0.182 C 
HETATM   25  N5  UNL     1      -5.082  -0.513   1.397  1.00  0.00    -0.374 N 
HETATM   26  N6  UNL     1      -6.806   0.926   0.704  1.00  0.00    -0.064 NA
ATOM     27  H52 UNL     1      -4.326  -1.165   1.189  1.00  0.00     0.158 HD
ATOM     28  H51 UNL     1      -5.345  -0.249   2.347  1.00  0.00     0.158 HD
ATOM     29  H4  UNL     1      -6.096  -0.624  -1.587  1.00  0.00     0.163 HD
ENDBRANCH   5  23
TORSDOF 10
