REMARK  12 active torsions:
REMARK  status: ('A' for Active; 'I' for Inactive)
REMARK    1  A    between atoms: N1_2  and  C3_4 
REMARK    2  A    between atoms: N1_2  and  C4_7 
REMARK    3  A    between atoms: C3_4  and  O1_5 
REMARK    4  A    between atoms: C4_7  and  C5_8 
REMARK    5  A    between atoms: C5_8  and  N2_9 
REMARK    6  A    between atoms: N2_9  and  C7_12 
REMARK    7  A    between atoms: C7_12  and  N3_13 
REMARK    8  A    between atoms: N3_13  and  C8_15 
REMARK    9  A    between atoms: C8_15  and  C9_16 
REMARK   10  A    between atoms: C9_16  and  N4_17 
REMARK   11  A    between atoms: N4_17  and  C10_19 
REMARK   12  A    between atoms: C13_24  and  N6_25 
ROOT
HETATM    1  C8  UNL     1       2.362   1.048   0.536  1.00  0.00     0.077 C 
ENDROOT
BRANCH   1   2
HETATM    2  N3  UNL     1       1.205   0.298   0.829  1.00  0.00    -0.372 N 
ATOM      3  H3  UNL     1       1.250  -0.514   1.444  1.00  0.00     0.160 HD
BRANCH   2   4
HETATM    4  C7  UNL     1      -0.023   0.702   0.246  1.00  0.00     0.434 C 
BRANCH   4   5
HETATM    5  N2  UNL     1      -1.125  -0.157   0.650  1.00  0.00     0.027 N 
HETATM    6  C6  UNL     1      -1.269  -0.157   2.101  1.00  0.00     0.358 C 
HETATM    7  O2  UNL     1      -0.835  -1.404   0.175  1.00  0.00    -0.063 OA
BRANCH   5   8
HETATM    8  C5  UNL     1      -2.390   0.229   0.065  1.00  0.00     0.341 C 
BRANCH   8   9
HETATM    9  C4  UNL     1      -3.429  -0.740   0.581  1.00  0.00     0.275 C 
BRANCH   9  10
HETATM   10  N1  UNL     1      -4.750  -0.536   0.102  1.00  0.00    -0.052 N 
HETATM   11  C1  UNL     1      -5.022  -1.459  -1.014  1.00  0.00     0.274 C 
HETATM   12  C2  UNL     1      -5.081   0.780  -0.343  1.00  0.00     0.274 C 
BRANCH  10  13
HETATM   13  C3  UNL     1      -5.669  -0.983   1.165  1.00  0.00     0.400 C 
BRANCH  13  14
HETATM   14  O1  UNL     1      -5.995  -2.329   0.994  1.00  0.00    -0.374 OA
ATOM     15  H1  UNL     1      -6.587  -2.617   1.679  1.00  0.00     0.211 HD
ENDBRANCH  13  14
ENDBRANCH  10  13
ENDBRANCH   9  10
ENDBRANCH   8   9
ENDBRANCH   5   8
ENDBRANCH   4   5
ENDBRANCH   2   4
ENDBRANCH   1   2
BRANCH   1  16
HETATM   16  C9  UNL     1       2.790   0.913  -0.910  1.00  0.00     0.182 C 
BRANCH  16  17
HETATM   17  N4  UNL     1       4.006   1.698  -1.056  1.00  0.00    -0.221 N 
ATOM     18  H4  UNL     1       3.925   2.661  -1.381  1.00  0.00     0.178 HD
BRANCH  17  19
HETATM   19  C10 UNL     1       5.162   1.244  -0.799  1.00  0.00     0.679 A 
HETATM   20  N5  UNL     1       6.246   2.011  -0.952  1.00  0.00    -0.202 N 
HETATM   21  C11 UNL     1       7.493   1.564  -0.685  1.00  0.00     0.110 A 
ATOM     22  H5  UNL     1       6.128   2.969  -1.282  1.00  0.00     0.183 HD
HETATM   23  C12 UNL     1       7.645   0.268  -0.239  1.00  0.00     0.066 A 
HETATM   24  C13 UNL     1       6.536  -0.538  -0.075  1.00  0.00     0.116 A 
HETATM   25  N7  UNL     1       5.316  -0.012  -0.365  1.00  0.00    -0.177 N 
ATOM     26  H7  UNL     1       4.488  -0.596  -0.247  1.00  0.00     0.185 HD
BRANCH  24  27
HETATM   27  N6  UNL     1       6.678  -1.751   0.345  1.00  0.00    -0.385 N 
ATOM     28  H62 UNL     1       7.593  -2.146   0.563  1.00  0.00     0.157 HD
ATOM     29  H61 UNL     1       5.859  -2.346   0.466  1.00  0.00     0.157 HD
ENDBRANCH  24  27
ENDBRANCH  17  19
ENDBRANCH  16  17
ENDBRANCH   1  16
TORSDOF 12
