REMARK  9 active torsions:
REMARK  status: ('A' for Active; 'I' for Inactive)
REMARK    1  A    between atoms: N3_4  and  C2_6 
REMARK    2  A    between atoms: C2_6  and  C3_7 
REMARK    3  A    between atoms: C3_7  and  C4_8 
REMARK    4  A    between atoms: C4_8  and  C5_9 
REMARK    5  A    between atoms: N6_19  and  C10_20 
REMARK    6  A    between atoms: C10_20  and  C11_21 
REMARK    7  A    between atoms: C11_21  and  C12_22 
REMARK    8  A    between atoms: C12_22  and  N7_23 
REMARK    9  A    between atoms: N7_23  and  C13_24 
ROOT
HETATM    1  C5  UNL     1      -0.282  -0.521  -0.667  1.00  0.00     0.181 C 
HETATM    2  C6  UNL     1       0.001  -1.565  -1.728  1.00  0.00     0.240 C 
HETATM    3  O1  UNL     1       0.297  -1.062  -2.827  1.00  0.00    -0.271 OA
HETATM    4  N4  UNL     1       0.012  -2.985  -1.762  1.00  0.00    -0.358 N 
ATOM      5  H4  UNL     1       0.782  -3.348  -2.325  1.00  0.00     0.162 HD
HETATM    6  C7  UNL     1      -0.786  -4.035  -1.205  1.00  0.00     0.142 C 
HETATM    7  C8  UNL     1      -0.787  -4.123   0.301  1.00  0.00     0.140 C 
HETATM    8  N5  UNL     1      -0.420  -2.842   0.797  1.00  0.00    -0.384 N 
ATOM      9  H5  UNL     1       0.527  -2.586   1.077  1.00  0.00     0.160 HD
HETATM   10  C9  UNL     1      -1.521  -1.973   0.854  1.00  0.00     0.178 C 
HETATM   11  N6  UNL     1      -1.478  -0.822  -0.006  1.00  0.00    -0.343 N 
ENDROOT
BRANCH   1  12
HETATM   12  C4  UNL     1       0.957  -0.288   0.155  1.00  0.00     0.037 C 
BRANCH  12  13
HETATM   13  C3  UNL     1       2.070   0.123  -0.797  1.00  0.00     0.022 C 
BRANCH  13  14
HETATM   14  C2  UNL     1       3.372   0.368  -0.145  1.00  0.00     0.122 C 
BRANCH  14  15
HETATM   15  N3  UNL     1       3.484   1.416   0.800  1.00  0.00    -0.367 N 
HETATM   16  C1  UNL     1       4.409   2.330   0.621  1.00  0.00     0.196 C 
HETATM   17  N1  UNL     1       5.258   2.236  -0.510  1.00  0.00    -0.067 NA
HETATM   18  N2  UNL     1       4.591   3.416   1.489  1.00  0.00    -0.067 NA
ATOM     19  H3  UNL     1       2.858   1.460   1.604  1.00  0.00     0.161 HD
ENDBRANCH  14  15
ENDBRANCH  13  14
ENDBRANCH  12  13
ENDBRANCH   1  12
BRANCH  11  20
HETATM   20  C10 UNL     1      -2.496   0.099   0.177  1.00  0.00     0.068 C 
BRANCH  20  21
HETATM   21  C11 UNL     1      -2.295   1.112   1.279  1.00  0.00     0.078 C 
BRANCH  21  22
HETATM   22  C12 UNL     1      -3.578   2.014   1.268  1.00  0.00     0.226 C 
BRANCH  22  23
HETATM   23  N7  UNL     1      -3.637   2.757   0.111  1.00  0.00    -0.423 NA
BRANCH  23  24
HETATM   24  C13 UNL     1      -3.702   3.485  -1.016  1.00  0.00     0.435 C 
HETATM   25  O2  UNL     1      -4.585   4.249  -1.511  1.00  0.00    -0.269 OA
ENDBRANCH  23  24
ENDBRANCH  22  23
ENDBRANCH  21  22
ENDBRANCH  20  21
ENDBRANCH  11  20
TORSDOF 9
