REMARK  9 active torsions:
REMARK  status: ('A' for Active; 'I' for Inactive)
REMARK    1  A    between atoms: N1_1  and  C1_5 
REMARK    2  A    between atoms: C1_5  and  C2_6 
REMARK    3  A    between atoms: C5_12  and  N3_13 
REMARK    4  A    between atoms: N3_13  and  C6_16 
REMARK    5  A    between atoms: C6_16  and  C7_17 
REMARK    6  A    between atoms: C6_16  and  C8_19 
REMARK    7  A    between atoms: C8_19  and  C9_20 
REMARK    8  A    between atoms: C9_20  and  C10_21 
REMARK    9  A    between atoms: C10_21  and  N4_22 
ROOT
HETATM    1  C2  UNL     1       4.565   0.118  -0.011  1.00  0.00     0.043 C 
HETATM    2  C3  UNL     1       4.181   1.357  -0.838  1.00  0.00     0.239 C 
HETATM    3  N2  UNL     1       2.771   1.629  -0.517  1.00  0.00    -0.068 N 
ATOM      4  H21 UNL     1       2.112   1.374  -1.252  1.00  0.00     0.277 HD
ATOM      5  H22 UNL     1       2.525   2.619  -0.494  1.00  0.00     0.277 HD
HETATM    6  C4  UNL     1       2.581   0.953   0.696  1.00  0.00     0.220 C 
HETATM    7  C5  UNL     1       1.250   0.506   1.097  1.00  0.00     0.217 C 
HETATM    8  C12 UNL     1       1.562  -0.756   1.920  1.00  0.00     0.036 C 
HETATM    9  C13 UNL     1       3.024  -1.105   1.600  1.00  0.00     0.009 C 
HETATM   10  C14 UNL     1       3.222  -0.405   0.323  1.00  0.00     0.025 C 
ENDROOT
BRANCH   7  11
HETATM   11  N3  UNL     1       0.346   0.211   0.014  1.00  0.00    -0.059 N 
ATOM     12  H32 UNL     1       0.392   0.894  -0.742  1.00  0.00     0.278 HD
ATOM     13  H31 UNL     1       0.627  -0.605  -0.530  1.00  0.00     0.278 HD
BRANCH  11  14
HETATM   14  C6  UNL     1      -1.032   0.079   0.608  1.00  0.00     0.247 C 
BRANCH  14  15
HETATM   15  C7  UNL     1      -1.397   1.372   1.196  1.00  0.00     0.264 C 
HETATM   16  O1  UNL     1      -1.044   2.402   0.652  1.00  0.00    -0.305 OA
ENDBRANCH  14  15
BRANCH  14  17
HETATM   17  C8  UNL     1      -1.958  -0.329  -0.494  1.00  0.00     0.042 C 
BRANCH  17  18
HETATM   18  C9  UNL     1      -3.383  -0.559  -0.200  1.00  0.00     0.022 C 
BRANCH  18  19
HETATM   19  C10 UNL     1      -4.214   0.554   0.316  1.00  0.00     0.122 C 
BRANCH  19  20
HETATM   20  N4  UNL     1      -5.587  -0.008   0.443  1.00  0.00    -0.367 N 
HETATM   21  C11 UNL     1      -6.361  -0.055  -0.589  1.00  0.00     0.196 C 
HETATM   22  N5  UNL     1      -7.660  -0.606  -0.388  1.00  0.00    -0.067 NA
HETATM   23  N6  UNL     1      -5.980   0.405  -1.875  1.00  0.00    -0.067 NA
ATOM     24  H4  UNL     1      -5.915  -0.355   1.344  1.00  0.00     0.161 HD
ENDBRANCH  19  20
ENDBRANCH  18  19
ENDBRANCH  17  18
ENDBRANCH  14  17
ENDBRANCH  11  14
ENDBRANCH   7  11
BRANCH   1  25
HETATM   25  C1  UNL     1       5.438  -0.808  -0.809  1.00  0.00     0.236 C 
BRANCH  25  26
HETATM   26  N1  UNL     1       4.806  -1.281  -1.998  1.00  0.00    -0.079 N 
ATOM     27  H13 UNL     1       3.909  -1.718  -1.785  1.00  0.00     0.274 HD
ATOM     28  H12 UNL     1       4.480  -0.503  -2.571  1.00  0.00     0.274 HD
ATOM     29  H11 UNL     1       5.399  -1.910  -2.540  1.00  0.00     0.274 HD
ENDBRANCH  25  26
ENDBRANCH   1  25
TORSDOF 9
