REMARK  5 active torsions:
REMARK  status: ('A' for Active; 'I' for Inactive)
REMARK    1  A    between atoms: N1_22  and  C20_23 
REMARK    2  A    between atoms: C20_23  and  C21_24 
REMARK    3  A    between atoms: C27_30  and  C28_31 
REMARK       I    between atoms: C28_31  and  N2_33 
REMARK    4  A    between atoms: N2_33  and  C29_35 
REMARK    5  A    between atoms: C29_35  and  C30_36 
ROOT
HETATM    1  C1  UNL     1      -0.519   3.650   0.783  1.00  0.00     0.018 C 
HETATM    2  C2  UNL     1      -0.725   2.208   1.099  1.00  0.00    -0.002 C 
HETATM    3  C3  UNL     1      -1.280   2.138   2.530  1.00  0.00     0.018 C 
HETATM    4  C4  UNL     1       0.545   1.401   1.013  1.00  0.00     0.036 C 
HETATM    5  C5  UNL     1       1.750   2.162   0.604  1.00  0.00     0.086 C 
HETATM    6  C6  UNL     1       2.699   1.296  -0.132  1.00  0.00     0.137 C 
HETATM    7  O1  UNL     1       3.818   1.783  -0.292  1.00  0.00    -0.297 OA
HETATM    8  C7  UNL     1       2.464  -0.045  -0.681  1.00  0.00     0.033 C 
HETATM    9  C8  UNL     1       2.358  -0.004  -2.216  1.00  0.00     0.025 C 
HETATM   10  C9  UNL     1       1.193  -0.693  -0.121  1.00  0.00     0.036 C 
HETATM   11  C10 UNL     1       1.396  -1.468   1.100  1.00  0.00     0.008 C 
HETATM   12  C11 UNL     1       2.717  -1.564   1.748  1.00  0.00     0.006 C 
HETATM   13  C12 UNL     1       3.853  -0.880   1.087  1.00  0.00     0.006 C 
HETATM   14  C13 UNL     1       5.149  -1.617   1.441  1.00  0.00     0.088 C 
HETATM   15  C14 UNL     1       5.287  -2.829   0.585  1.00  0.00     0.149 C 
HETATM   16  O2  UNL     1       6.345  -3.493   0.689  1.00  0.00    -0.293 OA
HETATM   17  C15 UNL     1       4.243  -3.242  -0.344  1.00  0.00     0.047 C 
HETATM   18  C16 UNL     1       3.444  -2.314  -0.826  1.00  0.00    -0.012 C 
HETATM   19  C17 UNL     1       3.666  -0.911  -0.388  1.00  0.00    -0.008 C 
HETATM   20  C18 UNL     1       4.882  -0.421  -1.128  1.00  0.00     0.021 C 
HETATM   21  C19 UNL     1       0.206   0.436  -0.074  1.00  0.00     0.234 C 
HETATM   22  N1  UNL     1      -1.171   0.179  -0.092  1.00  0.00     0.108 N 
HETATM   23  C27 UNL     1      -1.728   1.495   0.224  1.00  0.00     0.322 C 
ENDROOT
BRANCH  22  24
HETATM   24  C20 UNL     1      -1.688  -0.874   0.694  1.00  0.00     0.278 C 
BRANCH  24  25
HETATM   25  C21 UNL     1      -3.160  -1.077   0.415  1.00  0.00     0.014 C 
HETATM   26  C22 UNL     1      -3.417  -1.427  -1.057  1.00  0.00     0.006 C 
HETATM   27  C23 UNL     1      -3.195  -2.903  -1.209  1.00  0.00     0.000 C 
HETATM   28  C24 UNL     1      -4.367  -3.709  -0.640  1.00  0.00     0.000 C 
HETATM   29  C25 UNL     1      -4.896  -2.895   0.529  1.00  0.00     0.000 C 
HETATM   30  C26 UNL     1      -3.702  -2.270   1.205  1.00  0.00     0.006 C 
ENDBRANCH  24  25
ENDBRANCH  22  24
BRANCH  23  31
HETATM   31  C28 UNL     1      -2.000   2.185  -1.060  1.00  0.00     0.252 C 
HETATM   32  O3  UNL     1      -1.628   1.725  -2.193  1.00  0.00    -0.271 OA
HETATM   33  N2  UNL     1      -2.706   3.424  -1.141  1.00  0.00    -0.353 N 
ATOM     34  H2  UNL     1      -3.033   3.842  -0.270  1.00  0.00     0.162 HD
BRANCH  33  35
HETATM   35  C29 UNL     1      -2.985   4.117  -2.355  1.00  0.00     0.192 C 
BRANCH  35  36
HETATM   36  C30 UNL     1      -3.735   5.363  -2.074  1.00  0.00     0.250 C 
HETATM   37  O4  UNL     1      -4.013   5.652  -0.932  1.00  0.00    -0.305 OA
ENDBRANCH  35  36
ENDBRANCH  33  35
ENDBRANCH  23  31
TORSDOF 5
