REMARK  7 active torsions:
REMARK  status: ('A' for Active; 'I' for Inactive)
REMARK    1  A    between atoms: C4_5  and  C5_6 
REMARK    2  A    between atoms: C5_6  and  N1_7 
REMARK    3  A    between atoms: N2_10  and  C8_11 
REMARK    4  A    between atoms: C8_11  and  C9_12 
REMARK    5  A    between atoms: N3_15  and  C12_16 
REMARK    6  A    between atoms: C12_16  and  C13_17 
REMARK    7  A    between atoms: C24_28  and  O2_29 
ROOT
HETATM    1  N1  UNL     1      -1.034   0.306   0.354  1.00  0.00     0.095 N 
HETATM    2  C6  UNL     1      -0.250   0.522   1.601  1.00  0.00     0.293 C 
HETATM    3  C7  UNL     1       1.130   0.994   1.131  1.00  0.00     0.157 C 
HETATM    4  N2  UNL     1       1.847  -0.181   0.760  1.00  0.00    -0.370 N 
HETATM    5  C20 UNL     1       0.988  -1.158   0.251  1.00  0.00     0.093 C 
HETATM    6  C21 UNL     1      -0.317  -0.697  -0.355  1.00  0.00     0.317 C 
ENDROOT
BRANCH   1   7
HETATM    7  C5  UNL     1      -2.381   0.058   0.720  1.00  0.00     0.282 C 
BRANCH   7   8
HETATM    8  C4  UNL     1      -3.460   0.160  -0.309  1.00  0.00    -0.008 C 
HETATM    9  C3  UNL     1      -3.221  -0.840  -1.406  1.00  0.00     0.019 C 
HETATM   10  C2  UNL     1      -4.453  -0.995  -2.312  1.00  0.00     0.080 C 
HETATM   11  C1  UNL     1      -5.478   0.035  -2.041  1.00  0.00     0.139 C 
HETATM   12  O1  UNL     1      -5.995   0.677  -2.937  1.00  0.00    -0.297 OA
HETATM   13  C30 UNL     1      -5.883   0.290  -0.650  1.00  0.00     0.056 C 
HETATM   14  C24 UNL     1      -5.867   1.756  -0.276  1.00  0.00     0.073 C 
HETATM   15  C29 UNL     1      -7.225  -0.258  -0.284  1.00  0.00     0.021 C 
HETATM   16  C31 UNL     1      -4.796  -0.228   0.262  1.00  0.00     0.019 C 
HETATM   17  C23 UNL     1      -4.600   2.405  -0.732  1.00  0.00     0.040 C 
HETATM   18  C25 UNL     1      -5.831   1.727   1.250  1.00  0.00     0.044 C 
HETATM   19  C22 UNL     1      -3.455   1.516  -0.969  1.00  0.00     0.014 C 
HETATM   20  C26 UNL     1      -5.193   0.377   1.549  1.00  0.00    -0.006 C 
HETATM   21  C27 UNL     1      -6.355  -0.477   2.086  1.00  0.00     0.005 C 
HETATM   22  C28 UNL     1      -7.260  -0.980   1.022  1.00  0.00     0.002 C 
BRANCH  14  23
HETATM   23  O2  UNL     1      -7.019   2.404  -0.658  1.00  0.00    -0.389 OA
ATOM     24  H2  UNL     1      -7.824   1.992  -0.368  1.00  0.00     0.210 HD
ENDBRANCH  14  23
ENDBRANCH   7   8
ENDBRANCH   1   7
BRANCH   4  25
HETATM   25  C8  UNL     1       3.077   0.100   0.155  1.00  0.00     0.069 C 
BRANCH  25  26
HETATM   26  C9  UNL     1       3.881  -1.114  -0.245  1.00  0.00     0.054 C 
HETATM   27  C10 UNL     1       4.202  -1.997   0.928  1.00  0.00     0.042 C 
HETATM   28  C11 UNL     1       5.482  -1.453   1.455  1.00  0.00     0.273 C 
HETATM   29  N3  UNL     1       6.102  -0.632   0.439  1.00  0.00     0.093 N 
HETATM   30  C19 UNL     1       5.250  -0.607  -0.704  1.00  0.00     0.282 C 
BRANCH  29  31
HETATM   31  C12 UNL     1       7.450  -1.065   0.158  1.00  0.00     0.311 C 
BRANCH  31  32
HETATM   32  C13 UNL     1       8.156  -0.251  -0.851  1.00  0.00    -0.030 A 
HETATM   33  C14 UNL     1       8.540   1.062  -0.586  1.00  0.00     0.009 A 
HETATM   34  C15 UNL     1       9.216   1.834  -1.501  1.00  0.00     0.001 A 
HETATM   35  C16 UNL     1       9.541   1.334  -2.726  1.00  0.00     0.000 A 
HETATM   36  C17 UNL     1       9.185   0.042  -3.038  1.00  0.00     0.001 A 
HETATM   37  C18 UNL     1       8.504  -0.729  -2.112  1.00  0.00     0.009 A 
ENDBRANCH  31  32
ENDBRANCH  29  31
ENDBRANCH  25  26
ENDBRANCH   4  25
TORSDOF 7
