REMARK  6 active torsions:
REMARK  status: ('A' for Active; 'I' for Inactive)
REMARK    1  A    between atoms: C6_6  and  C7_7 
REMARK    2  A    between atoms: C7_7  and  C8_8 
REMARK    3  A    between atoms: C8_8  and  C9_9 
REMARK       I    between atoms: C9_9  and  N1_11 
REMARK    4  A    between atoms: N2_15  and  C13_16 
REMARK    5  A    between atoms: C13_16  and  C14_17 
REMARK    6  A    between atoms: C28_31  and  O2_32 
ROOT
HETATM    1  C7  UNL     1       1.644  -2.191   0.409  1.00  0.00     0.015 C 
ENDROOT
BRANCH   1   2
HETATM    2  C6  UNL     1       2.946  -1.656   0.788  1.00  0.00     0.001 C 
HETATM    3  C5  UNL     1       3.054  -0.889   2.093  1.00  0.00     0.036 A 
HETATM    4  C4  UNL     1       4.144   0.013   2.432  1.00  0.00     0.032 A 
HETATM    5  C29 UNL     1       3.385   0.253   1.268  1.00  0.00     0.109 A 
HETATM    6  C3  UNL     1       5.591  -0.288   2.311  1.00  0.00     0.015 C 
HETATM    7  C2  UNL     1       6.475   0.768   1.791  1.00  0.00     0.011 C 
HETATM    8  C1  UNL     1       7.719   0.092   1.203  1.00  0.00     0.012 C 
HETATM    9  C28 UNL     1       5.917   1.801   0.900  1.00  0.00     0.124 C 
HETATM   10  C27 UNL     1       5.570   1.402  -0.491  1.00  0.00     0.073 C 
HETATM   11  C25 UNL     1       4.097   1.503  -0.806  1.00  0.00     0.095 C 
HETATM   12  C24 UNL     1       3.460   0.119  -1.086  1.00  0.00     0.049 C 
HETATM   13  C26 UNL     1       3.821   2.299  -2.067  1.00  0.00     0.049 C 
HETATM   14  O3  UNL     1       3.446   2.165   0.219  1.00  0.00    -0.229 OA
HETATM   15  C23 UNL     1       3.728  -0.657   0.124  1.00  0.00     0.032 C 
HETATM   16  O4  UNL     1       2.744   1.375   1.000  1.00  0.00    -0.228 OA
BRANCH   9  17
HETATM   17  O2  UNL     1       6.897   2.822   0.836  1.00  0.00    -0.395 OA
ATOM     18  H2  UNL     1       6.537   3.488   0.262  1.00  0.00     0.210 HD
ENDBRANCH   9  17
ENDBRANCH   1   2
BRANCH   1  19
HETATM   19  C8  UNL     1       0.460  -1.341   0.234  1.00  0.00     0.103 C 
BRANCH  19  20
HETATM   20  C9  UNL     1      -0.765  -2.133  -0.134  1.00  0.00     0.220 C 
HETATM   21  O1  UNL     1      -0.611  -3.379  -0.223  1.00  0.00    -0.273 OA
HETATM   22  N1  UNL     1      -2.015  -1.516  -0.365  1.00  0.00    -0.342 N 
HETATM   23  C10 UNL     1      -2.198  -0.083  -0.262  1.00  0.00     0.094 C 
HETATM   24  C21 UNL     1      -3.129  -2.360  -0.715  1.00  0.00     0.089 C 
HETATM   25  C11 UNL     1      -2.825   0.282   1.051  1.00  0.00     0.070 C 
HETATM   26  C18 UNL     1      -3.070   0.292  -1.446  1.00  0.00     0.051 C 
HETATM   27  C12 UNL     1      -4.141   0.986   0.935  1.00  0.00     0.065 C 
HETATM   28  N2  UNL     1      -4.978   0.613  -0.111  1.00  0.00    -0.368 N 
HETATM   29  C17 UNL     1      -4.445  -0.249  -1.119  1.00  0.00     0.095 C 
HETATM   30  C19 UNL     1      -4.450  -1.671  -0.698  1.00  0.00     0.027 C 
HETATM   31  C20 UNL     1      -5.406  -2.456  -1.565  1.00  0.00     0.014 C 
HETATM   32  C22 UNL     1      -2.790  -3.017  -2.032  1.00  0.00     0.033 C 
BRANCH  28  33
HETATM   33  C13 UNL     1      -6.376   0.674   0.017  1.00  0.00     0.068 C 
BRANCH  33  34
HETATM   34  C14 UNL     1      -7.019   2.008   0.112  1.00  0.00     0.024 A 
HETATM   35  C15 UNL     1      -6.749   2.995   1.176  1.00  0.00     0.010 A 
HETATM   36  C16 UNL     1      -7.994   2.193   1.261  1.00  0.00     0.010 A 
ENDBRANCH  33  34
ENDBRANCH  28  33
ENDBRANCH  19  20
ENDBRANCH   1  19
TORSDOF 6
