REMARK  9 active torsions:
REMARK  status: ('A' for Active; 'I' for Inactive)
REMARK    1  A    between atoms: N1_7  and  C6_8 
REMARK    2  A    between atoms: C6_8  and  C7_9 
REMARK    3  A    between atoms: C7_9  and  N2_10 
REMARK    4  A    between atoms: N2_10  and  C8_11 
REMARK    5  A    between atoms: N2_10  and  C23_27 
REMARK    6  A    between atoms: C8_11  and  C9_12 
REMARK    7  A    between atoms: C12_16  and  C13_17 
REMARK    8  A    between atoms: C18_22  and  C19_23 
REMARK    9  A    between atoms: C23_27  and  N4_29 
ROOT
HETATM    1  N2  UNL     1      -0.896   1.067   0.703  1.00  0.00    -0.352 N 
ENDROOT
BRANCH   1   2
HETATM    2  C7  UNL     1      -1.798   0.607  -0.313  1.00  0.00     0.156 C 
BRANCH   2   3
HETATM    3  C6  UNL     1      -2.959  -0.085   0.366  1.00  0.00     0.293 C 
BRANCH   3   4
HETATM    4  N1  UNL     1      -3.950  -0.586  -0.543  1.00  0.00     0.098 N 
HETATM    5  C2  UNL     1      -3.545  -1.673  -1.368  1.00  0.00     0.242 C 
HETATM    6  C1  UNL     1      -4.697  -2.066  -2.268  1.00  0.00     0.045 C 
HETATM    7  C3  UNL     1      -3.151  -2.873  -0.557  1.00  0.00     0.203 C 
HETATM    8  O1  UNL     1      -3.829  -3.014   0.624  1.00  0.00    -0.387 OA
HETATM    9  C4  UNL     1      -5.073  -2.425   0.669  1.00  0.00     0.198 C 
HETATM   10  C5  UNL     1      -5.101  -0.984   0.265  1.00  0.00     0.299 C 
ENDBRANCH   3   4
ENDBRANCH   2   3
ENDBRANCH   1   2
BRANCH   1  11
HETATM   11  C8  UNL     1      -0.037   0.065   1.416  1.00  0.00     0.164 C 
BRANCH  11  12
HETATM   12  C9  UNL     1       1.166  -0.226   0.636  1.00  0.00    -0.031 A 
HETATM   13  C10 UNL     1       1.366   0.491  -0.554  1.00  0.00     0.036 A 
HETATM   14  C11 UNL     1       2.466   0.291  -1.333  1.00  0.00     0.054 A 
HETATM   15  N3  UNL     1       2.594   1.054  -2.528  1.00  0.00    -0.102 NA
HETATM   16  C12 UNL     1       3.398  -0.629  -0.946  1.00  0.00    -0.026 A 
HETATM   17  C17 UNL     1       3.204  -1.334   0.224  1.00  0.00     0.018 A 
HETATM   18  C18 UNL     1       2.087  -1.154   1.047  1.00  0.00    -0.042 A 
BRANCH  16  19
HETATM   19  C13 UNL     1       4.600  -0.832  -1.816  1.00  0.00    -0.022 C 
HETATM   20  C14 UNL     1       5.384   0.464  -1.951  1.00  0.00     0.019 C 
HETATM   21  C15 UNL     1       5.522  -1.813  -1.100  1.00  0.00     0.019 C 
HETATM   22  C16 UNL     1       4.156  -1.354  -3.144  1.00  0.00     0.019 C 
ENDBRANCH  16  19
BRANCH  18  23
HETATM   23  C19 UNL     1       1.915  -1.896   2.298  1.00  0.00    -0.024 C 
HETATM   24  C20 UNL     1       1.870  -1.059   3.537  1.00  0.00     0.019 C 
HETATM   25  C21 UNL     1       0.791  -2.907   2.244  1.00  0.00     0.019 C 
HETATM   26  C22 UNL     1       3.173  -2.778   2.461  1.00  0.00     0.019 C 
ENDBRANCH  18  23
ENDBRANCH  11  12
ENDBRANCH   1  11
BRANCH   1  27
HETATM   27  C23 UNL     1      -0.799   2.418   1.071  1.00  0.00     0.172 C 
HETATM   28  S1  UNL     1       0.352   2.712   2.285  1.00  0.00    -0.041 SA
BRANCH  27  29
HETATM   29  N4  UNL     1      -1.447   3.561   0.647  1.00  0.00    -0.354 N 
HETATM   30  C24 UNL     1      -1.094   4.873   1.267  1.00  0.00     0.151 C 
HETATM   31  C25 UNL     1      -0.892   5.864   0.144  1.00  0.00     0.187 C 
HETATM   32  O2  UNL     1      -2.071   6.074  -0.571  1.00  0.00    -0.388 OA
HETATM   33  C26 UNL     1      -3.022   5.110  -0.308  1.00  0.00     0.187 C 
HETATM   34  C27 UNL     1      -2.472   3.690  -0.357  1.00  0.00     0.151 C 
ENDBRANCH  27  29
ENDBRANCH   1  27
TORSDOF 9
