REMARK  5 active torsions:
REMARK  status: ('A' for Active; 'I' for Inactive)
REMARK    1  A    between atoms: C1_2  and  C2_3 
REMARK       I    between atoms: C1_2  and  N2_10 
REMARK    2  A    between atoms: C2_3  and  N1_4 
REMARK    3  A    between atoms: N2_10  and  C8_12 
REMARK    4  A    between atoms: C11_15  and  C12_16 
REMARK    5  A    between atoms: C12_16  and  N3_17 
ROOT
HETATM    1  N3  UNL     1       1.779  -1.112  -0.968  1.00  0.00    -0.393 N 
HETATM    2  C13 UNL     1       1.882  -0.481   0.291  1.00  0.00     0.123 C 
HETATM    3  C14 UNL     1       3.305  -0.500   0.844  1.00  0.00     0.034 C 
HETATM    4  C15 UNL     1       4.275   0.104  -0.106  1.00  0.00    -0.010 C 
HETATM    5  C16 UNL     1       3.974   1.577  -0.304  1.00  0.00     0.015 C 
HETATM    6  C17 UNL     1       4.894   2.201  -1.323  1.00  0.00     0.006 C 
HETATM    7  C18 UNL     1       6.197   1.493  -1.468  1.00  0.00     0.039 C 
HETATM    8  C19 UNL     1       6.620   0.748  -0.262  1.00  0.00    -0.048 A 
HETATM    9  C20 UNL     1       7.897   0.713   0.209  1.00  0.00     0.047 A 
HETATM   10  C21 UNL     1       8.238  -0.001   1.348  1.00  0.00     0.105 A 
HETATM   11  C22 UNL     1       7.290  -0.712   2.057  1.00  0.00     0.105 A 
HETATM   12  C23 UNL     1       5.998  -0.672   1.574  1.00  0.00     0.048 A 
HETATM   13  C24 UNL     1       5.649   0.035   0.442  1.00  0.00    -0.040 A 
HETATM   14  O2  UNL     1       7.923  -1.324   3.145  1.00  0.00    -0.323 OA
HETATM   15  C25 UNL     1       9.334  -1.326   2.896  1.00  0.00     0.352 C 
HETATM   16  O3  UNL     1       9.438  -0.194   2.020  1.00  0.00    -0.323 OA
HETATM   17  C26 UNL     1       4.166  -0.643  -1.418  1.00  0.00     0.034 C 
HETATM   18  C27 UNL     1       3.045  -1.657  -1.381  1.00  0.00     0.123 C 
ENDROOT
BRANCH   1  19
HETATM   19  C12 UNL     1       1.054  -0.462  -1.985  1.00  0.00     0.062 C 
BRANCH  19  20
HETATM   20  C11 UNL     1      -0.409  -0.339  -1.879  1.00  0.00     0.024 C 
HETATM   21  C10 UNL     1      -0.852   0.421  -0.679  1.00  0.00     0.012 C 
HETATM   22  C9  UNL     1      -2.385   0.657  -0.742  1.00  0.00     0.026 C 
HETATM   23  C8  UNL     1      -2.950  -0.769  -0.628  1.00  0.00     0.084 C 
HETATM   24  C29 UNL     1      -2.621  -1.487  -1.889  1.00  0.00     0.026 C 
HETATM   25  C28 UNL     1      -1.121  -1.673  -2.011  1.00  0.00     0.012 C 
BRANCH  23  26
HETATM   26  N2  UNL     1      -4.376  -0.630  -0.387  1.00  0.00    -0.355 N 
HETATM   27  C1  UNL     1      -4.890  -1.046   0.858  1.00  0.00     0.246 C 
HETATM   28  O1  UNL     1      -4.027  -1.527   1.680  1.00  0.00    -0.272 OA
ATOM     29  H2  UNL     1      -4.991  -0.241  -1.102  1.00  0.00     0.162 HD
BRANCH  27  30
HETATM   30  C2  UNL     1      -6.285  -0.995   1.309  1.00  0.00     0.374 C 
BRANCH  30  31
HETATM   31  N1  UNL     1      -7.136  -0.400   0.323  1.00  0.00     0.097 N 
HETATM   32  C3  UNL     1      -8.546  -0.540   0.718  1.00  0.00     0.273 C 
HETATM   33  C4  UNL     1      -8.823   0.166   2.016  1.00  0.00     0.030 C 
HETATM   34  C5  UNL     1      -8.239   1.561   2.042  1.00  0.00     0.003 C 
HETATM   35  C6  UNL     1      -7.924   1.928   0.629  1.00  0.00     0.030 C 
HETATM   36  C7  UNL     1      -6.840   1.011   0.119  1.00  0.00     0.273 C 
ENDBRANCH  30  31
ENDBRANCH  27  30
ENDBRANCH  23  26
ENDBRANCH  19  20
ENDBRANCH   1  19
TORSDOF 5
