REMARK  7 active torsions:
REMARK  status: ('A' for Active; 'I' for Inactive)
REMARK    1  A    between atoms: C4_4  and  O1_6 
REMARK    2  A    between atoms: O1_6  and  C6_7 
REMARK    3  A    between atoms: C22_25  and  C24_27 
REMARK    4  A    between atoms: C24_27  and  C25_28 
REMARK    5  A    between atoms: C26_29  and  C27_30 
REMARK       I    between atoms: C27_30  and  N2_32 
REMARK    6  A    between atoms: N2_32  and  O4_33 
REMARK    7  A    between atoms: N2_32  and  C28_35 
ROOT
HETATM    1  C1  UNL     1       0.086   7.890   0.587  1.00  0.00     0.017 C 
HETATM    2  C2  UNL     1       0.390   6.729   0.550  1.00  0.00    -0.087 C 
HETATM    3  C3  UNL     1       0.734   5.360   0.500  1.00  0.00     0.095 C 
HETATM    4  C4  UNL     1       0.279   4.517  -0.413  1.00  0.00     0.051 C 
HETATM    5  C5  UNL     1      -0.650   5.055  -1.441  1.00  0.00     0.077 C 
ENDROOT
BRANCH   4   6
HETATM    6  O1  UNL     1       0.624   3.184  -0.449  1.00  0.00    -0.349 OA
BRANCH   6   7
HETATM    7  C6  UNL     1       0.194   2.209   0.478  1.00  0.00     0.133 C 
HETATM    8  C7  UNL     1      -1.322   2.139   0.433  1.00  0.00     0.033 C 
HETATM    9  C8  UNL     1      -1.813   1.260  -0.679  1.00  0.00     0.008 C 
HETATM   10  C9  UNL     1      -1.700  -0.179  -0.561  1.00  0.00     0.000 C 
HETATM   11  C10 UNL     1      -0.910  -0.828   0.509  1.00  0.00    -0.004 C 
HETATM   12  C18 UNL     1      -3.121  -0.769  -0.526  1.00  0.00    -0.019 C 
HETATM   13  C11 UNL     1      -0.628  -2.274   0.053  1.00  0.00     0.007 C 
HETATM   14  C20 UNL     1       0.238  -0.138   1.072  1.00  0.00     0.006 A 
HETATM   15  C12 UNL     1      -1.841  -2.877  -0.626  1.00  0.00     0.026 C 
HETATM   16  C13 UNL     1      -3.050  -2.223  -0.110  1.00  0.00     0.095 C 
HETATM   17  N1  UNL     1      -4.300  -2.808  -0.603  1.00  0.00    -0.351 N 
HETATM   18  C14 UNL     1      -4.411  -4.018  -1.338  1.00  0.00     0.153 C 
HETATM   19  C15 UNL     1      -5.441  -1.995  -0.244  1.00  0.00     0.219 C 
HETATM   20  O2  UNL     1      -6.529  -2.171  -0.816  1.00  0.00    -0.273 OA
HETATM   21  C16 UNL     1      -5.171  -0.992   0.820  1.00  0.00     0.103 C 
HETATM   22  C17 UNL     1      -3.998  -0.084   0.488  1.00  0.00     0.020 C 
HETATM   23  C21 UNL     1       0.679   0.878  -0.014  1.00  0.00     0.029 A 
HETATM   24  C22 UNL     1       1.617   0.008   0.708  1.00  0.00    -0.030 A 
HETATM   25  C23 UNL     1       2.521   0.842   1.636  1.00  0.00     0.016 C 
HETATM   26  C19 UNL     1      -3.756  -0.574  -1.877  1.00  0.00     0.018 C 
BRANCH  24  27
HETATM   27  C24 UNL     1       2.466  -0.979  -0.060  1.00  0.00     0.037 C 
BRANCH  27  28
HETATM   28  C25 UNL     1       3.847  -0.523  -0.254  1.00  0.00    -0.020 C 
HETATM   29  C26 UNL     1       4.967  -1.048   0.128  1.00  0.00     0.072 C 
BRANCH  29  30
HETATM   30  C27 UNL     1       5.241  -2.246   0.867  1.00  0.00     0.267 C 
HETATM   31  O3  UNL     1       4.321  -2.993   1.267  1.00  0.00    -0.266 OA
HETATM   32  N2  UNL     1       6.582  -2.656   1.190  1.00  0.00    -0.212 N 
BRANCH  32  33
HETATM   33  O4  UNL     1       6.740  -3.796   1.886  1.00  0.00    -0.284 OA
ATOM     34  H4  UNL     1       7.625  -4.067   2.099  1.00  0.00     0.245 HD
ENDBRANCH  32  33
BRANCH  32  35
HETATM   35  C28 UNL     1       7.745  -1.882   0.789  1.00  0.00     0.283 C 
HETATM   36  C29 UNL     1       8.254  -2.280  -0.519  1.00  0.00     0.081 C 
HETATM   37  N3  UNL     1       8.657  -2.594  -1.553  1.00  0.00    -0.195 NA
ENDBRANCH  32  35
ENDBRANCH  29  30
ENDBRANCH  27  28
ENDBRANCH  24  27
ENDBRANCH   6   7
ENDBRANCH   4   6
TORSDOF 7
