REMARK  6 active torsions:
REMARK  status: ('A' for Active; 'I' for Inactive)
REMARK    1  A    between atoms: C2_2  and  N1_4 
REMARK    2  A    between atoms: N2_7  and  C6_8 
REMARK    3  A    between atoms: C6_8  and  C7_9 
REMARK    4  A    between atoms: C7_9  and  C8_10 
REMARK    5  A    between atoms: C8_10  and  O1_11 
REMARK    6  A    between atoms: O1_11  and  C9_12 
ROOT
HETATM    1  C8  UNL     1       2.144  -1.801   0.428  1.00  0.00     0.177 C 
ENDROOT
BRANCH   1   2
HETATM    2  C7  UNL     1       1.284  -0.566   0.259  1.00  0.00     0.057 C 
BRANCH   2   3
HETATM    3  C6  UNL     1       0.071  -1.022  -0.520  1.00  0.00     0.275 C 
BRANCH   3   4
HETATM    4  N2  UNL     1      -0.905  -0.013  -0.786  1.00  0.00     0.095 N 
HETATM    5  C5  UNL     1      -1.882  -0.459  -1.754  1.00  0.00     0.317 C 
HETATM    6  C4  UNL     1      -3.233   0.147  -1.573  1.00  0.00     0.089 C 
HETATM    7  N1  UNL     1      -3.730   0.122  -0.269  1.00  0.00    -0.377 N 
HETATM    8  C17 UNL     1      -2.814   0.038   0.785  1.00  0.00     0.051 C 
HETATM    9  C16 UNL     1      -1.490   0.628   0.348  1.00  0.00     0.302 C 
HETATM   10  C18 UNL     1      -3.333   0.853   1.977  1.00  0.00     0.040 C 
HETATM   11  C19 UNL     1      -2.623  -1.370   1.328  1.00  0.00     0.040 C 
BRANCH   7  12
HETATM   12  C2  UNL     1      -5.076   0.408  -0.053  1.00  0.00     0.076 C 
HETATM   13  C1  UNL     1      -5.416   1.835  -0.468  1.00  0.00     0.032 C 
HETATM   14  C3  UNL     1      -6.038  -0.479  -0.828  1.00  0.00     0.032 C 
ENDBRANCH   7  12
ENDBRANCH   3   4
ENDBRANCH   2   3
ENDBRANCH   1   2
BRANCH   1  15
HETATM   15  O1  UNL     1       3.361  -1.639   1.050  1.00  0.00    -0.347 OA
BRANCH  15  16
HETATM   16  C9  UNL     1       4.434  -0.896   0.660  1.00  0.00     0.116 A 
HETATM   17  C10 UNL     1       5.374  -1.505  -0.187  1.00  0.00     0.093 A 
HETATM   18 CL1  UNL     1       5.171  -3.145  -0.708  1.00  0.00    -0.079 Cl
HETATM   19  C11 UNL     1       6.493  -0.797  -0.627  1.00  0.00     0.087 A 
HETATM   20 CL2  UNL     1       7.665  -1.577  -1.688  1.00  0.00    -0.080 Cl
HETATM   21  C12 UNL     1       6.686   0.499  -0.235  1.00  0.00     0.089 A 
HETATM   22  C13 UNL     1       5.785   1.107   0.590  1.00  0.00     0.123 A 
HETATM   23  N3  UNL     1       7.757   1.415  -0.560  1.00  0.00    -0.364 N 
HETATM   24  C14 UNL     1       4.656   0.390   1.032  1.00  0.00     0.104 A 
HETATM   25  O2  UNL     1       6.245   2.396   0.808  1.00  0.00    -0.328 OA
HETATM   26 CL3  UNL     1       3.558   1.228   2.111  1.00  0.00    -0.078 Cl
HETATM   27  C15 UNL     1       7.392   2.665   0.032  1.00  0.00     0.298 C 
ATOM     28  H3  UNL     1       8.598   1.212  -1.100  1.00  0.00     0.162 HD
ENDBRANCH  15  16
ENDBRANCH   1  15
TORSDOF 6
