REMARK  7 active torsions:
REMARK  status: ('A' for Active; 'I' for Inactive)
REMARK    1  A    between atoms: C5_9  and  S1_10 
REMARK    2  A    between atoms: S1_10  and  C6_11 
REMARK    3  A    between atoms: C12_19  and  C13_20 
REMARK    4  A    between atoms: C13_20  and  C14_21 
REMARK    5  A    between atoms: C14_21  and  C15_22 
REMARK    6  A    between atoms: C15_22  and  C16_23 
REMARK    7  A    between atoms: C16_23  and  O3_24 
ROOT
HETATM    1  O1  UNL     1      -2.320   2.926  -0.538  1.00  0.00    -0.286 OA
HETATM    2  C1  UNL     1      -1.132   2.545  -0.390  1.00  0.00     0.198 A 
HETATM    3  C2  UNL     1      -0.136   3.609  -0.178  1.00  0.00     0.087 A 
HETATM    4 BR1  UNL     1      -0.670   5.437  -0.137  1.00  0.00    -0.045 Br
HETATM    5  C3  UNL     1       1.127   3.245  -0.018  1.00  0.00     0.106 A 
HETATM    6 CL1  UNL     1       2.307   4.516   0.234  1.00  0.00    -0.078 Cl
HETATM    7  C4  UNL     1       1.541   1.828  -0.050  1.00  0.00     0.212 A 
HETATM    8  O2  UNL     1       2.750   1.533   0.106  1.00  0.00    -0.285 OA
HETATM    9  C5  UNL     1       0.513   0.810  -0.265  1.00  0.00     0.067 A 
HETATM   10  C12 UNL     1      -0.751   1.143  -0.426  1.00  0.00     0.015 A 
ENDROOT
BRANCH   9  11
HETATM   11  S1  UNL     1       0.947  -0.918  -0.313  1.00  0.00    -0.083 SA
BRANCH  11  12
HETATM   12  C6  UNL     1       2.692  -1.169  -0.076  1.00  0.00     0.046 A 
HETATM   13  C7  UNL     1       3.561  -1.195  -1.140  1.00  0.00     0.046 A 
HETATM   14  C8  UNL     1       4.920  -1.386  -1.004  1.00  0.00     0.035 A 
HETATM   15 CL2  UNL     1       6.014  -1.417  -2.365  1.00  0.00    -0.084 Cl
HETATM   16  C9  UNL     1       5.388  -1.557   0.289  1.00  0.00     0.027 A 
HETATM   17  C10 UNL     1       4.531  -1.534   1.370  1.00  0.00     0.045 A 
HETATM   18  C11 UNL     1       3.178  -1.340   1.197  1.00  0.00     0.133 A 
HETATM   19  F1  UNL     1       2.348  -1.322   2.291  1.00  0.00    -0.205 F 
ENDBRANCH  11  12
ENDBRANCH   9  11
BRANCH  10  20
HETATM   20  C13 UNL     1      -1.755   0.111  -0.639  1.00  0.00     0.044 C 
BRANCH  20  21
HETATM   21  C14 UNL     1      -2.843   0.069   0.413  1.00  0.00     0.007 C 
BRANCH  21  22
HETATM   22  C15 UNL     1      -3.767  -1.079  -0.018  1.00  0.00     0.026 C 
BRANCH  22  23
HETATM   23  C16 UNL     1      -4.912  -1.238   0.952  1.00  0.00     0.164 C 
BRANCH  23  24
HETATM   24  O3  UNL     1      -5.694  -2.293   0.486  1.00  0.00    -0.401 OA
ATOM     25  H3  UNL     1      -6.415  -2.393   1.097  1.00  0.00     0.209 HD
ENDBRANCH  23  24
ENDBRANCH  22  23
ENDBRANCH  21  22
ENDBRANCH  20  21
ENDBRANCH  10  20
TORSDOF 7
