REMARK  17 active torsions:
REMARK  status: ('A' for Active; 'I' for Inactive)
REMARK    1  A    between atoms: N1_1  and  C1_5 
REMARK    2  A    between atoms: C1_5  and  C2_6 
REMARK    3  A    between atoms: C2_6  and  O1_7 
REMARK    4  A    between atoms: O1_7  and  N2_8 
REMARK    5  A    between atoms: N2_8  and  C3_10 
REMARK    6  A    between atoms: C7_14  and  O2_15 
REMARK    7  A    between atoms: C8_17  and  O3_18 
REMARK    8  A    between atoms: C9_20  and  O4_21 
REMARK    9  A    between atoms: C10_23  and  O5_24 
REMARK   10  A    between atoms: N3_26  and  O6_27 
REMARK   11  A    between atoms: C11_31  and  C12_32 
REMARK   12  A    between atoms: C12_32  and  N5_33 
REMARK   13  A    between atoms: C13_39  and  S1_40 
REMARK   14  A    between atoms: S1_40  and  C14_41 
REMARK   15  A    between atoms: C14_41  and  C15_42 
REMARK       I    between atoms: C15_42  and  N9_44 
REMARK   16  A    between atoms: N9_44  and  N10_45 
REMARK   17  A    between atoms: N10_45  and  N11_47 
ROOT
HETATM    1  C3  UNL     1      -0.799   1.472   1.250  1.00  0.00     0.084 A 
HETATM    2  C4  UNL     1      -1.936   0.606   1.379  1.00  0.00     0.065 A 
HETATM    3  C5  UNL     1      -1.797  -0.381   0.389  1.00  0.00     0.062 A 
HETATM    4  C6  UNL     1      -2.687  -1.361   0.221  1.00  0.00     0.095 C 
HETATM    5  C7  UNL     1      -3.880  -1.430   1.078  1.00  0.00     0.203 C 
HETATM    6  C8  UNL     1      -4.752  -2.594   0.878  1.00  0.00     0.186 C 
HETATM    7  C9  UNL     1      -4.217  -3.689   0.062  1.00  0.00     0.200 C 
HETATM    8  C10 UNL     1      -3.612  -3.129  -1.230  1.00  0.00     0.278 C 
HETATM    9  N3  UNL     1      -2.505  -2.359  -0.739  1.00  0.00    -0.228 N 
HETATM   10  N4  UNL     1      -0.661  -0.099  -0.242  1.00  0.00    -0.351 N 
ATOM     11  H4  UNL     1      -0.290  -0.656  -1.012  1.00  0.00     0.166 HD
HETATM   12  C11 UNL     1      -0.053   1.000   0.243  1.00  0.00     0.079 A 
ENDROOT
BRANCH  12  13
HETATM   13  C12 UNL     1       1.088   1.525  -0.229  1.00  0.00     0.148 C 
BRANCH  13  14
HETATM   14  N5  UNL     1       1.880   1.060  -1.316  1.00  0.00    -0.225 N 
HETATM   15  N6  UNL     1       1.380   0.623  -2.473  1.00  0.00     0.002 NA
HETATM   16  N7  UNL     1       2.386   0.436  -3.310  1.00  0.00    -0.224 N 
HETATM   17  N8  UNL     1       3.518   0.748  -2.713  1.00  0.00    -0.266 N 
ATOM     18  H7  UNL     1       2.299   0.102  -4.270  1.00  0.00     0.205 HD
HETATM   19  C13 UNL     1       3.197   1.147  -1.428  1.00  0.00     0.180 A 
ATOM     20  H8  UNL     1       4.452   0.704  -3.120  1.00  0.00     0.190 HD
BRANCH  19  21
HETATM   21  S1  UNL     1       4.406   1.535  -0.243  1.00  0.00    -0.080 SA
BRANCH  21  22
HETATM   22  C14 UNL     1       5.338   0.197   0.463  1.00  0.00     0.203 C 
BRANCH  22  23
HETATM   23  C15 UNL     1       6.284  -0.345  -0.507  1.00  0.00     0.323 C 
HETATM   24  O7  UNL     1       6.078  -0.162  -1.714  1.00  0.00    -0.254 OA
HETATM   25  N9  UNL     1       7.441  -1.083  -0.128  1.00  0.00    -0.271 NA
BRANCH  25  26
HETATM   26  N10 UNL     1       8.493  -1.753   0.209  1.00  0.00    -0.179 N 
ATOM     27  H10 UNL     1       9.450  -1.412   0.121  1.00  0.00     0.223 HD
BRANCH  26  28
HETATM   28  N11 UNL     1       8.139  -3.011   0.712  1.00  0.00    -0.320 N 
ATOM     29 2H11 UNL     1       7.177  -3.339   0.795  1.00  0.00     0.179 HD
ATOM     30 1H11 UNL     1       8.970  -3.540   0.978  1.00  0.00     0.179 HD
ENDBRANCH  26  28
ENDBRANCH  25  26
ENDBRANCH  22  23
ENDBRANCH  21  22
ENDBRANCH  19  21
ENDBRANCH  13  14
ENDBRANCH  12  13
BRANCH   1  31
HETATM   31  N2  UNL     1      -0.635   2.612   2.048  1.00  0.00    -0.265 N 
ATOM     32  H2  UNL     1      -0.554   2.514   3.060  1.00  0.00     0.194 HD
BRANCH  31  33
HETATM   33  O1  UNL     1      -0.584   3.838   1.489  1.00  0.00    -0.278 OA
BRANCH  33  34
HETATM   34  C2  UNL     1      -1.572   4.127   0.590  1.00  0.00     0.228 C 
BRANCH  34  35
HETATM   35  C1  UNL     1      -1.389   5.532   0.041  1.00  0.00     0.258 C 
BRANCH  35  36
HETATM   36  N1  UNL     1      -2.392   5.834  -0.920  1.00  0.00    -0.077 N 
ATOM     37  H13 UNL     1      -2.422   5.139  -1.666  1.00  0.00     0.274 HD
ATOM     38  H12 UNL     1      -3.330   5.696  -0.543  1.00  0.00     0.274 HD
ATOM     39  H11 UNL     1      -2.269   6.777  -1.289  1.00  0.00     0.274 HD
ENDBRANCH  35  36
ENDBRANCH  34  35
ENDBRANCH  33  34
ENDBRANCH  31  33
ENDBRANCH   1  31
BRANCH   5  40
HETATM   40  O2  UNL     1      -3.605  -1.422   2.472  1.00  0.00    -0.387 OA
ATOM     41  H2  UNL     1      -4.376  -1.467   3.026  1.00  0.00     0.210 HD
ENDBRANCH   5  40
BRANCH   9  42
HETATM   42  O6  UNL     1      -1.249  -2.664  -1.262  1.00  0.00    -0.285 OA
ATOM     43  H6  UNL     1      -1.125  -3.343  -1.915  1.00  0.00     0.245 HD
ENDBRANCH   9  42
BRANCH   6  44
HETATM   44  O3  UNL     1      -5.930  -2.142   0.219  1.00  0.00    -0.390 OA
ATOM     45  H3  UNL     1      -6.494  -2.895   0.090  1.00  0.00     0.210 HD
ENDBRANCH   6  44
BRANCH   8  46
HETATM   46  O5  UNL     1      -4.476  -2.370  -1.951  1.00  0.00    -0.372 OA
ATOM     47  H5  UNL     1      -4.101  -2.023  -2.752  1.00  0.00     0.212 HD
ENDBRANCH   8  46
BRANCH   7  48
HETATM   48  O4  UNL     1      -5.134  -4.696  -0.153  1.00  0.00    -0.388 OA
ATOM     49  H4  UNL     1      -4.787  -5.405  -0.682  1.00  0.00     0.210 HD
ENDBRANCH   7  48
TORSDOF 17
