REMARK  17 active torsions:
REMARK  status: ('A' for Active; 'I' for Inactive)
REMARK    1  A    between atoms: N1_1  and  C1_4 
REMARK    2  A    between atoms: N4_13  and  C5_14 
REMARK    3  A    between atoms: C6_16  and  C7_17 
REMARK    4  A    between atoms: C7_17  and  O3_18 
REMARK    5  A    between atoms: C7_17  and  C8_20 
REMARK    6  A    between atoms: C8_20  and  C9_22 
REMARK    7  A    between atoms: C9_22  and  O5_23 
REMARK    8  A    between atoms: C9_22  and  C10_25 
REMARK    9  A    between atoms: C10_25  and  C11_27 
REMARK   10  A    between atoms: C11_27  and  O7_28 
REMARK   11  A    between atoms: C11_27  and  C12_30 
REMARK   12  A    between atoms: C12_30  and  O8_31 
REMARK   13  A    between atoms: C12_30  and  C13_33 
REMARK   14  A    between atoms: C13_33  and  N5_34 
REMARK   15  A    between atoms: C13_33  and  C14_38 
REMARK       I    between atoms: C14_38  and  N6_40 
REMARK   16  A    between atoms: N6_40  and  N7_42 
REMARK   17  A    between atoms: C16_47  and  O11_48 
ROOT
HETATM    1  C7  UNL     1       0.105  -0.366   1.372  1.00  0.00     0.227 C 
ENDROOT
BRANCH   1   2
HETATM    2  C6  UNL     1       1.576  -0.582   1.071  1.00  0.00     0.232 C 
HETATM    3  O2  UNL     1       2.043   0.311   0.126  1.00  0.00    -0.347 OA
HETATM    4  C5  UNL     1       3.264   0.818   0.512  1.00  0.00     0.267 C 
HETATM    5  C16 UNL     1       3.302   0.710   1.992  1.00  0.00     0.239 C 
HETATM    6  C15 UNL     1       2.428  -0.448   2.252  1.00  0.00     0.191 C 
HETATM    7  O10 UNL     1       2.444  -1.127   3.257  1.00  0.00    -0.292 OA
BRANCH   4   8
HETATM    8  N4  UNL     1       4.330   0.106  -0.166  1.00  0.00    -0.296 N 
HETATM    9  C4  UNL     1       4.337  -1.099  -0.743  1.00  0.00     0.188 A 
HETATM   10  N3  UNL     1       5.547  -1.365  -1.254  1.00  0.00    -0.345 N 
HETATM   11  C3  UNL     1       6.339  -0.286  -0.990  1.00  0.00     0.147 A 
ATOM     12  H3  UNL     1       5.824  -2.214  -1.747  1.00  0.00     0.167 HD
HETATM   13  C2  UNL     1       7.680  -0.040  -1.298  1.00  0.00     0.290 A 
HETATM   14  C17 UNL     1       5.562   0.619  -0.312  1.00  0.00     0.159 A 
HETATM   15  N2  UNL     1       8.181   1.137  -0.896  1.00  0.00    -0.154 N 
HETATM   16  O1  UNL     1       8.335  -0.906  -1.919  1.00  0.00    -0.265 OA
HETATM   17  C1  UNL     1       7.414   2.017  -0.232  1.00  0.00     0.680 A 
ATOM     18  H2  UNL     1       9.154   1.366  -1.097  1.00  0.00     0.187 HD
HETATM   19  N8  UNL     1       6.127   1.803   0.074  1.00  0.00    -0.174 N 
ATOM     20  H8  UNL     1       5.585   2.503   0.580  1.00  0.00     0.186 HD
BRANCH  17  21
HETATM   21  N1  UNL     1       7.972   3.132   0.122  1.00  0.00    -0.234 N 
ATOM     22  H12 UNL     1       8.952   3.295  -0.111  1.00  0.00     0.174 HD
ATOM     23  H11 UNL     1       7.389   3.800   0.626  1.00  0.00     0.174 HD
ENDBRANCH  17  21
ENDBRANCH   4   8
BRANCH   5  24
HETATM   24  O11 UNL     1       4.579   0.540   2.515  1.00  0.00    -0.383 OA
ATOM     25  H11 UNL     1       4.603   0.471   3.462  1.00  0.00     0.210 HD
ENDBRANCH   5  24
ENDBRANCH   1   2
BRANCH   1  26
HETATM   26  O3  UNL     1      -0.189   0.864   1.853  1.00  0.00    -0.385 OA
ATOM     27  H3  UNL     1      -1.110   0.999   2.042  1.00  0.00     0.210 HD
ENDBRANCH   1  26
BRANCH   1  28
HETATM   28  C8  UNL     1      -0.739  -0.703   0.203  1.00  0.00     0.194 C 
HETATM   29  O4  UNL     1      -0.503  -1.825  -0.283  1.00  0.00    -0.292 OA
BRANCH  28  30
HETATM   30  C9  UNL     1      -1.784   0.117  -0.418  1.00  0.00     0.262 C 
BRANCH  30  31
HETATM   31  O5  UNL     1      -1.808   1.321   0.329  1.00  0.00    -0.380 OA
ATOM     32  H5  UNL     1      -2.485   1.852  -0.073  1.00  0.00     0.211 HD
ENDBRANCH  30  31
BRANCH  30  33
HETATM   33  C10 UNL     1      -3.152  -0.469  -0.357  1.00  0.00     0.193 C 
HETATM   34  O6  UNL     1      -3.912   0.014   0.476  1.00  0.00    -0.292 OA
BRANCH  33  35
HETATM   35  C11 UNL     1      -3.679  -1.555  -1.185  1.00  0.00     0.222 C 
BRANCH  35  36
HETATM   36  O7  UNL     1      -2.622  -1.927  -2.081  1.00  0.00    -0.385 OA
ATOM     37  H7  UNL     1      -2.964  -2.632  -2.618  1.00  0.00     0.210 HD
ENDBRANCH  35  36
BRANCH  35  38
HETATM   38  C12 UNL     1      -4.841  -1.240  -2.057  1.00  0.00     0.194 C 
BRANCH  38  39
HETATM   39  O8  UNL     1      -4.551  -0.171  -2.895  1.00  0.00    -0.390 OA
ATOM     40  H8  UNL     1      -5.294   0.030  -3.452  1.00  0.00     0.210 HD
ENDBRANCH  38  39
BRANCH  38  41
HETATM   41  C13 UNL     1      -6.193  -1.183  -1.465  1.00  0.00     0.307 C 
BRANCH  41  42
HETATM   42  N5  UNL     1      -6.528  -2.236  -0.548  1.00  0.00    -0.064 N 
ATOM     43  H53 UNL     1      -6.385  -3.142  -0.995  1.00  0.00     0.275 HD
ATOM     44  H52 UNL     1      -5.829  -2.284   0.193  1.00  0.00     0.275 HD
ATOM     45  H51 UNL     1      -7.462  -2.197  -0.139  1.00  0.00     0.275 HD
ENDBRANCH  41  42
BRANCH  41  46
HETATM   46  C14 UNL     1      -6.583   0.170  -1.017  1.00  0.00     0.269 C 
HETATM   47  O9  UNL     1      -6.185   1.130  -1.762  1.00  0.00    -0.269 OA
HETATM   48  N6  UNL     1      -7.345   0.416   0.150  1.00  0.00    -0.275 N 
ATOM     49  H6  UNL     1      -7.648  -0.369   0.726  1.00  0.00     0.189 HD
BRANCH  48  50
HETATM   50  N7  UNL     1      -7.686   1.707   0.522  1.00  0.00    -0.343 N 
ATOM     51  H72 UNL     1      -7.375   2.481  -0.066  1.00  0.00     0.176 HD
ATOM     52  H71 UNL     1      -8.235   1.884   1.363  1.00  0.00     0.176 HD
ENDBRANCH  48  50
ENDBRANCH  41  46
ENDBRANCH  38  41
ENDBRANCH  35  38
ENDBRANCH  33  35
ENDBRANCH  30  33
ENDBRANCH  28  30
ENDBRANCH   1  28
TORSDOF 17
