REMARK  16 active torsions:
REMARK  status: ('A' for Active; 'I' for Inactive)
REMARK    1  A    between atoms: C2_2  and  C3_3 
REMARK    2  A    between atoms: C3_3  and  O1_4 
REMARK    3  A    between atoms: C3_3  and  C13_33 
REMARK    4  A    between atoms: O1_4  and  C4_5 
REMARK    5  A    between atoms: C4_5  and  O2_6 
REMARK    6  A    between atoms: C4_5  and  C5_8 
REMARK    7  A    between atoms: C7_10  and  N1_11 
REMARK    8  A    between atoms: N1_11  and  C8_13 
REMARK    9  A    between atoms: C8_13  and  O3_14 
REMARK   10  A    between atoms: C8_13  and  C9_16 
REMARK   11  A    between atoms: C9_16  and  O4_17 
REMARK   12  A    between atoms: C10_19  and  O5_20 
REMARK   13  A    between atoms: N2_22  and  N3_23 
REMARK   14  A    between atoms: C12_28  and  N4_29 
REMARK   15  A    between atoms: C14_36  and  O7_37 
REMARK   16  A    between atoms: C14_36  and  C16_39 
ROOT
HETATM    1  C5  UNL     1       1.795  -0.393   1.137  1.00  0.00     0.082 C 
HETATM    2  C6  UNL     1       2.397   0.029  -0.145  1.00  0.00     0.041 C 
HETATM    3  C7  UNL     1       3.768   0.588  -0.056  1.00  0.00     0.130 C 
HETATM    4  C10 UNL     1       3.969   1.405   1.188  1.00  0.00     0.266 C 
HETATM    5  N2  UNL     1       4.203   0.587   2.353  1.00  0.00    -0.234 N 
HETATM    6  C11 UNL     1       3.742  -0.726   2.608  1.00  0.00     0.271 C 
HETATM    7  O6  UNL     1       4.310  -1.320   3.560  1.00  0.00    -0.269 OA
HETATM    8  C12 UNL     1       2.664  -1.432   1.848  1.00  0.00     0.285 C 
ENDROOT
BRANCH   1   9
HETATM    9  C4  UNL     1       0.438  -0.963   0.994  1.00  0.00     0.264 C 
BRANCH   9  10
HETATM   10  O1  UNL     1      -0.406  -0.037   0.386  1.00  0.00    -0.351 OA
BRANCH  10  11
HETATM   11  C3  UNL     1      -1.336  -0.670  -0.480  1.00  0.00     0.175 C 
BRANCH  11  12
HETATM   12  C2  UNL     1      -0.968  -0.157  -1.865  1.00  0.00     0.032 C 
HETATM   13  C1  UNL     1      -1.900  -0.782  -2.865  1.00  0.00     0.007 C 
ENDBRANCH  11  12
BRANCH  11  14
HETATM   14  C13 UNL     1      -2.667  -0.164  -0.001  1.00  0.00     0.280 C 
HETATM   15  N5  UNL     1      -3.751  -0.706  -0.664  1.00  0.00    -0.335 N 
HETATM   16  C14 UNL     1      -5.095  -0.310  -0.323  1.00  0.00     0.308 C 
ATOM     17  H5  UNL     1      -3.599  -1.393  -1.402  1.00  0.00     0.161 HD
HETATM   18  N6  UNL     1      -5.256   0.448   0.889  1.00  0.00    -0.305 N 
HETATM   19  C17 UNL     1      -4.588   1.682   1.197  1.00  0.00     0.212 C 
ATOM     20  H6  UNL     1      -5.899   0.078   1.589  1.00  0.00     0.167 HD
HETATM   21  N7  UNL     1      -5.295   2.594   2.023  1.00  0.00    -0.062 NA
HETATM   22  N8  UNL     1      -3.387   2.061   0.804  1.00  0.00    -0.236 N 
HETATM   23  O10 UNL     1      -2.592   1.265   0.009  1.00  0.00    -0.249 OA
ATOM     24  H8  UNL     1      -3.036   2.972   1.098  1.00  0.00     0.197 HD
BRANCH  16  25
HETATM   25  O7  UNL     1      -5.662   0.380  -1.379  1.00  0.00    -0.340 OA
HETATM   26  C15 UNL     1      -6.911   0.872  -1.245  1.00  0.00     0.207 C 
ENDBRANCH  16  25
BRANCH  16  27
HETATM   27  C16 UNL     1      -5.890  -1.583  -0.133  1.00  0.00     0.255 C 
HETATM   28  O8  UNL     1      -5.343  -2.668  -0.460  1.00  0.00    -0.643 OA
HETATM   29  O9  UNL     1      -7.178  -1.546   0.390  1.00  0.00    -0.643 OA
ENDBRANCH  16  27
ENDBRANCH  11  14
ENDBRANCH  10  11
ENDBRANCH   9  10
BRANCH   9  30
HETATM   30  O2  UNL     1      -0.103  -1.163   2.341  1.00  0.00    -0.371 OA
ATOM     31  H2  UNL     1       0.473  -1.795   2.756  1.00  0.00     0.212 HD
ENDBRANCH   9  30
ENDBRANCH   1   9
BRANCH   8  32
HETATM   32  N4  UNL     1       3.164  -2.411   0.930  1.00  0.00    -0.066 N 
ATOM     33  H43 UNL     1       2.408  -2.852   0.405  1.00  0.00     0.275 HD
ATOM     34  H42 UNL     1       3.662  -1.976   0.154  1.00  0.00     0.275 HD
ATOM     35  H41 UNL     1       3.743  -3.104   1.404  1.00  0.00     0.275 HD
ENDBRANCH   8  32
BRANCH   3  36
HETATM   36  N1  UNL     1       4.101   1.328  -1.240  1.00  0.00    -0.387 N 
ATOM     37  H1  UNL     1       3.571   2.153  -1.521  1.00  0.00     0.156 HD
BRANCH  36  38
HETATM   38  C8  UNL     1       5.200   0.859  -2.000  1.00  0.00     0.237 C 
BRANCH  38  39
HETATM   39  O3  UNL     1       5.324   1.757  -3.096  1.00  0.00    -0.375 OA
ATOM     40  H3  UNL     1       6.061   1.442  -3.606  1.00  0.00     0.212 HD
ENDBRANCH  38  39
BRANCH  38  41
HETATM   41  C9  UNL     1       5.108  -0.502  -2.598  1.00  0.00     0.217 C 
BRANCH  41  42
HETATM   42  O4  UNL     1       4.090  -0.700  -3.494  1.00  0.00    -0.397 OA
ATOM     43  H4  UNL     1       4.031  -1.568  -3.875  1.00  0.00     0.209 HD
ENDBRANCH  41  42
ENDBRANCH  38  41
ENDBRANCH  36  38
ENDBRANCH   3  36
BRANCH   4  44
HETATM   44  O5  UNL     1       2.967   2.346   1.385  1.00  0.00    -0.373 OA
ATOM     45  H5  UNL     1       3.094   2.863   2.172  1.00  0.00     0.212 HD
ENDBRANCH   4  44
BRANCH   5  46
HETATM   46  N3  UNL     1       5.001   1.188   3.359  1.00  0.00    -0.338 N 
ATOM     47  H32 UNL     1       5.333   2.135   3.175  1.00  0.00     0.177 HD
ATOM     48  H31 UNL     1       5.166   0.610   4.183  1.00  0.00     0.177 HD
ENDBRANCH   5  46
TORSDOF 16
