REMARK  6 active torsions:
REMARK  status: ('A' for Active; 'I' for Inactive)
REMARK    1  A    between atoms: C2_2  and  C3_3 
REMARK    2  A    between atoms: C3_3  and  N1_5 
REMARK    3  A    between atoms: N1_5  and  C5_7 
REMARK    4  A    between atoms: N7_23  and  C11_24 
REMARK    5  A    between atoms: C11_24  and  C12_25 
REMARK    6  A    between atoms: C12_25  and  N8_26 
ROOT
HETATM    1  C5  UNL     1      -1.702   1.024  -0.555  1.00  0.00     0.683 A 
HETATM    2  N2  UNL     1      -1.910   2.294  -1.053  1.00  0.00    -0.184 N 
ATOM      3  H2  UNL     1      -2.722   2.584  -1.598  1.00  0.00     0.184 HD
HETATM    4  C6  UNL     1      -0.897   3.081  -0.717  1.00  0.00     0.137 A 
HETATM    5  C7  UNL     1      -0.566   4.411  -0.929  1.00  0.00     0.132 A 
HETATM    6  N3  UNL     1      -1.379   5.134  -1.603  1.00  0.00    -0.383 N 
ATOM      7  H31 UNL     1      -1.136   6.112  -1.759  1.00  0.00     0.157 HD
ATOM      8  H32 UNL     1      -2.254   4.783  -1.992  1.00  0.00     0.157 HD
HETATM    9  N4  UNL     1       0.583   4.872  -0.419  1.00  0.00    -0.318 N 
ATOM     10  H4  UNL     1       0.812   5.852  -0.584  1.00  0.00     0.169 HD
HETATM   11  C8  UNL     1       1.455   4.144   0.291  1.00  0.00     0.191 A 
HETATM   12  C9  UNL     1       2.681   4.712   0.812  1.00  0.00     0.137 C 
HETATM   13  N5  UNL     1       3.665   5.152   1.236  1.00  0.00    -0.188 NA
HETATM   14  N6  UNL     1       1.137   2.853   0.498  1.00  0.00    -0.317 N 
ATOM     15  H6  UNL     1       1.772   2.261   1.033  1.00  0.00     0.169 HD
HETATM   16  C10 UNL     1      -0.011   2.326   0.008  1.00  0.00     0.157 A 
HETATM   17  N7  UNL     1      -0.537   1.057   0.091  1.00  0.00    -0.164 N 
ENDROOT
BRANCH  17  18
HETATM   18  C11 UNL     1       0.160  -0.002   0.793  1.00  0.00     0.171 C 
BRANCH  18  19
HETATM   19  C12 UNL     1       1.114  -0.758  -0.110  1.00  0.00     0.170 C 
BRANCH  19  20
HETATM   20  N8  UNL     1       1.784  -1.798   0.625  1.00  0.00    -0.289 N 
HETATM   21  C13 UNL     1       2.700  -2.567  -0.130  1.00  0.00     0.177 C 
HETATM   22  C14 UNL     1       4.070  -1.925  -0.200  1.00  0.00     0.256 C 
HETATM   23  N9  UNL     1       4.211  -0.877   0.786  1.00  0.00    -0.050 N 
HETATM   24  C15 UNL     1       3.491  -1.151   2.003  1.00  0.00     0.432 C 
ATOM     25  H92 UNL     1       5.195  -0.688   0.979  1.00  0.00     0.279 HD
ATOM     26  H91 UNL     1       3.941   0.027   0.398  1.00  0.00     0.279 HD
HETATM   27  O1  UNL     1       2.178  -1.446   1.841  1.00  0.00    -0.255 OA
ENDBRANCH  19  20
ENDBRANCH  18  19
ENDBRANCH  17  18
BRANCH   1  28
HETATM   28  N1  UNL     1      -2.528   0.104  -0.744  1.00  0.00    -0.222 N 
ATOM     29  H1  UNL     1      -3.323   0.434  -1.291  1.00  0.00     0.178 HD
BRANCH  28  30
HETATM   30  C3  UNL     1      -2.670  -1.236  -0.421  1.00  0.00     0.095 C 
HETATM   31  C4  UNL     1      -3.524  -1.500   0.814  1.00  0.00     0.032 C 
BRANCH  30  32
HETATM   32  C2  UNL     1      -3.489  -1.890  -1.568  1.00  0.00     0.021 C 
HETATM   33  C1  UNL     1      -3.664  -3.353  -1.300  1.00  0.00     0.007 C 
ENDBRANCH  30  32
ENDBRANCH  28  30
ENDBRANCH   1  28
TORSDOF 6
