REMARK  7 active torsions:
REMARK  status: ('A' for Active; 'I' for Inactive)
REMARK    1  A    between atoms: C2_2  and  N1_4 
REMARK    2  A    between atoms: C4_7  and  N3_8 
REMARK    3  A    between atoms: N5_14  and  C6_16 
REMARK    4  A    between atoms: C8_18  and  N6_19 
REMARK    5  A    between atoms: N6_19  and  C9_21 
REMARK    6  A    between atoms: C9_21  and  C10_22 
REMARK    7  A    between atoms: C10_22  and  N7_23 
ROOT
HETATM    1  C6  UNL     1      -0.995   0.759   0.003  1.00  0.00     0.140 A 
HETATM    2  C7  UNL     1      -0.009  -0.197   0.139  1.00  0.00     0.100 A 
HETATM    3  C8  UNL     1       1.324   0.032  -0.109  1.00  0.00     0.145 A 
HETATM    4  N8  UNL     1       1.698   1.265  -0.510  1.00  0.00    -0.069 N 
HETATM    5  N9  UNL     1       2.880   1.792  -0.821  1.00  0.00    -0.273 N 
ATOM      6  H9  UNL     1       3.778   1.309  -0.807  1.00  0.00     0.189 HD
HETATM    7  C13 UNL     1       2.675   3.067  -1.154  1.00  0.00     0.215 A 
HETATM    8  N10 UNL     1       1.373   3.364  -1.061  1.00  0.00    -0.184 N 
ATOM      9  H10 UNL     1       0.930   4.262  -1.255  1.00  0.00     0.185 HD
HETATM   10  C14 UNL     1       0.756   2.204  -0.648  1.00  0.00     0.707 A 
HETATM   11  N11 UNL     1      -0.548   1.976  -0.404  1.00  0.00    -0.174 N 
ATOM     12  H11 UNL     1      -1.217   2.736  -0.528  1.00  0.00     0.186 HD
ENDROOT
BRANCH   1  13
HETATM   13  N5  UNL     1      -2.358   0.520   0.272  1.00  0.00    -0.174 N 
HETATM   14  C5  UNL     1      -3.131  -0.300  -0.325  1.00  0.00     0.716 A 
HETATM   15  N1  UNL     1      -4.438  -0.487  -0.021  1.00  0.00    -0.105 N 
HETATM   16  N4  UNL     1      -2.877  -1.139  -1.342  1.00  0.00    -0.020 N 
HETATM   17  N2  UNL     1      -4.944  -1.401  -0.825  1.00  0.00    -0.115 N 
HETATM   18  C4  UNL     1      -3.995  -1.838  -1.672  1.00  0.00     0.705 A 
ATOM     19  H2  UNL     1      -5.910  -1.728  -0.807  1.00  0.00     0.206 HD
ATOM     20  H4  UNL     1      -1.972  -1.238  -1.802  1.00  0.00     0.203 HD
ATOM     21  H5  UNL     1      -2.772   1.064   1.029  1.00  0.00     0.186 HD
BRANCH  15  22
HETATM   22  C2  UNL     1      -5.148   0.225   1.037  1.00  0.00     0.119 C 
HETATM   23  C1  UNL     1      -4.903   1.707   0.851  1.00  0.00     0.034 C 
HETATM   24  C3  UNL     1      -6.634  -0.087   0.975  1.00  0.00     0.034 C 
ENDBRANCH  15  22
BRANCH  18  25
HETATM   25  N3  UNL     1      -4.115  -2.735  -2.606  1.00  0.00    -0.233 N 
ATOM     26  H32 UNL     1      -4.954  -3.260  -2.854  1.00  0.00     0.174 HD
ATOM     27  H31 UNL     1      -3.395  -3.066  -3.248  1.00  0.00     0.174 HD
ENDBRANCH  18  25
ENDBRANCH   1  13
BRANCH   3  28
HETATM   28  N6  UNL     1       2.131  -0.910   0.046  1.00  0.00    -0.372 N 
ATOM     29  H6  UNL     1       1.686  -1.776   0.351  1.00  0.00     0.161 HD
BRANCH  28  30
HETATM   30  C9  UNL     1       3.529  -1.027  -0.113  1.00  0.00     0.151 C 
BRANCH  30  31
HETATM   31  C10 UNL     1       4.335  -0.676   1.120  1.00  0.00     0.290 C 
BRANCH  31  32
HETATM   32  N7  UNL     1       5.730  -0.802   0.900  1.00  0.00     0.081 N 
HETATM   33  C11 UNL     1       6.278   0.179  -0.012  1.00  0.00     0.309 C 
HETATM   34  C12 UNL     1       6.212  -2.085   0.512  1.00  0.00     0.309 C 
ENDBRANCH  31  32
ENDBRANCH  30  31
ENDBRANCH  28  30
ENDBRANCH   3  28
TORSDOF 7
