REMARK  6 active torsions:
REMARK  status: ('A' for Active; 'I' for Inactive)
REMARK    1  A    between atoms: S1_2  and  C2_3 
REMARK    2  A    between atoms: C3_6  and  N2_7 
REMARK    3  A    between atoms: C5_13  and  N4_14 
REMARK    4  A    between atoms: N6_22  and  C10_23 
REMARK    5  A    between atoms: C10_23  and  C11_24 
REMARK    6  A    between atoms: C11_24  and  C12_25 
ROOT
HETATM    1  C2  UNL     1       3.761   0.924   0.250  1.00  0.00     0.147 A 
HETATM    2  N1  UNL     1       3.551   2.186  -0.215  1.00  0.00    -0.321 N 
ATOM      3  H1  UNL     1       4.343   2.801  -0.404  1.00  0.00     0.169 HD
HETATM    4  C3  UNL     1       2.297   2.618  -0.424  1.00  0.00     0.132 A 
HETATM    5  C4  UNL     1       1.261   1.752  -0.155  1.00  0.00     0.137 A 
HETATM    6  N3  UNL     1      -0.049   1.913  -0.268  1.00  0.00    -0.184 N 
ATOM      7  H3  UNL     1      -0.508   2.763  -0.594  1.00  0.00     0.184 HD
HETATM    8  C5  UNL     1      -0.700   0.762   0.120  1.00  0.00     0.684 A 
HETATM    9  N6  UNL     1       0.266  -0.086   0.467  1.00  0.00    -0.165 N 
HETATM   10  C13 UNL     1       1.501   0.487   0.312  1.00  0.00     0.157 A 
HETATM   11  N8  UNL     1       2.762   0.073   0.515  1.00  0.00    -0.320 N 
ATOM     12  H8  UNL     1       2.954  -0.867   0.862  1.00  0.00     0.169 HD
ENDROOT
BRANCH   8  13
HETATM   13  N4  UNL     1      -2.104   0.703   0.084  1.00  0.00    -0.214 N 
HETATM   14  C6  UNL     1      -2.970  -0.377   0.462  1.00  0.00     0.168 C 
HETATM   15  C7  UNL     1      -4.429  -0.056   0.065  1.00  0.00     0.252 C 
HETATM   16  N5  UNL     1      -4.534   0.377  -1.291  1.00  0.00    -0.072 N 
HETATM   17  C8  UNL     1      -3.673   1.491  -1.610  1.00  0.00     0.252 C 
ATOM     18  H52 UNL     1      -4.371  -0.400  -1.931  1.00  0.00     0.277 HD
ATOM     19  H51 UNL     1      -5.503   0.591  -1.527  1.00  0.00     0.277 HD
HETATM   20  C9  UNL     1      -2.890   1.863  -0.394  1.00  0.00     0.168 C 
ENDBRANCH   8  13
BRANCH   9  21
HETATM   21  C10 UNL     1       0.107  -1.414   0.932  1.00  0.00     0.158 C 
BRANCH  21  22
HETATM   22  C11 UNL     1       0.115  -2.457  -0.169  1.00  0.00     0.120 C 
BRANCH  22  23
HETATM   23  C12 UNL     1      -0.056  -3.823   0.385  1.00  0.00     0.232 C 
HETATM   24  N7  UNL     1      -0.085  -4.990  -0.417  1.00  0.00    -0.062 NA
HETATM   25  O1  UNL     1      -0.180  -3.963   1.626  1.00  0.00    -0.277 OA
ENDBRANCH  22  23
ENDBRANCH  21  22
ENDBRANCH   9  21
BRANCH   4  26
HETATM   26  N2  UNL     1       2.102   3.812  -0.863  1.00  0.00    -0.383 N 
ATOM     27  H22 UNL     1       2.870   4.454  -1.062  1.00  0.00     0.157 HD
ATOM     28  H21 UNL     1       1.149   4.140  -1.022  1.00  0.00     0.157 HD
ENDBRANCH   4  26
BRANCH   1  29
HETATM   29  S1  UNL     1       5.438   0.391   0.513  1.00  0.00    -0.098 SA
HETATM   30  C1  UNL     1       6.611   1.702   0.089  1.00  0.00     0.099 C 
ENDBRANCH   1  29
TORSDOF 6
