REMARK  2 active torsions:
REMARK  status: ('A' for Active; 'I' for Inactive)
REMARK    1  A    between atoms: C2_2  and  C3_3 
REMARK    2  A    between atoms: C5_6  and  N1_7 
ROOT
HETATM    1  C3  UNL     1      -1.010  -0.115   0.503  1.00  0.00     0.283 C 
HETATM    2  O1  UNL     1      -0.288  -1.315   0.635  1.00  0.00    -0.356 OA
HETATM    3  C4  UNL     1       0.836  -1.213  -0.165  1.00  0.00     0.206 C 
HETATM    4  C5  UNL     1       1.695  -0.066   0.382  1.00  0.00     0.231 C 
HETATM    5  C6  UNL     1       0.816   1.165   0.327  1.00  0.00     0.206 C 
HETATM    6  O2  UNL     1      -0.302   0.913   1.124  1.00  0.00    -0.356 OA
ENDROOT
BRANCH   4   7
HETATM    7  N1  UNL     1       2.796   0.086  -0.545  1.00  0.00    -0.071 N 
ATOM      8  H13 UNL     1       3.319  -0.776  -0.700  1.00  0.00     0.274 HD
ATOM      9  H12 UNL     1       2.498   0.225  -1.511  1.00  0.00     0.274 HD
ATOM     10  H11 UNL     1       3.367   0.849  -0.181  1.00  0.00     0.274 HD
ENDBRANCH   4   7
BRANCH   1  11
HETATM   11  C2  UNL     1      -2.393  -0.243   0.965  1.00  0.00     0.023 C 
HETATM   12  C1  UNL     1      -3.391   0.281   0.294  1.00  0.00     0.012 C 
ENDBRANCH   1  11
TORSDOF 2
