REMARK  2 active torsions:
REMARK  status: ('A' for Active; 'I' for Inactive)
REMARK    1  A    between atoms: C2_2  and  C3_3 
REMARK    2  A    between atoms: C6_6  and  N1_7 
ROOT
HETATM    1  C3  UNL     1      -1.055   0.319  -0.234  1.00  0.00     0.143 C 
HETATM    2  C4  UNL     1      -0.373  -0.901   0.248  1.00  0.00     0.038 C 
HETATM    3  C5  UNL     1       1.086  -0.826   0.453  1.00  0.00     0.037 C 
HETATM    4  C6  UNL     1       1.709   0.511   0.270  1.00  0.00     0.207 C 
HETATM    5  C7  UNL     1       0.890   1.339  -0.662  1.00  0.00     0.201 C 
HETATM    6  O1  UNL     1      -0.365   1.499  -0.038  1.00  0.00    -0.380 OA
ENDROOT
BRANCH   4   7
HETATM    7  N1  UNL     1       3.079   0.350  -0.146  1.00  0.00    -0.073 N 
ATOM      8  H13 UNL     1       3.610  -0.238   0.496  1.00  0.00     0.274 HD
ATOM      9  H12 UNL     1       3.163  -0.232  -0.980  1.00  0.00     0.274 HD
ATOM     10  H11 UNL     1       3.507   1.268  -0.272  1.00  0.00     0.274 HD
ENDBRANCH   4   7
BRANCH   1  11
HETATM   11  C2  UNL     1      -2.405   0.391   0.378  1.00  0.00    -0.005 C 
HETATM   12  C1  UNL     1      -3.336  -0.441  -0.041  1.00  0.00     0.009 C 
ENDBRANCH   1  11
TORSDOF 2
