REMARK  2 active torsions:
REMARK  status: ('A' for Active; 'I' for Inactive)
REMARK    1  A    between atoms: N1_1  and  C1_5 
REMARK    2  A    between atoms: C1_5  and  C2_6 
ROOT
HETATM    1  C2  UNL     1       0.094  -0.088   0.116  1.00  0.00     0.021 C 
HETATM    2  C3  UNL     1      -1.154  -0.588  -0.571  1.00  0.00     0.017 C 
HETATM    3  C4  UNL     1      -2.221  -0.261   0.480  1.00  0.00     0.074 C 
HETATM    4  S1  UNL     1      -1.824   1.524   0.708  1.00  0.00    -0.169 SA
HETATM    5  C5  UNL     1      -0.064   1.436   0.174  1.00  0.00     0.080 C 
ENDROOT
BRANCH   1   6
HETATM    6  C1  UNL     1       1.356  -0.471  -0.619  1.00  0.00     0.234 C 
BRANCH   6   7
HETATM    7  N1  UNL     1       2.467   0.079   0.162  1.00  0.00    -0.079 N 
ATOM      8  H13 UNL     1       2.386   1.081   0.333  1.00  0.00     0.274 HD
ATOM      9  H12 UNL     1       2.461  -0.215   1.139  1.00  0.00     0.274 HD
ATOM     10  H11 UNL     1       3.320  -0.180  -0.335  1.00  0.00     0.274 HD
ENDBRANCH   6   7
ENDBRANCH   1   6
TORSDOF 2
