REMARK  2 active torsions:
REMARK  status: ('A' for Active; 'I' for Inactive)
REMARK    1  A    between atoms: O1_2  and  C2_3 
REMARK    2  A    between atoms: C5_7  and  N1_8 
ROOT
HETATM    1  C2  UNL     1       0.214   0.065  -0.020  1.00  0.00     0.162 C 
HETATM    2  C3  UNL     1       0.147   1.408  -0.590  1.00  0.00     0.045 C 
HETATM    3  C4  UNL     1      -1.186   2.030  -0.414  1.00  0.00     0.079 C 
HETATM    4  S1  UNL     1      -2.278   0.687   0.179  1.00  0.00    -0.134 SA
HETATM    5  C5  UNL     1      -1.087  -0.659  -0.155  1.00  0.00     0.273 C 
ENDROOT
BRANCH   5   6
HETATM    6  N1  UNL     1      -1.151  -1.684   0.846  1.00  0.00    -0.064 N 
ATOM      7  H13 UNL     1      -0.349  -2.314   0.811  1.00  0.00     0.275 HD
ATOM      8  H12 UNL     1      -1.004  -1.319   1.787  1.00  0.00     0.275 HD
ATOM      9  H11 UNL     1      -2.039  -2.178   0.754  1.00  0.00     0.275 HD
ENDBRANCH   5   6
BRANCH   1  10
HETATM   10  O1  UNL     1       1.194  -0.703  -0.648  1.00  0.00    -0.388 OA
HETATM   11  C1  UNL     1       2.152  -1.170   0.243  1.00  0.00     0.202 C 
ENDBRANCH   1  10
TORSDOF 2
