REMARK  1 active torsions:
REMARK  status: ('A' for Active; 'I' for Inactive)
REMARK    1  A    between atoms: C5_6  and  C6_7 
ROOT
HETATM    1  C1  UNL     1      -0.477   1.709   0.656  1.00  0.00     0.310 C 
HETATM    2  N1  UNL     1      -0.358   0.740  -0.388  1.00  0.00     0.093 N 
HETATM    3  C2  UNL     1      -1.546  -0.027  -0.620  1.00  0.00     0.273 C 
HETATM    4  C3  UNL     1      -1.083  -1.486  -0.738  1.00  0.00     0.033 C 
HETATM    5  C4  UNL     1       0.086  -1.449   0.257  1.00  0.00     0.043 C 
HETATM    6  C5  UNL     1       0.748  -0.159  -0.248  1.00  0.00     0.260 C 
ENDROOT
BRANCH   6   7
HETATM    7  C6  UNL     1       1.815   0.300   0.627  1.00  0.00     0.088 C 
HETATM    8  N2  UNL     1       2.889   0.780   0.151  1.00  0.00    -0.409 N 
ATOM      9  H22 UNL     1       2.989   0.838  -0.862  1.00  0.00     0.155 HD
ATOM     10  H21 UNL     1       3.637   1.102   0.765  1.00  0.00     0.155 HD
ENDBRANCH   6   7
TORSDOF 1
