REMARK  1 active torsions:
REMARK  status: ('A' for Active; 'I' for Inactive)
REMARK    1  A    between atoms: C2_2  and  C3_3 
ROOT
HETATM    1  C3  UNL     1      -0.478   0.145  -0.201  1.00  0.00     0.320 C 
HETATM    2  N1  UNL     1       0.097  -0.291   1.036  1.00  0.00    -0.049 N 
ATOM      3  H11 UNL     1      -0.529  -0.911   1.550  1.00  0.00     0.280 HD
ATOM      4  H12 UNL     1       0.153   0.465   1.719  1.00  0.00     0.280 HD
HETATM    5  C4  UNL     1       1.371  -0.893   0.799  1.00  0.00     0.237 C 
HETATM    6  C5  UNL     1       2.252  -0.023  -0.023  1.00  0.00     0.054 C 
HETATM    7  C6  UNL     1       1.565   0.843  -1.007  1.00  0.00     0.172 C 
HETATM    8  O1  UNL     1       0.278   1.181  -0.735  1.00  0.00    -0.359 OA
ENDROOT
BRANCH   1   9
HETATM    9  C2  UNL     1      -1.878   0.622   0.097  1.00  0.00     0.057 C 
HETATM   10  C1  UNL     1      -2.669  -0.509   0.679  1.00  0.00     0.009 C 
ENDBRANCH   1   9
TORSDOF 1
