REMARK  0 active torsions:
REMARK  status: ('A' for Active; 'I' for Inactive)
ROOT
HETATM    1  C1  UNL     1       2.232  -0.489  -0.191  1.00  0.00     0.356 C 
HETATM    2  N1  UNL     1       0.840  -0.147  -0.317  1.00  0.00     0.009 N 
HETATM    3  O1  UNL     1       0.546  -0.043  -1.630  1.00  0.00    -0.065 OA
HETATM    4  C2  UNL     1       0.488   1.052   0.421  1.00  0.00     0.311 C 
HETATM    5  C3  UNL     1      -0.857   1.514  -0.152  1.00  0.00     0.036 C 
HETATM    6  C4  UNL     1      -1.758   0.354  -0.396  1.00  0.00     0.004 C 
HETATM    7  C5  UNL     1      -1.383  -0.902   0.300  1.00  0.00     0.036 C 
HETATM    8  C6  UNL     1       0.067  -1.226   0.304  1.00  0.00     0.311 C 
ENDROOT
TORSDOF 0
