REMARK  6 active torsions:
REMARK  status: ('A' for Active; 'I' for Inactive)
REMARK    1  A    between atoms: N1_1  and  C1_5 
REMARK    2  A    between atoms: C1_5  and  C2_6 
REMARK    3  A    between atoms: C2_6  and  C3_7 
REMARK    4  A    between atoms: C3_7  and  C5_15 
REMARK    5  A    between atoms: N2_8  and  N3_10 
REMARK    6  A    between atoms: N3_10  and  C4_12 
ROOT
HETATM    1  C3  UNL     1       0.485  -0.193  -0.549  1.00  0.00     0.019 C 
HETATM    2  N2  UNL     1       1.004  -1.366  -0.571  1.00  0.00    -0.306 N 
ATOM      3  H2  UNL     1       0.505  -2.158  -0.166  1.00  0.00     0.186 HD
ENDROOT
BRANCH   1   4
HETATM    4  C2  UNL     1       1.204   0.937  -1.130  1.00  0.00     0.082 C 
BRANCH   4   5
HETATM    5  C1  UNL     1       1.495   2.034  -0.115  1.00  0.00     0.235 C 
BRANCH   5   6
HETATM    6  N1  UNL     1       2.206   3.092  -0.809  1.00  0.00    -0.079 N 
ATOM      7  H13 UNL     1       3.043   2.761  -1.288  1.00  0.00     0.274 HD
ATOM      8  H12 UNL     1       1.708   3.433  -1.631  1.00  0.00     0.274 HD
ATOM      9  H11 UNL     1       2.401   3.827  -0.129  1.00  0.00     0.274 HD
ENDBRANCH   5   6
ENDBRANCH   4   5
ENDBRANCH   1   4
BRANCH   1  10
HETATM   10  C5  UNL     1      -0.832  -0.014   0.066  1.00  0.00     0.094 C 
HETATM   11  C6  UNL     1      -1.382  -1.338   0.602  1.00  0.00     0.021 C 
HETATM   12  C7  UNL     1      -2.588  -1.014   1.410  1.00  0.00     0.002 C 
HETATM   13  C8  UNL     1      -3.819  -0.732   0.611  1.00  0.00     0.010 C 
HETATM   14  C9  UNL     1      -3.698   0.322  -0.413  1.00  0.00     0.075 C 
HETATM   15  S2  UNL     1      -2.084   0.575  -1.109  1.00  0.00    -0.158 SA
ENDBRANCH   1  10
BRANCH   2  16
HETATM   16  N3  UNL     1       2.249  -1.546  -1.151  1.00  0.00    -0.279 N 
ATOM     17  H3  UNL     1       2.321  -1.748  -2.148  1.00  0.00     0.189 HD
BRANCH  16  18
HETATM   18  C4  UNL     1       3.441  -1.449  -0.350  1.00  0.00     0.199 C 
HETATM   19  N4  UNL     1       3.388  -1.173   1.027  1.00  0.00    -0.068 NA
HETATM   20  S1  UNL     1       4.867  -1.672  -1.096  1.00  0.00    -0.043 SA
ENDBRANCH  16  18
ENDBRANCH   2  16
TORSDOF 6
