REMARK  5 active torsions:
REMARK  status: ('A' for Active; 'I' for Inactive)
REMARK    1  A    between atoms: C2_2  and  O1_3 
REMARK    2  A    between atoms: C2_2  and  C3_5 
REMARK    3  A    between atoms: C3_5  and  C4_6 
REMARK    4  A    between atoms: C4_6  and  N1_7 
REMARK    5  A    between atoms: C4_6  and  C8_18 
REMARK       I    between atoms: N1_7  and  C5_9 
REMARK       I    between atoms: C5_9  and  N4_14 
ROOT
HETATM    1  N1  UNL     1      -0.453  -0.993  -0.507  1.00  0.00    -0.218 N 
ATOM      2  H1  UNL     1      -0.163  -1.319  -1.429  1.00  0.00     0.178 HD
HETATM    3  C5  UNL     1      -1.807  -1.180  -0.124  1.00  0.00     0.696 C 
HETATM    4  N2  UNL     1      -2.088  -2.106   0.729  1.00  0.00    -0.125 N 
ATOM      5  H2  UNL     1      -1.326  -2.674   1.099  1.00  0.00     0.197 HD
HETATM    6  C6  UNL     1      -3.389  -2.367   1.169  1.00  0.00     0.196 C 
HETATM    7  N3  UNL     1      -4.462  -2.593   1.541  1.00  0.00    -0.171 NA
HETATM    8  N4  UNL     1      -2.890  -0.409  -0.621  1.00  0.00    -0.125 N 
ATOM      9  H4  UNL     1      -3.500   0.121   0.002  1.00  0.00     0.197 HD
HETATM   10  C7  UNL     1      -3.080  -0.411  -2.006  1.00  0.00     0.196 C 
HETATM   11  N5  UNL     1      -3.244  -0.394  -3.166  1.00  0.00    -0.171 NA
ENDROOT
BRANCH   1  12
HETATM   12  C4  UNL     1       0.533  -0.368   0.335  1.00  0.00     0.130 C 
BRANCH  12  13
HETATM   13  C3  UNL     1       1.887  -0.308  -0.338  1.00  0.00     0.059 C 
BRANCH  13  14
HETATM   14  C2  UNL     1       2.415  -1.679  -0.685  1.00  0.00     0.116 C 
HETATM   15  C1  UNL     1       3.763  -1.485  -1.346  1.00  0.00     0.039 C 
BRANCH  14  16
HETATM   16  O1  UNL     1       2.588  -2.489   0.412  1.00  0.00    -0.396 OA
ATOM     17  H1  UNL     1       1.742  -2.611   0.827  1.00  0.00     0.210 HD
ENDBRANCH  14  16
ENDBRANCH  13  14
ENDBRANCH  12  13
BRANCH  12  18
HETATM   18  C8  UNL     1       0.149   1.055   0.676  1.00  0.00     0.144 C 
HETATM   19  C9  UNL     1      -0.052   1.913  -0.522  1.00  0.00     0.036 C 
HETATM   20  C10 UNL     1      -0.916   3.040   0.014  1.00  0.00     0.029 C 
HETATM   21  C11 UNL     1      -1.297   2.505   1.380  1.00  0.00     0.168 C 
HETATM   22  O2  UNL     1      -1.060   1.131   1.348  1.00  0.00    -0.384 OA
ENDBRANCH  12  18
ENDBRANCH   1  12
TORSDOF 5
