REMARK  7 active torsions:
REMARK  status: ('A' for Active; 'I' for Inactive)
REMARK    1  A    between atoms: C2_2  and  O1_3 
REMARK    2  A    between atoms: O1_3  and  C3_4 
REMARK    3  A    between atoms: C3_4  and  C4_6 
REMARK    4  A    between atoms: C5_10  and  C6_11 
REMARK    5  A    between atoms: C6_11  and  N3_15 
REMARK    6  A    between atoms: N3_15  and  N4_17 
REMARK    7  A    between atoms: C7_19  and  C8_20 
ROOT
HETATM    1  C6  UNL     1      -0.000   1.494   0.961  1.00  0.00     0.141 C 
HETATM    2  N2  UNL     1      -0.534   2.231   1.907  1.00  0.00    -0.383 N 
ATOM      3  H21 UNL     1      -1.517   2.498   1.847  1.00  0.00     0.157 HD
ATOM      4  H22 UNL     1       0.080   2.501   2.675  1.00  0.00     0.157 HD
ENDROOT
BRANCH   1   5
HETATM    5  C5  UNL     1       1.419   1.108   1.047  1.00  0.00     0.091 A 
HETATM    6  N1  UNL     1       2.104   1.556   2.129  1.00  0.00    -0.322 N 
HETATM    7  S1  UNL     1       3.640   0.995   1.958  1.00  0.00    -0.007 SA
ATOM      8  H1  UNL     1       1.740   2.125   2.893  1.00  0.00     0.174 HD
HETATM    9  C4  UNL     1       3.446   0.147   0.455  1.00  0.00     0.105 A 
HETATM   10  C13 UNL     1       2.135   0.363   0.168  1.00  0.00    -0.006 A 
HETATM   11  C14 UNL     1       1.494  -0.224  -1.089  1.00  0.00     0.052 C 
BRANCH   9  12
HETATM   12  C3  UNL     1       4.513  -0.585  -0.244  1.00  0.00     0.302 C 
HETATM   13  O2  UNL     1       4.348  -1.165  -1.306  1.00  0.00    -0.259 OA
BRANCH  12  14
HETATM   14  O1  UNL     1       5.800  -0.632   0.319  1.00  0.00    -0.317 OA
BRANCH  14  15
HETATM   15  C2  UNL     1       6.857  -1.321  -0.315  1.00  0.00     0.174 C 
HETATM   16  C1  UNL     1       8.090  -1.177   0.543  1.00  0.00     0.034 C 
ENDBRANCH  14  15
ENDBRANCH  12  14
ENDBRANCH   9  12
ENDBRANCH   1   5
BRANCH   1  17
HETATM   17  N3  UNL     1      -0.832   1.128  -0.080  1.00  0.00    -0.285 N 
ATOM     18  H3  UNL     1      -0.586   1.398  -1.032  1.00  0.00     0.188 HD
BRANCH  17  19
HETATM   19  N4  UNL     1      -2.014   0.390   0.142  1.00  0.00    -0.314 N 
HETATM   20  C7  UNL     1      -3.114   1.042   0.165  1.00  0.00     0.084 C 
ATOM     21  H4  UNL     1      -1.992  -0.621   0.278  1.00  0.00     0.185 HD
BRANCH  20  22
HETATM   22  C8  UNL     1      -4.399   0.334   0.393  1.00  0.00     0.025 C 
HETATM   23  C9  UNL     1      -4.373  -1.060  -0.142  1.00  0.00     0.010 C 
HETATM   24  C10 UNL     1      -5.472  -1.192  -1.145  1.00  0.00     0.001 C 
HETATM   25  C11 UNL     1      -6.425  -0.070  -0.830  1.00  0.00     0.001 C 
HETATM   26  C12 UNL     1      -5.482   1.046  -0.407  1.00  0.00     0.010 C 
ENDBRANCH  20  22
ENDBRANCH  17  19
ENDBRANCH   1  17
TORSDOF 7
