REMARK  5 active torsions:
REMARK  status: ('A' for Active; 'I' for Inactive)
REMARK    1  A    between atoms: C2_3  and  C8_10 
REMARK    2  A    between atoms: C3_4  and  C4_5 
REMARK       I    between atoms: C8_10  and  N2_12 
REMARK    3  A    between atoms: N2_12  and  N3_14 
REMARK    4  A    between atoms: N3_14  and  C9_16 
REMARK    5  A    between atoms: C12_19  and  N4_20 
ROOT
HETATM    1  N1  UNL     1       1.030   3.441   3.144  1.00  0.00    -0.191 NA
HETATM    2  C1  UNL     1       1.317   2.590   2.421  1.00  0.00     0.105 C 
HETATM    3  C2  UNL     1       1.701   1.456   1.495  1.00  0.00     0.115 C 
HETATM    4  C3  UNL     1       2.774   1.674   0.859  1.00  0.00     0.047 C 
ENDROOT
BRANCH   3   5
HETATM    5  C8  UNL     1       0.741   0.406   1.425  1.00  0.00     0.280 C 
HETATM    6  O1  UNL     1      -0.233   0.445   2.284  1.00  0.00    -0.265 OA
HETATM    7  N2  UNL     1       0.723  -0.658   0.538  1.00  0.00    -0.265 N 
ATOM      8  H2  UNL     1       1.445  -0.751  -0.176  1.00  0.00     0.190 HD
BRANCH   7   9
HETATM    9  N3  UNL     1      -0.319  -1.617   0.641  1.00  0.00    -0.298 N 
ATOM     10  H3  UNL     1      -0.127  -2.559   0.982  1.00  0.00     0.187 HD
BRANCH   9  11
HETATM   11  C9  UNL     1      -1.633  -1.239   0.260  1.00  0.00     0.048 A 
HETATM   12  C10 UNL     1      -2.691  -2.130   0.444  1.00  0.00     0.033 A 
HETATM   13  C11 UNL     1      -3.968  -1.783   0.075  1.00  0.00     0.038 A 
HETATM   14  C12 UNL     1      -4.274  -0.550  -0.493  1.00  0.00     0.103 A 
HETATM   15  C13 UNL     1      -3.230   0.325  -0.674  1.00  0.00     0.038 A 
HETATM   16  C14 UNL     1      -1.938  -0.025  -0.300  1.00  0.00     0.033 A 
BRANCH  14  17
HETATM   17  N4  UNL     1      -5.617  -0.251  -0.857  1.00  0.00    -0.116 N 
HETATM   18  O2  UNL     1      -6.506  -1.100  -0.651  1.00  0.00    -0.532 OA
HETATM   19  O3  UNL     1      -5.983   0.936  -1.430  1.00  0.00    -0.532 OA
ENDBRANCH  14  17
ENDBRANCH   9  11
ENDBRANCH   7   9
ENDBRANCH   3   5
BRANCH   4  20
HETATM   20  C4  UNL     1       3.509   0.882  -0.104  1.00  0.00     0.006 A 
HETATM   21  C5  UNL     1       3.851   1.241  -1.376  1.00  0.00     0.019 A 
HETATM   22  C6  UNL     1       4.616   0.406  -2.086  1.00  0.00     0.008 A 
HETATM   23  C7  UNL     1       5.005  -0.761  -1.481  1.00  0.00     0.050 A 
HETATM   24  S1  UNL     1       4.286  -0.647   0.060  1.00  0.00    -0.102 SA
ENDBRANCH   4  20
TORSDOF 5
