REMARK  3 active torsions:
REMARK  status: ('A' for Active; 'I' for Inactive)
REMARK       I    between atoms: C1_2  and  N1_3 
REMARK    1  A    between atoms: C1_2  and  C7_13 
REMARK    2  A    between atoms: N1_3  and  C2_5 
REMARK    3  A    between atoms: N3_15  and  C9_16 
ROOT
HETATM    1  O1  UNL     1       2.165   0.541   1.750  1.00  0.00    -0.270 OA
HETATM    2  C1  UNL     1       1.591  -0.224   0.950  1.00  0.00     0.253 C 
HETATM    3  N1  UNL     1       2.291  -0.927  -0.028  1.00  0.00    -0.324 N 
ATOM      4  H1  UNL     1       1.748  -1.537  -0.640  1.00  0.00     0.169 HD
ENDROOT
BRANCH   2   5
HETATM    5  C7  UNL     1       0.076  -0.379   1.066  1.00  0.00     0.231 C 
HETATM    6  C8  UNL     1      -0.598  -0.233  -0.252  1.00  0.00     0.159 C 
HETATM    7  N3  UNL     1      -1.361   0.966  -0.403  1.00  0.00    -0.403 N 
HETATM    8  C14 UNL     1      -0.960   2.051   0.413  1.00  0.00     0.143 C 
HETATM    9  C15 UNL     1      -0.522   1.733   1.797  1.00  0.00     0.188 C 
HETATM   10  O2  UNL     1      -0.430   0.398   2.081  1.00  0.00    -0.373 OA
BRANCH   7  11
HETATM   11  C9  UNL     1      -2.752   0.800  -0.587  1.00  0.00     0.079 C 
HETATM   12  C10 UNL     1      -3.493   0.153   0.542  1.00  0.00     0.025 C 
HETATM   13  C11 UNL     1      -4.677  -0.537  -0.149  1.00  0.00     0.002 C 
HETATM   14  C12 UNL     1      -4.062  -1.075  -1.402  1.00  0.00     0.002 C 
HETATM   15  C13 UNL     1      -3.049  -0.026  -1.800  1.00  0.00     0.025 C 
ENDBRANCH   7  11
ENDBRANCH   2   5
BRANCH   3  16
HETATM   16  C2  UNL     1       3.688  -0.871  -0.249  1.00  0.00     0.051 A 
HETATM   17  C3  UNL     1       4.321  -1.905  -0.942  1.00  0.00     0.117 A 
HETATM   18  N2  UNL     1       5.619  -1.909  -1.205  1.00  0.00    -0.372 N 
HETATM   19  C4  UNL     1       6.408  -0.903  -0.814  1.00  0.00     0.106 A 
ATOM     20  H2  UNL     1       6.024  -2.694  -1.715  1.00  0.00     0.164 HD
HETATM   21  C5  UNL     1       5.869   0.153  -0.130  1.00  0.00     0.028 A 
HETATM   22 BR1  UNL     1       6.957   1.599   0.442  1.00  0.00    -0.050 Br
HETATM   23  C6  UNL     1       4.497   0.154   0.147  1.00  0.00     0.051 A 
ENDBRANCH   3  16
TORSDOF 3
