REMARK  14 active torsions:
REMARK  status: ('A' for Active; 'I' for Inactive)
REMARK    1  A    between atoms: N1_1  and  C1_4 
REMARK    2  A    between atoms: C2_6  and  C3_7 
REMARK    3  A    between atoms: C3_7  and  N2_8 
REMARK    4  A    between atoms: C3_7  and  C4_13 
REMARK    5  A    between atoms: N2_8  and  N3_10 
REMARK    6  A    between atoms: C5_14  and  O2_15 
REMARK    7  A    between atoms: C6_17  and  S1_18 
REMARK    8  A    between atoms: N4_23  and  C8_24 
REMARK    9  A    between atoms: C8_24  and  C9_25 
REMARK   10  A    between atoms: C9_25  and  N5_26 
REMARK   11  A    between atoms: N5_26  and  C10_28 
REMARK   12  A    between atoms: C15_39  and  C16_40 
REMARK   13  A    between atoms: C16_40  and  O7_41 
REMARK   14  A    between atoms: C17_46  and  N10_47 
ROOT
HETATM    1  C3  UNL     1      -1.458  -1.066   0.532  1.00  0.00     0.201 C 
ENDROOT
BRANCH   1   2
HETATM    2  C2  UNL     1      -2.224   0.193   0.412  1.00  0.00     0.129 A 
HETATM    3  O1  UNL     1      -1.910   1.396   0.791  1.00  0.00    -0.277 OA
HETATM    4  C1  UNL     1      -2.902   2.247   0.483  1.00  0.00     0.228 A 
HETATM    5  N8  UNL     1      -3.890   1.587  -0.110  1.00  0.00    -0.265 N 
HETATM    6  C14 UNL     1      -3.464   0.278  -0.157  1.00  0.00     0.144 A 
HETATM    7  C15 UNL     1      -5.173   1.798  -0.683  1.00  0.00     0.323 C 
HETATM    8  N11 UNL     1      -4.367  -0.681  -0.739  1.00  0.00    -0.324 N 
HETATM    9  C17 UNL     1      -5.820  -0.513  -0.665  1.00  0.00     0.486 C 
ATOM     10  H11 UNL     1      -3.985  -1.498  -1.215  1.00  0.00     0.165 HD
HETATM   11  N9  UNL     1      -6.178   0.816  -0.298  1.00  0.00    -0.005 N 
ATOM     12  H92 UNL     1      -6.385   0.877   0.699  1.00  0.00     0.284 HD
ATOM     13  H91 UNL     1      -7.094   1.064  -0.672  1.00  0.00     0.284 HD
BRANCH   4  14
HETATM   14  N1  UNL     1      -2.831   3.497   0.753  1.00  0.00    -0.365 N 
ATOM     15  H12 UNL     1      -2.072   4.004   1.208  1.00  0.00     0.159 HD
ATOM     16  H11 UNL     1      -3.585   4.143   0.519  1.00  0.00     0.159 HD
ENDBRANCH   4  14
BRANCH   9  17
HETATM   17  N10 UNL     1      -6.491  -1.025  -1.822  1.00  0.00    -0.033 N 
ATOM     18 3H10 UNL     1      -7.501  -0.953  -1.703  1.00  0.00     0.278 HD
ATOM     19 2H10 UNL     1      -6.359  -0.394  -2.613  1.00  0.00     0.278 HD
ATOM     20 1H10 UNL     1      -6.235  -1.977  -2.085  1.00  0.00     0.278 HD
ENDBRANCH   9  17
BRANCH   7  21
HETATM   21  C16 UNL     1      -5.776   3.146  -0.585  1.00  0.00     0.219 C 
BRANCH  21  22
HETATM   22  O7  UNL     1      -6.246   3.446   0.716  1.00  0.00    -0.397 OA
ATOM     23  H7  UNL     1      -6.633   4.311   0.779  1.00  0.00     0.209 HD
ENDBRANCH  21  22
ENDBRANCH   7  21
ENDBRANCH   1   2
BRANCH   1  24
HETATM   24  N2  UNL     1      -1.599  -1.931  -0.581  1.00  0.00    -0.327 N 
ATOM     25  H2  UNL     1      -2.044  -2.843  -0.480  1.00  0.00     0.180 HD
BRANCH  24  26
HETATM   26  N3  UNL     1      -1.125  -1.515  -1.794  1.00  0.00    -0.348 N 
ATOM     27  H32 UNL     1      -0.683  -0.600  -1.879  1.00  0.00     0.176 HD
ATOM     28  H31 UNL     1      -1.227  -2.138  -2.595  1.00  0.00     0.176 HD
ENDBRANCH  24  26
ENDBRANCH   1  24
BRANCH   1  29
HETATM   29  C4  UNL     1      -0.023  -0.883   0.804  1.00  0.00     0.075 A 
HETATM   30  C5  UNL     1       0.577  -1.670   1.767  1.00  0.00     0.105 A 
HETATM   31  C6  UNL     1       1.944  -1.521   2.064  1.00  0.00     0.130 A 
HETATM   32  C7  UNL     1       2.659  -0.579   1.376  1.00  0.00     0.123 A 
HETATM   33  N4  UNL     1       2.107   0.199   0.437  1.00  0.00    -0.321 N 
HETATM   34  C13 UNL     1       0.796   0.030   0.177  1.00  0.00     0.259 A 
HETATM   35  O6  UNL     1       0.319   0.779  -0.711  1.00  0.00    -0.267 OA
BRANCH  30  36
HETATM   36  O2  UNL     1      -0.057  -2.636   2.501  1.00  0.00    -0.358 OA
ATOM     37  H2  UNL     1       0.356  -3.177   3.164  1.00  0.00     0.217 HD
ENDBRANCH  30  36
BRANCH  31  38
HETATM   38  S1  UNL     1       2.725  -2.520   3.285  1.00  0.00     0.141 S 
HETATM   39  O3  UNL     1       1.942  -2.398   4.548  1.00  0.00    -0.591 OA
HETATM   40  O4  UNL     1       4.157  -2.155   3.447  1.00  0.00    -0.591 OA
HETATM   41  O5  UNL     1       2.543  -4.124   2.751  1.00  0.00    -0.591 OA
ENDBRANCH  31  38
BRANCH  33  42
HETATM   42  C8  UNL     1       2.868   1.205  -0.289  1.00  0.00     0.151 C 
BRANCH  42  43
HETATM   43  C9  UNL     1       3.468   0.711  -1.560  1.00  0.00     0.143 C 
BRANCH  43  44
HETATM   44  N5  UNL     1       4.390  -0.367  -1.450  1.00  0.00    -0.361 N 
ATOM     45  H5  UNL     1       4.131  -1.282  -1.819  1.00  0.00     0.162 HD
BRANCH  44  46
HETATM   46  C10 UNL     1       5.683  -0.199  -0.830  1.00  0.00     0.171 C 
HETATM   47  N6  UNL     1       6.581  -1.105  -0.656  1.00  0.00    -0.361 N 
HETATM   48  C11 UNL     1       7.757  -0.558   0.007  1.00  0.00     0.142 C 
ATOM     49  H6  UNL     1       6.482  -2.078  -0.945  1.00  0.00     0.162 HD
HETATM   50  C12 UNL     1       7.215   0.737   0.630  1.00  0.00     0.142 C 
HETATM   51  N7  UNL     1       6.158   1.036  -0.313  1.00  0.00    -0.361 N 
ATOM     52  H7  UNL     1       5.816   1.965  -0.561  1.00  0.00     0.162 HD
ENDBRANCH  44  46
ENDBRANCH  43  44
ENDBRANCH  42  43
ENDBRANCH  33  42
ENDBRANCH   1  29
TORSDOF 14
