REMARK  13 active torsions:
REMARK  status: ('A' for Active; 'I' for Inactive)
REMARK    1  A    between atoms: C3_4  and  C4_5 
REMARK    2  A    between atoms: C6_9  and  O1_10 
REMARK    3  A    between atoms: N4_16  and  C9_17 
REMARK    4  A    between atoms: C9_17  and  O2_18 
REMARK    5  A    between atoms: O2_18  and  C10_19 
REMARK    6  A    between atoms: C10_19  and  O3_20 
REMARK    7  A    between atoms: C10_19  and  C11_22 
REMARK    8  A    between atoms: C11_22  and  O4_23 
REMARK    9  A    between atoms: C11_22  and  C12_25 
REMARK   10  A    between atoms: C12_25  and  O5_26 
REMARK   11  A    between atoms: C12_25  and  N5_28 
REMARK       I    between atoms: N5_28  and  C13_30 
REMARK       I    between atoms: C13_30  and  N6_32 
REMARK   12  A    between atoms: N9_41  and  N10_42 
REMARK   13  A    between atoms: C18_49  and  N12_50 
ROOT
HETATM    1  C9  UNL     1       0.200   1.609  -3.260  1.00  0.00     0.303 C 
ENDROOT
BRANCH   1   2
HETATM    2  N4  UNL     1       0.321   2.628  -2.247  1.00  0.00    -0.317 N 
HETATM    3  C8  UNL     1      -0.073   3.908  -2.461  1.00  0.00     0.186 A 
HETATM    4  N3  UNL     1       0.101   4.631  -1.342  1.00  0.00    -0.348 N 
HETATM    5  C7  UNL     1       0.610   3.836  -0.386  1.00  0.00     0.098 A 
ATOM      6  H3  UNL     1      -0.118   5.622  -1.236  1.00  0.00     0.167 HD
HETATM    7  C6  UNL     1       1.093   3.778   0.990  1.00  0.00     0.124 A 
HETATM    8  C16 UNL     1       0.733   2.602  -0.983  1.00  0.00     0.096 A 
HETATM    9  C5  UNL     1       1.504   2.524   1.220  1.00  0.00     0.099 A 
HETATM   10  N2  UNL     1       2.062   1.646   2.162  1.00  0.00    -0.337 N 
HETATM   11  C17 UNL     1       1.306   1.718   0.015  1.00  0.00     0.093 A 
HETATM   12  C4  UNL     1       2.181   0.474   1.591  1.00  0.00     0.122 A 
ATOM     13  H2  UNL     1       2.327   1.879   3.119  1.00  0.00     0.167 HD
HETATM   14  N11 UNL     1       1.704   0.539   0.255  1.00  0.00    -0.338 N 
ATOM     15  H11 UNL     1       1.685  -0.238  -0.405  1.00  0.00     0.167 HD
BRANCH   7  16
HETATM   16  O1  UNL     1       1.143   4.795   1.927  1.00  0.00    -0.356 OA
ATOM     17  H1  UNL     1       0.852   5.684   1.764  1.00  0.00     0.218 HD
ENDBRANCH   7  16
BRANCH  12  18
HETATM   18  C3  UNL     1       2.737  -0.657   2.321  1.00  0.00     0.070 A 
HETATM   19  C2  UNL     1       2.876  -0.782   3.704  1.00  0.00     0.128 A 
HETATM   20  N1  UNL     1       3.437  -1.974   3.980  1.00  0.00    -0.305 N 
HETATM   21  C1  UNL     1       3.774  -2.544   5.285  1.00  0.00     0.177 C 
HETATM   22  N13 UNL     1       3.660  -2.612   2.840  1.00  0.00    -0.284 N 
HETATM   23  C18 UNL     1       3.240  -1.826   1.803  1.00  0.00     0.129 A 
ATOM     24  H13 UNL     1       4.077  -3.539   2.751  1.00  0.00     0.188 HD
BRANCH  23  25
HETATM   25  N12 UNL     1       3.324  -2.166   0.574  1.00  0.00    -0.384 N 
ATOM     26 2H12 UNL     1       3.011  -1.580  -0.200  1.00  0.00     0.157 HD
ATOM     27 1H12 UNL     1       3.697  -3.034   0.189  1.00  0.00     0.157 HD
ENDBRANCH  23  25
ENDBRANCH  12  18
ENDBRANCH   1   2
BRANCH   1  28
HETATM   28  O2  UNL     1      -1.135   1.185  -3.296  1.00  0.00    -0.339 OA
BRANCH  28  29
HETATM   29  C10 UNL     1      -1.339   0.229  -4.257  1.00  0.00     0.291 C 
BRANCH  29  30
HETATM   30  O3  UNL     1      -1.824   1.031  -5.416  1.00  0.00    -0.368 OA
ATOM     31  H3  UNL     1      -1.965   0.368  -6.082  1.00  0.00     0.212 HD
ENDBRANCH  29  30
BRANCH  29  32
HETATM   32  C11 UNL     1      -2.327  -0.828  -4.042  1.00  0.00     0.221 C 
BRANCH  32  33
HETATM   33  O4  UNL     1      -3.649  -0.292  -3.906  1.00  0.00    -0.386 OA
ATOM     34  H4  UNL     1      -4.291  -0.978  -3.766  1.00  0.00     0.210 HD
ENDBRANCH  32  33
BRANCH  32  35
HETATM   35  C12 UNL     1      -2.173  -1.745  -2.881  1.00  0.00     0.255 C 
BRANCH  35  36
HETATM   36  O5  UNL     1      -3.261  -2.666  -2.946  1.00  0.00    -0.374 OA
ATOM     37  H5  UNL     1      -3.163  -3.252  -2.204  1.00  0.00     0.212 HD
ENDBRANCH  35  36
BRANCH  35  38
HETATM   38  N5  UNL     1      -2.344  -1.103  -1.583  1.00  0.00    -0.312 N 
HETATM   39  C13 UNL     1      -1.681  -1.618  -0.463  1.00  0.00     0.360 C 
HETATM   40  O6  UNL     1      -0.946  -2.649  -0.671  1.00  0.00    -0.244 OA
HETATM   41  N6  UNL     1      -1.737  -1.132   0.851  1.00  0.00    -0.006 N 
HETATM   42  C14 UNL     1      -1.130  -1.653   1.957  1.00  0.00     0.707 A 
HETATM   43  N9  UNL     1      -2.375  -0.060   1.291  1.00  0.00    -0.122 N 
HETATM   44  N7  UNL     1      -0.423  -2.686   2.034  1.00  0.00    -0.232 N 
HETATM   45  N8  UNL     1      -1.410  -0.891   3.035  1.00  0.00    -0.137 N 
ATOM     46  H72 UNL     1      -0.211  -3.262   1.219  1.00  0.00     0.174 HD
ATOM     47  H71 UNL     1       0.031  -3.075   2.860  1.00  0.00     0.174 HD
HETATM   48  C15 UNL     1      -2.186   0.104   2.630  1.00  0.00     0.375 A 
ATOM     49  H8  UNL     1      -1.084  -1.052   3.988  1.00  0.00     0.189 HD
HETATM   50  O7  UNL     1      -2.674   1.044   3.335  1.00  0.00    -0.243 OA
ATOM     51  H5  UNL     1      -2.944  -0.283  -1.492  1.00  0.00     0.167 HD
BRANCH  43  52
HETATM   52  N10 UNL     1      -3.159   0.850   0.576  1.00  0.00    -0.319 N 
ATOM     53 2H10 UNL     1      -3.301   0.727  -0.427  1.00  0.00     0.179 HD
ATOM     54 1H10 UNL     1      -3.651   1.677   0.915  1.00  0.00     0.179 HD
ENDBRANCH  43  52
ENDBRANCH  35  38
ENDBRANCH  32  35
ENDBRANCH  29  32
ENDBRANCH  28  29
ENDBRANCH   1  28
TORSDOF 13
