REMARK  17 active torsions:
REMARK  status: ('A' for Active; 'I' for Inactive)
REMARK    1  A    between atoms: C3_3  and  O1_4 
REMARK    2  A    between atoms: C4_6  and  O2_7 
REMARK    3  A    between atoms: C5_9  and  O3_10 
REMARK    4  A    between atoms: C6_12  and  C7_13 
REMARK    5  A    between atoms: C7_13  and  O4_14 
REMARK    6  A    between atoms: C7_13  and  C8_16 
REMARK    7  A    between atoms: C9_18  and  O6_19 
REMARK    8  A    between atoms: C10_21  and  S1_22 
REMARK    9  A    between atoms: S1_22  and  C11_23 
REMARK   10  A    between atoms: N1_24  and  C12_26 
REMARK   11  A    between atoms: C12_26  and  C13_27 
REMARK   12  A    between atoms: C13_27  and  O7_28 
REMARK   13  A    between atoms: C14_31  and  O9_32 
REMARK   14  A    between atoms: C15_35  and  C16_36 
REMARK   15  A    between atoms: C16_36  and  O11_37 
REMARK   16  A    between atoms: N2_40  and  O12_42 
REMARK   17  A    between atoms: C19_45  and  O13_46 
ROOT
HETATM    1  C1  UNL     1      -5.204  -1.335   1.593  1.00  0.00     0.016 C 
HETATM    2  C2  UNL     1      -3.661  -1.374   1.449  1.00  0.00     0.053 C 
HETATM    3  C3  UNL     1      -3.418  -2.559   0.575  1.00  0.00     0.156 C 
HETATM    4  C4  UNL     1      -2.018  -2.709   0.101  1.00  0.00     0.176 C 
HETATM    5  C5  UNL     1      -1.031  -1.881   0.904  1.00  0.00     0.161 C 
HETATM    6  C6  UNL     1      -0.832  -0.520   0.353  1.00  0.00     0.116 C 
HETATM    7  C14 UNL     1      -1.925   0.400   0.900  1.00  0.00     0.203 C 
HETATM    8  O10 UNL     1      -1.782   1.711   0.528  1.00  0.00    -0.339 OA
HETATM    9  C15 UNL     1      -2.415   2.145  -0.602  1.00  0.00     0.196 C 
HETATM   10  C17 UNL     1      -3.244   1.170  -1.276  1.00  0.00     0.044 C 
HETATM   11  N2  UNL     1      -3.526   1.259  -2.529  1.00  0.00    -0.275 N 
ATOM     12  H2  UNL     1      -4.121   0.520  -2.903  1.00  0.00     0.193 HD
HETATM   13  C18 UNL     1      -3.820  -0.025  -0.605  1.00  0.00     0.101 C 
HETATM   14  C19 UNL     1      -3.304  -0.070   0.779  1.00  0.00     0.125 C 
ENDROOT
BRANCH   6  15
HETATM   15  C7  UNL     1       0.481   0.103   0.731  1.00  0.00     0.185 C 
BRANCH  15  16
HETATM   16  O4  UNL     1       0.550   1.426   0.211  1.00  0.00    -0.390 OA
ATOM     17  H4  UNL     1       1.381   1.820   0.450  1.00  0.00     0.210 HD
ENDBRANCH  15  16
BRANCH  15  18
HETATM   18  C8  UNL     1       1.706  -0.541   0.084  1.00  0.00     0.294 C 
HETATM   19  O5  UNL     1       1.588  -0.519  -1.302  1.00  0.00    -0.326 OA
HETATM   20  C9  UNL     1       2.841  -0.167  -1.793  1.00  0.00     0.299 C 
HETATM   21  C10 UNL     1       3.324   0.743  -0.709  1.00  0.00     0.246 C 
HETATM   22  O8  UNL     1       2.850   0.165   0.429  1.00  0.00    -0.338 OA
BRANCH  20  23
HETATM   23  O6  UNL     1       2.819   0.393  -3.046  1.00  0.00    -0.368 OA
ATOM     24  H6  UNL     1       3.675   0.633  -3.381  1.00  0.00     0.212 HD
ENDBRANCH  20  23
BRANCH  21  25
HETATM   25  S1  UNL     1       5.132   0.910  -0.715  1.00  0.00    -0.088 SA
BRANCH  25  26
HETATM   26  C11 UNL     1       5.938  -0.613  -0.305  1.00  0.00     0.131 C 
HETATM   27  N1  UNL     1       7.201  -0.704  -0.441  1.00  0.00    -0.392 N 
ATOM     28  H1  UNL     1       7.667  -1.580  -0.205  1.00  0.00     0.159 HD
BRANCH  27  29
HETATM   29  C12 UNL     1       7.970   0.385  -0.912  1.00  0.00     0.145 C 
BRANCH  29  30
HETATM   30  C13 UNL     1       8.379   1.332   0.220  1.00  0.00     0.183 C 
BRANCH  30  31
HETATM   31  O7  UNL     1       9.120   2.345  -0.365  1.00  0.00    -0.399 OA
ATOM     32  H7  UNL     1       9.374   2.932   0.337  1.00  0.00     0.209 HD
ENDBRANCH  30  31
ENDBRANCH  29  30
ENDBRANCH  27  29
ENDBRANCH  25  26
ENDBRANCH  21  25
ENDBRANCH  15  18
ENDBRANCH   6  15
BRANCH   5  33
HETATM   33  O3  UNL     1       0.066  -2.689   1.077  1.00  0.00    -0.392 OA
ATOM     34  H3  UNL     1       0.684  -2.171   1.580  1.00  0.00     0.210 HD
ENDBRANCH   5  33
BRANCH   7  35
HETATM   35  O9  UNL     1      -1.646   0.404   2.303  1.00  0.00    -0.362 OA
ATOM     36  H9  UNL     1      -2.325   0.975   2.643  1.00  0.00     0.213 HD
ENDBRANCH   7  35
BRANCH   4  37
HETATM   37  O2  UNL     1      -1.691  -4.068   0.245  1.00  0.00    -0.390 OA
ATOM     38  H2  UNL     1      -0.796  -4.164  -0.058  1.00  0.00     0.210 HD
ENDBRANCH   4  37
BRANCH  14  39
HETATM   39  O13 UNL     1      -4.091   0.900   1.495  1.00  0.00    -0.383 OA
ATOM     40  H13 UNL     1      -3.866   1.721   1.073  1.00  0.00     0.210 HD
ENDBRANCH  14  39
BRANCH   3  41
HETATM   41  O1  UNL     1      -3.830  -3.686   1.340  1.00  0.00    -0.392 OA
ATOM     42  H1  UNL     1      -3.675  -4.440   0.784  1.00  0.00     0.210 HD
ENDBRANCH   3  41
BRANCH   9  43
HETATM   43  C16 UNL     1      -3.034   3.484  -0.300  1.00  0.00     0.202 C 
BRANCH  43  44
HETATM   44  O11 UNL     1      -3.729   4.053  -1.357  1.00  0.00    -0.398 OA
ATOM     45  H11 UNL     1      -4.120   4.898  -1.166  1.00  0.00     0.209 HD
ENDBRANCH  43  44
ENDBRANCH   9  43
BRANCH  11  46
HETATM   46  O12 UNL     1      -3.140   2.197  -3.408  1.00  0.00    -0.290 OA
ATOM     47  H12 UNL     1      -3.348   2.263  -4.333  1.00  0.00     0.244 HD
ENDBRANCH  11  46
TORSDOF 17
