REMARK  19 active torsions:
REMARK  status: ('A' for Active; 'I' for Inactive)
REMARK    1  A    between atoms: O1_2  and  N1_3 
REMARK    2  A    between atoms: N1_3  and  C2_5 
REMARK    3  A    between atoms: C2_5  and  O2_6 
REMARK    4  A    between atoms: O2_6  and  N2_7 
REMARK    5  A    between atoms: C3_9  and  C5_11 
REMARK    6  A    between atoms: C5_11  and  O3_12 
REMARK    7  A    between atoms: C5_11  and  C6_14 
REMARK    8  A    between atoms: C6_14  and  N3_15 
REMARK    9  A    between atoms: C6_14  and  C7_19 
REMARK   10  A    between atoms: C7_19  and  O4_20 
REMARK   11  A    between atoms: C9_25  and  N5_26 
REMARK   12  A    between atoms: C10_31  and  N7_32 
REMARK   13  A    between atoms: N7_32  and  C11_34 
REMARK   14  A    between atoms: C16_44  and  O5_45 
REMARK   15  A    between atoms: C16_44  and  O6_47 
REMARK   16  A    between atoms: C17_49  and  C18_50 
REMARK   17  A    between atoms: C18_50  and  N12_55 
REMARK   18  A    between atoms: N11_51  and  O7_53 
REMARK   19  A    between atoms: N12_55  and  N13_57 
ROOT
HETATM    1  C2  UNL     1      -1.490  -1.257   0.221  1.00  0.00     0.218 C 
HETATM    2  C8  UNL     1      -0.157  -1.311  -0.336  1.00  0.00     0.122 A 
HETATM    3  N4  UNL     1       0.028  -2.179  -1.387  1.00  0.00    -0.186 N 
ATOM      4  H4  UNL     1      -0.740  -2.760  -1.723  1.00  0.00     0.184 HD
HETATM    5  C9  UNL     1       1.236  -2.247  -1.961  1.00  0.00     0.678 A 
HETATM    6  N6  UNL     1       2.277  -1.497  -1.550  1.00  0.00    -0.176 N 
ATOM      7  H6  UNL     1       3.173  -1.591  -2.028  1.00  0.00     0.186 HD
HETATM    8  C10 UNL     1       2.171  -0.632  -0.533  1.00  0.00     0.134 A 
HETATM    9  C17 UNL     1       0.897  -0.557   0.077  1.00  0.00     0.087 A 
ENDROOT
BRANCH   1  10
HETATM   10  N1  UNL     1      -1.803  -0.456   1.151  1.00  0.00    -0.242 N 
ATOM     11  H1  UNL     1      -1.056   0.154   1.482  1.00  0.00     0.196 HD
BRANCH  10  12
HETATM   12  O1  UNL     1      -3.004  -0.305   1.764  1.00  0.00    -0.283 OA
HETATM   13  C1  UNL     1      -3.195   0.073   3.101  1.00  0.00     0.237 C 
ENDBRANCH  10  12
ENDBRANCH   1  10
BRANCH   1  14
HETATM   14  O2  UNL     1      -2.521  -2.088  -0.230  1.00  0.00    -0.216 OA
BRANCH  14  15
HETATM   15  N2  UNL     1      -3.839  -1.730  -0.158  1.00  0.00    -0.265 N 
HETATM   16  C3  UNL     1      -4.489  -1.094  -1.054  1.00  0.00     0.037 C 
HETATM   17  C4  UNL     1      -3.793  -0.686  -2.296  1.00  0.00     0.068 C 
ATOM     18  H2  UNL     1      -4.347  -1.994   0.686  1.00  0.00     0.194 HD
BRANCH  16  19
HETATM   19  C5  UNL     1      -5.907  -0.767  -0.877  1.00  0.00     0.197 C 
BRANCH  19  20
HETATM   20  O3  UNL     1      -6.715  -1.372  -1.861  1.00  0.00    -0.388 OA
ATOM     21  H3  UNL     1      -7.634  -1.160  -1.746  1.00  0.00     0.210 HD
ENDBRANCH  19  20
BRANCH  19  22
HETATM   22  C6  UNL     1      -6.231   0.691  -0.910  1.00  0.00     0.241 C 
BRANCH  22  23
HETATM   23  N3  UNL     1      -5.510   1.487   0.028  1.00  0.00    -0.070 N 
ATOM     24  H33 UNL     1      -5.634   1.119   0.971  1.00  0.00     0.274 HD
ATOM     25  H32 UNL     1      -4.506   1.346  -0.087  1.00  0.00     0.274 HD
ATOM     26  H31 UNL     1      -5.731   2.482   0.005  1.00  0.00     0.274 HD
ENDBRANCH  22  23
BRANCH  22  27
HETATM   27  C7  UNL     1      -7.716   0.822  -0.554  1.00  0.00     0.199 C 
BRANCH  27  28
HETATM   28  O4  UNL     1      -7.864   0.354   0.737  1.00  0.00    -0.399 OA
ATOM     29  H4  UNL     1      -8.784   0.435   0.958  1.00  0.00     0.209 HD
ENDBRANCH  27  28
ENDBRANCH  22  27
ENDBRANCH  19  22
ENDBRANCH  16  19
ENDBRANCH  14  15
ENDBRANCH   1  14
BRANCH   9  30
HETATM   30  C18 UNL     1       0.750   0.347   1.211  1.00  0.00     0.155 C 
HETATM   31  N11 UNL     1       0.509   1.615   1.036  1.00  0.00    -0.251 N 
ATOM     32  H11 UNL     1       0.414   2.205   1.862  1.00  0.00     0.196 HD
BRANCH  31  33
HETATM   33  O7  UNL     1       0.378   2.194  -0.182  1.00  0.00    -0.288 OA
ATOM     34  H7  UNL     1       0.202   3.119  -0.310  1.00  0.00     0.244 HD
ENDBRANCH  31  33
BRANCH  30  35
HETATM   35  N12 UNL     1       0.891  -0.098   2.553  1.00  0.00    -0.290 N 
ATOM     36  H12 UNL     1       0.632  -1.048   2.817  1.00  0.00     0.188 HD
BRANCH  35  37
HETATM   37  N13 UNL     1       1.391   0.792   3.499  1.00  0.00    -0.344 N 
ATOM     38 2H13 UNL     1       1.646   1.739   3.219  1.00  0.00     0.176 HD
ATOM     39 1H13 UNL     1       1.492   0.473   4.462  1.00  0.00     0.176 HD
ENDBRANCH  35  37
ENDBRANCH  30  35
ENDBRANCH   9  30
BRANCH   5  40
HETATM   40  N5  UNL     1       1.398  -3.063  -2.937  1.00  0.00    -0.234 N 
ATOM     41  H52 UNL     1       0.610  -3.631  -3.248  1.00  0.00     0.174 HD
ATOM     42  H51 UNL     1       2.318  -3.115  -3.374  1.00  0.00     0.174 HD
ENDBRANCH   5  40
BRANCH   8  43
HETATM   43  N7  UNL     1       3.122   0.091  -0.096  1.00  0.00    -0.363 N 
ATOM     44  H7  UNL     1       2.895   0.706   0.685  1.00  0.00     0.161 HD
BRANCH  43  45
HETATM   45  C11 UNL     1       4.479   0.146  -0.571  1.00  0.00     0.173 A 
HETATM   46  C12 UNL     1       5.158  -1.236  -0.366  1.00  0.00     0.200 A 
HETATM   47  N8  UNL     1       6.400  -1.029   0.546  1.00  0.00    -0.232 N 
HETATM   48  N9  UNL     1       7.439  -0.674   1.335  1.00  0.00    -0.287 N 
HETATM   49  N10 UNL     1       6.083   0.018   0.461  1.00  0.00    -0.281 N 
HETATM   50  C13 UNL     1       7.376   0.777   1.488  1.00  0.00     0.053 A 
ATOM     51  H9  UNL     1       8.133  -1.299   1.744  1.00  0.00     0.188 HD
HETATM   52  C14 UNL     1       8.166   1.737   2.185  1.00  0.00     0.072 C 
HETATM   53  C15 UNL     1       6.287   1.123   0.756  1.00  0.00     0.114 A 
HETATM   54  C16 UNL     1       5.074   1.541  -0.054  1.00  0.00     0.230 A 
ATOM     55  H10 UNL     1       5.253   0.023  -0.131  1.00  0.00     0.188 HD
BRANCH  54  56
HETATM   56  O5  UNL     1       5.558   2.258  -1.113  1.00  0.00    -0.359 OA
ATOM     57  H5  UNL     1       5.911   3.085  -0.806  1.00  0.00     0.213 HD
ENDBRANCH  54  56
BRANCH  54  58
HETATM   58  O6  UNL     1       4.143   2.244   0.618  1.00  0.00    -0.359 OA
ATOM     59  H6  UNL     1       4.496   3.071   0.925  1.00  0.00     0.213 HD
ENDBRANCH  54  58
ENDBRANCH  43  45
ENDBRANCH   8  43
TORSDOF 19
