REMARK  16 active torsions:
REMARK  status: ('A' for Active; 'I' for Inactive)
REMARK    1  A    between atoms: N1_1  and  C1_4 
REMARK    2  A    between atoms: C5_10  and  N3_11 
REMARK    3  A    between atoms: N3_11  and  C6_13 
REMARK    4  A    between atoms: C8_15  and  N4_16 
REMARK    5  A    between atoms: C9_18  and  O1_19 
REMARK    6  A    between atoms: C9_18  and  N5_21 
REMARK    7  A    between atoms: N5_21  and  O2_23 
REMARK    8  A    between atoms: O2_23  and  C10_24 
REMARK    9  A    between atoms: C10_24  and  C11_25 
REMARK   10  A    between atoms: C11_25  and  N6_26 
REMARK   11  A    between atoms: N7_30  and  C12_31 
REMARK   12  A    between atoms: C12_31  and  O3_32 
REMARK   13  A    between atoms: C12_31  and  C13_34 
REMARK   14  A    between atoms: C14_36  and  O5_37 
REMARK   15  A    between atoms: O5_37  and  N8_38 
REMARK   16  A    between atoms: C17_47  and  N11_48 
ROOT
HETATM    1  C1  UNL     1      -3.610  -3.945   0.759  1.00  0.00     0.678 A 
HETATM    2  N2  UNL     1      -3.258  -2.679   0.861  1.00  0.00    -0.175 N 
ATOM      3  H2  UNL     1      -3.827  -2.081   1.460  1.00  0.00     0.186 HD
HETATM    4  C2  UNL     1      -2.212  -2.112   0.241  1.00  0.00     0.144 A 
HETATM    5  C3  UNL     1      -1.476  -2.952  -0.551  1.00  0.00     0.054 A 
HETATM    6  C4  UNL     1      -0.440  -2.247  -1.085  1.00  0.00     0.067 A 
HETATM    7  C5  UNL     1      -0.519  -0.929  -0.621  1.00  0.00     0.112 A 
HETATM    8  N7  UNL     1      -1.632  -0.887   0.198  1.00  0.00    -0.262 N 
HETATM    9  C18 UNL     1      -1.850  -4.288  -0.658  1.00  0.00     0.146 A 
HETATM   10  N13 UNL     1      -1.066  -5.123  -1.487  1.00  0.00    -0.081 NA
HETATM   11  N14 UNL     1      -2.904  -4.800  -0.017  1.00  0.00    -0.178 N 
ATOM     12  H14 UNL     1      -3.163  -5.782  -0.107  1.00  0.00     0.185 HD
ENDROOT
BRANCH   8  13
HETATM   13  C12 UNL     1      -2.098   0.271   0.804  1.00  0.00     0.178 C 
BRANCH  13  14
HETATM   14  O3  UNL     1      -1.200   1.245   0.804  1.00  0.00    -0.345 OA
ATOM     15  H3  UNL     1      -1.519   2.038   1.219  1.00  0.00     0.219 HD
ENDBRANCH  13  14
BRANCH  13  16
HETATM   16  C13 UNL     1      -3.331   0.657   1.430  1.00  0.00     0.341 C 
HETATM   17  O4  UNL     1      -3.190   2.030   1.894  1.00  0.00    -0.323 OA
HETATM   18  C14 UNL     1      -3.165   2.925   0.861  1.00  0.00     0.310 C 
HETATM   19  C15 UNL     1      -3.638   2.446  -0.485  1.00  0.00     0.218 C 
HETATM   20  N9  UNL     1      -4.729   1.527  -0.256  1.00  0.00    -0.218 N 
HETATM   21  C16 UNL     1      -5.940   1.406  -0.790  1.00  0.00     0.356 A 
HETATM   22  N12 UNL     1      -4.593   0.652   0.725  1.00  0.00    -0.080 N 
HETATM   23  O6  UNL     1      -6.460   2.057  -1.754  1.00  0.00    -0.244 OA
HETATM   24  N10 UNL     1      -6.581   0.440  -0.128  1.00  0.00    -0.139 N 
HETATM   25  C17 UNL     1      -5.752  -0.020   0.804  1.00  0.00     0.699 A 
ATOM     26  H10 UNL     1      -7.531   0.115  -0.305  1.00  0.00     0.189 HD
BRANCH  18  27
HETATM   27  O5  UNL     1      -4.067   3.996   1.183  1.00  0.00    -0.253 OA
BRANCH  27  28
HETATM   28  N8  UNL     1      -3.432   5.166   1.247  1.00  0.00    -0.308 N 
ATOM     29  H82 UNL     1      -2.430   5.271   1.085  1.00  0.00     0.184 HD
ATOM     30  H81 UNL     1      -4.072   5.926   1.476  1.00  0.00     0.184 HD
ENDBRANCH  27  28
ENDBRANCH  18  27
BRANCH  25  31
HETATM   31  N11 UNL     1      -6.091  -0.945   1.678  1.00  0.00    -0.233 N 
ATOM     32 2H11 UNL     1      -6.972  -1.456   1.738  1.00  0.00     0.174 HD
ATOM     33 1H11 UNL     1      -5.455  -1.298   2.393  1.00  0.00     0.174 HD
ENDBRANCH  25  31
ENDBRANCH  13  16
ENDBRANCH   8  13
BRANCH   7  34
HETATM   34  N3  UNL     1       0.403   0.071  -0.982  1.00  0.00    -0.369 N 
ATOM     35  H3  UNL     1       0.283   1.027  -0.646  1.00  0.00     0.161 HD
BRANCH  34  36
HETATM   36  C6  UNL     1       1.526  -0.269  -1.837  1.00  0.00     0.108 A 
HETATM   37  C7  UNL     1       2.498  -1.259  -1.233  1.00  0.00     0.054 A 
HETATM   38  C8  UNL     1       2.894   0.181  -1.534  1.00  0.00     0.109 A 
BRANCH  38  39
HETATM   39  N4  UNL     1       3.207   1.067  -0.456  1.00  0.00    -0.348 N 
HETATM   40  C9  UNL     1       4.399   1.127   0.028  1.00  0.00     0.237 C 
ATOM     41  H4  UNL     1       2.475   1.660  -0.065  1.00  0.00     0.163 HD
BRANCH  40  42
HETATM   42  O1  UNL     1       4.653   2.002   1.074  1.00  0.00    -0.331 OA
ATOM     43  H1  UNL     1       5.532   2.046   1.431  1.00  0.00     0.221 HD
ENDBRANCH  40  42
BRANCH  40  44
HETATM   44  N5  UNL     1       5.443   0.318  -0.489  1.00  0.00    -0.230 N 
ATOM     45  H5  UNL     1       5.318  -0.694  -0.484  1.00  0.00     0.198 HD
BRANCH  44  46
HETATM   46  O2  UNL     1       6.578   0.812  -0.980  1.00  0.00    -0.276 OA
BRANCH  46  47
HETATM   47  C10 UNL     1       7.587   0.899  -0.016  1.00  0.00     0.228 C 
BRANCH  47  48
HETATM   48  C11 UNL     1       8.860   1.468  -0.626  1.00  0.00     0.258 C 
BRANCH  48  49
HETATM   49  N6  UNL     1       9.884   1.546   0.396  1.00  0.00    -0.077 N 
ATOM     50  H63 UNL     1       9.576   2.074   1.213  1.00  0.00     0.274 HD
ATOM     51  H62 UNL     1      10.042   0.649   0.855  1.00  0.00     0.274 HD
ATOM     52  H61 UNL     1      10.737   1.927  -0.013  1.00  0.00     0.274 HD
ENDBRANCH  48  49
ENDBRANCH  47  48
ENDBRANCH  46  47
ENDBRANCH  44  46
ENDBRANCH  40  44
ENDBRANCH  38  39
ENDBRANCH  34  36
ENDBRANCH   7  34
BRANCH   1  53
HETATM   53  N1  UNL     1      -4.628  -4.394   1.399  1.00  0.00    -0.234 N 
ATOM     54  H12 UNL     1      -5.160  -3.750   1.984  1.00  0.00     0.174 HD
ATOM     55  H11 UNL     1      -4.900  -5.374   1.320  1.00  0.00     0.174 HD
ENDBRANCH   1  53
TORSDOF 16
