REMARK  12 active torsions:
REMARK  status: ('A' for Active; 'I' for Inactive)
REMARK       I    between atoms: N2_3  and  C2_5 
REMARK       I    between atoms: C2_5  and  N4_9 
REMARK    1  A    between atoms: N4_9  and  C3_11 
REMARK    2  A    between atoms: C3_11  and  N5_12 
REMARK    3  A    between atoms: C5_21  and  C6_22 
REMARK    4  A    between atoms: C7_25  and  N9_26 
REMARK    5  A    between atoms: C9_33  and  C10_34 
REMARK    6  A    between atoms: C10_34  and  O1_35 
REMARK    7  A    between atoms: C10_34  and  N12_37 
REMARK    8  A    between atoms: N12_37  and  C11_39 
REMARK    9  A    between atoms: C11_39  and  C12_40 
REMARK   10  A    between atoms: C12_40  and  C13_42 
REMARK   11  A    between atoms: C14_48  and  C15_49 
REMARK   12  A    between atoms: C15_49  and  N15_50 
ROOT
HETATM    1  N1  UNL     1      -4.162   0.777   6.419  1.00  0.00    -0.171 NA
HETATM    2  C1  UNL     1      -4.357   0.514   5.312  1.00  0.00     0.196 C 
HETATM    3  N2  UNL     1      -4.601   0.195   3.971  1.00  0.00    -0.126 N 
ATOM      4  H2  UNL     1      -5.020  -0.706   3.742  1.00  0.00     0.197 HD
HETATM    5  C2  UNL     1      -4.282   1.086   2.934  1.00  0.00     0.684 C 
HETATM    6  N3  UNL     1      -4.151   2.332   3.155  1.00  0.00    -0.234 N 
ATOM      7  H31 UNL     1      -3.919   2.979   2.402  1.00  0.00     0.174 HD
ATOM      8  H32 UNL     1      -4.280   2.692   4.101  1.00  0.00     0.174 HD
HETATM    9  N4  UNL     1      -4.103   0.585   1.617  1.00  0.00    -0.171 N 
ATOM     10  H4  UNL     1      -4.893   0.634   0.974  1.00  0.00     0.182 HD
ENDROOT
BRANCH   9  11
HETATM   11  C3  UNL     1      -2.892   0.021   1.142  1.00  0.00     0.325 C 
HETATM   12  N6  UNL     1      -1.755   0.953   1.124  1.00  0.00    -0.170 N 
HETATM   13  C4  UNL     1      -0.803   0.247   0.293  1.00  0.00     0.700 A 
ATOM     14  H6  UNL     1      -1.661   1.861   1.579  1.00  0.00     0.182 HD
HETATM   15  N7  UNL     1       0.485   0.042   0.010  1.00  0.00    -0.172 N 
HETATM   16  N14 UNL     1      -1.483  -0.540  -0.557  1.00  0.00    -0.109 N 
HETATM   17  C5  UNL     1       0.654  -0.811  -0.949  1.00  0.00     0.164 A 
ATOM     18  H7  UNL     1       1.252   0.506   0.496  1.00  0.00     0.186 HD
HETATM   19  N13 UNL     1      -0.633  -1.174  -1.301  1.00  0.00    -0.266 N 
ATOM     20  H13 UNL     1      -0.876  -1.840  -2.035  1.00  0.00     0.189 HD
HETATM   21  C14 UNL     1      -2.921  -0.377  -0.311  1.00  0.00     0.226 C 
BRANCH  11  22
HETATM   22  N5  UNL     1      -2.432  -1.090   1.974  1.00  0.00    -0.030 N 
ATOM     23  H53 UNL     1      -2.349  -0.808   2.951  1.00  0.00     0.279 HD
ATOM     24  H52 UNL     1      -3.156  -1.802   2.071  1.00  0.00     0.279 HD
ATOM     25  H51 UNL     1      -1.561  -1.496   1.632  1.00  0.00     0.279 HD
ENDBRANCH  11  22
BRANCH  17  26
HETATM   26  C6  UNL     1       1.766  -1.436  -1.648  1.00  0.00     0.113 A 
HETATM   27  N8  UNL     1       1.415  -2.328  -2.647  1.00  0.00    -0.187 N 
HETATM   28  C7  UNL     1       2.289  -3.076  -3.293  1.00  0.00     0.677 A 
ATOM     29  H8  UNL     1       0.429  -2.411  -2.897  1.00  0.00     0.184 HD
HETATM   30  N10 UNL     1       3.577  -2.969  -2.967  1.00  0.00    -0.178 N 
HETATM   31  C8  UNL     1       4.003  -2.143  -2.030  1.00  0.00     0.148 A 
ATOM     32  H10 UNL     1       4.258  -3.547  -3.460  1.00  0.00     0.185 HD
HETATM   33  N11 UNL     1       5.411  -2.074  -1.741  1.00  0.00    -0.081 NA
HETATM   34  C9  UNL     1       3.083  -1.323  -1.321  1.00  0.00     0.087 A 
BRANCH  28  35
HETATM   35  N9  UNL     1       1.941  -3.895  -4.215  1.00  0.00    -0.234 N 
ATOM     36  H92 UNL     1       0.955  -3.977  -4.464  1.00  0.00     0.174 HD
ATOM     37  H91 UNL     1       2.617  -4.473  -4.714  1.00  0.00     0.174 HD
ENDBRANCH  28  35
BRANCH  34  38
HETATM   38  C10 UNL     1       3.660  -0.511  -0.291  1.00  0.00     0.152 C 
BRANCH  38  39
HETATM   39  O1  UNL     1       4.892  -0.918   0.075  1.00  0.00    -0.346 OA
ATOM     40  H1  UNL     1       5.275  -0.380   0.758  1.00  0.00     0.219 HD
ENDBRANCH  38  39
BRANCH  38  41
HETATM   41  N12 UNL     1       3.330   0.597   0.444  1.00  0.00    -0.363 N 
ATOM     42  H12 UNL     1       2.444   1.081   0.299  1.00  0.00     0.162 HD
BRANCH  41  43
HETATM   43  C11 UNL     1       4.310   1.072   1.463  1.00  0.00     0.212 C 
BRANCH  43  44
HETATM   44  C12 UNL     1       3.768   2.267   2.143  1.00  0.00     0.242 C 
HETATM   45  O2  UNL     1       2.645   2.751   1.850  1.00  0.00    -0.284 OA
BRANCH  44  46
HETATM   46  C13 UNL     1       4.548   2.908   3.177  1.00  0.00     0.248 C 
HETATM   47  O3  UNL     1       5.670   2.443   3.485  1.00  0.00    -0.642 OA
HETATM   48  O4  UNL     1       4.090   4.023   3.841  1.00  0.00    -0.642 OA
ENDBRANCH  44  46
ENDBRANCH  43  44
ENDBRANCH  41  43
ENDBRANCH  38  41
ENDBRANCH  34  38
ENDBRANCH  17  26
BRANCH  21  49
HETATM   49  C15 UNL     1      -3.465   0.721  -1.165  1.00  0.00     0.184 C 
BRANCH  49  50
HETATM   50  N15 UNL     1      -3.492   0.354  -2.573  1.00  0.00    -0.286 N 
HETATM   51  C16 UNL     1      -2.501   0.559  -3.457  1.00  0.00     0.130 A 
HETATM   52  C17 UNL     1      -2.917   0.066  -4.699  1.00  0.00     0.127 A 
HETATM   53  N16 UNL     1      -4.159  -0.412  -4.472  1.00  0.00    -0.296 N 
HETATM   54  N17 UNL     1      -4.494  -0.234  -3.195  1.00  0.00    -0.241 N 
ATOM     55  H16 UNL     1      -4.755  -0.847  -5.177  1.00  0.00     0.187 HD
ATOM     56  H17 UNL     1      -5.380  -0.508  -2.769  1.00  0.00     0.208 HD
ENDBRANCH  49  50
ENDBRANCH  21  49
ENDBRANCH   9  11
TORSDOF 12
