REMARK  17 active torsions:
REMARK  status: ('A' for Active; 'I' for Inactive)
REMARK    1  A    between atoms: C2_2  and  O1_3 
REMARK    2  A    between atoms: C6_8  and  O2_9 
REMARK    3  A    between atoms: O2_9  and  C7_10 
REMARK    4  A    between atoms: C8_12  and  C9_13 
REMARK    5  A    between atoms: N1_14  and  O4_16 
REMARK    6  A    between atoms: C10_18  and  O5_19 
REMARK    7  A    between atoms: C11_21  and  C12_22 
REMARK    8  A    between atoms: C12_22  and  O6_23 
REMARK    9  A    between atoms: C13_26  and  O8_27 
REMARK   10  A    between atoms: O8_27  and  C14_28 
REMARK   11  A    between atoms: C14_28  and  O9_29 
REMARK   12  A    between atoms: C15_31  and  O10_32 
REMARK   13  A    between atoms: C16_34  and  O11_35 
REMARK   14  A    between atoms: C17_37  and  O12_38 
REMARK   15  A    between atoms: C18_40  and  C19_41 
REMARK   16  A    between atoms: C19_41  and  O13_42 
REMARK   17  A    between atoms: C20_44  and  O14_45 
ROOT
HETATM    1  C1  UNL     1      -1.497   4.716  -0.127  1.00  0.00     0.078 C 
HETATM    2  C2  UNL     1      -0.740   3.533  -0.752  1.00  0.00     0.161 C 
HETATM    3  C3  UNL     1       0.448   4.168  -1.487  1.00  0.00     0.068 C 
HETATM    4  C4  UNL     1       1.576   3.184  -1.434  1.00  0.00     0.008 C 
HETATM    5  C5  UNL     1       1.147   1.845  -1.951  1.00  0.00     0.037 C 
HETATM    6  C6  UNL     1       0.809   0.886  -0.831  1.00  0.00     0.182 C 
HETATM    7  C13 UNL     1      -0.399   1.330  -0.049  1.00  0.00     0.296 C 
HETATM    8  O15 UNL     1      -0.339   2.700   0.242  1.00  0.00    -0.323 OA
ENDROOT
BRANCH   7   9
HETATM    9  O8  UNL     1      -1.610   0.951  -0.551  1.00  0.00    -0.317 OA
BRANCH   9  10
HETATM   10  C14 UNL     1      -2.395   0.151   0.234  1.00  0.00     0.220 C 
HETATM   11  C15 UNL     1      -1.797  -1.183   0.430  1.00  0.00     0.214 C 
HETATM   12  C16 UNL     1      -2.605  -2.086   1.335  1.00  0.00     0.181 C 
HETATM   13  C17 UNL     1      -4.070  -2.088   1.013  1.00  0.00     0.158 C 
HETATM   14  C18 UNL     1      -4.611  -0.750   0.617  1.00  0.00     0.075 C 
HETATM   15  C20 UNL     1      -3.774  -0.085  -0.421  1.00  0.00     0.192 C 
BRANCH  10  16
HETATM   16  O9  UNL     1      -2.702   0.741   1.466  1.00  0.00    -0.361 OA
ATOM     17  H9  UNL     1      -3.247   0.186   2.011  1.00  0.00     0.213 HD
ENDBRANCH  10  16
BRANCH  11  18
HETATM   18  O10 UNL     1      -1.566  -1.879  -0.766  1.00  0.00    -0.387 OA
ATOM     19  H10 UNL     1      -1.181  -2.738  -0.640  1.00  0.00     0.210 HD
ENDBRANCH  11  18
BRANCH  12  20
HETATM   20  O11 UNL     1      -2.366  -1.750   2.664  1.00  0.00    -0.390 OA
ATOM     21  H11 UNL     1      -2.874  -2.317   3.232  1.00  0.00     0.210 HD
ENDBRANCH  12  20
BRANCH  13  22
HETATM   22  O12 UNL     1      -4.750  -2.506   2.159  1.00  0.00    -0.392 OA
ATOM     23  H12 UNL     1      -5.678  -2.507   1.955  1.00  0.00     0.210 HD
ENDBRANCH  13  22
BRANCH  14  24
HETATM   24  C19 UNL     1      -6.022  -0.864   0.147  1.00  0.00     0.174 C 
BRANCH  24  25
HETATM   25  O13 UNL     1      -6.219  -1.675  -0.939  1.00  0.00    -0.400 OA
ATOM     26  H13 UNL     1      -7.118  -1.748  -1.238  1.00  0.00     0.209 HD
ENDBRANCH  24  25
ENDBRANCH  14  24
BRANCH  15  27
HETATM   27  O14 UNL     1      -3.694  -0.719  -1.626  1.00  0.00    -0.389 OA
ATOM     28  H14 UNL     1      -4.542  -0.864  -2.029  1.00  0.00     0.210 HD
ENDBRANCH  15  27
ENDBRANCH   9  10
ENDBRANCH   7   9
BRANCH   6  29
HETATM   29  O2  UNL     1       1.943   0.854   0.005  1.00  0.00    -0.329 OA
BRANCH  29  30
HETATM   30  C7  UNL     1       2.516  -0.416   0.040  1.00  0.00     0.414 C 
HETATM   31  O3  UNL     1       3.822  -0.315  -0.493  1.00  0.00    -0.326 OA
HETATM   32  C8  UNL     1       4.205  -1.645  -0.746  1.00  0.00     0.198 C 
HETATM   33  C10 UNL     1       4.380  -2.303   0.600  1.00  0.00     0.183 C 
HETATM   34  C11 UNL     1       3.313  -1.954   1.579  1.00  0.00     0.182 C 
HETATM   35  O7  UNL     1       2.644  -0.796   1.346  1.00  0.00    -0.329 OA
BRANCH  32  36
HETATM   36  C9  UNL     1       5.470  -1.592  -1.505  1.00  0.00     0.121 C 
HETATM   37  N1  UNL     1       5.471  -1.705  -2.790  1.00  0.00    -0.282 N 
ATOM     38  H1  UNL     1       4.589  -1.832  -3.286  1.00  0.00     0.193 HD
BRANCH  37  39
HETATM   39  O4  UNL     1       6.641  -1.656  -3.493  1.00  0.00    -0.290 OA
ATOM     40  H4  UNL     1       6.642  -1.739  -4.439  1.00  0.00     0.244 HD
ENDBRANCH  37  39
ENDBRANCH  32  36
BRANCH  33  41
HETATM   41  O5  UNL     1       5.663  -1.931   1.060  1.00  0.00    -0.390 OA
ATOM     42  H5  UNL     1       5.773  -2.345   1.908  1.00  0.00     0.210 HD
ENDBRANCH  33  41
BRANCH  34  43
HETATM   43  C12 UNL     1       3.996  -1.825   2.948  1.00  0.00     0.199 C 
BRANCH  43  44
HETATM   44  O6  UNL     1       3.043  -1.613   3.949  1.00  0.00    -0.398 OA
ATOM     45  H6  UNL     1       3.466  -1.533   4.796  1.00  0.00     0.209 HD
ENDBRANCH  43  44
ENDBRANCH  34  43
ENDBRANCH  29  30
ENDBRANCH   6  29
BRANCH   2  46
HETATM   46  O1  UNL     1      -1.565   3.015  -1.713  1.00  0.00    -0.365 OA
ATOM     47  H1  UNL     1      -1.097   2.284  -2.099  1.00  0.00     0.213 HD
ENDBRANCH   2  46
TORSDOF 17
