REMARK  5 active torsions:
REMARK  status: ('A' for Active; 'I' for Inactive)
REMARK    1  A    between atoms: C1_2  and  C2_4 
REMARK    2  A    between atoms: N1_8  and  C6_9 
REMARK    3  A    between atoms: C7_13  and  S1_14 
REMARK    4  A    between atoms: S1_14  and  C8_15 
REMARK    5  A    between atoms: C8_15  and  C9_16 
ROOT
HETATM    1  C6  UNL     1      -1.861  -0.841  -0.498  1.00  0.00     0.165 A 
HETATM    2  N2  UNL     1      -0.667  -0.953   0.056  1.00  0.00    -0.269 N 
ATOM      3  H2  UNL     1      -0.493  -0.538   0.971  1.00  0.00     0.190 HD
HETATM    4  N3  UNL     1       0.267  -1.575  -0.544  1.00  0.00    -0.206 N 
HETATM    5  C7  UNL     1       1.590  -1.878  -0.276  1.00  0.00     0.182 A 
HETATM    6  N4  UNL     1       2.061  -2.575  -1.321  1.00  0.00    -0.276 N 
ATOM      7  H4  UNL     1       3.014  -2.931  -1.394  1.00  0.00     0.189 HD
HETATM    8  N5  UNL     1       1.136  -2.740  -2.238  1.00  0.00    -0.276 N 
ATOM      9  H5  UNL     1       1.224  -3.230  -3.128  1.00  0.00     0.189 HD
HETATM   10  C14 UNL     1       0.026  -2.111  -1.738  1.00  0.00     0.190 A 
HETATM   11  S2  UNL     1      -1.622  -1.680  -1.966  1.00  0.00    -0.013 SA
ENDROOT
BRANCH   1  12
HETATM   12  N1  UNL     1      -3.042  -0.194  -0.019  1.00  0.00    -0.359 N 
HETATM   13  C5  UNL     1      -3.078   0.494   1.227  1.00  0.00     0.125 C 
HETATM   14  C4  UNL     1      -3.755   1.843   1.148  1.00  0.00     0.021 C 
HETATM   15  C3  UNL     1      -4.918   1.898   0.217  1.00  0.00     0.019 C 
HETATM   16  C2  UNL     1      -5.345   0.549  -0.314  1.00  0.00     0.105 C 
HETATM   17  C15 UNL     1      -4.213  -0.260  -0.843  1.00  0.00     0.140 C 
BRANCH  16  18
HETATM   18  C1  UNL     1      -6.184  -0.133   0.668  1.00  0.00     0.178 C 
HETATM   19  O1  UNL     1      -6.456   0.408   1.761  1.00  0.00    -0.648 OA
HETATM   20  O2  UNL     1      -6.689  -1.388   0.399  1.00  0.00    -0.648 OA
ENDBRANCH  16  18
ENDBRANCH   1  12
BRANCH   5  21
HETATM   21  S1  UNL     1       2.502  -1.496   1.185  1.00  0.00    -0.090 SA
BRANCH  21  22
HETATM   22  C8  UNL     1       3.270   0.086   1.238  1.00  0.00     0.087 C 
BRANCH  22  23
HETATM   23  C9  UNL     1       4.407   0.402   0.374  1.00  0.00    -0.005 C 
HETATM   24  C10 UNL     1       4.262   0.355  -1.101  1.00  0.00     0.005 C 
HETATM   25  C11 UNL     1       5.700   0.814  -1.494  1.00  0.00     0.000 C 
HETATM   26  C12 UNL     1       6.520  -0.131  -0.618  1.00  0.00     0.000 C 
HETATM   27  C13 UNL     1       5.624  -0.483   0.579  1.00  0.00     0.005 C 
ENDBRANCH  22  23
ENDBRANCH  21  22
ENDBRANCH   5  21
TORSDOF 5
