REMARK  10 active torsions:
REMARK  status: ('A' for Active; 'I' for Inactive)
REMARK    1  A    between atoms: C2_2  and  O1_3 
REMARK    2  A    between atoms: O1_3  and  C3_4 
REMARK    3  A    between atoms: C3_4  and  C4_6 
REMARK    4  A    between atoms: C4_6  and  C6_8 
REMARK    5  A    between atoms: C4_6  and  N3_19 
REMARK    6  A    between atoms: C8_10  and  O3_11 
REMARK    7  A    between atoms: O3_11  and  C9_12 
REMARK    8  A    between atoms: N3_19  and  O4_20 
REMARK       I    between atoms: N3_19  and  C13_22 
REMARK    9  A    between atoms: C13_22  and  O6_24 
REMARK   10  A    between atoms: O6_24  and  C14_25 
ROOT
HETATM    1  C4  UNL     1      -0.828   0.434  -1.600  1.00  0.00     0.192 C 
HETATM    2  C5  UNL     1      -1.828  -0.694  -1.819  1.00  0.00     0.059 C 
ENDROOT
BRANCH   1   3
HETATM    3  C3  UNL     1      -0.472   1.071  -2.878  1.00  0.00     0.296 C 
HETATM    4  O2  UNL     1      -0.370   0.411  -3.949  1.00  0.00    -0.262 OA
BRANCH   3   5
HETATM    5  O1  UNL     1      -0.232   2.439  -2.945  1.00  0.00    -0.320 OA
BRANCH   5   6
HETATM    6  C2  UNL     1       0.112   3.038  -4.185  1.00  0.00     0.174 C 
HETATM    7  C1  UNL     1       0.313   4.513  -3.960  1.00  0.00     0.034 C 
ENDBRANCH   5   6
ENDBRANCH   3   5
ENDBRANCH   1   3
BRANCH   1   8
HETATM    8  C6  UNL     1       0.389  -0.179  -0.955  1.00  0.00     0.072 A 
HETATM    9  C7  UNL     1       0.879   0.190   0.302  1.00  0.00     0.087 A 
HETATM   10  C8  UNL     1       1.971  -0.621   0.549  1.00  0.00     0.159 A 
HETATM   11  N1  UNL     1       2.089  -1.395  -0.496  1.00  0.00    -0.278 N 
HETATM   12  N2  UNL     1       1.151  -1.161  -1.432  1.00  0.00    -0.296 N 
ATOM     13  H1  UNL     1       2.817  -2.103  -0.593  1.00  0.00     0.189 HD
HETATM   14  C12 UNL     1       1.080  -1.920  -2.692  1.00  0.00     0.177 C 
BRANCH  10  15
HETATM   15  O3  UNL     1       2.737  -0.548   1.728  1.00  0.00    -0.330 OA
BRANCH  15  16
HETATM   16  C9  UNL     1       3.839  -1.400   1.926  1.00  0.00     0.122 C 
HETATM   17  C10 UNL     1       3.548  -2.258   3.137  1.00  0.00     0.040 C 
HETATM   18  C11 UNL     1       5.146  -0.666   2.048  1.00  0.00     0.040 C 
ENDBRANCH  15  16
ENDBRANCH  10  15
ENDBRANCH   1   8
BRANCH   1  19
HETATM   19  N3  UNL     1      -1.374   1.426  -0.709  1.00  0.00    -0.178 N 
HETATM   20  C13 UNL     1      -1.987   1.100   0.545  1.00  0.00     0.389 C 
HETATM   21  O5  UNL     1      -2.424   1.989   1.293  1.00  0.00    -0.236 OA
BRANCH  19  22
HETATM   22  O4  UNL     1      -1.329   2.729  -1.029  1.00  0.00    -0.281 OA
ATOM     23  H4  UNL     1      -1.689   3.383  -0.442  1.00  0.00     0.245 HD
ENDBRANCH  19  22
BRANCH  20  24
HETATM   24  O6  UNL     1      -2.085  -0.210   0.906  1.00  0.00    -0.292 OA
BRANCH  24  25
HETATM   25  C14 UNL     1      -2.667  -0.668   2.111  1.00  0.00     0.061 C 
HETATM   26  C15 UNL     1      -2.564  -2.180   2.100  1.00  0.00     0.046 C 
HETATM   27  C16 UNL     1      -1.981  -0.155   3.336  1.00  0.00     0.046 C 
HETATM   28  C17 UNL     1      -4.136  -0.326   2.200  1.00  0.00     0.046 C 
ENDBRANCH  24  25
ENDBRANCH  20  24
ENDBRANCH   1  19
TORSDOF 10
