REMARK  6 active torsions:
REMARK  status: ('A' for Active; 'I' for Inactive)
REMARK    1  A    between atoms: O1_1  and  C1_3 
REMARK    2  A    between atoms: C4_6  and  C5_7 
REMARK    3  A    between atoms: C7_10  and  C8_11 
REMARK    4  A    between atoms: N2_16  and  C11_17 
REMARK    5  A    between atoms: C11_17  and  C12_18 
REMARK    6  A    between atoms: N6_25  and  C13_26 
ROOT
HETATM    1  C1  UNL     1      -0.115   3.166  -1.742  1.00  0.00     0.146 C 
HETATM    2  C2  UNL     1       0.952   3.768  -0.868  1.00  0.00     0.036 C 
HETATM    3  C3  UNL     1       1.982   2.720  -0.612  1.00  0.00     0.045 C 
HETATM    4  C4  UNL     1       1.288   1.559   0.088  1.00  0.00     0.273 C 
HETATM    5  N2  UNL     1       0.444   0.922  -0.870  1.00  0.00     0.108 N 
HETATM    6  C18 UNL     1      -0.570   1.818  -1.298  1.00  0.00     0.305 C 
ENDROOT
BRANCH   5   7
HETATM    7  C11 UNL     1      -0.214  -0.263  -0.351  1.00  0.00     0.352 C 
BRANCH   7   8
HETATM    8  C12 UNL     1      -1.080  -0.933  -1.304  1.00  0.00     0.144 A 
HETATM    9  N3  UNL     1      -0.688  -1.621  -2.391  1.00  0.00    -0.271 N 
HETATM   10  N4  UNL     1      -1.739  -2.105  -3.033  1.00  0.00    -0.227 N 
ATOM     11  H3  UNL     1       0.282  -1.751  -2.680  1.00  0.00     0.190 HD
HETATM   12  N5  UNL     1      -2.792  -1.722  -2.351  1.00  0.00    -0.224 N 
ATOM     13  H4  UNL     1      -1.732  -2.664  -3.886  1.00  0.00     0.210 HD
HETATM   14  N6  UNL     1      -2.412  -1.000  -1.285  1.00  0.00    -0.257 N 
ATOM     15  H5  UNL     1      -3.758  -1.941  -2.595  1.00  0.00     0.210 HD
BRANCH  14  16
HETATM   16  C13 UNL     1      -3.326  -0.445  -0.342  1.00  0.00     0.111 C 
HETATM   17  C14 UNL     1      -3.159  -0.998   1.050  1.00  0.00     0.027 C 
HETATM   18  C15 UNL     1      -4.512  -1.492   1.512  1.00  0.00     0.002 C 
HETATM   19  C16 UNL     1      -5.099  -1.991   0.194  1.00  0.00     0.002 C 
HETATM   20  C17 UNL     1      -4.782  -0.786  -0.700  1.00  0.00     0.027 C 
ENDBRANCH  14  16
ENDBRANCH   7   8
ENDBRANCH   5   7
BRANCH   4  21
HETATM   21  C5  UNL     1       2.321   0.613   0.654  1.00  0.00     0.050 A 
HETATM   22  C6  UNL     1       2.593   0.558   1.996  1.00  0.00     0.078 A 
HETATM   23  S1  UNL     1       3.806  -0.654   2.054  1.00  0.00    -0.086 SA
HETATM   24  C7  UNL     1       3.883  -1.004   0.389  1.00  0.00     0.055 A 
HETATM   25  N1  UNL     1       3.000  -0.199  -0.120  1.00  0.00    -0.355 N 
ATOM     26  H1  UNL     1       2.834  -0.198  -1.126  1.00  0.00     0.166 HD
BRANCH  24  27
HETATM   27  C8  UNL     1       4.730  -1.983  -0.359  1.00  0.00     0.043 A 
HETATM   28  C9  UNL     1       6.181  -2.141   0.140  1.00  0.00     0.012 A 
HETATM   29  C10 UNL     1       5.182  -3.222   0.322  1.00  0.00     0.012 A 
ENDBRANCH  24  27
ENDBRANCH   4  21
BRANCH   1  30
HETATM   30  O1  UNL     1      -1.212   4.028  -1.710  1.00  0.00    -0.394 OA
ATOM     31  H1  UNL     1      -1.886   3.648  -2.262  1.00  0.00     0.210 HD
ENDBRANCH   1  30
TORSDOF 6
