REMARK  6 active torsions:
REMARK  status: ('A' for Active; 'I' for Inactive)
REMARK    1  A    between atoms: O1_2  and  C2_3 
REMARK    2  A    between atoms: C3_6  and  N2_7 
REMARK    3  A    between atoms: N2_7  and  C4_9 
REMARK    4  A    between atoms: C6_11  and  O2_12 
REMARK    5  A    between atoms: C8_14  and  O3_15 
REMARK    6  A    between atoms: C10_17  and  O4_18 
ROOT
HETATM    1  C2  UNL     1      -2.204   1.094  -0.864  1.00  0.00     0.225 A 
HETATM    2  N1  UNL     1      -1.146   0.434  -0.423  1.00  0.00    -0.307 N 
ATOM      3  H1  UNL     1      -0.207   0.766  -0.645  1.00  0.00     0.171 HD
HETATM    4  C3  UNL     1      -1.311  -0.681   0.323  1.00  0.00     0.127 A 
HETATM    5  C13 UNL     1      -2.576  -1.088   0.595  1.00  0.00     0.068 A 
HETATM    6  C14 UNL     1      -3.678  -0.421   0.149  1.00  0.00     0.034 A 
HETATM    7  N3  UNL     1      -3.435   0.697  -0.598  1.00  0.00    -0.324 N 
ATOM      8  H3  UNL     1      -4.222   1.237  -0.958  1.00  0.00     0.169 HD
HETATM    9  C15 UNL     1      -4.964  -0.986   0.511  1.00  0.00     0.073 C 
HETATM   10  C16 UNL     1      -4.865  -1.746   1.812  1.00  0.00     0.054 C 
HETATM   11  C17 UNL     1      -4.777  -0.851   3.011  1.00  0.00     0.022 C 
HETATM   12  S1  UNL     1      -3.186  -2.474   1.545  1.00  0.00    -0.119 SA
ENDROOT
BRANCH   4  13
HETATM   13  N2  UNL     1      -0.254  -1.328   0.754  1.00  0.00    -0.341 N 
ATOM     14  H2  UNL     1      -0.360  -2.172   1.317  1.00  0.00     0.167 HD
BRANCH  13  15
HETATM   15  C4  UNL     1       1.023  -0.846   0.432  1.00  0.00     0.039 A 
HETATM   16  C5  UNL     1       1.462   0.398   0.797  1.00  0.00     0.069 A 
HETATM   17  C6  UNL     1       2.730   0.814   0.449  1.00  0.00     0.106 A 
HETATM   18  C8  UNL     1       3.560  -0.020  -0.269  1.00  0.00     0.135 A 
HETATM   19  C10 UNL     1       3.155  -1.277  -0.655  1.00  0.00     0.106 A 
HETATM   20  C12 UNL     1       1.884  -1.661  -0.291  1.00  0.00     0.069 A 
BRANCH  17  21
HETATM   21  O2  UNL     1       3.123   2.086   0.847  1.00  0.00    -0.353 OA
HETATM   22  C7  UNL     1       2.278   2.942   1.580  1.00  0.00     0.210 C 
ENDBRANCH  17  21
BRANCH  18  23
HETATM   23  O3  UNL     1       4.825   0.422  -0.605  1.00  0.00    -0.351 OA
HETATM   24  C9  UNL     1       5.084   1.119  -1.818  1.00  0.00     0.210 C 
ENDBRANCH  18  23
BRANCH  19  25
HETATM   25  O4  UNL     1       3.973  -2.136  -1.379  1.00  0.00    -0.353 OA
HETATM   26  C11 UNL     1       3.580  -3.418  -1.781  1.00  0.00     0.210 C 
ENDBRANCH  19  25
ENDBRANCH  13  15
ENDBRANCH   4  13
BRANCH   1  27
HETATM   27  O1  UNL     1      -1.987   2.242  -1.630  1.00  0.00    -0.327 OA
HETATM   28  C1  UNL     1      -0.688   2.705  -1.940  1.00  0.00     0.213 C 
ENDBRANCH   1  27
TORSDOF 6
