REMARK  5 active torsions:
REMARK  status: ('A' for Active; 'I' for Inactive)
REMARK    1  A    between atoms: C3_5  and  N2_6 
REMARK    2  A    between atoms: C6_10  and  O1_11 
REMARK    3  A    between atoms: O1_11  and  C7_12 
REMARK    4  A    between atoms: C12_19  and  C13_20 
REMARK    5  A    between atoms: C14_26  and  N6_27 
ROOT
HETATM    1  N1  UNL     1       6.508   1.121   2.490  1.00  0.00    -0.191 NA
HETATM    2  C1  UNL     1       5.508   0.634   2.178  1.00  0.00     0.111 C 
HETATM    3  C2  UNL     1       4.236   0.027   1.808  1.00  0.00     0.132 A 
HETATM    4  S1  UNL     1       2.772  -0.068   2.681  1.00  0.00    -0.039 SA
HETATM    5  C3  UNL     1       1.836  -0.925   1.527  1.00  0.00     0.153 A 
HETATM    6  N5  UNL     1       2.703  -1.088   0.538  1.00  0.00    -0.321 N 
ATOM      7  H5  UNL     1       2.421  -1.579  -0.311  1.00  0.00     0.169 HD
HETATM    8  C14 UNL     1       3.905  -0.626   0.648  1.00  0.00     0.133 A 
ENDROOT
BRANCH   8   9
HETATM    9  N6  UNL     1       4.903  -0.772  -0.400  1.00  0.00    -0.366 N 
HETATM   10  C15 UNL     1       6.170  -1.438  -0.299  1.00  0.00     0.124 C 
HETATM   11  C16 UNL     1       6.999  -0.857  -1.418  1.00  0.00     0.021 C 
HETATM   12  C17 UNL     1       6.171   0.293  -1.991  1.00  0.00     0.021 C 
HETATM   13  C18 UNL     1       4.757  -0.248  -1.745  1.00  0.00     0.124 C 
ENDBRANCH   8   9
BRANCH   5  14
HETATM   14  N2  UNL     1       0.463  -1.360   1.600  1.00  0.00    -0.322 N 
HETATM   15  C4  UNL     1      -0.403  -0.580   1.028  1.00  0.00     0.112 A 
HETATM   16  C5  UNL     1      -1.761  -0.930   1.053  1.00  0.00     0.104 A 
HETATM   17  N4  UNL     1      -0.033   0.553   0.415  1.00  0.00    -0.326 N 
HETATM   18  C6  UNL     1      -2.704  -0.121   0.455  1.00  0.00     0.147 A 
HETATM   19  N3  UNL     1      -2.257   0.987  -0.134  1.00  0.00    -0.321 N 
HETATM   20  C12 UNL     1      -0.963   1.335  -0.166  1.00  0.00     0.147 A 
ATOM     21  H3  UNL     1      -2.935   1.602  -0.584  1.00  0.00     0.169 HD
ATOM     22  H4  UNL     1       0.950   0.822   0.389  1.00  0.00     0.169 HD
ATOM     23  H2  UNL     1       0.190  -2.223   2.070  1.00  0.00     0.169 HD
BRANCH  18  24
HETATM   24  O1  UNL     1      -4.019  -0.518   0.513  1.00  0.00    -0.330 OA
BRANCH  24  25
HETATM   25  C7  UNL     1      -5.106   0.165  -0.031  1.00  0.00     0.130 C 
HETATM   26  C8  UNL     1      -6.061   0.482   1.123  1.00  0.00     0.032 C 
HETATM   27  C9  UNL     1      -7.362   0.779   0.419  1.00  0.00     0.002 C 
HETATM   28  C10 UNL     1      -7.408  -0.230  -0.687  1.00  0.00     0.002 C 
HETATM   29  C11 UNL     1      -5.973  -0.693  -0.907  1.00  0.00     0.032 C 
ENDBRANCH  24  25
ENDBRANCH  18  24
BRANCH  20  30
HETATM   30  C13 UNL     1      -0.551   2.579  -0.839  1.00  0.00     0.307 C 
HETATM   31  O2  UNL     1       0.656   2.901  -0.867  1.00  0.00    -0.298 OA
ENDBRANCH  20  30
ENDBRANCH   5  14
TORSDOF 5
