REMARK  7 active torsions:
REMARK  status: ('A' for Active; 'I' for Inactive)
REMARK    1  A    between atoms: C2_3  and  C4_6 
REMARK    2  A    between atoms: C6_8  and  N3_9 
REMARK    3  A    between atoms: C7_13  and  C8_14 
REMARK    4  A    between atoms: C8_14  and  O4_16 
REMARK    5  A    between atoms: O4_16  and  C9_17 
REMARK    6  A    between atoms: C9_17  and  C10_18 
REMARK       I    between atoms: C10_18  and  N4_20 
REMARK    7  A    between atoms: N4_20  and  C11_22 
ROOT
HETATM    1  N1  UNL     1      -4.773   3.607  -1.479  1.00  0.00    -0.196 NA
HETATM    2  C1  UNL     1      -4.592   2.818  -0.651  1.00  0.00     0.083 C 
HETATM    3  C2  UNL     1      -4.350   1.836   0.406  1.00  0.00     0.234 C 
HETATM    4  C3  UNL     1      -5.347   2.051   1.477  1.00  0.00     0.083 C 
HETATM    5  N2  UNL     1      -6.122   2.215   2.323  1.00  0.00    -0.196 NA
ENDROOT
BRANCH   3   6
HETATM    6  C4  UNL     1      -4.516   0.432  -0.148  1.00  0.00    -0.001 A 
HETATM    7  C5  UNL     1      -5.671   0.098  -0.760  1.00  0.00     0.054 A 
HETATM    8  C6  UNL     1      -5.792  -1.169  -1.247  1.00  0.00     0.145 A 
HETATM    9  S1  UNL     1      -4.302  -1.873  -0.846  1.00  0.00    -0.059 SA
HETATM   10  C7  UNL     1      -3.549  -0.516  -0.056  1.00  0.00     0.091 A 
BRANCH   8  11
HETATM   11  N3  UNL     1      -6.901  -1.763  -1.929  1.00  0.00    -0.108 N 
HETATM   12  O1  UNL     1      -6.841  -2.935  -2.306  1.00  0.00    -0.531 OA
HETATM   13  O2  UNL     1      -8.028  -1.031  -2.164  1.00  0.00    -0.531 OA
ENDBRANCH   8  11
BRANCH  10  14
HETATM   14  C8  UNL     1      -2.202  -0.517   0.524  1.00  0.00     0.301 C 
HETATM   15  O3  UNL     1      -1.680   0.435   1.076  1.00  0.00    -0.259 OA
BRANCH  14  16
HETATM   16  O4  UNL     1      -1.459  -1.705   0.438  1.00  0.00    -0.308 OA
BRANCH  16  17
HETATM   17  C9  UNL     1      -0.161  -1.866   0.938  1.00  0.00     0.281 C 
BRANCH  17  18
HETATM   18  C10 UNL     1       0.841  -0.975   0.320  1.00  0.00     0.242 C 
HETATM   19  O5  UNL     1       0.552  -0.157  -0.600  1.00  0.00    -0.271 OA
HETATM   20  N4  UNL     1       2.182  -1.037   0.776  1.00  0.00    -0.355 N 
ATOM     21  H4  UNL     1       2.428  -1.692   1.518  1.00  0.00     0.162 HD
BRANCH  20  22
HETATM   22  C11 UNL     1       3.200  -0.197   0.215  1.00  0.00     0.084 C 
HETATM   23  C12 UNL     1       4.297  -1.049  -0.354  1.00  0.00     0.025 C 
HETATM   24  C13 UNL     1       5.439  -0.268  -0.919  1.00  0.00     0.002 C 
HETATM   25  C14 UNL     1       5.943   0.811  -0.012  1.00  0.00     0.000 C 
HETATM   26  C15 UNL     1       4.824   1.601   0.628  1.00  0.00     0.002 C 
HETATM   27  C16 UNL     1       3.802   0.704   1.270  1.00  0.00     0.025 C 
ENDBRANCH  20  22
ENDBRANCH  17  18
ENDBRANCH  16  17
ENDBRANCH  14  16
ENDBRANCH  10  14
ENDBRANCH   3   6
TORSDOF 7
