REMARK  7 active torsions:
REMARK  status: ('A' for Active; 'I' for Inactive)
REMARK    1  A    between atoms: C2_2  and  O1_3 
REMARK    2  A    between atoms: O1_3  and  C3_4 
REMARK    3  A    between atoms: C3_4  and  C4_6 
REMARK    4  A    between atoms: C5_8  and  N1_9 
REMARK    5  A    between atoms: C12_18  and  N3_19 
REMARK    6  A    between atoms: N3_19  and  C13_21 
REMARK    7  A    between atoms: C13_21  and  C14_22 
ROOT
HETATM    1  C4  UNL     1      -1.554   1.464  -0.216  1.00  0.00     0.111 A 
HETATM    2  S1  UNL     1       0.144   1.549  -0.239  1.00  0.00    -0.046 SA
HETATM    3  C5  UNL     1       0.862  -0.017  -0.177  1.00  0.00     0.149 A 
HETATM    4  N2  UNL     1      -0.001  -0.993  -0.123  1.00  0.00    -0.321 N 
ATOM      5  H2  UNL     1       0.410  -1.926  -0.085  1.00  0.00     0.169 HD
HETATM    6  C12 UNL     1      -1.341  -0.969  -0.109  1.00  0.00     0.129 A 
HETATM    7  C16 UNL     1      -2.076   0.188  -0.152  1.00  0.00     0.113 A 
HETATM    8  N4  UNL     1      -3.529   0.147  -0.134  1.00  0.00    -0.097 NA
ENDROOT
BRANCH   3   9
HETATM    9  N1  UNL     1       2.273  -0.157  -0.187  1.00  0.00    -0.361 N 
HETATM   10  C6  UNL     1       2.826  -1.493  -0.133  1.00  0.00     0.125 C 
HETATM   11  C7  UNL     1       4.276  -1.379  -0.579  1.00  0.00     0.024 C 
HETATM   12  C8  UNL     1       5.027  -0.513   0.377  1.00  0.00    -0.015 C 
HETATM   13  C9  UNL     1       6.319  -0.089  -0.288  1.00  0.00     0.010 C 
HETATM   14  C10 UNL     1       4.269   0.720   0.765  1.00  0.00     0.024 C 
HETATM   15  C11 UNL     1       3.173   0.964  -0.247  1.00  0.00     0.125 C 
ENDBRANCH   3   9
BRANCH   1  16
HETATM   16  C3  UNL     1      -2.394   2.653  -0.259  1.00  0.00     0.302 C 
HETATM   17  O2  UNL     1      -3.641   2.524  -0.239  1.00  0.00    -0.259 OA
BRANCH  16  18
HETATM   18  O1  UNL     1      -1.873   3.932  -0.322  1.00  0.00    -0.317 OA
BRANCH  18  19
HETATM   19  C2  UNL     1      -2.707   5.085  -0.365  1.00  0.00     0.174 C 
HETATM   20  C1  UNL     1      -1.809   6.300  -0.429  1.00  0.00     0.034 C 
ENDBRANCH  18  19
ENDBRANCH  16  18
ENDBRANCH   1  16
BRANCH   6  21
HETATM   21  N3  UNL     1      -1.885  -2.135  -0.051  1.00  0.00    -0.373 N 
ATOM     22  H3  UNL     1      -1.219  -2.907  -0.025  1.00  0.00     0.161 HD
BRANCH  21  23
HETATM   23  C13 UNL     1      -3.228  -2.531  -0.017  1.00  0.00     0.137 C 
BRANCH  23  24
HETATM   24  C14 UNL     1      -3.244  -4.078  -0.018  1.00  0.00     0.072 C 
HETATM   25  C15 UNL     1      -4.664  -4.546   0.017  1.00  0.00     0.024 C 
HETATM   26  S2  UNL     1      -2.394  -4.633   1.490  1.00  0.00    -0.091 SA
ENDBRANCH  23  24
ENDBRANCH  21  23
ENDBRANCH   6  21
TORSDOF 7
