REMARK  7 active torsions:
REMARK  status: ('A' for Active; 'I' for Inactive)
REMARK    1  A    between atoms: N1_1  and  S1_4 
REMARK    2  A    between atoms: S1_4  and  N2_7 
REMARK    3  A    between atoms: N2_7  and  N3_9 
REMARK    4  A    between atoms: C3_15  and  N4_16 
REMARK    5  A    between atoms: N4_16  and  C4_18 
REMARK    6  A    between atoms: C4_18  and  C5_19 
REMARK    7  A    between atoms: C9_32  and  O8_33 
ROOT
HETATM    1  N3  UNL     1      -3.741   0.214  -1.471  1.00  0.00    -0.270 N 
ATOM      2  H3  UNL     1      -4.023   0.736  -2.300  1.00  0.00     0.189 HD
HETATM    3  C1  UNL     1      -2.475   0.219  -1.120  1.00  0.00     0.178 C 
HETATM    4  O3  UNL     1      -1.559   0.925  -1.874  1.00  0.00    -0.259 OA
HETATM    5  C2  UNL     1      -0.260   1.089  -1.441  1.00  0.00     0.295 C 
HETATM    6  O4  UNL     1       0.377   2.166  -1.579  1.00  0.00    -0.262 OA
HETATM    7  C3  UNL     1       0.350  -0.126  -0.784  1.00  0.00     0.252 C 
HETATM    8  C8  UNL     1      -0.564  -0.519   0.292  1.00  0.00     0.195 C 
HETATM    9  O7  UNL     1      -0.204  -0.867   1.424  1.00  0.00    -0.292 OA
HETATM   10  C9  UNL     1      -2.027  -0.520   0.072  1.00  0.00     0.266 C 
ENDROOT
BRANCH   7  11
HETATM   11  N4  UNL     1       1.668   0.224  -0.411  1.00  0.00    -0.398 N 
ATOM     12  H4  UNL     1       2.009   1.178  -0.525  1.00  0.00     0.154 HD
BRANCH  11  13
HETATM   13  C4  UNL     1       2.502  -0.788   0.126  1.00  0.00     0.179 C 
BRANCH  13  14
HETATM   14  C5  UNL     1       3.833  -0.153   0.434  1.00  0.00     0.111 A 
HETATM   15  N5  UNL     1       4.071   1.149   0.200  1.00  0.00    -0.294 N 
HETATM   16  N6  UNL     1       5.225   1.741   0.457  1.00  0.00    -0.251 N 
ATOM     17  H5  UNL     1       3.319   1.712  -0.198  1.00  0.00     0.187 HD
HETATM   18  C6  UNL     1       6.233   1.040   0.978  1.00  0.00     0.341 A 
ATOM     19  H6  UNL     1       5.344   2.734   0.257  1.00  0.00     0.191 HD
HETATM   20  O5  UNL     1       7.351   1.606   1.230  1.00  0.00    -0.245 OA
HETATM   21  N7  UNL     1       6.037  -0.271   1.229  1.00  0.00    -0.273 N 
HETATM   22  C7  UNL     1       4.869  -0.887   0.973  1.00  0.00     0.275 A 
ATOM     23  H7  UNL     1       6.802  -0.815   1.627  1.00  0.00     0.173 HD
HETATM   24  O6  UNL     1       4.718  -2.127   1.222  1.00  0.00    -0.266 OA
ENDBRANCH  13  14
ENDBRANCH  11  13
ENDBRANCH   7  11
BRANCH  10  25
HETATM   25  O8  UNL     1      -2.531  -1.823  -0.056  1.00  0.00    -0.380 OA
ATOM     26  H8  UNL     1      -2.242  -2.300   0.713  1.00  0.00     0.211 HD
ENDBRANCH  10  25
BRANCH   1  27
HETATM   27  N2  UNL     1      -4.702  -0.472  -0.758  1.00  0.00    -0.208 N 
ATOM     28  H2  UNL     1      -4.805  -1.472  -0.929  1.00  0.00     0.201 HD
BRANCH  27  29
HETATM   29  S1  UNL     1      -5.743   0.268   0.410  1.00  0.00     0.330 S 
HETATM   30  O1  UNL     1      -4.980   1.453   0.975  1.00  0.00    -0.181 OA
HETATM   31  O2  UNL     1      -6.010  -0.659   1.548  1.00  0.00    -0.181 OA
BRANCH  29  32
HETATM   32  N1  UNL     1      -7.196   0.848  -0.302  1.00  0.00    -0.310 N 
ATOM     33  H12 UNL     1      -7.483   1.826  -0.332  1.00  0.00     0.170 HD
ATOM     34  H11 UNL     1      -7.709   0.052  -0.682  1.00  0.00     0.170 HD
ENDBRANCH  29  32
ENDBRANCH  27  29
ENDBRANCH   1  27
TORSDOF 7
