REMARK  8 active torsions:
REMARK  status: ('A' for Active; 'I' for Inactive)
REMARK    1  A    between atoms: N1_1  and  N2_4 
REMARK       I    between atoms: N2_4  and  C1_6 
REMARK    2  A    between atoms: C1_6  and  C2_8 
REMARK    3  A    between atoms: C2_8  and  N3_9 
REMARK    4  A    between atoms: C4_13  and  N5_14 
REMARK    5  A    between atoms: N5_14  and  C5_16 
REMARK    6  A    between atoms: C8_25  and  N8_26 
REMARK    7  A    between atoms: N8_26  and  C9_28 
REMARK    8  A    between atoms: C9_28  and  C10_29 
ROOT
HETATM    1  C5  UNL     1      -0.045  -0.324  -0.339  1.00  0.00     0.689 C 
HETATM    2  N6  UNL     1      -0.372  -1.015  -1.447  1.00  0.00    -0.141 N 
ATOM      3  H6  UNL     1      -1.356  -0.956  -1.710  1.00  0.00     0.189 HD
HETATM    4  C6  UNL     1       0.392  -1.781  -2.277  1.00  0.00     0.341 C 
HETATM    5  O2  UNL     1      -0.240  -2.330  -3.197  1.00  0.00    -0.246 OA
HETATM    6  N7  UNL     1       1.719  -1.978  -2.177  1.00  0.00    -0.272 N 
ATOM      7  H7  UNL     1       2.096  -2.754  -2.720  1.00  0.00     0.174 HD
HETATM    8  C7  UNL     1       2.625  -1.270  -1.440  1.00  0.00     0.293 C 
HETATM    9  O3  UNL     1       3.815  -1.512  -1.683  1.00  0.00    -0.264 OA
HETATM   10  C8  UNL     1       2.407  -0.321  -0.462  1.00  0.00     0.185 C 
HETATM   11  N9  UNL     1       1.205   0.061   0.003  1.00  0.00    -0.171 N 
ATOM     12  H9  UNL     1       1.243   0.763   0.742  1.00  0.00     0.186 HD
ENDROOT
BRANCH   1  13
HETATM   13  N5  UNL     1      -0.992   0.004   0.474  1.00  0.00    -0.175 N 
ATOM     14  H5  UNL     1      -0.794   0.527   1.327  1.00  0.00     0.186 HD
BRANCH  13  15
HETATM   15  C4  UNL     1      -2.321  -0.386   0.146  1.00  0.00     0.137 A 
HETATM   16  N4  UNL     1      -2.873  -1.616   0.317  1.00  0.00    -0.337 N 
HETATM   17  C3  UNL     1      -4.131  -1.642  -0.093  1.00  0.00     0.184 A 
ATOM     18  H4  UNL     1      -2.380  -2.417   0.711  1.00  0.00     0.168 HD
HETATM   19  N3  UNL     1      -4.414  -0.402  -0.542  1.00  0.00    -0.341 N 
HETATM   20  C13 UNL     1      -3.328   0.380  -0.407  1.00  0.00     0.141 A 
BRANCH  19  21
HETATM   21  C2  UNL     1      -5.704  -0.025  -1.078  1.00  0.00     0.233 C 
BRANCH  21  22
HETATM   22  C1  UNL     1      -6.607   0.480  -0.015  1.00  0.00     0.253 C 
HETATM   23  N2  UNL     1      -6.151   0.539   1.328  1.00  0.00    -0.275 N 
ATOM     24  H2  UNL     1      -5.205   0.234   1.555  1.00  0.00     0.189 HD
HETATM   25  O1  UNL     1      -7.760   0.843  -0.340  1.00  0.00    -0.270 OA
BRANCH  23  26
HETATM   26  N1  UNL     1      -6.992   1.013   2.343  1.00  0.00    -0.343 N 
ATOM     27  H12 UNL     1      -7.935   1.314   2.099  1.00  0.00     0.176 HD
ATOM     28  H11 UNL     1      -6.664   1.055   3.308  1.00  0.00     0.176 HD
ENDBRANCH  23  26
ENDBRANCH  21  22
ENDBRANCH  19  21
ENDBRANCH  13  15
ENDBRANCH   1  13
BRANCH  10  29
HETATM   29  N8  UNL     1       3.478   0.201   0.001  1.00  0.00    -0.367 N 
ATOM     30  H8  UNL     1       4.357  -0.132  -0.394  1.00  0.00     0.161 HD
BRANCH  29  31
HETATM   31  C9  UNL     1       3.570   1.199   1.011  1.00  0.00     0.182 C 
BRANCH  31  32
HETATM   32  C10 UNL     1       5.039   1.414   1.356  1.00  0.00     0.277 C 
HETATM   33  O4  UNL     1       5.775   1.824   0.277  1.00  0.00    -0.358 OA
HETATM   34  C11 UNL     1       6.721   0.837   0.007  1.00  0.00     0.197 C 
HETATM   35  C12 UNL     1       6.817   0.058   1.299  1.00  0.00     0.197 C 
HETATM   36  O5  UNL     1       5.558   0.246   1.846  1.00  0.00    -0.358 OA
ENDBRANCH  31  32
ENDBRANCH  29  31
ENDBRANCH  10  29
TORSDOF 8
