REMARK  9 active torsions:
REMARK  status: ('A' for Active; 'I' for Inactive)
REMARK    1  A    between atoms: C1_2  and  C2_4 
REMARK    2  A    between atoms: C2_4  and  O2_5 
REMARK    3  A    between atoms: C2_4  and  C3_7 
REMARK    4  A    between atoms: C3_7  and  O3_8 
REMARK    5  A    between atoms: C3_7  and  C4_10 
REMARK    6  A    between atoms: C4_10  and  N2_11 
REMARK    7  A    between atoms: C6_13  and  C7_14 
REMARK    8  A    between atoms: C8_17  and  N4_18 
REMARK    9  A    between atoms: C13_26  and  N6_27 
ROOT
HETATM    1  C7  UNL     1      -0.690  -0.892  -1.566  1.00  0.00     0.228 C 
HETATM    2  N3  UNL     1      -1.748  -0.116  -0.975  1.00  0.00    -0.358 N 
ATOM      3  H3  UNL     1      -1.755   0.885  -1.170  1.00  0.00     0.162 HD
HETATM    4  C8  UNL     1      -2.682  -0.573  -0.225  1.00  0.00     0.127 C 
HETATM    5  C13 UNL     1      -2.735  -2.012   0.105  1.00  0.00     0.351 C 
HETATM    6  N7  UNL     1      -2.019  -2.837  -0.822  1.00  0.00    -0.325 N 
ATOM      7  H7  UNL     1      -2.074  -3.853  -0.754  1.00  0.00     0.165 HD
HETATM    8  C14 UNL     1      -1.241  -2.236  -1.824  1.00  0.00     0.248 C 
HETATM    9  O4  UNL     1      -0.999  -2.792  -2.918  1.00  0.00    -0.271 OA
ENDROOT
BRANCH   1  10
HETATM   10  C6  UNL     1       0.448  -1.041  -0.623  1.00  0.00     0.072 A 
HETATM   11  C5  UNL     1       1.773  -0.889  -0.973  1.00  0.00     0.136 A 
HETATM   12  N2  UNL     1       2.558  -1.089   0.111  1.00  0.00    -0.282 N 
HETATM   13  N9  UNL     1       1.728  -1.358   1.103  1.00  0.00    -0.020 NA
HETATM   14  N8  UNL     1       0.474  -1.334   0.687  1.00  0.00    -0.284 N 
ATOM     15  H8  UNL     1      -0.345  -1.510   1.269  1.00  0.00     0.184 HD
BRANCH  12  16
HETATM   16  C4  UNL     1       4.030  -1.018   0.158  1.00  0.00     0.180 C 
BRANCH  16  17
HETATM   17  C3  UNL     1       4.354   0.411   0.488  1.00  0.00     0.175 C 
BRANCH  17  18
HETATM   18  C2  UNL     1       5.862   0.625   0.580  1.00  0.00     0.237 C 
BRANCH  18  19
HETATM   19  C1  UNL     1       6.435   0.567  -0.784  1.00  0.00     0.262 C 
HETATM   20  N1  UNL     1       6.909   1.738  -1.433  1.00  0.00    -0.060 NA
HETATM   21  O1  UNL     1       6.523  -0.511  -1.412  1.00  0.00    -0.274 OA
ENDBRANCH  18  19
BRANCH  18  22
HETATM   22  O2  UNL     1       6.019   1.970   1.030  1.00  0.00    -0.384 OA
ATOM     23  H2  UNL     1       5.651   2.007   1.905  1.00  0.00     0.210 HD
ENDBRANCH  18  22
ENDBRANCH  17  18
BRANCH  17  24
HETATM   24  O3  UNL     1       3.771   0.641   1.755  1.00  0.00    -0.391 OA
ATOM     25  H3  UNL     1       2.832   0.508   1.698  1.00  0.00     0.210 HD
ENDBRANCH  17  24
ENDBRANCH  16  17
ENDBRANCH  12  16
ENDBRANCH   1  10
BRANCH   4  26
HETATM   26  N4  UNL     1      -3.699   0.291   0.318  1.00  0.00    -0.365 N 
HETATM   27  C9  UNL     1      -3.350   1.319   1.274  1.00  0.00     0.152 C 
HETATM   28  C10 UNL     1      -3.702   2.653   0.653  1.00  0.00     0.252 C 
HETATM   29  N5  UNL     1      -4.703   2.542  -0.366  1.00  0.00    -0.072 N 
HETATM   30  C11 UNL     1      -5.716   1.567  -0.067  1.00  0.00     0.252 C 
ATOM     31  H52 UNL     1      -5.122   3.451  -0.562  1.00  0.00     0.277 HD
ATOM     32  H51 UNL     1      -4.276   2.354  -1.273  1.00  0.00     0.277 HD
HETATM   33  C12 UNL     1      -5.092   0.178  -0.057  1.00  0.00     0.152 C 
ENDBRANCH   4  26
BRANCH   5  34
HETATM   34  N6  UNL     1      -4.145  -2.438  -0.026  1.00  0.00    -0.051 N 
ATOM     35  H63 UNL     1      -4.786  -1.876   0.534  1.00  0.00     0.277 HD
ATOM     36  H62 UNL     1      -4.545  -2.222  -0.939  1.00  0.00     0.277 HD
ATOM     37  H61 UNL     1      -4.182  -3.432   0.202  1.00  0.00     0.277 HD
ENDBRANCH   5  34
TORSDOF 9
