REMARK  12 active torsions:
REMARK  status: ('A' for Active; 'I' for Inactive)
REMARK    1  A    between atoms: S1_2  and  C2_3 
REMARK    2  A    between atoms: C4_7  and  C5_8 
REMARK    3  A    between atoms: C7_14  and  N4_15 
REMARK    4  A    between atoms: N6_22  and  C10_24 
REMARK    5  A    between atoms: C10_24  and  C11_25 
REMARK    6  A    between atoms: C11_25  and  C12_26 
REMARK    7  A    between atoms: C12_26  and  O1_27 
REMARK    8  A    between atoms: N7_29  and  C13_30 
REMARK    9  A    between atoms: C13_30  and  C14_31 
REMARK   10  A    between atoms: C14_31  and  O2_32 
REMARK   11  A    between atoms: C14_31  and  C15_34 
REMARK       I    between atoms: C15_34  and  N8_36 
REMARK   12  A    between atoms: N8_36  and  N9_38 
ROOT
HETATM    1  C5  UNL     1       3.536  -0.790   0.119  1.00  0.00     0.121 A 
HETATM    2  N2  UNL     1       3.024  -1.194   1.294  1.00  0.00    -0.325 N 
ATOM      3  H2  UNL     1       3.500  -1.820   1.944  1.00  0.00     0.169 HD
HETATM    4  C6  UNL     1       1.807  -0.669   1.503  1.00  0.00     0.153 A 
HETATM    5  N3  UNL     1       1.005  -0.871   2.589  1.00  0.00    -0.324 N 
ATOM      6  H3  UNL     1       1.487  -1.190   3.430  1.00  0.00     0.169 HD
HETATM    7  C7  UNL     1      -0.322  -0.713   2.718  1.00  0.00     0.132 C 
HETATM    8  C8  UNL     1      -1.182   0.024   1.913  1.00  0.00     0.137 A 
HETATM    9  N5  UNL     1      -2.480   0.201   2.110  1.00  0.00    -0.184 N 
ATOM     10  H5  UNL     1      -3.009  -0.191   2.889  1.00  0.00     0.184 HD
HETATM   11  C9  UNL     1      -3.018   0.994   1.107  1.00  0.00     0.682 A 
HETATM   12  N6  UNL     1      -4.244   1.319   1.082  1.00  0.00    -0.226 N 
ATOM     13  H6  UNL     1      -4.757   0.927   1.872  1.00  0.00     0.177 HD
HETATM   14  N7  UNL     1      -1.975   1.276   0.307  1.00  0.00    -0.163 N 
HETATM   15  C16 UNL     1      -0.826   0.693   0.777  1.00  0.00     0.156 A 
HETATM   16  N10 UNL     1       0.403   0.817   0.211  1.00  0.00    -0.323 N 
ATOM     17  H10 UNL     1       0.483   1.572  -0.470  1.00  0.00     0.169 HD
HETATM   18  C17 UNL     1       1.531   0.111   0.398  1.00  0.00     0.153 A 
HETATM   19  N11 UNL     1       2.599   0.019  -0.425  1.00  0.00    -0.325 N 
ATOM     20  H11 UNL     1       2.686   0.491  -1.325  1.00  0.00     0.169 HD
ENDROOT
BRANCH  14  21
HETATM   21  C13 UNL     1      -1.950   2.075  -0.875  1.00  0.00     0.191 C 
BRANCH  21  22
HETATM   22  C14 UNL     1      -2.292   1.412  -2.163  1.00  0.00     0.230 C 
BRANCH  22  23
HETATM   23  O2  UNL     1      -2.157   2.429  -3.151  1.00  0.00    -0.384 OA
ATOM     24  H2  UNL     1      -2.375   2.006  -3.973  1.00  0.00     0.210 HD
ENDBRANCH  22  23
BRANCH  22  25
HETATM   25  C15 UNL     1      -1.500   0.265  -2.577  1.00  0.00     0.266 C 
HETATM   26  O3  UNL     1      -0.631   0.400  -3.507  1.00  0.00    -0.269 OA
HETATM   27  N8  UNL     1      -1.610  -1.059  -2.022  1.00  0.00    -0.274 N 
ATOM     28  H8  UNL     1      -2.287  -1.226  -1.278  1.00  0.00     0.189 HD
BRANCH  27  29
HETATM   29  N9  UNL     1      -0.824  -2.120  -2.466  1.00  0.00    -0.343 N 
ATOM     30  H92 UNL     1      -0.152  -1.936  -3.211  1.00  0.00     0.176 HD
ATOM     31  H91 UNL     1      -0.902  -3.058  -2.073  1.00  0.00     0.176 HD
ENDBRANCH  27  29
ENDBRANCH  22  25
ENDBRANCH  21  22
ENDBRANCH  14  21
BRANCH  12  32
HETATM   32  C10 UNL     1      -5.060   2.066   0.260  1.00  0.00     0.140 C 
BRANCH  32  33
HETATM   33  C11 UNL     1      -6.540   2.022   0.671  1.00  0.00     0.046 C 
BRANCH  33  34
HETATM   34  C12 UNL     1      -6.773   2.540   2.051  1.00  0.00     0.165 C 
BRANCH  34  35
HETATM   35  O1  UNL     1      -6.089   1.823   3.026  1.00  0.00    -0.401 OA
ATOM     36  H1  UNL     1      -6.237   2.153   3.904  1.00  0.00     0.209 HD
ENDBRANCH  34  35
ENDBRANCH  33  34
ENDBRANCH  32  33
ENDBRANCH  12  32
BRANCH   7  37
HETATM   37  N4  UNL     1      -0.883  -1.315   3.707  1.00  0.00    -0.383 N 
ATOM     38  H42 UNL     1      -0.252  -1.856   4.298  1.00  0.00     0.157 HD
ATOM     39  H41 UNL     1      -1.891  -1.195   3.805  1.00  0.00     0.157 HD
ENDBRANCH   7  37
BRANCH   1  40
HETATM   40  C4  UNL     1       4.820  -1.130  -0.481  1.00  0.00     0.039 A 
HETATM   41  C3  UNL     1       5.696  -1.965   0.180  1.00  0.00     0.106 A 
HETATM   42  N1  UNL     1       6.882  -2.276  -0.383  1.00  0.00    -0.346 N 
HETATM   43  C2  UNL     1       7.275  -1.811  -1.582  1.00  0.00     0.143 A 
ATOM     44  H1  UNL     1       7.512  -2.895   0.127  1.00  0.00     0.167 HD
HETATM   45  N12 UNL     1       6.425  -0.995  -2.235  1.00  0.00    -0.346 N 
HETATM   46  C18 UNL     1       5.222  -0.654  -1.708  1.00  0.00     0.106 A 
ATOM     47  H12 UNL     1       6.692  -0.625  -3.147  1.00  0.00     0.167 HD
BRANCH  43  48
HETATM   48  S1  UNL     1       8.864  -2.251  -2.288  1.00  0.00    -0.098 SA
HETATM   49  C1  UNL     1       9.710  -3.350  -1.104  1.00  0.00     0.099 C 
ENDBRANCH  43  48
ENDBRANCH   1  40
TORSDOF 12
