REMARK  10 active torsions:
REMARK  status: ('A' for Active; 'I' for Inactive)
REMARK    1  A    between atoms: O1_2  and  C2_3 
REMARK    2  A    between atoms: C5_6  and  S1_7 
REMARK    3  A    between atoms: S1_7  and  C6_9 
REMARK    4  A    between atoms: S1_7  and  C16_37 
REMARK    5  A    between atoms: C6_9  and  C7_10 
REMARK    6  A    between atoms: C7_10  and  N1_11 
REMARK    7  A    between atoms: N1_11  and  C8_14 
REMARK    8  A    between atoms: C12_25  and  N6_26 
REMARK    9  A    between atoms: C13_31  and  N8_32 
REMARK   10  A    between atoms: N8_32  and  C14_34 
ROOT
HETATM    1  C14 UNL     1       7.504  -0.309  -1.002  1.00  0.00     0.245 C 
HETATM    2  C15 UNL     1       8.597   0.603  -1.248  1.00  0.00     0.078 C 
HETATM    3  N9  UNL     1       9.481   1.317  -1.450  1.00  0.00    -0.196 NA
ENDROOT
BRANCH   1   4
HETATM    4  N8  UNL     1       6.331   0.416  -0.586  1.00  0.00    -0.362 N 
ATOM      5  H8  UNL     1       6.317   1.431  -0.685  1.00  0.00     0.162 HD
BRANCH   4   6
HETATM    6  C13 UNL     1       5.288  -0.184  -0.088  1.00  0.00     0.146 A 
HETATM    7  C10 UNL     1       4.174   0.526   0.304  1.00  0.00     0.106 A 
HETATM    8  N4  UNL     1       4.181   1.931   0.154  1.00  0.00    -0.326 N 
HETATM    9  C11 UNL     1       3.055  -0.080   0.835  1.00  0.00     0.107 A 
HETATM   10  C9  UNL     1       3.047   2.671   0.550  1.00  0.00     0.190 A 
ATOM     11  H4  UNL     1       4.996   2.404  -0.236  1.00  0.00     0.169 HD
HETATM   12  N2  UNL     1       2.036   2.063   1.036  1.00  0.00    -0.332 N 
HETATM   13  N3  UNL     1       3.005   4.073   0.416  1.00  0.00    -0.063 NA
HETATM   14  C8  UNL     1       1.855   0.675   1.262  1.00  0.00     0.340 A 
ATOM     15  H2  UNL     1       1.250   2.657   1.298  1.00  0.00     0.164 HD
HETATM   16  N5  UNL     1       3.099  -1.428   0.956  1.00  0.00    -0.190 N 
HETATM   17  C12 UNL     1       4.176  -2.138   0.579  1.00  0.00     0.677 A 
ATOM     18  H5  UNL     1       2.293  -1.918   1.344  1.00  0.00     0.184 HD
HETATM   19  N7  UNL     1       5.261  -1.523   0.061  1.00  0.00    -0.175 N 
ATOM     20  H7  UNL     1       6.069  -2.078  -0.221  1.00  0.00     0.186 HD
BRANCH  14  21
HETATM   21  N1  UNL     1       0.636   0.131   0.616  1.00  0.00    -0.048 N 
ATOM     22  H12 UNL     1       0.546  -0.881   0.706  1.00  0.00     0.280 HD
ATOM     23  H11 UNL     1       0.667   0.163  -0.403  1.00  0.00     0.280 HD
BRANCH  21  24
HETATM   24  C7  UNL     1      -0.460   0.850   1.173  1.00  0.00     0.247 C 
BRANCH  24  25
HETATM   25  C6  UNL     1      -1.840   0.392   0.749  1.00  0.00     0.137 C 
BRANCH  25  26
HETATM   26  S1  UNL     1      -2.258   0.432  -1.070  1.00  0.00     0.042 S 
HETATM   27  O2  UNL     1      -1.623   1.951  -1.209  1.00  0.00    -0.257 OA
BRANCH  26  28
HETATM   28  C5  UNL     1      -4.183   0.032  -0.606  1.00  0.00     0.027 A 
HETATM   29  C4  UNL     1      -4.642  -1.215  -0.669  1.00  0.00     0.023 A 
HETATM   30  C3  UNL     1      -5.954  -1.460  -0.313  1.00  0.00     0.038 A 
HETATM   31  C2  UNL     1      -6.791  -0.429   0.104  1.00  0.00     0.068 A 
HETATM   32  C18 UNL     1      -6.288   0.840   0.156  1.00  0.00     0.038 A 
HETATM   33  C17 UNL     1      -4.953   1.063  -0.210  1.00  0.00     0.023 A 
BRANCH  31  34
HETATM   34  O1  UNL     1      -8.104  -0.647   0.465  1.00  0.00    -0.356 OA
HETATM   35  C1  UNL     1      -8.935   0.408   0.885  1.00  0.00     0.210 C 
ENDBRANCH  31  34
ENDBRANCH  26  28
BRANCH  26  36
HETATM   36  C16 UNL     1      -1.311  -1.215  -1.519  1.00  0.00     0.199 A 
HETATM   37  N10 UNL     1      -0.351  -1.410  -2.438  1.00  0.00    -0.262 N 
HETATM   38  N11 UNL     1       0.015  -2.673  -2.429  1.00  0.00    -0.226 N 
ATOM     39  H10 UNL     1       0.035  -0.690  -3.049  1.00  0.00     0.190 HD
HETATM   40  N12 UNL     1      -0.690  -3.275  -1.528  1.00  0.00    -0.226 N 
ATOM     41  H11 UNL     1       0.725  -3.100  -3.024  1.00  0.00     0.210 HD
HETATM   42  N13 UNL     1      -1.496  -2.413  -0.967  1.00  0.00    -0.262 N 
ATOM     43  H12 UNL     1      -0.627  -4.265  -1.292  1.00  0.00     0.210 HD
ATOM     44  H13 UNL     1      -2.162  -2.624  -0.224  1.00  0.00     0.190 HD
ENDBRANCH  26  36
ENDBRANCH  25  26
ENDBRANCH  24  25
ENDBRANCH  21  24
ENDBRANCH  14  21
BRANCH  17  45
HETATM   45  N6  UNL     1       4.215  -3.417   0.694  1.00  0.00    -0.234 N 
ATOM     46  H62 UNL     1       3.396  -3.882   1.085  1.00  0.00     0.174 HD
ATOM     47  H61 UNL     1       5.032  -3.956   0.408  1.00  0.00     0.174 HD
ENDBRANCH  17  45
ENDBRANCH   4   6
ENDBRANCH   1   4
TORSDOF 10
