REMARK  12 active torsions:
REMARK  status: ('A' for Active; 'I' for Inactive)
REMARK    1  A    between atoms: C2_2  and  O1_3 
REMARK    2  A    between atoms: C2_2  and  C3_5 
REMARK    3  A    between atoms: C3_5  and  C4_6 
REMARK    4  A    between atoms: C3_5  and  C7_11 
REMARK    5  A    between atoms: C4_6  and  C6_8 
REMARK    6  A    between atoms: C6_8  and  O2_9 
REMARK    7  A    between atoms: C7_11  and  O3_12 
REMARK    8  A    between atoms: C7_11  and  S1_14 
REMARK    9  A    between atoms: S1_14  and  C8_15 
REMARK   10  A    between atoms: C8_15  and  C9_16 
REMARK   11  A    between atoms: C10_17  and  O4_18 
REMARK   12  A    between atoms: C14_23  and  O5_24 
ROOT
HETATM    1  C7  UNL     1      -1.097  -0.286  -0.428  1.00  0.00     0.186 C 
ENDROOT
BRANCH   1   2
HETATM    2  C3  UNL     1      -2.425   0.288   0.057  1.00  0.00     0.058 C 
BRANCH   2   3
HETATM    3  C2  UNL     1      -3.191   1.064  -0.929  1.00  0.00     0.121 C 
HETATM    4  C1  UNL     1      -2.482   2.244  -1.545  1.00  0.00     0.040 C 
BRANCH   3   5
HETATM    5  O1  UNL     1      -4.288   1.640  -0.239  1.00  0.00    -0.395 OA
ATOM      6  H1  UNL     1      -4.735   0.897   0.149  1.00  0.00     0.210 HD
ENDBRANCH   3   5
ENDBRANCH   2   3
BRANCH   2   7
HETATM    7  C4  UNL     1      -3.168  -0.885   0.644  1.00  0.00     0.015 C 
HETATM    8  C5  UNL     1      -3.578  -1.835  -0.451  1.00  0.00     0.012 C 
BRANCH   7   9
HETATM    9  C6  UNL     1      -4.348  -0.553   1.485  1.00  0.00     0.168 C 
BRANCH   9  10
HETATM   10  O2  UNL     1      -4.037   0.241   2.590  1.00  0.00    -0.400 OA
ATOM     11  H2  UNL     1      -4.791   0.453   3.127  1.00  0.00     0.209 HD
ENDBRANCH   9  10
ENDBRANCH   7   9
ENDBRANCH   2   7
ENDBRANCH   1   2
BRANCH   1  12
HETATM   12  O3  UNL     1      -0.579  -0.962   0.660  1.00  0.00    -0.385 OA
ATOM     13  H3  UNL     1       0.248  -1.319   0.358  1.00  0.00     0.211 HD
ENDBRANCH   1  12
BRANCH   1  14
HETATM   14  S1  UNL     1       0.006   0.918  -1.072  1.00  0.00    -0.137 SA
BRANCH  14  15
HETATM   15  C8  UNL     1       1.527   0.313  -1.693  1.00  0.00     0.086 C 
BRANCH  15  16
HETATM   16  C9  UNL     1       2.644  -0.013  -0.815  1.00  0.00     0.052 C 
HETATM   17  C10 UNL     1       3.202   1.135   0.021  1.00  0.00     0.125 C 
HETATM   18  C11 UNL     1       4.599   0.799   0.367  1.00  0.00     0.032 C 
HETATM   19  C12 UNL     1       5.015  -0.596   0.530  1.00  0.00     0.005 C 
HETATM   20  C13 UNL     1       4.104  -1.682   0.047  1.00  0.00     0.032 C 
HETATM   21  C14 UNL     1       2.636  -1.183   0.099  1.00  0.00     0.125 C 
BRANCH  17  22
HETATM   22  O4  UNL     1       2.419   1.490   1.083  1.00  0.00    -0.395 OA
ATOM     23  H4  UNL     1       2.766   2.205   1.604  1.00  0.00     0.210 HD
ENDBRANCH  17  22
BRANCH  21  24
HETATM   24  O5  UNL     1       2.437  -0.807   1.448  1.00  0.00    -0.395 OA
ATOM     25  H5  UNL     1       2.432  -1.556   2.033  1.00  0.00     0.210 HD
ENDBRANCH  21  24
ENDBRANCH  15  16
ENDBRANCH  14  15
ENDBRANCH   1  14
TORSDOF 12
