REMARK  11 active torsions:
REMARK  status: ('A' for Active; 'I' for Inactive)
REMARK    1  A    between atoms: O1_1  and  C1_3 
REMARK    2  A    between atoms: C1_3  and  C2_4 
REMARK    3  A    between atoms: C3_6  and  C4_7 
REMARK    4  A    between atoms: C4_7  and  C5_8 
REMARK    5  A    between atoms: C5_8  and  C6_9 
REMARK    6  A    between atoms: C6_9  and  C7_10 
REMARK    7  A    between atoms: C7_10  and  C8_11 
REMARK    8  A    between atoms: C8_11  and  C9_12 
REMARK    9  A    between atoms: C13_19  and  O3_20 
REMARK   10  A    between atoms: C14_22  and  O4_23 
REMARK   11  A    between atoms: C15_25  and  O5_26 
ROOT
HETATM    1  C2  UNL     1      -4.112  -0.251   0.820  1.00  0.00     0.176 C 
HETATM    2  O2  UNL     1      -2.752   0.009   0.742  1.00  0.00    -0.373 OA
HETATM    3  C3  UNL     1      -2.284  -0.331  -0.503  1.00  0.00     0.153 C 
HETATM    4  C13 UNL     1      -2.739   0.686  -1.493  1.00  0.00     0.178 C 
HETATM    5  C14 UNL     1      -4.271   0.599  -1.542  1.00  0.00     0.180 C 
HETATM    6  C15 UNL     1      -4.800  -0.331  -0.501  1.00  0.00     0.180 C 
ENDROOT
BRANCH   3   7
HETATM    7  C4  UNL     1      -0.803  -0.608  -0.539  1.00  0.00     0.035 C 
BRANCH   7   8
HETATM    8  C5  UNL     1       0.036   0.539  -0.121  1.00  0.00     0.002 C 
BRANCH   8   9
HETATM    9  C6  UNL     1       1.515   0.126  -0.227  1.00  0.00     0.000 C 
BRANCH   9  10
HETATM   10  C7  UNL     1       1.868  -1.027   0.628  1.00  0.00     0.002 C 
BRANCH  10  11
HETATM   11  C8  UNL     1       3.288  -1.441   0.485  1.00  0.00     0.033 C 
BRANCH  11  12
HETATM   12  C9  UNL     1       4.345  -0.453   0.814  1.00  0.00     0.186 C 
HETATM   13  C10 UNL     1       5.737  -1.083   0.649  1.00  0.00     0.034 C 
HETATM   14  C11 UNL     1       6.662   0.070   0.319  1.00  0.00     0.029 C 
HETATM   15  C12 UNL     1       5.706   1.238   0.224  1.00  0.00     0.233 C 
HETATM   16  N1  UNL     1       4.485   0.599  -0.206  1.00  0.00    -0.071 N 
ATOM     17  H12 UNL     1       4.476   0.276  -1.173  1.00  0.00     0.277 HD
ATOM     18  H11 UNL     1       3.680   1.217  -0.312  1.00  0.00     0.277 HD
ENDBRANCH  11  12
ENDBRANCH  10  11
ENDBRANCH   9  10
ENDBRANCH   8   9
ENDBRANCH   7   8
ENDBRANCH   3   7
BRANCH   4  19
HETATM   19  O3  UNL     1      -2.433   1.989  -1.127  1.00  0.00    -0.390 OA
ATOM     20  H3  UNL     1      -2.723   2.637  -1.758  1.00  0.00     0.210 HD
ENDBRANCH   4  19
BRANCH   1  21
HETATM   21  C1  UNL     1      -4.819   0.742   1.743  1.00  0.00     0.198 C 
BRANCH  21  22
HETATM   22  O1  UNL     1      -4.277   0.652   3.026  1.00  0.00    -0.398 OA
ATOM     23  H1  UNL     1      -4.716   1.269   3.599  1.00  0.00     0.209 HD
ENDBRANCH  21  22
ENDBRANCH   1  21
BRANCH   5  24
HETATM   24  O4  UNL     1      -4.688   0.114  -2.796  1.00  0.00    -0.390 OA
ATOM     25  H4  UNL     1      -5.636   0.060  -2.826  1.00  0.00     0.210 HD
ENDBRANCH   5  24
BRANCH   6  26
HETATM   26  O5  UNL     1      -6.154   0.015  -0.288  1.00  0.00    -0.390 OA
ATOM     27  H5  UNL     1      -6.592  -0.036  -1.129  1.00  0.00     0.210 HD
ENDBRANCH   6  26
TORSDOF 11
