REMARK  12 active torsions:
REMARK  status: ('A' for Active; 'I' for Inactive)
REMARK    1  A    between atoms: N1_1  and  N2_4 
REMARK    2  A    between atoms: N2_4  and  N3_5 
REMARK    3  A    between atoms: N3_5  and  C1_7 
REMARK    4  A    between atoms: C1_7  and  C2_8 
REMARK    5  A    between atoms: C2_8  and  C3_9 
REMARK    6  A    between atoms: C3_9  and  C4_10 
REMARK    7  A    between atoms: C4_10  and  C5_11 
REMARK    8  A    between atoms: C5_11  and  O1_12 
REMARK    9  A    between atoms: O1_12  and  C6_13 
REMARK   10  A    between atoms: C8_18  and  O2_19 
REMARK   11  A    between atoms: C9_21  and  O3_22 
REMARK   12  A    between atoms: C10_24  and  O4_25 
ROOT
HETATM    1  C6  UNL     1      -0.236  -0.536  -0.454  1.00  0.00     0.469 C 
HETATM    2  N4  UNL     1      -1.447  -1.225  -0.922  1.00  0.00    -0.018 N 
ATOM      3  H41 UNL     1      -1.338  -2.237  -0.850  1.00  0.00     0.283 HD
ATOM      4  H42 UNL     1      -1.545  -1.137  -1.933  1.00  0.00     0.283 HD
HETATM    5  C7  UNL     1      -2.624  -0.801  -0.267  1.00  0.00     0.231 C 
HETATM    6  C8  UNL     1      -3.676  -0.218  -1.201  1.00  0.00     0.180 C 
HETATM    7  C9  UNL     1      -4.711   0.233  -0.170  1.00  0.00     0.178 C 
HETATM    8  C10 UNL     1      -3.828   0.930   0.843  1.00  0.00     0.157 C 
HETATM    9  C11 UNL     1      -2.465   0.273   0.746  1.00  0.00     0.074 C 
HETATM   10  C12 UNL     1      -1.382   1.269   0.430  1.00  0.00     0.182 C 
HETATM   11  O5  UNL     1      -0.508   0.827  -0.547  1.00  0.00    -0.339 OA
ENDROOT
BRANCH   1  12
HETATM   12  O1  UNL     1       0.168  -0.952   0.756  1.00  0.00    -0.339 OA
BRANCH  12  13
HETATM   13  C5  UNL     1       1.358  -1.558   0.962  1.00  0.00     0.172 C 
BRANCH  13  14
HETATM   14  C4  UNL     1       2.630  -0.833   0.787  1.00  0.00     0.026 C 
BRANCH  14  15
HETATM   15  C3  UNL     1       2.972  -0.255  -0.532  1.00  0.00     0.004 C 
BRANCH  15  16
HETATM   16  C2  UNL     1       4.348   0.410  -0.480  1.00  0.00     0.022 C 
BRANCH  16  17
HETATM   17  C1  UNL     1       5.455  -0.525  -0.125  1.00  0.00     0.155 C 
BRANCH  17  18
HETATM   18  N3  UNL     1       6.686   0.285  -0.137  1.00  0.00    -0.253 N 
ATOM     19  H3  UNL     1       7.583  -0.166  -0.316  1.00  0.00     0.196 HD
BRANCH  18  20
HETATM   20  N2  UNL     1       6.647   1.505   0.067  1.00  0.00    -0.249 NA
BRANCH  20  21
HETATM   21  N1  UNL     1       6.684   2.721  -0.015  1.00  0.00    -0.261 N 
ATOM     22  H12 UNL     1       6.946   2.686  -1.000  1.00  0.00     0.193 HD
ATOM     23  H11 UNL     1       6.652   3.727   0.153  1.00  0.00     0.193 HD
ENDBRANCH  20  21
ENDBRANCH  18  20
ENDBRANCH  17  18
ENDBRANCH  16  17
ENDBRANCH  15  16
ENDBRANCH  14  15
ENDBRANCH  13  14
ENDBRANCH  12  13
ENDBRANCH   1  12
BRANCH   6  24
HETATM   24  O2  UNL     1      -4.185  -1.153  -2.070  1.00  0.00    -0.391 OA
ATOM     25  H2  UNL     1      -4.841  -0.789  -2.653  1.00  0.00     0.210 HD
ENDBRANCH   6  24
BRANCH   7  26
HETATM   26  O3  UNL     1      -5.656   1.057  -0.721  1.00  0.00    -0.390 OA
ATOM     27  H3  UNL     1      -6.299   1.337  -0.080  1.00  0.00     0.210 HD
ENDBRANCH   7  26
BRANCH   8  28
HETATM   28  O4  UNL     1      -3.797   2.273   0.506  1.00  0.00    -0.392 OA
ATOM     29  H4  UNL     1      -3.243   2.710   1.142  1.00  0.00     0.210 HD
ENDBRANCH   8  28
TORSDOF 12
