REMARK  10 active torsions:
REMARK  status: ('A' for Active; 'I' for Inactive)
REMARK    1  A    between atoms: C2_2  and  C3_3 
REMARK    2  A    between atoms: C3_3  and  C4_4 
REMARK    3  A    between atoms: C4_4  and  C5_5 
REMARK    4  A    between atoms: C5_5  and  C6_6 
REMARK    5  A    between atoms: C6_6  and  C7_7 
REMARK    6  A    between atoms: C7_7  and  C8_8 
REMARK    7  A    between atoms: C8_8  and  O1_9 
REMARK    8  A    between atoms: C8_8  and  C9_11 
REMARK    9  A    between atoms: C12_14  and  N1_15 
REMARK   10  A    between atoms: C14_20  and  N2_21 
ROOT
HETATM    1  C8  UNL     1      -0.856  -0.675  -0.556  1.00  0.00     0.189 C 
ENDROOT
BRANCH   1   2
HETATM    2  C7  UNL     1       0.519  -0.411  -0.942  1.00  0.00     0.312 C 
HETATM    3  N3  UNL     1       0.511  -0.194  -2.467  1.00  0.00    -0.036 N 
HETATM    4  C15 UNL     1      -0.079  -1.426  -2.954  1.00  0.00     0.263 C 
ATOM      5  H32 UNL     1       0.044   0.658  -2.777  1.00  0.00     0.280 HD
ATOM      6  H31 UNL     1       1.418   0.038  -2.873  1.00  0.00     0.280 HD
HETATM    7  C16 UNL     1       0.558  -2.450  -2.073  1.00  0.00     0.263 C 
HETATM    8  N4  UNL     1       1.279  -1.659  -1.037  1.00  0.00    -0.036 N 
ATOM      9  H42 UNL     1       2.273  -1.529  -1.227  1.00  0.00     0.280 HD
ATOM     10  H41 UNL     1       1.397  -2.145  -0.148  1.00  0.00     0.280 HD
BRANCH   2  11
HETATM   11  C6  UNL     1       1.227   0.775  -0.467  1.00  0.00     0.072 C 
BRANCH  11  12
HETATM   12  C5  UNL     1       2.674   0.950  -0.739  1.00  0.00     0.004 C 
BRANCH  12  13
HETATM   13  C4  UNL     1       3.631   0.059  -0.021  1.00  0.00     0.000 C 
BRANCH  13  14
HETATM   14  C3  UNL     1       3.418   0.337   1.492  1.00  0.00    -0.000 C 
BRANCH  14  15
HETATM   15  C2  UNL     1       4.397  -0.573   2.211  1.00  0.00    -0.005 C 
HETATM   16  C1  UNL     1       5.793  -0.172   1.723  1.00  0.00     0.005 C 
ENDBRANCH  14  15
ENDBRANCH  13  14
ENDBRANCH  12  13
ENDBRANCH  11  12
ENDBRANCH   2  11
ENDBRANCH   1   2
BRANCH   1  17
HETATM   17  O1  UNL     1      -0.828  -0.930   0.873  1.00  0.00    -0.391 OA
ATOM     18  H1  UNL     1      -1.727  -1.103   1.125  1.00  0.00     0.210 HD
ENDBRANCH   1  17
BRANCH   1  19
HETATM   19  C9  UNL     1      -2.054   0.123  -0.783  1.00  0.00     0.049 C 
HETATM   20  C10 UNL     1      -3.250  -0.806  -0.234  1.00  0.00     0.011 C 
HETATM   21  C11 UNL     1      -4.495  -0.006  -0.100  1.00  0.00     0.033 C 
HETATM   22  C12 UNL     1      -4.454   0.888   1.136  1.00  0.00     0.185 C 
HETATM   23  C13 UNL     1      -2.968   1.190   1.329  1.00  0.00     0.066 C 
HETATM   24  C14 UNL     1      -2.367   1.374  -0.068  1.00  0.00     0.192 C 
BRANCH  22  25
HETATM   25  N1  UNL     1      -5.034   0.271   2.296  1.00  0.00    -0.075 N 
ATOM     26  H13 UNL     1      -5.986  -0.041   2.104  1.00  0.00     0.274 HD
ATOM     27  H12 UNL     1      -4.597  -0.631   2.485  1.00  0.00     0.274 HD
ATOM     28  H11 UNL     1      -5.007   0.869   3.122  1.00  0.00     0.274 HD
ENDBRANCH  22  25
BRANCH  24  29
HETATM   29  N2  UNL     1      -1.486   2.468  -0.025  1.00  0.00    -0.074 N 
ATOM     30  H23 UNL     1      -0.593   2.128   0.330  1.00  0.00     0.274 HD
ATOM     31  H22 UNL     1      -1.257   2.715  -0.988  1.00  0.00     0.274 HD
ATOM     32  H21 UNL     1      -1.703   3.333   0.470  1.00  0.00     0.274 HD
ENDBRANCH  24  29
ENDBRANCH   1  19
TORSDOF 10
