REMARK  11 active torsions:
REMARK  status: ('A' for Active; 'I' for Inactive)
REMARK    1  A    between atoms: O1_1  and  C1_3 
REMARK    2  A    between atoms: C1_3  and  C2_4 
REMARK    3  A    between atoms: C2_4  and  O2_5 
REMARK    4  A    between atoms: C3_7  and  C4_8 
REMARK    5  A    between atoms: C4_8  and  C5_9 
REMARK    6  A    between atoms: C5_9  and  C6_10 
REMARK    7  A    between atoms: C6_10  and  C7_11 
REMARK    8  A    between atoms: C7_11  and  C8_12 
REMARK    9  A    between atoms: C8_12  and  C9_13 
REMARK   10  A    between atoms: C14_22  and  O4_23 
REMARK   11  A    between atoms: C15_25  and  O5_26 
ROOT
HETATM    1  C2  UNL     1       3.766  -0.632   0.201  1.00  0.00     0.135 C 
HETATM    2  C3  UNL     1       3.110   0.667  -0.012  1.00  0.00     0.164 C 
HETATM    3  O3  UNL     1       3.958   1.377  -0.890  1.00  0.00    -0.350 OA
HETATM    4  C14 UNL     1       5.235   1.035  -0.521  1.00  0.00     0.289 C 
HETATM    5  C15 UNL     1       5.203  -0.470  -0.327  1.00  0.00     0.212 C 
ENDROOT
BRANCH   2   6
HETATM    6  C4  UNL     1       1.726   0.579  -0.579  1.00  0.00     0.035 C 
BRANCH   6   7
HETATM    7  C5  UNL     1       0.794  -0.151   0.305  1.00  0.00     0.002 C 
BRANCH   7   8
HETATM    8  C6  UNL     1      -0.647  -0.238  -0.238  1.00  0.00     0.000 C 
BRANCH   8   9
HETATM    9  C7  UNL     1      -1.235   1.099  -0.398  1.00  0.00     0.000 C 
BRANCH   9  10
HETATM   10  C8  UNL     1      -2.594   1.136  -0.977  1.00  0.00     0.005 C 
BRANCH  10  11
HETATM   11  C9  UNL     1      -3.688   0.458  -0.258  1.00  0.00    -0.011 C 
HETATM   12  C10 UNL     1      -3.627  -1.008  -0.057  1.00  0.00     0.032 C 
HETATM   13  C11 UNL     1      -4.991  -1.628  -0.372  1.00  0.00     0.232 C 
HETATM   14  N1  UNL     1      -6.071  -0.926   0.300  1.00  0.00    -0.075 N 
HETATM   15  C12 UNL     1      -6.204   0.430  -0.211  1.00  0.00     0.232 C 
ATOM     16  H12 UNL     1      -6.950  -1.440   0.239  1.00  0.00     0.277 HD
ATOM     17  H11 UNL     1      -5.955  -0.938   1.313  1.00  0.00     0.277 HD
HETATM   18  C13 UNL     1      -4.987   0.828  -0.981  1.00  0.00     0.032 C 
ENDBRANCH  10  11
ENDBRANCH   9  10
ENDBRANCH   8   9
ENDBRANCH   7   8
ENDBRANCH   6   7
ENDBRANCH   2   6
BRANCH   1  19
HETATM   19  C1  UNL     1       3.825  -1.032   1.663  1.00  0.00     0.207 C 
BRANCH  19  20
HETATM   20  O1  UNL     1       4.367  -0.062   2.476  1.00  0.00    -0.398 OA
ATOM     21  H1  UNL     1       4.404  -0.313   3.392  1.00  0.00     0.209 HD
ENDBRANCH  19  20
ENDBRANCH   1  19
BRANCH   1  22
HETATM   22  O2  UNL     1       3.201  -1.691  -0.503  1.00  0.00    -0.382 OA
ATOM     23  H2  UNL     1       3.164  -1.440  -1.419  1.00  0.00     0.210 HD
ENDBRANCH   1  22
BRANCH   5  24
HETATM   24  O5  UNL     1       5.278  -1.036  -1.597  1.00  0.00    -0.387 OA
ATOM     25  H5  UNL     1       6.165  -0.936  -1.923  1.00  0.00     0.210 HD
ENDBRANCH   5  24
BRANCH   4  26
HETATM   26  O4  UNL     1       5.708   1.670   0.602  1.00  0.00    -0.368 OA
ATOM     27  H4  UNL     1       6.592   1.433   0.857  1.00  0.00     0.212 HD
ENDBRANCH   4  26
TORSDOF 11
