REMARK  9 active torsions:
REMARK  status: ('A' for Active; 'I' for Inactive)
REMARK    1  A    between atoms: C2_3  and  N2_4 
REMARK    2  A    between atoms: C2_3  and  C3_8 
REMARK    3  A    between atoms: C2_3  and  C7_16 
REMARK    4  A    between atoms: C3_8  and  C4_9 
REMARK    5  A    between atoms: C7_16  and  O1_17 
REMARK    6  A    between atoms: C7_16  and  N5_19 
REMARK    7  A    between atoms: N5_19  and  C8_20 
REMARK    8  A    between atoms: N5_19  and  C9_24 
REMARK    9  A    between atoms: C9_24  and  C10_25 
ROOT
HETATM    1  N1  UNL     1       2.309  -0.126  -2.394  1.00  0.00    -0.194 NA
HETATM    2  C1  UNL     1       1.999  -0.184  -1.283  1.00  0.00     0.103 C 
HETATM    3  C2  UNL     1       1.573  -0.266   0.144  1.00  0.00     0.258 C 
ENDROOT
BRANCH   3   4
HETATM    4  N2  UNL     1       1.109   1.002   0.586  1.00  0.00    -0.053 N 
ATOM      5  H23 UNL     1       1.801   1.736   0.435  1.00  0.00     0.276 HD
ATOM      6  H22 UNL     1       0.370   1.369  -0.013  1.00  0.00     0.276 HD
ATOM      7  H21 UNL     1       0.818   0.946   1.562  1.00  0.00     0.276 HD
ENDBRANCH   3   4
BRANCH   3   8
HETATM    8  C3  UNL     1       2.899  -0.498   0.908  1.00  0.00     0.117 C 
BRANCH   8   9
HETATM    9  C4  UNL     1       3.845   0.603   0.694  1.00  0.00     0.029 A 
HETATM   10  C5  UNL     1       4.801   0.696  -0.282  1.00  0.00     0.114 A 
HETATM   11  N3  UNL     1       5.423   1.875  -0.095  1.00  0.00    -0.360 N 
HETATM   12  C6  UNL     1       4.870   2.495   0.964  1.00  0.00     0.180 A 
ATOM     13  H3  UNL     1       6.188   2.239  -0.663  1.00  0.00     0.166 HD
HETATM   14  N4  UNL     1       3.896   1.709   1.448  1.00  0.00    -0.354 N 
ATOM     15  H4  UNL     1       3.300   1.917   2.249  1.00  0.00     0.166 HD
ENDBRANCH   8   9
ENDBRANCH   3   8
BRANCH   3  16
HETATM   16  C7  UNL     1       0.733  -1.454   0.395  1.00  0.00     0.272 C 
BRANCH  16  17
HETATM   17  O1  UNL     1       0.552  -1.534   1.801  1.00  0.00    -0.373 OA
ATOM     18  H1  UNL     1       0.012  -2.298   1.963  1.00  0.00     0.212 HD
ENDBRANCH  16  17
BRANCH  16  19
HETATM   19  N5  UNL     1      -0.440  -1.675  -0.351  1.00  0.00    -0.348 N 
BRANCH  19  20
HETATM   20  C8  UNL     1      -0.935  -3.056  -0.364  1.00  0.00     0.173 C 
HETATM   21  N6  UNL     1      -1.037  -3.678   0.734  1.00  0.00    -0.395 N 
ATOM     22  H62 UNL     1      -0.776  -3.213   1.603  1.00  0.00     0.156 HD
ATOM     23  H61 UNL     1      -1.381  -4.638   0.725  1.00  0.00     0.156 HD
ENDBRANCH  19  20
BRANCH  19  24
HETATM   24  C9  UNL     1      -1.263  -0.756  -1.041  1.00  0.00     0.133 C 
BRANCH  24  25
HETATM   25  C10 UNL     1      -2.148   0.133  -0.255  1.00  0.00     0.028 C 
HETATM   26  C11 UNL     1      -2.911   1.013  -1.267  1.00  0.00     0.010 C 
HETATM   27  C12 UNL     1      -3.601   2.068  -0.429  1.00  0.00     0.027 C 
HETATM   28  C13 UNL     1      -4.405   1.347   0.638  1.00  0.00     0.167 C 
HETATM   29  O2  UNL     1      -4.486  -0.020   0.361  1.00  0.00    -0.391 OA
HETATM   30  C14 UNL     1      -3.259  -0.639   0.458  1.00  0.00     0.173 C 
ENDBRANCH  24  25
ENDBRANCH  19  24
ENDBRANCH  16  19
ENDBRANCH   3  16
TORSDOF 9
