REMARK  2 active torsions:
REMARK  status: ('A' for Active; 'I' for Inactive)
REMARK    1  A    between atoms: C4_4  and  N1_5 
REMARK    2  A    between atoms: N1_5  and  C5_7 
ROOT
HETATM    1  C5  UNL     1      -0.884   0.353   0.480  1.00  0.00     0.079 C 
HETATM    2  C6  UNL     1      -1.654  -0.694   1.284  1.00  0.00     0.027 C 
HETATM    3  C7  UNL     1      -3.130  -0.326   1.422  1.00  0.00     0.037 C 
HETATM    4  C8  UNL     1      -3.384   0.653   0.349  1.00  0.00     0.217 A 
HETATM    5  N2  UNL     1      -4.026   0.551  -0.873  1.00  0.00    -0.063 N 
ATOM      6  H21 UNL     1      -4.406   1.270  -1.489  1.00  0.00     0.278 HD
ATOM      7  H22 UNL     1      -4.953   0.199  -1.112  1.00  0.00     0.278 HD
HETATM    8  C9  UNL     1      -2.795  -0.076  -0.869  1.00  0.00     0.218 A 
HETATM    9  C10 UNL     1      -1.421   0.487  -0.914  1.00  0.00     0.059 C 
ENDROOT
BRANCH   1  10
HETATM   10  N1  UNL     1       0.471   0.108   0.659  1.00  0.00    -0.413 N 
ATOM     11  H1  UNL     1       0.800  -0.038   1.613  1.00  0.00     0.154 HD
BRANCH  10  12
HETATM   12  C4  UNL     1       1.408   0.047  -0.353  1.00  0.00     0.077 C 
HETATM   13  C3  UNL     1       2.286  -1.178  -0.114  1.00  0.00     0.024 C 
HETATM   14  C2  UNL     1       3.673  -0.805  -0.539  1.00  0.00     0.002 C 
HETATM   15  C1  UNL     1       3.705   0.686  -0.734  1.00  0.00     0.002 C 
HETATM   16  C11 UNL     1       2.388   1.211  -0.236  1.00  0.00     0.024 C 
ENDBRANCH  10  12
ENDBRANCH   1  10
TORSDOF 2
