REMARK  2 active torsions:
REMARK  status: ('A' for Active; 'I' for Inactive)
REMARK    1  A    between atoms: C3_3  and  N1_4 
REMARK    2  A    between atoms: N1_4  and  C4_6 
ROOT
HETATM    1  N1  UNL     1      -0.636  -0.771  -0.782  1.00  0.00    -0.411 N 
ATOM      2  H1  UNL     1      -0.510  -1.284  -1.655  1.00  0.00     0.154 HD
ENDROOT
BRANCH   1   3
HETATM    3  C3  UNL     1      -1.918  -0.515  -0.421  1.00  0.00     0.104 C 
HETATM    4  C2  UNL     1      -2.459   0.875  -0.319  1.00  0.00     0.054 C 
HETATM    5  C1  UNL     1      -3.778   0.624   0.437  1.00  0.00     0.234 C 
HETATM    6  N2  UNL     1      -3.838  -0.795   0.710  1.00  0.00    -0.073 N 
HETATM    7  C11 UNL     1      -2.423  -1.092   0.893  1.00  0.00     0.256 C 
ATOM      8  H22 UNL     1      -4.450  -1.071   1.478  1.00  0.00     0.277 HD
ATOM      9  H21 UNL     1      -4.320  -1.359   0.010  1.00  0.00     0.277 HD
ENDBRANCH   1   3
BRANCH   1  10
HETATM   10  C4  UNL     1       0.532  -0.418  -0.104  1.00  0.00     0.077 C 
HETATM   11  C5  UNL     1       0.798   1.018   0.036  1.00  0.00     0.025 C 
HETATM   12  C6  UNL     1       2.197   1.536   0.021  1.00  0.00     0.007 C 
HETATM   13  C7  UNL     1       3.086   0.638  -0.699  1.00  0.00    -0.010 A 
HETATM   14  C8  UNL     1       4.154  -0.220  -0.327  1.00  0.00     0.010 A 
HETATM   15  C9  UNL     1       2.899  -0.701   0.106  1.00  0.00    -0.008 A 
HETATM   16  C10 UNL     1       1.738  -1.273  -0.570  1.00  0.00     0.029 C 
ENDBRANCH   1  10
TORSDOF 2
