REMARK  5 active torsions:
REMARK  status: ('A' for Active; 'I' for Inactive)
REMARK    1  A    between atoms: C2_2  and  N1_4 
REMARK    2  A    between atoms: N1_4  and  C4_6 
REMARK    3  A    between atoms: C4_6  and  N2_8 
REMARK    4  A    between atoms: N2_8  and  C5_10 
REMARK    5  A    between atoms: C5_10  and  C6_11 
ROOT
HETATM    1  C4  UNL     1       1.048   0.108  -0.887  1.00  0.00     0.167 C 
HETATM    2  S1  UNL     1       1.776   0.113  -2.364  1.00  0.00    -0.041 SA
ENDROOT
BRANCH   1   3
HETATM    3  N1  UNL     1       1.798   0.263   0.302  1.00  0.00    -0.363 N 
ATOM      4  H1  UNL     1       1.289   0.250   1.186  1.00  0.00     0.162 HD
BRANCH   3   5
HETATM    5  C2  UNL     1       3.213   0.436   0.359  1.00  0.00     0.075 C 
HETATM    6  C1  UNL     1       3.693   1.668  -0.371  1.00  0.00     0.032 C 
HETATM    7  C3  UNL     1       3.848  -0.801  -0.256  1.00  0.00     0.032 C 
ENDBRANCH   3   5
ENDBRANCH   1   3
BRANCH   1   8
HETATM    8  N2  UNL     1      -0.362  -0.060  -0.869  1.00  0.00    -0.367 N 
ATOM      9  H2  UNL     1      -0.886  -0.171  -1.737  1.00  0.00     0.161 HD
BRANCH   8  10
HETATM   10  C5  UNL     1      -1.033  -0.070   0.401  1.00  0.00     0.130 C 
BRANCH  10  11
HETATM   11  C6  UNL     1      -2.506  -0.252   0.311  1.00  0.00    -0.035 C 
HETATM   12  C7  UNL     1      -2.815  -1.589  -0.371  1.00  0.00     0.016 C 
HETATM   13  C8  UNL     1      -3.063  -0.325   1.719  1.00  0.00     0.016 C 
HETATM   14  C9  UNL     1      -3.185   0.835  -0.463  1.00  0.00     0.016 C 
ENDBRANCH  10  11
ENDBRANCH   8  10
ENDBRANCH   1   8
TORSDOF 5
