REMARK  14 active torsions:
REMARK  status: ('A' for Active; 'I' for Inactive)
REMARK    1  A    between atoms: C2_2  and  C3_3 
REMARK    2  A    between atoms: C3_3  and  C4_4 
REMARK    3  A    between atoms: C4_4  and  C5_5 
REMARK    4  A    between atoms: C5_5  and  C6_6 
REMARK    5  A    between atoms: C6_6  and  O1_7 
REMARK    6  A    between atoms: C6_6  and  C7_9 
REMARK    7  A    between atoms: C7_9  and  O2_10 
REMARK    8  A    between atoms: C7_9  and  N1_12 
REMARK    9  A    between atoms: C12_18  and  S1_19 
REMARK   10  A    between atoms: C14_21  and  C15_22 
REMARK       I    between atoms: C15_22  and  N2_24 
REMARK   11  A    between atoms: N2_24  and  C16_25 
REMARK   12  A    between atoms: N2_24  and  O5_27 
REMARK   13  A    between atoms: O5_27  and  C18_28 
REMARK   14  A    between atoms: C20_30  and  C21_31 
ROOT
HETATM    1  N1  UNL     1       0.056  -1.175  -0.731  1.00  0.00    -0.316 N 
HETATM    2  C8  UNL     1      -0.281  -2.589  -0.490  1.00  0.00     0.266 C 
HETATM    3  O3  UNL     1      -1.512  -2.621   0.198  1.00  0.00    -0.355 OA
HETATM    4  C9  UNL     1      -1.526  -1.704   1.211  1.00  0.00     0.143 C 
HETATM    5  C10 UNL     1      -0.326  -1.786   2.086  1.00  0.00     0.061 C 
HETATM    6  C11 UNL     1       0.620  -2.853   1.696  1.00  0.00    -0.006 C 
HETATM    7  C12 UNL     1       0.678  -3.289   0.421  1.00  0.00     0.022 C 
HETATM    8  C14 UNL     1      -1.645  -0.279   0.685  1.00  0.00     0.143 C 
HETATM    9  C20 UNL     1      -1.128  -0.312  -0.719  1.00  0.00     0.205 C 
ENDROOT
BRANCH   1  10
HETATM   10  C7  UNL     1       1.373  -0.795  -0.946  1.00  0.00     0.146 C 
BRANCH  10  11
HETATM   11  C6  UNL     1       1.996   0.483  -1.177  1.00  0.00     0.192 C 
BRANCH  11  12
HETATM   12  C5  UNL     1       2.923   0.916  -0.039  1.00  0.00     0.040 C 
BRANCH  12  13
HETATM   13  C4  UNL     1       4.018  -0.020   0.282  1.00  0.00     0.003 C 
BRANCH  13  14
HETATM   14  C3  UNL     1       4.850   0.595   1.419  1.00  0.00    -0.000 C 
BRANCH  14  15
HETATM   15  C2  UNL     1       5.443   1.919   1.058  1.00  0.00    -0.005 C 
HETATM   16  C1  UNL     1       6.354   1.842  -0.152  1.00  0.00     0.005 C 
ENDBRANCH  14  15
ENDBRANCH  13  14
ENDBRANCH  12  13
ENDBRANCH  11  12
BRANCH  11  17
HETATM   17  O1  UNL     1       1.084   1.515  -1.287  1.00  0.00    -0.387 OA
ATOM     18  H1  UNL     1       0.509   1.246  -1.993  1.00  0.00     0.210 HD
ENDBRANCH  11  17
ENDBRANCH  10  11
BRANCH  10  19
HETATM   19  O2  UNL     1       2.224  -1.785  -0.937  1.00  0.00    -0.347 OA
ATOM     20  H2  UNL     1       1.813  -2.628  -0.785  1.00  0.00     0.219 HD
ENDBRANCH  10  19
ENDBRANCH   1  10
BRANCH   9  21
HETATM   21  C21 UNL     1      -2.077  -0.820  -1.727  1.00  0.00     0.198 C 
HETATM   22  O6  UNL     1      -3.280  -0.432  -1.792  1.00  0.00    -0.646 OA
HETATM   23  O7  UNL     1      -1.691  -1.748  -2.657  1.00  0.00    -0.646 OA
ENDBRANCH   9  21
BRANCH   7  24
HETATM   24  S1  UNL     1       1.742  -4.631  -0.039  1.00  0.00    -0.135 SA
HETATM   25  C13 UNL     1       1.487  -5.206  -1.725  1.00  0.00     0.095 C 
ENDBRANCH   7  24
BRANCH   8  26
HETATM   26  C15 UNL     1      -3.002   0.183   0.894  1.00  0.00     0.252 C 
HETATM   27  O4  UNL     1      -3.902  -0.735   0.991  1.00  0.00    -0.271 OA
HETATM   28  N2  UNL     1      -3.496   1.496   1.009  1.00  0.00    -0.226 N 
BRANCH  28  29
HETATM   29  C16 UNL     1      -2.651   2.639   0.923  1.00  0.00     0.155 C 
HETATM   30  C17 UNL     1      -2.476   3.235  -0.429  1.00  0.00     0.029 C 
ENDBRANCH  28  29
BRANCH  28  31
HETATM   31  O5  UNL     1      -4.827   1.744   1.219  1.00  0.00    -0.276 OA
BRANCH  31  32
HETATM   32  C18 UNL     1      -5.544   1.785   0.053  1.00  0.00     0.197 C 
HETATM   33  C19 UNL     1      -7.003   2.060   0.245  1.00  0.00     0.036 C 
ENDBRANCH  31  32
ENDBRANCH  28  31
ENDBRANCH   8  26
TORSDOF 14
