REMARK  13 active torsions:
REMARK  status: ('A' for Active; 'I' for Inactive)
REMARK    1  A    between atoms: O1_2  and  C2_3 
REMARK    2  A    between atoms: C2_3  and  C3_4 
REMARK    3  A    between atoms: C3_4  and  C4_5 
REMARK    4  A    between atoms: C4_5  and  C5_6 
REMARK    5  A    between atoms: C6_7  and  C7_8 
REMARK    6  A    between atoms: C7_8  and  O2_9 
REMARK    7  A    between atoms: C9_12  and  N1_13 
REMARK       I    between atoms: N1_13  and  C10_15 
REMARK    8  A    between atoms: C10_15  and  C11_17 
REMARK    9  A    between atoms: C11_17  and  N2_18 
REMARK   10  A    between atoms: N5_28  and  C17_29 
REMARK   11  A    between atoms: C17_29  and  C18_30 
REMARK   12  A    between atoms: C18_30  and  C19_32 
REMARK   13  A    between atoms: C19_32  and  C20_33 
ROOT
HETATM    1  C5  UNL     1      -0.452   1.451   0.164  1.00  0.00     0.023 A 
HETATM    2  C6  UNL     1       0.994   1.401   0.241  1.00  0.00     0.006 A 
HETATM    3  C8  UNL     1       1.365   0.115   0.178  1.00  0.00     0.063 A 
HETATM    4  C9  UNL     1       2.575  -0.558   0.201  1.00  0.00     0.123 A 
HETATM    5  N3  UNL     1       2.544  -1.913   0.112  1.00  0.00    -0.331 N 
ATOM      6  H3  UNL     1       3.434  -2.411   0.129  1.00  0.00     0.168 HD
HETATM    7  C14 UNL     1       1.425  -2.638   0.004  1.00  0.00     0.080 A 
HETATM    8  C15 UNL     1       1.458  -4.126  -0.090  1.00  0.00     0.089 C 
HETATM    9  N4  UNL     1       0.239  -2.008  -0.021  1.00  0.00    -0.331 N 
ATOM     10  H4  UNL     1      -0.627  -2.541  -0.103  1.00  0.00     0.168 HD
HETATM   11  C16 UNL     1       0.207  -0.664   0.064  1.00  0.00     0.124 A 
HETATM   12  N5  UNL     1      -0.841   0.212   0.063  1.00  0.00    -0.328 N 
ENDROOT
BRANCH   4  13
HETATM   13  N1  UNL     1       3.670   0.064   0.299  1.00  0.00    -0.311 N 
HETATM   14  C10 UNL     1       4.949  -0.554   0.330  1.00  0.00     0.251 C 
HETATM   15  O3  UNL     1       5.437  -0.766   1.477  1.00  0.00    -0.271 OA
ATOM     16  H1  UNL     1       3.633   1.082   0.360  1.00  0.00     0.170 HD
BRANCH  14  17
HETATM   17  C11 UNL     1       5.699  -0.940  -0.876  1.00  0.00     0.373 C 
BRANCH  17  18
HETATM   18  N2  UNL     1       6.951  -1.538  -0.514  1.00  0.00     0.088 N 
HETATM   19  C12 UNL     1       6.838  -2.814   0.129  1.00  0.00     0.310 C 
HETATM   20  C13 UNL     1       7.884  -1.613  -1.601  1.00  0.00     0.310 C 
ENDBRANCH  17  18
ENDBRANCH  14  17
ENDBRANCH   4  13
BRANCH   2  21
HETATM   21  C7  UNL     1       1.783   2.640   0.368  1.00  0.00     0.206 C 
BRANCH  21  22
HETATM   22  O2  UNL     1       3.120   2.564   0.437  1.00  0.00    -0.396 OA
ATOM     23  H2  UNL     1       3.628   3.362   0.519  1.00  0.00     0.209 HD
ENDBRANCH  21  22
ENDBRANCH   2  21
BRANCH   1  24
HETATM   24  C4  UNL     1      -1.085   2.773   0.218  1.00  0.00     0.060 C 
BRANCH  24  25
HETATM   25  C3  UNL     1      -2.515   2.911  -0.038  1.00  0.00     0.032 C 
BRANCH  25  26
HETATM   26  C2  UNL     1      -2.837   4.428   0.094  1.00  0.00     0.167 C 
BRANCH  26  27
HETATM   27  O1  UNL     1      -2.074   5.101  -0.853  1.00  0.00    -0.396 OA
HETATM   28  C1  UNL     1      -2.339   6.470  -0.765  1.00  0.00     0.201 C 
ENDBRANCH  26  27
ENDBRANCH  25  26
ENDBRANCH  24  25
ENDBRANCH   1  24
BRANCH  12  29
HETATM   29  C17 UNL     1      -2.212  -0.272  -0.031  1.00  0.00     0.209 C 
BRANCH  29  30
HETATM   30  C18 UNL     1      -2.794  -0.561   1.283  1.00  0.00     0.145 C 
HETATM   31  O4  UNL     1      -2.107  -0.292   2.274  1.00  0.00    -0.296 OA
BRANCH  30  32
HETATM   32  C19 UNL     1      -4.109  -1.137   1.506  1.00  0.00     0.088 C 
BRANCH  32  33
HETATM   33  C20 UNL     1      -4.909  -1.607   0.354  1.00  0.00    -0.045 C 
HETATM   34  C21 UNL     1      -5.265  -0.571  -0.674  1.00  0.00     0.015 C 
HETATM   35  C22 UNL     1      -6.254  -2.115   0.931  1.00  0.00     0.015 C 
HETATM   36  C23 UNL     1      -4.311  -2.777  -0.385  1.00  0.00     0.015 C 
ENDBRANCH  32  33
ENDBRANCH  30  32
ENDBRANCH  29  30
ENDBRANCH  12  29
TORSDOF 13
