REMARK  12 active torsions:
REMARK  status: ('A' for Active; 'I' for Inactive)
REMARK    1  A    between atoms: C3_3  and  N1_4 
REMARK    2  A    between atoms: N1_4  and  C4_5 
REMARK       I    between atoms: N1_4  and  C7_12 
REMARK    3  A    between atoms: C4_5  and  C5_6 
REMARK    4  A    between atoms: C5_6  and  C6_7 
REMARK    5  A    between atoms: C6_7  and  N2_8 
REMARK    6  A    between atoms: C7_12  and  C8_14 
REMARK    7  A    between atoms: C8_14  and  C9_15 
REMARK    8  A    between atoms: C9_15  and  C10_16 
REMARK    9  A    between atoms: C10_16  and  C11_17 
REMARK   10  A    between atoms: C11_17  and  N3_18 
REMARK   11  A    between atoms: N7_31  and  C17_32 
REMARK   12  A    between atoms: C19_34  and  O2_35 
ROOT
HETATM    1  C1  UNL     1      -8.110  -2.538   2.490  1.00  0.00     0.098 C 
HETATM    2  C2  UNL     1      -8.089  -1.548   1.776  1.00  0.00    -0.168 C 
HETATM    3  C3  UNL     1      -8.072  -0.373   0.909  1.00  0.00     0.205 C 
ENDROOT
BRANCH   3   4
HETATM    4  N1  UNL     1      -6.950  -0.518  -0.063  1.00  0.00    -0.343 N 
HETATM    5  C7  UNL     1      -5.679  -0.016   0.268  1.00  0.00     0.220 C 
HETATM    6  O1  UNL     1      -5.572   0.573   1.404  1.00  0.00    -0.273 OA
BRANCH   4   7
HETATM    7  C4  UNL     1      -7.223  -1.150  -1.313  1.00  0.00     0.128 C 
BRANCH   7   8
HETATM    8  C5  UNL     1      -7.797  -0.294  -2.390  1.00  0.00     0.047 C 
BRANCH   8   9
HETATM    9  C6  UNL     1      -6.953   0.862  -2.815  1.00  0.00     0.231 C 
BRANCH   9  10
HETATM   10  N2  UNL     1      -7.617   1.639  -3.870  1.00  0.00    -0.079 N 
ATOM     11  H23 UNL     1      -7.877   1.052  -4.662  1.00  0.00     0.274 HD
ATOM     12  H22 UNL     1      -8.550   1.939  -3.586  1.00  0.00     0.274 HD
ATOM     13  H21 UNL     1      -7.040   2.429  -4.160  1.00  0.00     0.274 HD
ENDBRANCH   9  10
ENDBRANCH   8   9
ENDBRANCH   7   8
ENDBRANCH   4   7
BRANCH   5  14
HETATM   14  C8  UNL     1      -4.465  -0.091  -0.536  1.00  0.00     0.103 C 
BRANCH  14  15
HETATM   15  C9  UNL     1      -3.204   0.033   0.311  1.00  0.00     0.011 C 
BRANCH  15  16
HETATM   16  C10 UNL     1      -3.057  -1.041   1.334  1.00  0.00     0.020 C 
BRANCH  16  17
HETATM   17  C11 UNL     1      -1.751  -0.784   2.096  1.00  0.00     0.121 C 
BRANCH  17  18
HETATM   18  N3  UNL     1      -0.625  -0.807   1.216  1.00  0.00    -0.374 N 
HETATM   19  C12 UNL     1       0.562  -0.432   1.522  1.00  0.00     0.133 A 
HETATM   20  N4  UNL     1       0.936   0.042   2.725  1.00  0.00    -0.337 N 
HETATM   21  C15 UNL     1       1.549  -0.517   0.548  1.00  0.00     0.122 A 
HETATM   22  C13 UNL     1       2.216   0.413   2.956  1.00  0.00     0.183 A 
ATOM     23  H4  UNL     1       0.246   0.122   3.472  1.00  0.00     0.168 HD
HETATM   24  N5  UNL     1       3.163   0.326   2.005  1.00  0.00    -0.336 N 
HETATM   25  C14 UNL     1       2.858  -0.136   0.792  1.00  0.00     0.140 A 
ATOM     26  H5  UNL     1       4.119   0.615   2.213  1.00  0.00     0.168 HD
HETATM   27  N7  UNL     1       3.594  -0.320  -0.314  1.00  0.00    -0.322 N 
HETATM   28  C16 UNL     1       2.743  -0.816  -1.239  1.00  0.00     0.185 A 
HETATM   29  N6  UNL     1       1.528  -0.930  -0.719  1.00  0.00    -0.346 N 
ATOM     30  H6  UNL     1       0.706  -1.279  -1.212  1.00  0.00     0.167 HD
ATOM     31  H3  UNL     1      -0.778  -1.150   0.268  1.00  0.00     0.161 HD
BRANCH  27  32
HETATM   32  C17 UNL     1       4.964  -0.076  -0.539  1.00  0.00     0.095 C 
HETATM   33  C18 UNL     1       5.369   1.379  -0.602  1.00  0.00     0.058 C 
HETATM   34  C19 UNL     1       6.873   1.227  -0.713  1.00  0.00     0.130 C 
HETATM   35  C21 UNL     1       7.227  -0.064  -0.006  1.00  0.00    -0.020 C 
HETATM   36  C22 UNL     1       8.237   0.138   1.093  1.00  0.00     0.017 C 
HETATM   37  C23 UNL     1       7.680  -1.080  -1.025  1.00  0.00     0.017 C 
HETATM   38  C24 UNL     1       5.896  -0.570   0.555  1.00  0.00     0.037 C 
BRANCH  34  39
HETATM   39  O2  UNL     1       7.577   2.310  -0.279  1.00  0.00    -0.390 OA
HETATM   40  C20 UNL     1       8.314   2.949  -1.267  1.00  0.00     0.202 C 
ENDBRANCH  34  39
ENDBRANCH  27  32
ENDBRANCH  17  18
ENDBRANCH  16  17
ENDBRANCH  15  16
ENDBRANCH  14  15
ENDBRANCH   5  14
ENDBRANCH   3   4
TORSDOF 12
