REMARK  12 active torsions:
REMARK  status: ('A' for Active; 'I' for Inactive)
REMARK    1  A    between atoms: C3_3  and  C5_5 
REMARK    2  A    between atoms: C5_5  and  C6_6 
REMARK    3  A    between atoms: C6_6  and  N1_7 
REMARK       I    between atoms: N1_7  and  C7_9 
REMARK       I    between atoms: C7_9  and  N2_11 
REMARK       I    between atoms: N2_11  and  C8_13 
REMARK    4  A    between atoms: C8_13  and  C9_15 
REMARK    5  A    between atoms: C9_15  and  C10_16 
REMARK    6  A    between atoms: C9_15  and  C14_22 
REMARK    7  A    between atoms: C10_16  and  C11_17 
REMARK    8  A    between atoms: C11_17  and  C12_18 
REMARK    9  A    between atoms: C12_18  and  O4_20 
REMARK   10  A    between atoms: C14_22  and  C15_23 
REMARK   11  A    between atoms: C15_23  and  S1_24 
REMARK   12  A    between atoms: S1_24  and  C16_26 
ROOT
HETATM    1  C1  UNL     1       8.234  -3.965  -1.147  1.00  0.00     0.012 C 
HETATM    2  C2  UNL     1       8.042  -2.924  -0.549  1.00  0.00    -0.113 C 
HETATM    3  C3  UNL     1       7.790  -1.665   0.199  1.00  0.00     0.061 C 
HETATM    4  C4  UNL     1       8.570  -0.540  -0.404  1.00  0.00     0.023 C 
ENDROOT
BRANCH   3   5
HETATM    5  C5  UNL     1       6.288  -1.445   0.190  1.00  0.00     0.036 C 
BRANCH   5   6
HETATM    6  C6  UNL     1       5.844  -0.215   0.903  1.00  0.00     0.125 C 
BRANCH   6   7
HETATM    7  N1  UNL     1       4.390  -0.123   0.838  1.00  0.00    -0.343 N 
HETATM    8  C7  UNL     1       3.697   0.026  -0.378  1.00  0.00     0.322 C 
HETATM    9  O1  UNL     1       4.382   0.129  -1.476  1.00  0.00    -0.247 OA
HETATM   10  N2  UNL     1       2.312   0.069  -0.501  1.00  0.00    -0.279 N 
HETATM   11  C8  UNL     1       1.373  -0.054   0.530  1.00  0.00     0.229 C 
ATOM     12  H2  UNL     1       1.942   0.204  -1.442  1.00  0.00     0.173 HD
HETATM   13  O2  UNL     1       1.604  -0.174   1.747  1.00  0.00    -0.273 OA
ATOM     14  H1  UNL     1       3.856  -0.168   1.706  1.00  0.00     0.164 HD
BRANCH  11  15
HETATM   15  C9  UNL     1      -0.102  -0.047   0.172  1.00  0.00     0.079 C 
BRANCH  15  16
HETATM   16  C10 UNL     1      -0.499   1.262  -0.411  1.00  0.00     0.024 C 
BRANCH  16  17
HETATM   17  C11 UNL     1      -0.309   2.454   0.500  1.00  0.00     0.112 C 
BRANCH  17  18
HETATM   18  C12 UNL     1      -0.758   3.640  -0.322  1.00  0.00     0.258 C 
HETATM   19  O3  UNL     1      -0.297   3.776  -1.454  1.00  0.00    -0.265 OA
BRANCH  18  20
HETATM   20  O4  UNL     1      -1.686   4.574   0.182  1.00  0.00    -0.326 OA
HETATM   21  C13 UNL     1      -2.110   5.685  -0.590  1.00  0.00     0.213 C 
ENDBRANCH  18  20
ENDBRANCH  17  18
ENDBRANCH  16  17
ENDBRANCH  15  16
BRANCH  15  22
HETATM   22  C14 UNL     1      -0.909  -0.470   1.364  1.00  0.00     0.027 C 
BRANCH  22  23
HETATM   23  C15 UNL     1      -2.356  -0.489   1.069  1.00  0.00     0.118 C 
BRANCH  23  24
HETATM   24  S1  UNL     1      -2.946  -1.572  -0.144  1.00  0.00     0.084 S 
HETATM   25  O5  UNL     1      -2.290  -1.283  -1.630  1.00  0.00    -0.250 OA
BRANCH  24  26
HETATM   26  C16 UNL     1      -4.696  -1.461  -0.196  1.00  0.00     0.175 A 
HETATM   27  N3  UNL     1      -5.324  -0.569  -0.993  1.00  0.00    -0.339 N 
HETATM   28  C17 UNL     1      -6.657  -0.462  -1.049  1.00  0.00     0.009 A 
ATOM     29  H3  UNL     1      -4.759   0.048  -1.576  1.00  0.00     0.168 HD
HETATM   30  C18 UNL     1      -7.304   0.524  -1.939  1.00  0.00     0.068 C 
HETATM   31  C19 UNL     1      -7.447  -1.280  -0.276  1.00  0.00     0.049 A 
HETATM   32  C20 UNL     1      -6.803  -2.203   0.550  1.00  0.00     0.009 A 
HETATM   33  C21 UNL     1      -7.652  -3.074   1.388  1.00  0.00     0.068 C 
HETATM   34  N4  UNL     1      -5.464  -2.262   0.562  1.00  0.00    -0.339 N 
ATOM     35  H4  UNL     1      -5.010  -2.942   1.171  1.00  0.00     0.168 HD
ENDBRANCH  24  26
ENDBRANCH  23  24
ENDBRANCH  22  23
ENDBRANCH  15  22
ENDBRANCH  11  15
ENDBRANCH   6   7
ENDBRANCH   5   6
ENDBRANCH   3   5
TORSDOF 12
