REMARK  13 active torsions:
REMARK  status: ('A' for Active; 'I' for Inactive)
REMARK    1  A    between atoms: O1_2  and  C2_3 
REMARK    2  A    between atoms: C2_3  and  C3_5 
REMARK    3  A    between atoms: C3_5  and  C4_6 
REMARK    4  A    between atoms: C4_6  and  C5_7 
REMARK    5  A    between atoms: C5_7  and  C6_8 
REMARK    6  A    between atoms: C6_8  and  C7_9 
REMARK    7  A    between atoms: C7_9  and  C8_10 
REMARK    8  A    between atoms: C8_10  and  N1_11 
REMARK       I    between atoms: N1_11  and  C9_12 
REMARK    9  A    between atoms: N1_11  and  C14_19 
REMARK   10  A    between atoms: C9_12  and  C10_14 
REMARK   11  A    between atoms: C10_14  and  N2_15 
REMARK   12  A    between atoms: C17_22  and  O4_24 
REMARK   13  A    between atoms: C19_26  and  C20_27 
ROOT
HETATM    1  N1  UNL     1      -0.782   0.713   0.670  1.00  0.00    -0.324 N 
HETATM    2  C9  UNL     1      -0.658   1.831  -0.138  1.00  0.00     0.247 C 
HETATM    3  O3  UNL     1      -1.687   2.139  -0.850  1.00  0.00    -0.271 OA
ENDROOT
BRANCH   1   4
HETATM    4  C8  UNL     1       0.204   0.131   1.529  1.00  0.00     0.128 C 
BRANCH   4   5
HETATM    5  C7  UNL     1       0.989  -1.020   1.014  1.00  0.00     0.020 C 
BRANCH   5   6
HETATM    6  C6  UNL     1       1.941  -0.794  -0.080  1.00  0.00     0.002 C 
BRANCH   6   7
HETATM    7  C5  UNL     1       3.144   0.058   0.260  1.00  0.00     0.001 C 
BRANCH   7   8
HETATM    8  C4  UNL     1       3.987   0.182  -0.983  1.00  0.00     0.010 C 
BRANCH   8   9
HETATM    9  C3  UNL     1       5.221   1.011  -0.789  1.00  0.00     0.111 C 
BRANCH   9  10
HETATM   10  C2  UNL     1       6.133   0.481   0.242  1.00  0.00     0.258 C 
HETATM   11  O2  UNL     1       5.879   0.728   1.451  1.00  0.00    -0.265 OA
BRANCH  10  12
HETATM   12  O1  UNL     1       7.258  -0.278  -0.037  1.00  0.00    -0.326 OA
HETATM   13  C1  UNL     1       8.080  -0.745   1.040  1.00  0.00     0.213 C 
ENDBRANCH  10  12
ENDBRANCH   9  10
ENDBRANCH   8   9
ENDBRANCH   7   8
ENDBRANCH   6   7
ENDBRANCH   5   6
ENDBRANCH   4   5
ENDBRANCH   1   4
BRANCH   1  14
HETATM   14  C14 UNL     1      -2.124   0.023   0.634  1.00  0.00     0.226 C 
HETATM   15  C15 UNL     1      -2.758   0.286   1.962  1.00  0.00     0.057 C 
HETATM   16  C16 UNL     1      -3.378  -0.919   2.601  1.00  0.00     0.044 C 
HETATM   17  C17 UNL     1      -4.014  -1.693   1.425  1.00  0.00     0.083 C 
HETATM   18  C18 UNL     1      -4.871  -2.758   2.028  1.00  0.00     0.049 C 
HETATM   19  C19 UNL     1      -2.816  -2.223   0.683  1.00  0.00     0.186 C 
HETATM   20  O6  UNL     1      -2.038  -1.237   0.186  1.00  0.00    -0.356 OA
BRANCH  17  21
HETATM   21  O4  UNL     1      -4.720  -0.738   0.734  1.00  0.00    -0.388 OA
ATOM     22  H4  UNL     1      -5.111  -1.214   0.011  1.00  0.00     0.210 HD
ENDBRANCH  17  21
BRANCH  19  23
HETATM   23  C20 UNL     1      -3.117  -3.250  -0.344  1.00  0.00     0.153 C 
HETATM   24  C21 UNL     1      -3.831  -2.834  -1.551  1.00  0.00     0.036 C 
HETATM   25  C22 UNL     1      -3.119  -3.503  -2.707  1.00  0.00     0.029 C 
HETATM   26  C23 UNL     1      -2.071  -4.323  -2.017  1.00  0.00     0.168 C 
HETATM   27  O5  UNL     1      -1.892  -3.785  -0.771  1.00  0.00    -0.383 OA
ENDBRANCH  19  23
ENDBRANCH   1  14
BRANCH   2  28
HETATM   28  C10 UNL     1       0.489   2.727  -0.291  1.00  0.00     0.338 C 
BRANCH  28  29
HETATM   29  N2  UNL     1       0.220   3.849  -1.198  1.00  0.00    -0.070 N 
HETATM   30  C11 UNL     1       1.470   4.608  -1.379  1.00  0.00     0.272 C 
HETATM   31  C12 UNL     1      -0.217   3.419  -2.501  1.00  0.00     0.272 C 
HETATM   32  C13 UNL     1      -0.748   4.773  -0.660  1.00  0.00     0.272 C 
ENDBRANCH  28  29
ENDBRANCH   2  28
TORSDOF 13
