REMARK  14 active torsions:
REMARK  status: ('A' for Active; 'I' for Inactive)
REMARK    1  A    between atoms: C2_2  and  N1_3 
REMARK    2  A    between atoms: N1_3  and  C3_4 
REMARK    3  A    between atoms: N1_3  and  C5_6 
REMARK    4  A    between atoms: C5_6  and  C6_7 
REMARK    5  A    between atoms: C6_7  and  C7_8 
REMARK    6  A    between atoms: C7_8  and  N2_9 
REMARK    7  A    between atoms: N2_9  and  C8_11 
REMARK    8  A    between atoms: C8_11  and  N3_13 
REMARK    9  A    between atoms: N3_13  and  C9_15 
REMARK   10  A    between atoms: C10_20  and  S2_21 
REMARK   11  A    between atoms: S2_21  and  C11_22 
REMARK   12  A    between atoms: C11_22  and  C12_23 
REMARK       I    between atoms: C12_23  and  N6_25 
REMARK   13  A    between atoms: N6_25  and  O2_26 
REMARK   14  A    between atoms: N6_25  and  C14_28 
ROOT
HETATM    1  C9  UNL     1      -0.028  -0.313   0.848  1.00  0.00     0.168 A 
HETATM    2  N4  UNL     1       0.967   0.190   1.599  1.00  0.00    -0.278 N 
ATOM      3  H4  UNL     1       1.027  -0.021   2.595  1.00  0.00     0.189 HD
HETATM    4  N5  UNL     1       1.832   0.935   1.040  1.00  0.00    -0.286 N 
ATOM      5  H5  UNL     1       2.595   1.326   1.593  1.00  0.00     0.188 HD
HETATM    6  C10 UNL     1       1.752   1.207  -0.248  1.00  0.00     0.130 A 
HETATM    7  S3  UNL     1       0.338   0.334  -0.689  1.00  0.00    -0.026 SA
ENDROOT
BRANCH   1   8
HETATM    8  N3  UNL     1      -0.995  -1.099   1.261  1.00  0.00    -0.312 N 
ATOM      9  H3  UNL     1      -1.065  -1.402   2.232  1.00  0.00     0.170 HD
BRANCH   8  10
HETATM   10  C8  UNL     1      -1.938  -1.504   0.280  1.00  0.00     0.173 C 
HETATM   11  S1  UNL     1      -1.880  -3.026  -0.265  1.00  0.00    -0.041 SA
BRANCH  10  12
HETATM   12  N2  UNL     1      -2.851  -0.579  -0.206  1.00  0.00    -0.367 N 
ATOM     13  H2  UNL     1      -2.798   0.377   0.145  1.00  0.00     0.161 HD
BRANCH  12  14
HETATM   14  C7  UNL     1      -3.859  -0.885  -1.167  1.00  0.00     0.123 C 
BRANCH  14  15
HETATM   15  C6  UNL     1      -4.935  -1.749  -0.529  1.00  0.00     0.050 C 
BRANCH  15  16
HETATM   16  C5  UNL     1      -5.566  -1.056   0.607  1.00  0.00     0.274 C 
BRANCH  16  17
HETATM   17  N1  UNL     1      -6.237   0.188   0.361  1.00  0.00     0.087 N 
BRANCH  17  18
HETATM   18  C2  UNL     1      -6.488   0.765   1.752  1.00  0.00     0.268 C 
HETATM   19  C1  UNL     1      -7.081   2.131   1.601  1.00  0.00     0.037 C 
ENDBRANCH  17  18
BRANCH  17  20
HETATM   20  C3  UNL     1      -7.608  -0.014  -0.141  1.00  0.00     0.268 C 
HETATM   21  C4  UNL     1      -7.638  -0.382  -1.579  1.00  0.00     0.037 C 
ENDBRANCH  17  20
ENDBRANCH  16  17
ENDBRANCH  15  16
ENDBRANCH  14  15
ENDBRANCH  12  14
ENDBRANCH  10  12
ENDBRANCH   8  10
ENDBRANCH   1   8
BRANCH   6  22
HETATM   22  S2  UNL     1       2.822   2.226  -1.288  1.00  0.00    -0.094 SA
BRANCH  22  23
HETATM   23  C11 UNL     1       4.138   1.148  -1.889  1.00  0.00     0.186 C 
BRANCH  23  24
HETATM   24  C12 UNL     1       5.036   0.804  -0.762  1.00  0.00     0.253 C 
HETATM   25  O1  UNL     1       4.821   1.334   0.351  1.00  0.00    -0.270 OA
HETATM   26  N6  UNL     1       6.130  -0.096  -0.887  1.00  0.00    -0.219 N 
BRANCH  26  27
HETATM   27  O2  UNL     1       6.233  -0.656  -2.157  1.00  0.00    -0.280 OA
HETATM   28  C13 UNL     1       7.128   0.165  -2.850  1.00  0.00     0.238 C 
ENDBRANCH  26  27
BRANCH  26  29
HETATM   29  C14 UNL     1       7.078  -0.433   0.107  1.00  0.00     0.143 C 
HETATM   30  C15 UNL     1       6.550  -0.941   1.421  1.00  0.00     0.056 C 
HETATM   31  C16 UNL     1       7.811  -0.690   2.275  1.00  0.00     0.169 C 
HETATM   32  O3  UNL     1       8.282   0.548   1.859  1.00  0.00    -0.389 OA
HETATM   33  C17 UNL     1       7.914   0.745   0.561  1.00  0.00     0.195 C 
ENDBRANCH  26  29
ENDBRANCH  23  24
ENDBRANCH  22  23
ENDBRANCH   6  22
TORSDOF 14
