REMARK  14 active torsions:
REMARK  status: ('A' for Active; 'I' for Inactive)
REMARK    1  A    between atoms: C2_2  and  C3_3 
REMARK    2  A    between atoms: C3_3  and  C4_4 
REMARK    3  A    between atoms: C4_4  and  C22_35 
REMARK    4  A    between atoms: C5_5  and  O1_6 
REMARK    5  A    between atoms: C5_5  and  N1_8 
REMARK    6  A    between atoms: N1_8  and  C7_10 
REMARK    7  A    between atoms: C7_10  and  C8_11 
REMARK    8  A    between atoms: C9_13  and  C10_14 
REMARK    9  A    between atoms: C10_14  and  C11_15 
REMARK   10  A    between atoms: C12_17  and  O4_18 
REMARK   11  A    between atoms: O4_18  and  C13_19 
REMARK   12  A    between atoms: C14_21  and  C15_22 
REMARK   13  A    between atoms: C20_29  and  O6_30 
REMARK   14  A    between atoms: C21_32  and  O7_33 
ROOT
HETATM    1  C11 UNL     1       2.318   0.751  -0.795  1.00  0.00     0.158 C 
HETATM    2  O3  UNL     1       2.765  -0.556  -0.645  1.00  0.00    -0.352 OA
HETATM    3  C12 UNL     1       3.998  -0.615   0.001  1.00  0.00     0.280 C 
HETATM    4  C14 UNL     1       5.107  -0.066  -0.865  1.00  0.00     0.106 C 
HETATM    5  C20 UNL     1       4.552   0.975  -1.730  1.00  0.00     0.162 C 
HETATM    6  C21 UNL     1       3.355   1.729  -1.220  1.00  0.00     0.176 C 
ENDROOT
BRANCH   1   7
HETATM    7  C10 UNL     1       1.524   1.211   0.410  1.00  0.00     0.069 C 
BRANCH   7   8
HETATM    8  C9  UNL     1       0.306   0.341   0.633  1.00  0.00     0.155 A 
HETATM    9  C8  UNL     1      -0.713   0.258  -0.441  1.00  0.00     0.169 A 
HETATM   10  O2  UNL     1      -0.925   0.977   0.749  1.00  0.00    -0.374 OA
BRANCH   9  11
HETATM   11  C7  UNL     1      -1.527  -0.970  -0.622  1.00  0.00     0.159 C 
BRANCH  11  12
HETATM   12  N1  UNL     1      -2.970  -0.759  -0.656  1.00  0.00    -0.363 N 
HETATM   13  C6  UNL     1      -3.538  -0.567  -1.963  1.00  0.00     0.152 C 
BRANCH  12  14
HETATM   14  C5  UNL     1      -3.707  -0.797   0.520  1.00  0.00     0.144 C 
HETATM   15  C4  UNL     1      -5.108  -0.724   0.830  1.00  0.00    -0.008 C 
BRANCH  15  16
HETATM   16  C3  UNL     1      -5.614   0.571   1.273  1.00  0.00    -0.015 C 
BRANCH  16  17
HETATM   17  C2  UNL     1      -5.546   1.809   0.506  1.00  0.00     0.023 C 
HETATM   18  C1  UNL     1      -4.223   2.412   0.209  1.00  0.00     0.009 C 
ENDBRANCH  16  17
ENDBRANCH  15  16
BRANCH  15  19
HETATM   19  C22 UNL     1      -6.053  -1.488  -0.082  1.00  0.00     0.014 C 
HETATM   20  C23 UNL     1      -5.425  -2.811  -0.440  1.00  0.00     0.015 C 
HETATM   21  C24 UNL     1      -7.297  -1.815   0.727  1.00  0.00     0.015 C 
ENDBRANCH  15  19
BRANCH  14  22
HETATM   22  O1  UNL     1      -2.943  -0.932   1.591  1.00  0.00    -0.346 OA
ATOM     23  H1  UNL     1      -2.017  -0.980   1.386  1.00  0.00     0.219 HD
ENDBRANCH  14  22
ENDBRANCH  12  14
ENDBRANCH  11  12
ENDBRANCH   9  11
ENDBRANCH   7   8
ENDBRANCH   1   7
BRANCH   6  24
HETATM   24  O7  UNL     1       3.640   2.729  -0.310  1.00  0.00    -0.390 OA
ATOM     25  H7  UNL     1       4.302   3.354  -0.581  1.00  0.00     0.210 HD
ENDBRANCH   6  24
BRANCH   3  26
HETATM   26  O4  UNL     1       4.243  -2.012   0.221  1.00  0.00    -0.296 OA
BRANCH  26  27
HETATM   27  C13 UNL     1       4.290  -2.512   1.499  1.00  0.00     0.400 C 
HETATM   28  O5  UNL     1       4.128  -1.809   2.519  1.00  0.00    -0.276 OA
ENDBRANCH  26  27
ENDBRANCH   3  26
BRANCH   5  29
HETATM   29  O6  UNL     1       5.494   1.822  -2.320  1.00  0.00    -0.392 OA
ATOM     30  H6  UNL     1       5.134   2.498  -2.882  1.00  0.00     0.210 HD
ENDBRANCH   5  29
BRANCH   4  31
HETATM   31  C15 UNL     1       6.257   0.206  -0.039  1.00  0.00    -0.044 A 
HETATM   32  C16 UNL     1       6.131   0.909   1.136  1.00  0.00     0.025 A 
HETATM   33  C17 UNL     1       7.273   1.167   1.916  1.00  0.00     0.088 A 
HETATM   34  N2  UNL     1       8.490   0.743   1.542  1.00  0.00    -0.375 N 
HETATM   35  C18 UNL     1       8.641   0.054   0.398  1.00  0.00     0.088 A 
ATOM     36  H2  UNL     1       9.301   0.944   2.127  1.00  0.00     0.164 HD
HETATM   37  C19 UNL     1       7.550  -0.205  -0.368  1.00  0.00     0.025 A 
ENDBRANCH   4  31
TORSDOF 14
