REMARK  5 active torsions:
REMARK  status: ('A' for Active; 'I' for Inactive)
REMARK    1  A    between atoms: O1_2  and  C2_3 
REMARK    2  A    between atoms: C3_4  and  N1_5 
REMARK    3  A    between atoms: C5_10  and  O5_11 
REMARK    4  A    between atoms: C10_18  and  O7_19 
REMARK    5  A    between atoms: C14_27  and  O9_28 
ROOT
HETATM    1  C2  UNL     1      -2.329   0.333  -0.545  1.00  0.00     0.131 C 
HETATM    2  C3  UNL     1      -2.715   1.193   0.384  1.00  0.00     0.185 C 
HETATM    3  C4  UNL     1      -1.537   1.768   1.041  1.00  0.00     0.231 C 
HETATM    4  O4  UNL     1      -1.509   2.881   1.595  1.00  0.00    -0.286 OA
HETATM    5  C5  UNL     1      -0.516   0.710   0.847  1.00  0.00     0.236 C 
HETATM    6  C6  UNL     1       0.862   1.194   0.989  1.00  0.00     0.208 C 
HETATM    7  O6  UNL     1       1.118   2.310   1.458  1.00  0.00    -0.288 OA
HETATM    8  C7  UNL     1       2.055   0.431   0.602  1.00  0.00     0.040 A 
HETATM    9  C8  UNL     1       3.197   0.939   1.180  1.00  0.00     0.020 A 
HETATM   10  C9  UNL     1       4.402   0.328   0.912  1.00  0.00     0.037 A 
HETATM   11  C10 UNL     1       4.485  -0.773   0.082  1.00  0.00     0.067 A 
HETATM   12  C11 UNL     1       3.346  -1.284  -0.498  1.00  0.00     0.067 A 
HETATM   13  C12 UNL     1       2.130  -0.685  -0.241  1.00  0.00     0.051 A 
HETATM   14  N2  UNL     1       1.079  -1.355  -0.928  1.00  0.00    -0.323 N 
ATOM     15  H2  UNL     1       1.344  -2.170  -1.480  1.00  0.00     0.169 HD
HETATM   16  C13 UNL     1      -0.297  -1.012  -0.928  1.00  0.00     0.268 C 
HETATM   17  O8  UNL     1      -1.105  -1.905  -1.261  1.00  0.00    -0.269 OA
HETATM   18  C14 UNL     1      -0.852   0.303  -0.570  1.00  0.00     0.236 C 
ENDROOT
BRANCH   2  19
HETATM   19  N1  UNL     1      -4.096   1.465   0.665  1.00  0.00    -0.109 N 
HETATM   20  O2  UNL     1      -4.815   2.113  -0.149  1.00  0.00    -0.532 OA
HETATM   21  O3  UNL     1      -4.715   1.044   1.818  1.00  0.00    -0.532 OA
ENDBRANCH   2  19
BRANCH   1  22
HETATM   22  O1  UNL     1      -3.138  -0.427  -1.375  1.00  0.00    -0.354 OA
HETATM   23  C1  UNL     1      -4.167  -1.271  -0.968  1.00  0.00     0.209 C 
ENDBRANCH   1  22
BRANCH  18  24
HETATM   24  O9  UNL     1      -0.464   1.304  -1.459  1.00  0.00    -0.371 OA
ATOM     25  H9  UNL     1       0.486   1.285  -1.475  1.00  0.00     0.211 HD
ENDBRANCH  18  24
BRANCH   5  26
HETATM   26  O5  UNL     1      -0.808  -0.346   1.702  1.00  0.00    -0.371 OA
ATOM     27  H5  UNL     1      -0.154  -1.024   1.578  1.00  0.00     0.211 HD
ENDBRANCH   5  26
BRANCH  11  28
HETATM   28  O7  UNL     1       5.732  -1.381  -0.177  1.00  0.00    -0.361 OA
ATOM     29  H7  UNL     1       5.789  -2.138  -0.748  1.00  0.00     0.217 HD
ENDBRANCH  11  28
TORSDOF 5
