REMARK  6 active torsions:
REMARK  status: ('A' for Active; 'I' for Inactive)
REMARK    1  A    between atoms: C3_3  and  O1_4 
REMARK    2  A    between atoms: N2_12  and  C8_13 
REMARK    3  A    between atoms: C9_16  and  O2_17 
REMARK    4  A    between atoms: N5_22  and  O3_23 
REMARK    5  A    between atoms: C13_26  and  C14_27 
REMARK    6  A    between atoms: C14_27  and  O4_28 
ROOT
HETATM    1  C1  UNL     1      -3.914  -1.205  -1.060  1.00  0.00     0.016 C 
HETATM    2  C2  UNL     1      -3.428  -0.594  -0.159  1.00  0.00    -0.067 C 
HETATM    3  C3  UNL     1      -2.861   0.157   0.963  1.00  0.00     0.180 C 
HETATM    4  S1  UNL     1      -1.940  -1.025   1.988  1.00  0.00    -0.057 SA
HETATM    5  C4  UNL     1      -0.372  -1.324   1.195  1.00  0.00     0.254 C 
HETATM    6  C5  UNL     1       0.636  -1.754   2.170  1.00  0.00    -0.058 C 
HETATM    7  C6  UNL     1       1.456  -2.134   2.985  1.00  0.00     0.016 C 
HETATM    8  C7  UNL     1      -0.573  -2.363   0.172  1.00  0.00     0.117 C 
HETATM    9  N1  UNL     1      -0.714  -3.197  -0.637  1.00  0.00    -0.193 NA
HETATM   10  N2  UNL     1       0.088  -0.094   0.583  1.00  0.00    -0.167 N 
HETATM   11  C12 UNL     1      -0.553   1.156   0.548  1.00  0.00     0.122 A 
HETATM   12  C13 UNL     1      -1.397   1.652  -0.631  1.00  0.00     0.044 A 
HETATM   13  C15 UNL     1      -1.998   1.285   0.612  1.00  0.00     0.076 A 
ENDROOT
BRANCH   3  14
HETATM   14  O1  UNL     1      -3.934   0.524   1.846  1.00  0.00    -0.368 OA
ATOM     15  H1  UNL     1      -3.566   1.011   2.574  1.00  0.00     0.212 HD
ENDBRANCH   3  14
BRANCH  12  16
HETATM   16  C14 UNL     1      -1.179   0.939  -1.894  1.00  0.00     0.171 C 
BRANCH  16  17
HETATM   17  O4  UNL     1      -2.010   1.448  -2.936  1.00  0.00    -0.400 OA
ATOM     18  H4  UNL     1      -1.869   0.986  -3.754  1.00  0.00     0.209 HD
ENDBRANCH  16  17
ENDBRANCH  12  16
BRANCH  10  19
HETATM   19  C8  UNL     1       1.388  -0.201  -0.004  1.00  0.00     0.713 A 
HETATM   20  N3  UNL     1       1.726  -0.753  -1.174  1.00  0.00    -0.165 N 
HETATM   21  C9  UNL     1       3.040  -0.642  -1.400  1.00  0.00     0.196 A 
ATOM     22  H3  UNL     1       1.068  -1.201  -1.812  1.00  0.00     0.186 HD
HETATM   23  C10 UNL     1       3.576   0.009  -0.334  1.00  0.00     0.211 A 
HETATM   24  C11 UNL     1       4.968   0.342  -0.161  1.00  0.00     0.125 C 
HETATM   25  N5  UNL     1       2.550   0.269   0.504  1.00  0.00    -0.037 N 
HETATM   26  N4  UNL     1       6.088   0.624  -0.026  1.00  0.00    -0.190 NA
BRANCH  21  27
HETATM   27  O2  UNL     1       3.711  -1.108  -2.513  1.00  0.00    -0.344 OA
ATOM     28  H2  UNL     1       4.644  -1.029  -2.673  1.00  0.00     0.219 HD
ENDBRANCH  21  27
BRANCH  25  29
HETATM   29  O3  UNL     1       2.767   0.944   1.689  1.00  0.00    -0.268 OA
ATOM     30  H3  UNL     1       3.583   1.274   2.046  1.00  0.00     0.246 HD
ENDBRANCH  25  29
ENDBRANCH  10  19
TORSDOF 6
