REMARK  4 active torsions:
REMARK  status: ('A' for Active; 'I' for Inactive)
REMARK    1  A    between atoms: O1_2  and  C2_3 
REMARK    2  A    between atoms: C4_5  and  O2_6 
REMARK    3  A    between atoms: C5_8  and  O3_9 
REMARK    4  A    between atoms: S2_21  and  N4_22 
ROOT
HETATM    1  C2  UNL     1      -1.385   1.039  -0.208  1.00  0.00     0.195 C 
HETATM    2  C3  UNL     1      -2.447   0.657   0.739  1.00  0.00     0.104 C 
HETATM    3  C4  UNL     1      -3.077  -0.676   0.602  1.00  0.00     0.153 C 
HETATM    4  C5  UNL     1      -2.229  -1.871   0.707  1.00  0.00     0.175 C 
HETATM    5  C6  UNL     1      -0.987  -1.992  -0.042  1.00  0.00     0.310 C 
HETATM    6  N1  UNL     1      -0.363  -0.898  -0.624  1.00  0.00     0.135 N 
HETATM    7  C7  UNL     1      -1.141   0.049  -1.320  1.00  0.00     0.344 C 
HETATM    8  C8  UNL     1       0.539  -0.101   0.142  1.00  0.00     0.299 C 
HETATM    9  C9  UNL     1       0.930  -0.731   1.457  1.00  0.00     0.149 C 
HETATM   10  S1  UNL     1       1.979   0.473   2.365  1.00  0.00    -0.147 SA
HETATM   11  C10 UNL     1       3.704  -0.012   1.955  1.00  0.00     0.202 C 
HETATM   12  N2  UNL     1       3.640  -0.260   0.505  1.00  0.00    -0.153 NA
HETATM   13  N3  UNL     1       2.875   0.742  -0.111  1.00  0.00    -0.204 NA
HETATM   14  C11 UNL     1       3.385   0.762  -1.505  1.00  0.00     0.197 C 
HETATM   15  S2  UNL     1       2.614  -0.896  -1.573  1.00  0.00    -0.095 SA
HETATM   16  C12 UNL     1       1.661   0.318  -0.700  1.00  0.00     0.215 C 
HETATM   17  O4  UNL     1      -0.176   1.066   0.481  1.00  0.00    -0.311 OA
ENDROOT
BRANCH  15  18
HETATM   18  N4  UNL     1       2.177  -1.236  -3.015  1.00  0.00    -0.381 NA
ATOM     19  H42 UNL     1       2.725  -1.934  -3.517  1.00  0.00     0.163 HD
ATOM     20  H41 UNL     1       1.747  -2.160  -3.053  1.00  0.00     0.163 HD
ENDBRANCH  15  18
BRANCH   1  21
HETATM   21  O1  UNL     1      -1.576   2.309  -0.801  1.00  0.00    -0.358 OA
HETATM   22  C1  UNL     1      -1.613   3.317   0.158  1.00  0.00     0.205 C 
ENDBRANCH   1  21
BRANCH   4  23
HETATM   23  O3  UNL     1      -3.092  -2.972   0.429  1.00  0.00    -0.391 OA
ATOM     24  H3  UNL     1      -2.544  -3.745   0.497  1.00  0.00     0.210 HD
ENDBRANCH   4  23
BRANCH   3  25
HETATM   25  O2  UNL     1      -4.007  -0.740  -0.471  1.00  0.00    -0.393 OA
ATOM     26  H2  UNL     1      -4.411  -1.595  -0.559  1.00  0.00     0.210 HD
ENDBRANCH   3  25
TORSDOF 4
