REMARK  4 active torsions:
REMARK  status: ('A' for Active; 'I' for Inactive)
REMARK    1  A    between atoms: N1_2  and  C3_5 
REMARK    2  A    between atoms: C3_5  and  O1_6 
REMARK    3  A    between atoms: C6_11  and  C7_12 
REMARK    4  A    between atoms: C10_17  and  N5_18 
ROOT
HETATM    1  C1  UNL     1       3.603   2.244   0.477  1.00  0.00     0.166 C 
HETATM    2  N1  UNL     1       3.533   0.982  -0.277  1.00  0.00    -0.284 N 
HETATM    3  C2  UNL     1       4.167   0.910  -1.514  1.00  0.00     0.182 C 
HETATM    4  N2  UNL     1       4.713   0.875  -2.556  1.00  0.00    -0.172 NA
ENDROOT
BRANCH   2   5
HETATM    5  C3  UNL     1       2.835  -0.150   0.246  1.00  0.00     0.216 A 
HETATM    6  C4  UNL     1       1.408   0.135   0.521  1.00  0.00     0.108 A 
HETATM    7  C5  UNL     1       0.979   1.172   1.462  1.00  0.00     0.102 C 
HETATM    8  C6  UNL     1       0.666  -0.658  -0.175  1.00  0.00     0.068 A 
HETATM    9  N3  UNL     1       0.657   1.991   2.224  1.00  0.00    -0.191 NA
HETATM   10  N7  UNL     1       1.408  -1.538  -0.967  1.00  0.00    -0.367 N 
HETATM   11  C13 UNL     1       2.811  -1.260  -0.751  1.00  0.00     0.252 A 
ATOM     12  H7  UNL     1       1.027  -2.251  -1.589  1.00  0.00     0.161 HD
HETATM   13  C14 UNL     1       3.416  -2.465  -0.139  1.00  0.00     0.090 C 
HETATM   14  N8  UNL     1       3.892  -3.412   0.351  1.00  0.00    -0.195 NA
BRANCH   5  15
HETATM   15  O1  UNL     1       3.411  -0.602   1.448  1.00  0.00    -0.363 OA
ATOM     16  H1  UNL     1       2.947  -1.355   1.796  1.00  0.00     0.213 HD
ENDBRANCH   5  15
BRANCH   8  17
HETATM   17  C7  UNL     1      -0.819  -0.668  -0.163  1.00  0.00     0.035 A 
HETATM   18  C8  UNL     1      -1.646   0.407  -0.118  1.00  0.00     0.052 A 
HETATM   19  C9  UNL     1      -2.984   0.155  -0.112  1.00  0.00     0.069 A 
HETATM   20  N4  UNL     1      -4.018   1.066  -0.071  1.00  0.00    -0.191 N 
HETATM   21  C12 UNL     1      -3.368  -1.149  -0.153  1.00  0.00     0.049 A 
HETATM   22  C10 UNL     1      -5.286   0.671  -0.072  1.00  0.00     0.676 A 
ATOM     23  H4  UNL     1      -3.805   2.063  -0.039  1.00  0.00     0.184 HD
HETATM   24  N6  UNL     1      -5.707  -0.611  -0.111  1.00  0.00    -0.201 N 
HETATM   25  C11 UNL     1      -4.721  -1.533  -0.152  1.00  0.00     0.127 A 
ATOM     26  H6  UNL     1      -6.695  -0.864  -0.110  1.00  0.00     0.183 HD
HETATM   27  S1  UNL     1      -1.889  -1.996  -0.197  1.00  0.00    -0.084 SA
BRANCH  22  28
HETATM   28  N5  UNL     1      -6.275   1.537  -0.034  1.00  0.00    -0.234 N 
ATOM     29  H52 UNL     1      -5.957   2.506  -0.005  1.00  0.00     0.174 HD
ATOM     30  H51 UNL     1      -7.249   1.234  -0.035  1.00  0.00     0.174 HD
ENDBRANCH  22  28
ENDBRANCH   8  17
ENDBRANCH   2   5
TORSDOF 4
