REMARK  5 active torsions:
REMARK  status: ('A' for Active; 'I' for Inactive)
REMARK    1  A    between atoms: C2_2  and  O2_4 
REMARK    2  A    between atoms: O2_4  and  C3_5 
REMARK    3  A    between atoms: C12_15  and  C13_16 
REMARK    4  A    between atoms: N1_17  and  O4_19 
REMARK    5  A    between atoms: C15_22  and  O5_23 
ROOT
HETATM    1  C3  UNL     1      -0.245  -0.768   0.197  1.00  0.00     0.120 C 
HETATM    2  C4  UNL     1       0.770  -1.822   0.435  1.00  0.00     0.049 C 
HETATM    3  C5  UNL     1       2.095  -1.366   0.907  1.00  0.00     0.042 C 
HETATM    4  C6  UNL     1       2.719  -0.257   0.129  1.00  0.00     0.066 C 
HETATM    5  C7  UNL     1       3.724  -0.704  -0.926  1.00  0.00     0.064 C 
HETATM    6  C8  UNL     1       4.640   0.331  -0.281  1.00  0.00     0.171 C 
HETATM    7  O3  UNL     1       3.801   0.256   0.847  1.00  0.00    -0.380 OA
HETATM    8  C9  UNL     1       1.798   0.833  -0.284  1.00  0.00     0.075 C 
HETATM    9  C10 UNL     1       0.377   0.575  -0.088  1.00  0.00    -0.043 C 
HETATM   10  C11 UNL     1      -0.487   1.581  -0.158  1.00  0.00    -0.011 C 
HETATM   11  C12 UNL     1      -1.962   1.365   0.037  1.00  0.00     0.051 C 
HETATM   12  C14 UNL     1      -2.253   0.369   1.131  1.00  0.00     0.049 C 
HETATM   13  C15 UNL     1      -1.074  -0.497   1.461  1.00  0.00     0.158 C 
ENDROOT
BRANCH  11  14
HETATM   14  C13 UNL     1      -2.509   2.672   0.479  1.00  0.00     0.095 C 
HETATM   15  N1  UNL     1      -3.088   3.469  -0.351  1.00  0.00    -0.284 N 
ATOM     16  H1  UNL     1      -3.165   3.184  -1.327  1.00  0.00     0.192 HD
BRANCH  15  17
HETATM   17  O4  UNL     1      -3.602   4.677   0.018  1.00  0.00    -0.291 OA
ATOM     18  H4  UNL     1      -4.029   5.265  -0.594  1.00  0.00     0.244 HD
ENDBRANCH  15  17
ENDBRANCH  11  14
BRANCH  13  19
HETATM   19  O5  UNL     1      -0.233   0.259   2.292  1.00  0.00    -0.392 OA
ATOM     20  H5  UNL     1      -0.746   0.427   3.074  1.00  0.00     0.210 HD
ENDBRANCH  13  19
BRANCH   1  21
HETATM   21  O2  UNL     1      -1.090  -1.000  -0.885  1.00  0.00    -0.303 OA
BRANCH  21  22
HETATM   22  C2  UNL     1      -1.879  -2.104  -0.938  1.00  0.00     0.256 C 
HETATM   23  C1  UNL     1      -2.815  -2.424  -2.064  1.00  0.00     0.126 C 
HETATM   24  O1  UNL     1      -1.832  -2.909   0.003  1.00  0.00    -0.266 OA
ENDBRANCH  21  22
ENDBRANCH   1  21
TORSDOF 5
