REMARK  5 active torsions:
REMARK  status: ('A' for Active; 'I' for Inactive)
REMARK    1  A    between atoms: C2_2  and  N1_3 
REMARK    2  A    between atoms: C6_8  and  C7_9 
REMARK    3  A    between atoms: C7_9  and  O2_10 
REMARK    4  A    between atoms: C7_9  and  C8_12 
REMARK    5  A    between atoms: C15_21  and  O5_22 
ROOT
HETATM    1  C7  UNL     1      -0.067  -1.619   0.082  1.00  0.00     0.188 C 
ENDROOT
BRANCH   1   2
HETATM    2  C6  UNL     1       1.369  -1.406   0.123  1.00  0.00     0.074 A 
HETATM    3  C5  UNL     1       2.131  -2.555   0.491  1.00  0.00     0.186 A 
HETATM    4  C4  UNL     1       3.494  -2.460   0.549  1.00  0.00     0.073 A 
HETATM    5  O1  UNL     1       1.563  -3.642   0.762  1.00  0.00    -0.288 OA
HETATM    6  C3  UNL     1       4.181  -1.298   0.268  1.00  0.00     0.097 A 
HETATM    7  N1  UNL     1       3.461  -0.227  -0.076  1.00  0.00    -0.338 N 
HETATM    8  C15 UNL     1       2.106  -0.302  -0.140  1.00  0.00     0.155 A 
BRANCH   7   9
HETATM    9  C2  UNL     1       4.088   1.049  -0.395  1.00  0.00     0.126 C 
HETATM   10  C1  UNL     1       4.278   1.952   0.772  1.00  0.00     0.027 C 
ENDBRANCH   7   9
BRANCH   8  11
HETATM   11  O5  UNL     1       1.456   0.870  -0.513  1.00  0.00    -0.345 OA
ATOM     12  H5  UNL     1       0.509   0.818  -0.558  1.00  0.00     0.219 HD
ENDBRANCH   8  11
ENDBRANCH   1   2
BRANCH   1  13
HETATM   13  O2  UNL     1      -0.402  -2.449   1.231  1.00  0.00    -0.388 OA
ATOM     14  H2  UNL     1      -1.341  -2.588   1.204  1.00  0.00     0.210 HD
ENDBRANCH   1  13
BRANCH   1  15
HETATM   15  C8  UNL     1      -1.080  -0.588   0.065  1.00  0.00     0.161 C 
HETATM   16  C9  UNL     1      -2.427  -1.364  -0.037  1.00  0.00     0.066 C 
HETATM   17  C10 UNL     1      -3.541  -0.407   0.114  1.00  0.00     0.123 C 
HETATM   18  C11 UNL     1      -4.831  -1.036  -0.460  1.00  0.00     0.040 C 
HETATM   19  O3  UNL     1      -3.390   0.773  -0.568  1.00  0.00    -0.351 OA
HETATM   20  C12 UNL     1      -2.130   1.309  -0.509  1.00  0.00     0.157 C 
HETATM   21  C13 UNL     1      -2.103   2.495  -1.481  1.00  0.00     0.078 C 
HETATM   22  C14 UNL     1      -1.817   1.909   0.843  1.00  0.00     0.078 C 
HETATM   23  O4  UNL     1      -1.142   0.370  -0.887  1.00  0.00    -0.348 OA
ENDBRANCH   1  15
TORSDOF 5
