REMARK  5 active torsions:
REMARK  status: ('A' for Active; 'I' for Inactive)
REMARK    1  A    between atoms: N2_5  and  C3_6 
REMARK    2  A    between atoms: C4_8  and  C5_9 
REMARK    3  A    between atoms: C5_9  and  O2_10 
REMARK    4  A    between atoms: C9_16  and  C10_17 
REMARK    5  A    between atoms: C10_17  and  C11_18 
ROOT
HETATM    1  C1  UNL     1      -1.084  -2.152   0.101  1.00  0.00     0.070 C 
HETATM    2  C2  UNL     1      -0.253  -0.921   0.104  1.00  0.00     0.034 A 
HETATM    3  N1  UNL     1       1.022  -0.922   0.540  1.00  0.00    -0.300 N 
ATOM      4  H1  UNL     1       1.503  -1.741   0.911  1.00  0.00     0.187 HD
HETATM    5  N2  UNL     1       1.566   0.272   0.425  1.00  0.00    -0.270 N 
HETATM    6  C8  UNL     1       0.625   1.071  -0.100  1.00  0.00     0.126 A 
HETATM    7  C9  UNL     1      -0.539   0.334  -0.311  1.00  0.00     0.006 A 
ENDROOT
BRANCH   5   8
HETATM    8  C3  UNL     1       2.936   0.641   0.808  1.00  0.00     0.275 C 
HETATM    9  O1  UNL     1       3.555  -0.504   1.332  1.00  0.00    -0.330 OA
HETATM   10  C4  UNL     1       4.730  -0.682   0.643  1.00  0.00     0.286 C 
HETATM   11  O3  UNL     1       4.596  -0.051  -0.584  1.00  0.00    -0.350 OA
HETATM   12  C6  UNL     1       3.731   1.029  -0.395  1.00  0.00     0.171 C 
HETATM   13  C7  UNL     1       4.552   2.273  -0.181  1.00  0.00     0.044 C 
BRANCH  10  14
HETATM   14  C5  UNL     1       5.089  -2.149   0.479  1.00  0.00     0.224 C 
BRANCH  14  15
HETATM   15  O2  UNL     1       4.139  -2.868  -0.209  1.00  0.00    -0.396 OA
ATOM     16  H2  UNL     1       4.363  -3.785  -0.312  1.00  0.00     0.209 HD
ENDBRANCH  14  15
ENDBRANCH  10  14
ENDBRANCH   5   8
BRANCH   7  17
HETATM   17  C10 UNL     1      -1.775   0.862  -0.829  1.00  0.00     0.039 C 
BRANCH  17  18
HETATM   18  C11 UNL     1      -2.966   0.767  -0.302  1.00  0.00     0.005 C 
HETATM   19  C12 UNL     1      -4.121   1.396  -1.027  1.00  0.00     0.057 C 
HETATM   20  C13 UNL     1      -5.209   0.327  -1.028  1.00  0.00     0.007 C 
HETATM   21  C14 UNL     1      -5.606   0.027   0.379  1.00  0.00     0.020 C 
HETATM   22  C15 UNL     1      -4.494  -0.521   1.233  1.00  0.00     0.119 C 
HETATM   23  N3  UNL     1      -3.232   0.121   0.952  1.00  0.00    -0.393 N 
ATOM     24  H3  UNL     1      -2.505   0.115   1.668  1.00  0.00     0.159 HD
ENDBRANCH  17  18
ENDBRANCH   7  17
TORSDOF 5
