REMARK  12 active torsions:
REMARK  status: ('A' for Active; 'I' for Inactive)
REMARK    1  A    between atoms: C2_2  and  C3_3 
REMARK    2  A    between atoms: C2_2  and  C16_24 
REMARK    3  A    between atoms: C4_4  and  C5_5 
REMARK    4  A    between atoms: C6_6  and  O1_7 
REMARK    5  A    between atoms: O1_7  and  C7_8 
REMARK    6  A    between atoms: C10_12  and  O3_13 
REMARK    7  A    between atoms: C11_15  and  O4_16 
REMARK    8  A    between atoms: C12_18  and  O5_19 
REMARK    9  A    between atoms: C16_24  and  C17_25 
REMARK   10  A    between atoms: C17_25  and  O6_26 
REMARK   11  A    between atoms: C17_25  and  C18_28 
REMARK   12  A    between atoms: C18_28  and  C19_29 
ROOT
HETATM    1  C5  UNL     1      -1.229  -1.496  -1.167  1.00  0.00    -0.021 A 
HETATM    2  C6  UNL     1      -2.365  -1.160  -1.739  1.00  0.00     0.078 A 
HETATM    3  C13 UNL     1      -2.914  -2.273  -2.487  1.00  0.00     0.034 A 
HETATM    4  C14 UNL     1      -2.090  -3.290  -2.358  1.00  0.00    -0.019 A 
HETATM    5  C15 UNL     1      -0.945  -2.905  -1.514  1.00  0.00     0.068 A 
ENDROOT
BRANCH   1   6
HETATM    6  C4  UNL     1      -0.397  -0.611  -0.331  1.00  0.00     0.006 C 
HETATM    7  C3  UNL     1       0.727  -1.003   0.213  1.00  0.00    -0.022 C 
BRANCH   7   8
HETATM    8  C2  UNL     1       1.517  -0.099   1.031  1.00  0.00     0.006 C 
HETATM    9  C1  UNL     1       0.794   1.253   1.156  1.00  0.00     0.014 C 
BRANCH   8  10
HETATM   10  C16 UNL     1       2.895   0.204   0.595  1.00  0.00     0.040 C 
BRANCH  10  11
HETATM   11  C17 UNL     1       3.828  -0.925   0.393  1.00  0.00     0.121 C 
BRANCH  11  12
HETATM   12  O6  UNL     1       3.411  -1.835  -0.573  1.00  0.00    -0.395 OA
ATOM     13  H6  UNL     1       4.010  -2.560  -0.703  1.00  0.00     0.210 HD
ENDBRANCH  11  12
BRANCH  11  14
HETATM   14  C18 UNL     1       5.146  -0.335  -0.129  1.00  0.00     0.070 C 
BRANCH  14  15
HETATM   15  C19 UNL     1       5.707   0.642   0.883  1.00  0.00     0.199 A 
HETATM   16  O7  UNL     1       5.979   0.090   2.118  1.00  0.00    -0.231 OA
HETATM   17  O8  UNL     1       7.302   0.117   2.051  1.00  0.00    -0.227 OA
HETATM   18  C20 UNL     1       7.190   0.764   0.843  1.00  0.00     0.118 A 
HETATM   19  C21 UNL     1       7.876   0.096  -0.324  1.00  0.00     0.052 C 
HETATM   20  C22 UNL     1       7.686   2.207   0.953  1.00  0.00     0.052 C 
ENDBRANCH  14  15
ENDBRANCH  11  14
ENDBRANCH  10  11
ENDBRANCH   8  10
ENDBRANCH   7   8
ENDBRANCH   1   6
BRANCH   2  21
HETATM   21  O1  UNL     1      -2.955   0.126  -1.626  1.00  0.00    -0.317 OA
BRANCH  21  22
HETATM   22  C7  UNL     1      -4.345   0.186  -1.333  1.00  0.00     0.298 C 
HETATM   23  O2  UNL     1      -4.798   1.486  -1.250  1.00  0.00    -0.351 OA
HETATM   24  C8  UNL     1      -5.399   1.807  -0.048  1.00  0.00     0.152 C 
HETATM   25  C9  UNL     1      -5.948   3.214  -0.184  1.00  0.00     0.042 C 
HETATM   26  C10 UNL     1      -6.595   0.891   0.094  1.00  0.00     0.178 C 
HETATM   27  C11 UNL     1      -6.096  -0.489   0.350  1.00  0.00     0.183 C 
HETATM   28  C12 UNL     1      -4.720  -0.677  -0.174  1.00  0.00     0.205 C 
BRANCH  26  29
HETATM   29  O3  UNL     1      -7.460   1.346   1.087  1.00  0.00    -0.390 OA
ATOM     30  H3  UNL     1      -8.211   0.771   1.176  1.00  0.00     0.210 HD
ENDBRANCH  26  29
BRANCH  27  31
HETATM   31  O4  UNL     1      -6.933  -1.456  -0.256  1.00  0.00    -0.390 OA
ATOM     32  H4  UNL     1      -6.615  -2.336  -0.093  1.00  0.00     0.210 HD
ENDBRANCH  27  31
BRANCH  28  33
HETATM   33  O5  UNL     1      -3.827  -0.499   0.903  1.00  0.00    -0.388 OA
ATOM     34  H5  UNL     1      -4.066  -1.048   1.641  1.00  0.00     0.210 HD
ENDBRANCH  28  33
ENDBRANCH  21  22
ENDBRANCH   2  21
TORSDOF 12
