REMARK  13 active torsions:
REMARK  status: ('A' for Active; 'I' for Inactive)
REMARK    1  A    between atoms: O1_2  and  C2_3 
REMARK    2  A    between atoms: C2_3  and  C3_4 
REMARK    3  A    between atoms: C3_4  and  C4_5 
REMARK    4  A    between atoms: C4_5  and  O3_7 
REMARK    5  A    between atoms: O3_7  and  C5_8 
REMARK    6  A    between atoms: C5_8  and  C6_9 
REMARK    7  A    between atoms: C10_14  and  C11_15 
REMARK    8  A    between atoms: C12_16  and  C13_17 
REMARK    9  A    between atoms: C13_17  and  O5_18 
REMARK   10  A    between atoms: C13_17  and  C14_20 
REMARK   11  A    between atoms: C19_25  and  O6_26 
REMARK   12  A    between atoms: C20_28  and  O7_29 
REMARK   13  A    between atoms: C22_32  and  O8_33 
ROOT
HETATM    1  C5  UNL     1      -3.291  -0.495   0.229  1.00  0.00     0.207 C 
HETATM    2  O4  UNL     1      -2.254  -0.386   1.234  1.00  0.00    -0.315 OA
HETATM    3  C9  UNL     1      -1.109  -0.063   0.521  1.00  0.00     0.053 C 
HETATM    4  C10 UNL     1       0.143  -0.433   0.790  1.00  0.00     0.032 C 
HETATM    5  C21 UNL     1      -1.515   0.790  -0.628  1.00  0.00     0.102 C 
HETATM    6  C22 UNL     1      -3.017   0.831  -0.500  1.00  0.00     0.188 C 
ENDROOT
BRANCH   4   7
HETATM    7  C11 UNL     1       1.243  -0.003  -0.067  1.00  0.00     0.001 C 
HETATM    8  C12 UNL     1       2.494  -0.345   0.160  1.00  0.00     0.005 C 
BRANCH   8   9
HETATM    9  C13 UNL     1       3.559   0.115  -0.733  1.00  0.00     0.147 C 
BRANCH   9  10
HETATM   10  O5  UNL     1       3.329  -0.187  -2.064  1.00  0.00    -0.391 OA
ATOM     11  H5  UNL     1       4.020   0.111  -2.643  1.00  0.00     0.210 HD
ENDBRANCH   9  10
BRANCH   9  12
HETATM   12  C14 UNL     1       4.889  -0.461  -0.242  1.00  0.00     0.053 C 
HETATM   13  C15 UNL     1       5.119   0.035   1.154  1.00  0.00     0.037 C 
HETATM   14  C16 UNL     1       6.551   0.068   1.488  1.00  0.00    -0.021 C 
HETATM   15  C17 UNL     1       7.400   0.589   0.608  1.00  0.00    -0.057 C 
HETATM   16  C18 UNL     1       8.836   0.632   0.922  1.00  0.00     0.046 C 
HETATM   17  C19 UNL     1       6.805   1.102  -0.663  1.00  0.00     0.175 C 
HETATM   18  C20 UNL     1       5.944  -0.004  -1.219  1.00  0.00     0.158 C 
BRANCH  17  19
HETATM   19  O6  UNL     1       7.818   1.358  -1.569  1.00  0.00    -0.389 OA
ATOM     20  H6  UNL     1       7.440   1.684  -2.377  1.00  0.00     0.210 HD
ENDBRANCH  17  19
BRANCH  18  21
HETATM   21  O7  UNL     1       6.786  -1.071  -1.530  1.00  0.00    -0.392 OA
ATOM     22  H7  UNL     1       7.450  -0.783  -2.145  1.00  0.00     0.210 HD
ENDBRANCH  18  21
ENDBRANCH   9  12
ENDBRANCH   8   9
ENDBRANCH   4   7
BRANCH   1  23
HETATM   23  O3  UNL     1      -4.472  -0.473   0.905  1.00  0.00    -0.280 OA
BRANCH  23  24
HETATM   24  C4  UNL     1      -5.772  -0.485   0.569  1.00  0.00     0.263 C 
HETATM   25  O2  UNL     1      -6.081  -0.509  -0.625  1.00  0.00    -0.265 OA
BRANCH  24  26
HETATM   26  C3  UNL     1      -6.901  -0.471   1.555  1.00  0.00     0.137 C 
BRANCH  26  27
HETATM   27  C2  UNL     1      -7.439   0.946   1.650  1.00  0.00     0.176 C 
BRANCH  27  28
HETATM   28  O1  UNL     1      -7.894   1.359   0.415  1.00  0.00    -0.395 OA
HETATM   29  C1  UNL     1      -8.387   2.660   0.508  1.00  0.00     0.201 C 
ENDBRANCH  27  28
ENDBRANCH  26  27
ENDBRANCH  24  26
ENDBRANCH  23  24
ENDBRANCH   1  23
BRANCH   1  30
HETATM   30  C6  UNL     1      -2.908  -1.658  -0.595  1.00  0.00     0.044 C 
HETATM   31  C7  UNL     1      -3.739  -2.059  -1.746  1.00  0.00     0.015 C 
HETATM   32  C8  UNL     1      -2.626  -2.827   0.349  1.00  0.00     0.015 C 
ENDBRANCH   1  30
BRANCH   6  33
HETATM   33  O8  UNL     1      -3.333   1.836   0.404  1.00  0.00    -0.390 OA
ATOM     34  H8  UNL     1      -3.164   2.655  -0.046  1.00  0.00     0.210 HD
ENDBRANCH   6  33
TORSDOF 13
