REMARK  15 active torsions:
REMARK  status: ('A' for Active; 'I' for Inactive)
REMARK    1  A    between atoms: C4_4  and  O1_5 
REMARK    2  A    between atoms: C5_7  and  C6_8 
REMARK    3  A    between atoms: C6_8  and  C7_9 
REMARK    4  A    between atoms: C7_9  and  C8_11 
REMARK    5  A    between atoms: C8_11  and  C9_12 
REMARK    6  A    between atoms: C9_12  and  N1_13 
REMARK    7  A    between atoms: N1_13  and  O3_15 
REMARK    8  A    between atoms: C11_19  and  O5_20 
REMARK    9  A    between atoms: O5_20  and  C12_21 
REMARK   10  A    between atoms: C12_21  and  C13_23 
REMARK   11  A    between atoms: C13_23  and  N2_24 
REMARK   12  A    between atoms: C13_23  and  C14_28 
REMARK   13  A    between atoms: C14_28  and  C15_29 
REMARK   14  A    between atoms: C15_29  and  C16_30 
REMARK   15  A    between atoms: C18_32  and  O7_34 
ROOT
HETATM    1  C1  UNL     1      -2.729  -3.816   0.699  1.00  0.00     0.015 C 
HETATM    2  C2  UNL     1      -1.944  -2.795   0.328  1.00  0.00    -0.073 C 
HETATM    3  C3  UNL     1      -1.853  -1.641   1.236  1.00  0.00     0.077 C 
HETATM    4  C4  UNL     1      -3.179  -0.884   1.242  1.00  0.00     0.158 C 
HETATM    5  C5  UNL     1      -2.927   0.224   0.255  1.00  0.00     0.158 C 
HETATM    6  O4  UNL     1      -1.593   0.267  -0.046  1.00  0.00    -0.374 OA
HETATM    7  C10 UNL     1      -0.916  -0.584   0.775  1.00  0.00     0.165 C 
HETATM    8  C11 UNL     1       0.342  -1.150   0.196  1.00  0.00     0.196 C 
HETATM    9  C18 UNL     1       0.124  -2.130  -0.916  1.00  0.00     0.090 C 
HETATM   10  C19 UNL     1       1.234  -3.161  -0.930  1.00  0.00     0.049 C 
HETATM   11  C20 UNL     1      -1.195  -2.813  -0.935  1.00  0.00     0.047 C 
HETATM   12  C21 UNL     1      -2.064  -2.347  -2.113  1.00  0.00     0.018 C 
ENDROOT
BRANCH   8  13
HETATM   13  O5  UNL     1       1.199  -0.106  -0.230  1.00  0.00    -0.309 OA
BRANCH  13  14
HETATM   14  C12 UNL     1       2.437   0.145   0.318  1.00  0.00     0.290 C 
HETATM   15  O6  UNL     1       2.831  -0.602   1.259  1.00  0.00    -0.263 OA
BRANCH  14  16
HETATM   16  C13 UNL     1       3.325   1.253  -0.148  1.00  0.00     0.282 C 
BRANCH  16  17
HETATM   17  N2  UNL     1       2.639   1.942  -1.218  1.00  0.00    -0.066 N 
ATOM     18  H23 UNL     1       2.353   1.318  -1.973  1.00  0.00     0.275 HD
ATOM     19  H22 UNL     1       1.709   2.264  -0.951  1.00  0.00     0.275 HD
ATOM     20  H21 UNL     1       3.245   2.698  -1.536  1.00  0.00     0.275 HD
ENDBRANCH  16  17
BRANCH  16  21
HETATM   21  C14 UNL     1       4.615   0.621  -0.599  1.00  0.00     0.043 C 
BRANCH  21  22
HETATM   22  C15 UNL     1       5.617   1.622  -1.100  1.00  0.00     0.002 C 
BRANCH  22  23
HETATM   23  C16 UNL     1       6.003   2.640  -0.052  1.00  0.00    -0.004 C 
HETATM   24  C17 UNL     1       6.618   1.968   1.157  1.00  0.00     0.005 C 
ENDBRANCH  22  23
ENDBRANCH  21  22
ENDBRANCH  16  21
ENDBRANCH  14  16
ENDBRANCH  13  14
ENDBRANCH   8  13
BRANCH   9  25
HETATM   25  O7  UNL     1       0.249  -1.442  -2.148  1.00  0.00    -0.387 OA
ATOM     26  H7  UNL     1       0.111  -2.063  -2.853  1.00  0.00     0.210 HD
ENDBRANCH   9  25
BRANCH   4  27
HETATM   27  O1  UNL     1      -4.246  -1.684   0.914  1.00  0.00    -0.392 OA
ATOM     28  H1  UNL     1      -5.071  -1.213   0.918  1.00  0.00     0.210 HD
ENDBRANCH   4  27
BRANCH   5  29
HETATM   29  C6  UNL     1      -3.444   1.519   0.843  1.00  0.00     0.118 C 
BRANCH  29  30
HETATM   30  C7  UNL     1      -4.897   1.381   1.096  1.00  0.00     0.160 C 
HETATM   31  O2  UNL     1      -5.366   0.786   2.102  1.00  0.00    -0.293 OA
BRANCH  30  32
HETATM   32  C8  UNL     1      -5.846   1.943   0.163  1.00  0.00     0.126 C 
BRANCH  32  33
HETATM   33  C9  UNL     1      -5.670   3.167  -0.279  1.00  0.00    -0.016 C 
BRANCH  33  34
HETATM   34  N1  UNL     1      -5.711   4.449  -0.407  1.00  0.00    -0.233 N 
ATOM     35  H1  UNL     1      -5.356   4.893  -1.254  1.00  0.00     0.204 HD
BRANCH  34  36
HETATM   36  O3  UNL     1      -6.241   5.220   0.616  1.00  0.00    -0.282 OA
ATOM     37  H3  UNL     1      -6.271   6.165   0.522  1.00  0.00     0.245 HD
ENDBRANCH  34  36
ENDBRANCH  33  34
ENDBRANCH  32  33
ENDBRANCH  30  32
ENDBRANCH  29  30
ENDBRANCH   5  29
TORSDOF 15
