REMARK  13 active torsions:
REMARK  status: ('A' for Active; 'I' for Inactive)
REMARK    1  A    between atoms: O1_2  and  C2_3 
REMARK    2  A    between atoms: C2_3  and  C3_4 
REMARK    3  A    between atoms: C4_5  and  C5_6 
REMARK    4  A    between atoms: C5_6  and  O2_12 
REMARK    5  A    between atoms: N1_7  and  N2_9 
REMARK    6  A    between atoms: O2_12  and  C6_13 
REMARK    7  A    between atoms: C6_13  and  C7_14 
REMARK    8  A    between atoms: C7_14  and  C8_15 
REMARK    9  A    between atoms: C10_18  and  C11_19 
REMARK   10  A    between atoms: C11_19  and  O4_20 
REMARK   11  A    between atoms: C15_25  and  O5_26 
REMARK   12  A    between atoms: C16_28  and  C17_29 
REMARK   13  A    between atoms: C21_34  and  O7_35 
ROOT
HETATM    1  C6  UNL     1       1.710   0.363  -1.481  1.00  0.00     0.180 C 
ENDROOT
BRANCH   1   2
HETATM    2  O2  UNL     1       3.011   0.040  -1.086  1.00  0.00    -0.334 OA
BRANCH   2   3
HETATM    3  C5  UNL     1       3.413  -1.311  -1.157  1.00  0.00     0.169 C 
HETATM    4  N1  UNL     1       2.904  -2.062  -2.028  1.00  0.00    -0.286 N 
ATOM      5  H1  UNL     1       2.219  -1.595  -2.623  1.00  0.00     0.188 HD
BRANCH   3   6
HETATM    6  C4  UNL     1       4.410  -1.745  -0.194  1.00  0.00     0.052 A 
HETATM    7  C3  UNL     1       5.019  -0.970   0.796  1.00  0.00     0.040 A 
HETATM    8  C21 UNL     1       5.889  -1.785   1.467  1.00  0.00     0.192 A 
HETATM    9  O6  UNL     1       5.838  -2.982   0.947  1.00  0.00    -0.299 OA
HETATM   10  C20 UNL     1       4.955  -2.996  -0.059  1.00  0.00     0.161 A 
BRANCH   7  11
HETATM   11  C2  UNL     1       4.721   0.456   1.008  1.00  0.00     0.211 C 
BRANCH  11  12
HETATM   12  O1  UNL     1       5.516   0.901   2.081  1.00  0.00    -0.391 OA
HETATM   13  C1  UNL     1       5.231   2.254   2.280  1.00  0.00     0.201 C 
ENDBRANCH  11  12
ENDBRANCH   7  11
BRANCH   8  14
HETATM   14  O7  UNL     1       6.683  -1.343   2.538  1.00  0.00    -0.340 OA
ATOM     15  H7  UNL     1       7.287  -1.909   3.004  1.00  0.00     0.220 HD
ENDBRANCH   8  14
ENDBRANCH   3   6
BRANCH   4  16
HETATM   16  N2  UNL     1       3.087  -3.366  -2.330  1.00  0.00    -0.343 N 
ATOM     17  H22 UNL     1       3.775  -3.813  -1.724  1.00  0.00     0.176 HD
ATOM     18  H21 UNL     1       2.674  -3.975  -3.036  1.00  0.00     0.176 HD
ENDBRANCH   4  16
ENDBRANCH   2   3
ENDBRANCH   1   2
BRANCH   1  19
HETATM   19  C7  UNL     1       0.684  -0.343  -0.630  1.00  0.00     0.059 C 
BRANCH  19  20
HETATM   20  C8  UNL     1      -0.716   0.021  -1.074  1.00  0.00     0.135 C 
HETATM   21  O3  UNL     1      -0.977   1.387  -0.982  1.00  0.00    -0.349 OA
HETATM   22  C9  UNL     1      -2.304   1.605  -0.654  1.00  0.00     0.050 C 
HETATM   23  C10 UNL     1      -2.841   2.796  -0.480  1.00  0.00     0.031 C 
HETATM   24  C12 UNL     1      -3.001   0.272  -0.536  1.00  0.00     0.056 C 
HETATM   25  C13 UNL     1      -1.773  -0.605  -0.238  1.00  0.00     0.028 C 
HETATM   26  C16 UNL     1      -3.836   0.166   0.696  1.00  0.00     0.028 C 
HETATM   27  C14 UNL     1      -1.610  -0.260   1.249  1.00  0.00     0.040 C 
HETATM   28  C15 UNL     1      -3.043  -0.590   1.702  1.00  0.00     0.123 C 
BRANCH  23  29
HETATM   29  C11 UNL     1      -2.004   4.003  -0.637  1.00  0.00     0.194 C 
BRANCH  29  30
HETATM   30  O4  UNL     1      -0.697   3.699  -0.963  1.00  0.00    -0.397 OA
ATOM     31  H4  UNL     1      -0.159   4.475  -1.064  1.00  0.00     0.209 HD
ENDBRANCH  29  30
ENDBRANCH  23  29
BRANCH  28  32
HETATM   32  O5  UNL     1      -3.121  -1.970   1.590  1.00  0.00    -0.395 OA
ATOM     33  H5  UNL     1      -4.006  -2.174   1.870  1.00  0.00     0.210 HD
ENDBRANCH  28  32
BRANCH  26  34
HETATM   34  C17 UNL     1      -5.220  -0.335   0.467  1.00  0.00    -0.015 C 
HETATM   35  C18 UNL     1      -5.314  -1.696  -0.134  1.00  0.00     0.010 C 
HETATM   36  C19 UNL     1      -6.056   0.599  -0.382  1.00  0.00     0.010 C 
ENDBRANCH  26  34
ENDBRANCH  19  20
ENDBRANCH   1  19
TORSDOF 13
