REMARK  11 active torsions:
REMARK  status: ('A' for Active; 'I' for Inactive)
REMARK    1  A    between atoms: C2_2  and  C3_3 
REMARK    2  A    between atoms: C3_3  and  C4_4 
REMARK    3  A    between atoms: C4_4  and  N1_5 
REMARK    4  A    between atoms: N1_5  and  C5_7 
REMARK    5  A    between atoms: C6_10  and  O1_11 
REMARK    6  A    between atoms: O1_11  and  C7_12 
REMARK    7  A    between atoms: C9_14  and  O2_15 
REMARK    8  A    between atoms: O2_15  and  C10_16 
REMARK    9  A    between atoms: C10_16  and  C11_17 
REMARK   10  A    between atoms: C11_17  and  O3_18 
REMARK   11  A    between atoms: C21_32  and  N4_33 
ROOT
HETATM    1  O1  UNL     1       0.373  -1.236  -0.261  1.00  0.00    -0.315 OA
ENDROOT
BRANCH   1   2
HETATM    2  C6  UNL     1      -0.717  -0.652  -0.939  1.00  0.00     0.252 A 
HETATM    3  N2  UNL     1      -1.859  -0.362  -0.294  1.00  0.00    -0.154 N 
HETATM    4  C5  UNL     1      -2.907   0.198  -0.940  1.00  0.00     0.695 A 
ATOM      5  H2  UNL     1      -1.937  -0.568   0.702  1.00  0.00     0.188 HD
HETATM    6  N5  UNL     1      -2.832   0.479  -2.250  1.00  0.00    -0.022 N 
HETATM    7  C21 UNL     1      -1.697   0.195  -2.909  1.00  0.00     0.693 A 
ATOM      8  H5  UNL     1      -3.623   0.901  -2.737  1.00  0.00     0.203 HD
HETATM    9  N3  UNL     1      -0.649  -0.368  -2.247  1.00  0.00    -0.154 N 
ATOM     10  H3  UNL     1       0.208  -0.579  -2.758  1.00  0.00     0.188 HD
BRANCH   4  11
HETATM   11  N1  UNL     1      -4.012   0.475  -0.302  1.00  0.00    -0.225 N 
ATOM     12  H1  UNL     1      -4.088   0.268   0.694  1.00  0.00     0.177 HD
BRANCH  11  13
HETATM   13  C4  UNL     1      -5.129   1.074  -1.000  1.00  0.00     0.138 C 
BRANCH  13  14
HETATM   14  C3  UNL     1      -6.339   1.211  -0.134  1.00  0.00     0.020 C 
BRANCH  14  15
HETATM   15  C2  UNL     1      -6.044   2.072   1.053  1.00  0.00    -0.003 C 
HETATM   16  C1  UNL     1      -5.618   3.445   0.639  1.00  0.00     0.005 C 
ENDBRANCH  14  15
ENDBRANCH  13  14
ENDBRANCH  11  13
ENDBRANCH   4  11
BRANCH   7  17
HETATM   17  N4  UNL     1      -1.628   0.466  -4.164  1.00  0.00    -0.234 N 
ATOM     18  H42 UNL     1      -0.766   0.250  -4.665  1.00  0.00     0.174 HD
ATOM     19  H41 UNL     1      -2.413   0.888  -4.660  1.00  0.00     0.174 HD
ENDBRANCH   7  17
ENDBRANCH   1   2
BRANCH   1  20
HETATM   20  C7  UNL     1       0.333  -1.541   1.097  1.00  0.00     0.147 C 
HETATM   21  C8  UNL     1       1.356  -0.774   1.880  1.00  0.00     0.065 C 
HETATM   22  C9  UNL     1       2.780  -1.236   1.534  1.00  0.00     0.124 C 
HETATM   23  C16 UNL     1       2.833  -2.681   1.997  1.00  0.00     0.033 C 
HETATM   24  C17 UNL     1       1.850  -3.545   1.248  1.00  0.00     0.019 C 
HETATM   25  C18 UNL     1       0.471  -3.010   1.397  1.00  0.00     0.029 C 
HETATM   26  C19 UNL     1      -0.233  -3.353   2.689  1.00  0.00     0.181 C 
HETATM   27  C20 UNL     1      -0.618  -3.895   0.876  1.00  0.00     0.181 C 
HETATM   28  O4  UNL     1      -1.413  -3.519   1.947  1.00  0.00    -0.389 OA
BRANCH  22  29
HETATM   29  O2  UNL     1       3.005  -1.069   0.215  1.00  0.00    -0.383 OA
BRANCH  29  30
HETATM   30  C10 UNL     1       3.987  -0.261  -0.228  1.00  0.00     0.205 C 
BRANCH  30  31
HETATM   31  C11 UNL     1       3.929   1.187   0.099  1.00  0.00     0.079 C 
HETATM   32  C12 UNL     1       5.142   1.901  -0.527  1.00  0.00     0.040 C 
HETATM   33  C13 UNL     1       4.709   2.338  -1.887  1.00  0.00     0.003 C 
HETATM   34  C14 UNL     1       3.254   1.999  -2.048  1.00  0.00     0.003 C 
HETATM   35  C15 UNL     1       2.774   1.883  -0.620  1.00  0.00     0.040 C 
BRANCH  31  36
HETATM   36  O3  UNL     1       3.925   1.533   1.417  1.00  0.00    -0.388 OA
ATOM     37  H3  UNL     1       3.888   2.459   1.626  1.00  0.00     0.210 HD
ENDBRANCH  31  36
ENDBRANCH  30  31
ENDBRANCH  29  30
ENDBRANCH  22  29
ENDBRANCH   1  20
TORSDOF 11
