REMARK  14 active torsions:
REMARK  status: ('A' for Active; 'I' for Inactive)
REMARK    1  A    between atoms: C2_2  and  C3_3 
REMARK    2  A    between atoms: C3_3  and  C4_4 
REMARK    3  A    between atoms: C4_4  and  C5_5 
REMARK    4  A    between atoms: C5_5  and  O1_6 
REMARK    5  A    between atoms: O1_6  and  C6_7 
REMARK    6  A    between atoms: C7_9  and  N1_10 
REMARK    7  A    between atoms: C12_15  and  N2_16 
REMARK    8  A    between atoms: C13_21  and  C14_22 
REMARK    9  A    between atoms: C17_25  and  O4_26 
REMARK   10  A    between atoms: C19_29  and  C20_30 
REMARK   11  A    between atoms: C19_29  and  N3_33 
REMARK   12  A    between atoms: C20_30  and  O5_31 
REMARK   13  A    between atoms: N3_33  and  N4_35 
REMARK   14  A    between atoms: N4_35  and  N5_36 
ROOT
HETATM    1  C6  UNL     1      -1.820  -0.561  -0.410  1.00  0.00     0.294 C 
HETATM    2  O2  UNL     1      -0.409  -0.552  -0.810  1.00  0.00    -0.334 OA
HETATM    3  C7  UNL     1       0.288  -0.814   0.344  1.00  0.00     0.253 C 
HETATM    4  C17 UNL     1       0.109  -2.285   0.764  1.00  0.00     0.166 C 
HETATM    5  C18 UNL     1      -1.369  -2.405   1.096  1.00  0.00     0.076 C 
HETATM    6  C19 UNL     1      -2.094  -2.008  -0.211  1.00  0.00     0.132 C 
ENDROOT
BRANCH   3   7
HETATM    7  N1  UNL     1       1.705  -0.607   0.223  1.00  0.00    -0.162 NA
HETATM    8  C8  UNL     1       2.336  -1.391  -0.790  1.00  0.00     0.125 C 
HETATM    9  C9  UNL     1       3.319  -0.548  -1.512  1.00  0.00     0.027 C 
HETATM   10  C10 UNL     1       4.481  -0.011  -0.762  1.00  0.00    -0.021 A 
HETATM   11  C11 UNL     1       4.218  -0.315   0.656  1.00  0.00     0.081 C 
HETATM   12  C13 UNL     1       4.365   1.438  -0.235  1.00  0.00     0.028 A 
HETATM   13  C16 UNL     1       4.993   1.110  -1.473  1.00  0.00     0.026 A 
HETATM   14  C12 UNL     1       3.284   0.862   0.572  1.00  0.00     0.252 C 
HETATM   15  O3  UNL     1       2.064   0.685   0.062  1.00  0.00    -0.260 OA
BRANCH  14  16
HETATM   16  N2  UNL     1       3.149   1.433   1.923  1.00  0.00    -0.044 N 
ATOM     17  H23 UNL     1       2.854   0.744   2.615  1.00  0.00     0.278 HD
ATOM     18  H22 UNL     1       4.048   1.672   2.342  1.00  0.00     0.278 HD
ATOM     19  H21 UNL     1       2.516   2.231   1.866  1.00  0.00     0.278 HD
ENDBRANCH  14  16
BRANCH  12  20
HETATM   20  C14 UNL     1       5.408   2.040   0.673  1.00  0.00     0.011 C 
HETATM   21  C15 UNL     1       6.801   2.109   0.134  1.00  0.00     0.006 C 
ENDBRANCH  12  20
ENDBRANCH   3   7
BRANCH   4  22
HETATM   22  O4  UNL     1       0.935  -2.568   1.819  1.00  0.00    -0.392 OA
ATOM     23  H4  UNL     1       0.825  -3.475   2.078  1.00  0.00     0.210 HD
ENDBRANCH   4  22
BRANCH   1  24
HETATM   24  O1  UNL     1      -2.529  -0.060  -1.494  1.00  0.00    -0.358 OA
BRANCH  24  25
HETATM   25  C5  UNL     1      -2.956   1.222  -1.393  1.00  0.00     0.171 C 
BRANCH  25  26
HETATM   26  C4  UNL     1      -3.921   1.627  -0.358  1.00  0.00     0.026 C 
BRANCH  26  27
HETATM   27  C3  UNL     1      -5.285   1.028  -0.418  1.00  0.00     0.002 C 
BRANCH  27  28
HETATM   28  C2  UNL     1      -6.102   1.602   0.754  1.00  0.00    -0.004 C 
HETATM   29  C1  UNL     1      -6.176   3.095   0.613  1.00  0.00     0.005 C 
ENDBRANCH  27  28
ENDBRANCH  26  27
ENDBRANCH  25  26
ENDBRANCH  24  25
ENDBRANCH   1  24
BRANCH   6  30
HETATM   30  C20 UNL     1      -3.515  -2.428  -0.121  1.00  0.00     0.202 C 
BRANCH  30  31
HETATM   31  O5  UNL     1      -3.590  -3.782   0.087  1.00  0.00    -0.398 OA
ATOM     32  H5  UNL     1      -4.499  -4.051   0.145  1.00  0.00     0.209 HD
ENDBRANCH  30  31
ENDBRANCH   6  30
BRANCH   6  33
HETATM   33  N3  UNL     1      -1.427  -2.698  -1.334  1.00  0.00    -0.235 N 
ATOM     34  H3  UNL     1      -0.820  -2.202  -1.987  1.00  0.00     0.198 HD
BRANCH  33  35
HETATM   35  N4  UNL     1      -1.643  -3.895  -1.436  1.00  0.00    -0.248 NA
BRANCH  35  36
HETATM   36  N5  UNL     1      -1.480  -5.099  -1.613  1.00  0.00    -0.261 N 
ATOM     37  H52 UNL     1      -0.479  -5.036  -1.801  1.00  0.00     0.193 HD
ATOM     38  H51 UNL     1      -1.661  -6.099  -1.698  1.00  0.00     0.193 HD
ENDBRANCH  35  36
ENDBRANCH  33  35
ENDBRANCH   6  33
TORSDOF 14
