REMARK  13 active torsions:
REMARK  status: ('A' for Active; 'I' for Inactive)
REMARK    1  A    between atoms: O1_2  and  C2_3 
REMARK    2  A    between atoms: C4_5  and  N1_6 
REMARK       I    between atoms: N1_6  and  C5_8 
REMARK    3  A    between atoms: C5_8  and  C6_10 
REMARK    4  A    between atoms: C6_10  and  C7_11 
REMARK    5  A    between atoms: C7_11  and  C8_12 
REMARK    6  A    between atoms: C12_16  and  O3_17 
REMARK    7  A    between atoms: C12_16  and  C13_19 
REMARK    8  A    between atoms: C13_19  and  O4_20 
REMARK    9  A    between atoms: C14_22  and  O5_23 
REMARK   10  A    between atoms: C15_25  and  O6_26 
REMARK   11  A    between atoms: O6_26  and  C16_27 
REMARK   12  A    between atoms: C20_32  and  N2_33 
REMARK   13  A    between atoms: N2_33  and  N3_35 
ROOT
HETATM    1  C2  UNL     1      -0.182   0.573  -0.551  1.00  0.00     0.105 C 
HETATM    2  C3  UNL     1      -0.602   1.925  -1.113  1.00  0.00     0.051 C 
HETATM    3  C4  UNL     1       0.817  -0.047  -1.619  1.00  0.00     0.124 C 
HETATM    4  C11 UNL     1       0.175  -0.052  -2.947  1.00  0.00     0.071 C 
HETATM    5  C12 UNL     1      -1.004  -0.995  -2.941  1.00  0.00     0.109 C 
HETATM    6  C14 UNL     1      -1.789  -1.025  -1.721  1.00  0.00     0.186 C 
HETATM    7  C15 UNL     1      -1.242  -0.425  -0.440  1.00  0.00     0.192 C 
ENDROOT
BRANCH   7   8
HETATM    8  O6  UNL     1      -2.312   0.085   0.303  1.00  0.00    -0.348 OA
BRANCH   8   9
HETATM    9  C16 UNL     1      -2.700  -0.676   1.375  1.00  0.00     0.288 C 
HETATM   10  O7  UNL     1      -4.012  -1.167   1.072  1.00  0.00    -0.346 OA
HETATM   11  C17 UNL     1      -4.594  -0.131   1.799  1.00  0.00     0.083 C 
HETATM   12  C18 UNL     1      -4.907   1.118   1.032  1.00  0.00     0.048 C 
HETATM   13  C19 UNL     1      -5.755  -0.618   2.607  1.00  0.00     0.048 C 
HETATM   14  C20 UNL     1      -3.274  -0.077   2.582  1.00  0.00     0.189 C 
BRANCH  14  15
HETATM   15  N2  UNL     1      -3.367  -0.963   3.718  1.00  0.00    -0.310 N 
ATOM     16  H2  UNL     1      -3.910  -0.660   4.526  1.00  0.00     0.182 HD
BRANCH  15  17
HETATM   17  N3  UNL     1      -2.819  -2.075   3.760  1.00  0.00    -0.253 N 
HETATM   18  N4  UNL     1      -1.951  -2.922   3.994  1.00  0.00    -0.331 N 
ATOM     19  H42 UNL     1      -1.263  -2.298   4.417  1.00  0.00     0.178 HD
ATOM     20  H41 UNL     1      -1.500  -3.836   4.029  1.00  0.00     0.178 HD
ATOM     21  H3  UNL     1      -3.539  -2.656   3.331  1.00  0.00     0.207 HD
ENDBRANCH  15  17
ENDBRANCH  14  15
ENDBRANCH   8   9
ENDBRANCH   7   8
BRANCH   1  22
HETATM   22  O1  UNL     1       0.628   0.697   0.525  1.00  0.00    -0.381 OA
HETATM   23  C1  UNL     1       0.344   1.404   1.612  1.00  0.00     0.202 C 
ENDBRANCH   1  22
BRANCH   6  24
HETATM   24  O5  UNL     1      -2.994  -0.316  -1.973  1.00  0.00    -0.390 OA
ATOM     25  H5  UNL     1      -3.508  -0.336  -1.174  1.00  0.00     0.210 HD
ENDBRANCH   6  24
BRANCH   3  26
HETATM   26  N1  UNL     1       2.039   0.644  -1.477  1.00  0.00    -0.353 N 
HETATM   27  C5  UNL     1       3.254   0.063  -0.987  1.00  0.00     0.217 C 
HETATM   28  O2  UNL     1       3.310  -1.140  -0.645  1.00  0.00    -0.274 OA
ATOM     29  H1  UNL     1       2.059   1.629  -1.742  1.00  0.00     0.163 HD
BRANCH  27  30
HETATM   30  C6  UNL     1       4.453   0.893  -0.885  1.00  0.00     0.103 C 
BRANCH  30  31
HETATM   31  C7  UNL     1       5.561   0.504  -0.009  1.00  0.00     0.013 C 
BRANCH  31  32
HETATM   32  C8  UNL     1       5.436   0.517   1.452  1.00  0.00    -0.022 C 
HETATM   33  C9  UNL     1       4.406  -0.337   2.060  1.00  0.00     0.009 C 
HETATM   34  C10 UNL     1       5.294   1.945   2.004  1.00  0.00     0.009 C 
ENDBRANCH  31  32
ENDBRANCH  30  31
ENDBRANCH  27  30
ENDBRANCH   3  26
BRANCH   5  35
HETATM   35  O3  UNL     1      -1.838  -0.789  -4.065  1.00  0.00    -0.385 OA
ATOM     36  H3  UNL     1      -2.580  -1.382  -4.061  1.00  0.00     0.210 HD
ENDBRANCH   5  35
BRANCH   5  37
HETATM   37  C13 UNL     1      -0.421  -2.401  -3.186  1.00  0.00     0.204 C 
BRANCH  37  38
HETATM   38  O4  UNL     1      -1.443  -3.342  -3.259  1.00  0.00    -0.398 OA
ATOM     39  H4  UNL     1      -1.084  -4.208  -3.410  1.00  0.00     0.209 HD
ENDBRANCH  37  38
ENDBRANCH   5  37
TORSDOF 13
