REMARK  12 active torsions:
REMARK  status: ('A' for Active; 'I' for Inactive)
REMARK    1  A    between atoms: C2_2  and  O1_3 
REMARK    2  A    between atoms: O1_3  and  C3_4 
REMARK    3  A    between atoms: C3_4  and  C4_6 
REMARK    4  A    between atoms: C4_6  and  C5_7 
REMARK    5  A    between atoms: C4_6  and  C20_29 
REMARK    6  A    between atoms: C5_7  and  C6_8 
REMARK    7  A    between atoms: C7_10  and  C8_11 
REMARK    8  A    between atoms: C15_18  and  C16_19 
REMARK    9  A    between atoms: C18_23  and  O6_24 
REMARK   10  A    between atoms: C18_23  and  C19_26 
REMARK   11  A    between atoms: C20_29  and  O9_30 
REMARK   12  A    between atoms: C20_29  and  C21_32 
ROOT
HETATM    1  C6  UNL     1      -0.302   0.616   0.050  1.00  0.00     0.127 C 
HETATM    2  O3  UNL     1      -0.499   0.232  -1.243  1.00  0.00    -0.379 OA
HETATM    3  C7  UNL     1      -1.928   0.095  -1.285  1.00  0.00     0.137 C 
HETATM    4  C12 UNL     1      -2.332  -0.471   0.036  1.00  0.00     0.067 C 
HETATM    5  C13 UNL     1      -0.997  -0.539   0.752  1.00  0.00     0.025 C 
HETATM    6  C14 UNL     1      -1.031  -0.430   2.212  1.00  0.00     0.023 C 
HETATM    7  C15 UNL     1      -1.876   0.775   2.630  1.00  0.00     0.090 C 
HETATM    8  C17 UNL     1      -3.277   0.386   2.231  1.00  0.00     0.065 C 
HETATM    9  C18 UNL     1      -3.348   0.360   0.716  1.00  0.00     0.152 C 
ENDROOT
BRANCH   1  10
HETATM   10  C5  UNL     1       1.009   0.954   0.558  1.00  0.00     0.049 C 
BRANCH  10  11
HETATM   11  C4  UNL     1       2.137   0.017   0.597  1.00  0.00     0.116 C 
BRANCH  11  12
HETATM   12  C3  UNL     1       3.334   0.743   1.221  1.00  0.00     0.265 C 
HETATM   13  O2  UNL     1       3.158   1.929   1.551  1.00  0.00    -0.265 OA
BRANCH  12  14
HETATM   14  O1  UNL     1       4.538   0.118   1.407  1.00  0.00    -0.321 OA
BRANCH  14  15
HETATM   15  C2  UNL     1       5.666   0.762   1.983  1.00  0.00     0.174 C 
HETATM   16  C1  UNL     1       6.786  -0.264   2.013  1.00  0.00     0.034 C 
ENDBRANCH  14  15
ENDBRANCH  12  14
ENDBRANCH  11  12
BRANCH  11  17
HETATM   17  C20 UNL     1       2.668  -0.538  -0.673  1.00  0.00     0.131 C 
BRANCH  17  18
HETATM   18  O9  UNL     1       1.765  -1.260  -1.385  1.00  0.00    -0.395 OA
ATOM     19  H9  UNL     1       2.105  -1.615  -2.198  1.00  0.00     0.210 HD
ENDBRANCH  17  18
BRANCH  17  20
HETATM   20  C21 UNL     1       3.339   0.517  -1.539  1.00  0.00     0.028 C 
HETATM   21  C22 UNL     1       3.839  -0.167  -2.803  1.00  0.00     0.007 C 
ENDBRANCH  17  20
ENDBRANCH  11  17
ENDBRANCH  10  11
ENDBRANCH   1  10
BRANCH   3  22
HETATM   22  C8  UNL     1      -2.251  -0.689  -2.502  1.00  0.00    -0.025 C 
HETATM   23  C9  UNL     1      -3.724  -0.914  -2.712  1.00  0.00     0.017 C 
HETATM   24  C10 UNL     1      -1.554  -2.022  -2.591  1.00  0.00     0.017 C 
HETATM   25  C11 UNL     1      -1.775   0.124  -3.709  1.00  0.00     0.017 C 
ENDBRANCH   3  22
BRANCH   9  26
HETATM   26  O6  UNL     1      -3.393   1.699   0.312  1.00  0.00    -0.378 OA
ATOM     27  H6  UNL     1      -4.046   2.233   0.749  1.00  0.00     0.211 HD
ENDBRANCH   9  26
BRANCH   9  28
HETATM   28  C19 UNL     1      -4.745  -0.170   0.466  1.00  0.00     0.209 C 
HETATM   29  O7  UNL     1      -5.659   0.553   0.002  1.00  0.00    -0.646 OA
HETATM   30  O8  UNL     1      -5.049  -1.492   0.751  1.00  0.00    -0.646 OA
ENDBRANCH   9  28
BRANCH   7  31
HETATM   31  C16 UNL     1      -1.817   0.958   4.090  1.00  0.00     0.177 C 
HETATM   32  O4  UNL     1      -1.136   0.167   4.777  1.00  0.00    -0.648 OA
HETATM   33  O5  UNL     1      -2.496   1.983   4.706  1.00  0.00    -0.648 OA
ENDBRANCH   7  31
TORSDOF 12
