REMARK  11 active torsions:
REMARK  status: ('A' for Active; 'I' for Inactive)
REMARK    1  A    between atoms: C2_2  and  C3_3 
REMARK    2  A    between atoms: C2_2  and  N1_6 
REMARK    3  A    between atoms: C3_3  and  O1_4 
REMARK       I    between atoms: N1_6  and  C4_8 
REMARK    4  A    between atoms: C4_8  and  C5_10 
REMARK    5  A    between atoms: C5_10  and  C6_11 
REMARK    6  A    between atoms: C5_10  and  N4_27 
REMARK    7  A    between atoms: C6_11  and  N2_12 
REMARK    8  A    between atoms: C7_13  and  O3_14 
REMARK    9  A    between atoms: N4_27  and  C17_29 
REMARK   10  A    between atoms: C17_29  and  C18_30 
REMARK   11  A    between atoms: C18_30  and  N5_31 
ROOT
HETATM    1  C5  UNL     1       1.096   1.997  -0.762  1.00  0.00     0.188 C 
ENDROOT
BRANCH   1   2
HETATM    2  C4  UNL     1       2.030   2.988  -1.404  1.00  0.00     0.242 C 
HETATM    3  N1  UNL     1       1.550   3.807  -2.455  1.00  0.00    -0.353 N 
ATOM      4  H1  UNL     1       0.585   3.734  -2.778  1.00  0.00     0.163 HD
HETATM    5  O2  UNL     1       3.187   3.082  -1.017  1.00  0.00    -0.271 OA
BRANCH   3   6
HETATM    6  C2  UNL     1       2.485   4.769  -3.069  1.00  0.00     0.104 C 
HETATM    7  C1  UNL     1       2.481   4.555  -4.556  1.00  0.00     0.034 C 
BRANCH   6   8
HETATM    8  C3  UNL     1       1.976   6.162  -2.747  1.00  0.00     0.189 C 
BRANCH   8   9
HETATM    9  O1  UNL     1       0.708   6.333  -3.261  1.00  0.00    -0.399 OA
ATOM     10  H1  UNL     1       0.389   7.205  -3.059  1.00  0.00     0.209 HD
ENDBRANCH   8   9
ENDBRANCH   6   8
ENDBRANCH   3   6
ENDBRANCH   1   2
BRANCH   1  11
HETATM   11  C6  UNL     1       0.350   1.321  -1.839  1.00  0.00     0.170 C 
BRANCH  11  12
HETATM   12  N2  UNL     1      -0.622   0.374  -1.322  1.00  0.00    -0.276 N 
HETATM   13  C7  UNL     1      -1.866   0.729  -0.850  1.00  0.00     0.169 A 
HETATM   14  C8  UNL     1      -2.587  -0.396  -0.498  1.00  0.00     0.067 A 
HETATM   15  N3  UNL     1      -1.825  -1.428  -0.739  1.00  0.00    -0.299 N 
HETATM   16  C16 UNL     1      -3.971  -0.358   0.047  1.00  0.00     0.062 C 
HETATM   17  C9  UNL     1      -0.642  -0.950  -1.237  1.00  0.00     0.331 A 
HETATM   18  C10 UNL     1      -2.140  -2.832  -0.533  1.00  0.00     0.134 C 
HETATM   19  O4  UNL     1       0.350  -1.676  -1.593  1.00  0.00    -0.246 OA
HETATM   20  C11 UNL     1      -2.500  -3.203   0.866  1.00  0.00     0.020 C 
HETATM   21  C12 UNL     1      -3.684  -4.148   0.903  1.00  0.00     0.002 C 
HETATM   22  C13 UNL     1      -4.857  -3.715   0.086  1.00  0.00     0.000 C 
HETATM   23  C14 UNL     1      -5.341  -2.337   0.418  1.00  0.00     0.000 C 
HETATM   24  C15 UNL     1      -4.940  -1.286  -0.600  1.00  0.00     0.006 C 
BRANCH  13  25
HETATM   25  O3  UNL     1      -2.246   2.085  -0.780  1.00  0.00    -0.344 OA
ATOM     26  H3  UNL     1      -3.104   2.330  -0.454  1.00  0.00     0.219 HD
ENDBRANCH  13  25
ENDBRANCH  11  12
ENDBRANCH   1  11
BRANCH   1  27
HETATM   27  N4  UNL     1       1.689   1.270   0.263  1.00  0.00    -0.406 N 
ATOM     28  H4  UNL     1       1.294   1.364   1.199  1.00  0.00     0.154 HD
BRANCH  27  29
HETATM   29  C17 UNL     1       2.784   0.421   0.106  1.00  0.00     0.134 C 
BRANCH  29  30
HETATM   30  C18 UNL     1       3.322  -0.021   1.487  1.00  0.00     0.136 C 
BRANCH  30  31
HETATM   31  N5  UNL     1       2.315  -0.701   2.198  1.00  0.00    -0.411 N 
HETATM   32  C19 UNL     1       1.922  -1.987   1.736  1.00  0.00     0.117 C 
HETATM   33  C20 UNL     1       1.796  -2.996   2.871  1.00  0.00     0.019 C 
HETATM   34  C21 UNL     1       3.104  -2.986   3.625  1.00  0.00     0.003 C 
HETATM   35  C22 UNL     1       3.326  -1.623   4.232  1.00  0.00     0.019 C 
HETATM   36  C23 UNL     1       2.416  -0.579   3.638  1.00  0.00     0.117 C 
ENDBRANCH  30  31
ENDBRANCH  29  30
ENDBRANCH  27  29
ENDBRANCH   1  27
TORSDOF 11
