REMARK  9 active torsions:
REMARK  status: ('A' for Active; 'I' for Inactive)
REMARK    1  A    between atoms: C1_4  and  O1_5 
REMARK    2  A    between atoms: C1_4  and  C18_46 
REMARK    3  A    between atoms: O1_5  and  C2_6 
REMARK    4  A    between atoms: C2_6  and  C3_7 
REMARK    5  A    between atoms: C3_7  and  C4_8 
REMARK    6  A    between atoms: C4_8  and  C5_9 
REMARK       I    between atoms: C5_9  and  N2_11 
REMARK    7  A    between atoms: N3_14  and  C8_15 
REMARK    8  A    between atoms: C10_19  and  N5_20 
REMARK    9  A    between atoms: N6_22  and  C11_24 
ROOT
HETATM    1  C8  UNL     1      -1.675   1.147   1.711  1.00  0.00     0.722 A 
HETATM    2  N4  UNL     1      -2.932   0.880   1.568  1.00  0.00    -0.171 N 
ATOM      3  H4  UNL     1      -3.196   0.262   0.801  1.00  0.00     0.186 HD
HETATM    4  C9  UNL     1      -3.973   1.378   2.394  1.00  0.00     0.163 A 
HETATM    5  C10 UNL     1      -5.271   1.170   2.335  1.00  0.00     0.072 A 
HETATM    6  C15 UNL     1      -5.954   1.900   3.407  1.00  0.00     0.083 A 
HETATM    7  C16 UNL     1      -4.871   2.608   4.155  1.00  0.00     0.155 A 
HETATM    8  N9  UNL     1      -3.657   2.240   3.473  1.00  0.00    -0.165 N 
HETATM    9  C17 UNL     1      -2.270   2.579   3.688  1.00  0.00     0.694 A 
HETATM   10  N10 UNL     1      -1.955   3.362   4.663  1.00  0.00    -0.234 N 
ATOM     11 1H10 UNL     1      -0.975   3.601   4.815  1.00  0.00     0.174 HD
ATOM     12 2H10 UNL     1      -2.635   3.766   5.307  1.00  0.00     0.174 HD
HETATM   13  N11 UNL     1      -1.329   2.020   2.798  1.00  0.00    -0.020 N 
ATOM     14  H11 UNL     1      -0.345   2.249   2.934  1.00  0.00     0.203 HD
ENDROOT
BRANCH   1  15
HETATM   15  N3  UNL     1      -0.686   0.614   0.848  1.00  0.00    -0.053 N 
HETATM   16  C7  UNL     1      -0.841  -0.713   0.334  1.00  0.00     0.201 C 
HETATM   17  C6  UNL     1      -0.541  -0.625  -1.170  1.00  0.00     0.185 C 
HETATM   18  N2  UNL     1       0.750   0.028  -1.258  1.00  0.00    -0.191 N 
HETATM   19  C5  UNL     1       1.456  -0.030  -2.515  1.00  0.00     0.245 C 
HETATM   20  O6  UNL     1       1.262   0.662  -0.199  1.00  0.00    -0.083 OA
HETATM   21  O2  UNL     1       0.946  -0.634  -3.488  1.00  0.00    -0.271 OA
HETATM   22  O5  UNL     1       0.386   1.327   0.506  1.00  0.00    -0.071 OA
BRANCH  19  23
HETATM   23  C4  UNL     1       2.763   0.614  -2.667  1.00  0.00     0.107 C 
BRANCH  23  24
HETATM   24  C3  UNL     1       3.466   0.140  -3.906  1.00  0.00     0.036 C 
BRANCH  24  25
HETATM   25  C2  UNL     1       3.778  -1.311  -3.901  1.00  0.00     0.178 C 
BRANCH  25  26
HETATM   26  O1  UNL     1       4.631  -1.625  -2.786  1.00  0.00    -0.335 OA
BRANCH  26  27
HETATM   27  C1  UNL     1       5.879  -1.037  -2.642  1.00  0.00     0.146 C 
HETATM   28  N1  UNL     1       6.515  -0.735  -3.701  1.00  0.00    -0.379 N 
ATOM     29  H12 UNL     1       6.154  -0.903  -4.640  1.00  0.00     0.158 HD
ATOM     30  H11 UNL     1       7.433  -0.303  -3.595  1.00  0.00     0.158 HD
BRANCH  27  31
HETATM   31  C18 UNL     1       6.402  -0.794  -1.281  1.00  0.00     0.020 A 
HETATM   32  C19 UNL     1       7.633  -0.213  -1.065  1.00  0.00     0.061 A 
HETATM   33  C20 UNL     1       8.085  -0.003   0.242  1.00  0.00     0.153 A 
HETATM   34  F1  UNL     1       9.305   0.572   0.427  1.00  0.00    -0.203 F 
HETATM   35  C21 UNL     1       7.320  -0.367   1.326  1.00  0.00     0.143 A 
HETATM   36  C22 UNL     1       6.083  -0.950   1.128  1.00  0.00     0.109 A 
HETATM   37  O8  UNL     1       7.569  -0.253   2.690  1.00  0.00    -0.320 OA
HETATM   38  C23 UNL     1       5.672  -1.141  -0.168  1.00  0.00     0.055 A 
HETATM   39  O7  UNL     1       5.570  -1.196   2.394  1.00  0.00    -0.323 OA
HETATM   40  C24 UNL     1       6.345  -0.493   3.374  1.00  0.00     0.352 C 
ENDBRANCH  27  31
ENDBRANCH  26  27
ENDBRANCH  25  26
ENDBRANCH  24  25
ENDBRANCH  23  24
ENDBRANCH  19  23
ENDBRANCH   1  15
BRANCH   5  41
HETATM   41  N5  UNL     1      -5.986   0.354   1.382  1.00  0.00    -0.299 N 
HETATM   42  N6  UNL     1      -5.473   0.039   0.267  1.00  0.00    -0.284 N 
ATOM     43  H6  UNL     1      -4.538   0.352   0.006  1.00  0.00     0.188 HD
ATOM     44  H5  UNL     1      -6.924   0.024   1.611  1.00  0.00     0.186 HD
BRANCH  42  45
HETATM   45  C11 UNL     1      -6.249  -0.764  -0.601  1.00  0.00     0.151 A 
HETATM   46  N7  UNL     1      -7.115  -0.202  -1.456  1.00  0.00    -0.292 N 
HETATM   47  C12 UNL     1      -7.863  -0.973  -2.295  1.00  0.00     0.328 A 
ATOM     48  H7  UNL     1      -7.215   0.813  -1.479  1.00  0.00     0.172 HD
HETATM   49  O3  UNL     1      -8.668  -0.411  -3.086  1.00  0.00    -0.247 OA
HETATM   50  N8  UNL     1      -7.711  -2.305  -2.243  1.00  0.00    -0.274 N 
HETATM   51  C13 UNL     1      -6.852  -2.920  -1.399  1.00  0.00     0.275 A 
ATOM     52  H8  UNL     1      -8.271  -2.882  -2.871  1.00  0.00     0.173 HD
HETATM   53  O4  UNL     1      -6.718  -4.160  -1.359  1.00  0.00    -0.266 OA
HETATM   54  C14 UNL     1      -6.096  -2.131  -0.551  1.00  0.00     0.147 A 
HETATM   55 CL1  UNL     1      -4.951  -2.837   0.581  1.00  0.00    -0.074 Cl
ENDBRANCH  42  45
ENDBRANCH   5  41
TORSDOF 9
