REMARK  11 active torsions:
REMARK  status: ('A' for Active; 'I' for Inactive)
REMARK    1  A    between atoms: N1_1  and  C1_4 
REMARK    2  A    between atoms: C2_7  and  N3_8 
REMARK    3  A    between atoms: C3_11  and  C4_12 
REMARK    4  A    between atoms: C4_12  and  C5_14 
REMARK       I    between atoms: C5_14  and  N4_16 
REMARK    5  A    between atoms: N4_16  and  C6_18 
REMARK    6  A    between atoms: C8_22  and  C9_23 
REMARK    7  A    between atoms: C10_26  and  C11_27 
REMARK    8  A    between atoms: C11_27  and  S1_28 
REMARK    9  A    between atoms: S1_28  and  C12_29 
REMARK   10  A    between atoms: N6_34  and  N7_35 
REMARK   11  A    between atoms: C16_38  and  O9_39 
ROOT
HETATM    1  C6  UNL     1       2.905   1.804   1.091  1.00  0.00     0.211 C 
HETATM    2  C7  UNL     1       2.157   1.795   2.379  1.00  0.00     0.251 C 
HETATM    3  O5  UNL     1       2.552   1.811   3.586  1.00  0.00    -0.271 OA
HETATM    4  N5  UNL     1       0.962   1.763   1.628  1.00  0.00    -0.293 N 
HETATM    5  C8  UNL     1      -0.454   1.468   1.661  1.00  0.00     0.119 C 
HETATM    6  C10 UNL     1      -0.964   0.660   0.749  1.00  0.00    -0.027 C 
HETATM    7  C19 UNL     1      -0.052   0.011  -0.280  1.00  0.00     0.113 C 
HETATM    8  S2  UNL     1       1.030   1.286  -0.957  1.00  0.00    -0.136 SA
HETATM    9  C20 UNL     1       1.621   2.229   0.434  1.00  0.00     0.187 C 
ENDROOT
BRANCH   6  10
HETATM   10  C11 UNL     1      -2.368   0.305   0.691  1.00  0.00     0.117 C 
BRANCH  10  11
HETATM   11  S1  UNL     1      -3.141   0.831  -0.884  1.00  0.00    -0.120 SA
BRANCH  11  12
HETATM   12  C12 UNL     1      -4.851   0.329  -0.806  1.00  0.00     0.069 A 
HETATM   13  C13 UNL     1      -5.224  -0.918  -1.261  1.00  0.00     0.078 A 
HETATM   14  C14 UNL     1      -6.567  -1.300  -1.195  1.00  0.00     0.052 A 
HETATM   15  C18 UNL     1      -4.513  -2.075  -1.859  1.00  0.00     0.387 C 
HETATM   16  C15 UNL     1      -7.526  -0.475  -0.692  1.00  0.00     0.277 A 
HETATM   17  C17 UNL     1      -6.590  -2.678  -1.765  1.00  0.00     0.220 C 
HETATM   18  O8  UNL     1      -8.743  -0.823  -0.633  1.00  0.00    -0.265 OA
HETATM   19  N6  UNL     1      -7.134   0.755  -0.247  1.00  0.00    -0.202 N 
HETATM   20  C16 UNL     1      -5.842   1.141  -0.303  1.00  0.00     0.182 A 
HETATM   21  O10 UNL     1      -5.496  -2.654  -2.651  1.00  0.00    -0.317 OA
HETATM   22  F1  UNL     1      -3.424  -1.670  -2.610  1.00  0.00    -0.170 F 
HETATM   23  F2  UNL     1      -4.139  -2.999  -0.900  1.00  0.00    -0.170 F 
BRANCH  19  24
HETATM   24  N7  UNL     1      -8.140   1.573   0.261  1.00  0.00    -0.334 N 
ATOM     25  H72 UNL     1      -9.116   1.281   0.303  1.00  0.00     0.177 HD
ATOM     26  H71 UNL     1      -7.847   2.492   0.593  1.00  0.00     0.177 HD
ENDBRANCH  19  24
BRANCH  20  27
HETATM   27  O9  UNL     1      -5.538   2.408   0.172  1.00  0.00    -0.344 OA
ATOM     28  H9  UNL     1      -6.222   2.968   0.519  1.00  0.00     0.219 HD
ENDBRANCH  20  27
ENDBRANCH  11  12
ENDBRANCH  10  11
ENDBRANCH   6  10
BRANCH   5  29
HETATM   29  C9  UNL     1      -1.206   2.089   2.739  1.00  0.00     0.227 C 
HETATM   30  O6  UNL     1      -2.419   1.936   2.902  1.00  0.00    -0.643 OA
HETATM   31  O7  UNL     1      -0.534   2.909   3.659  1.00  0.00    -0.643 OA
ENDBRANCH   5  29
BRANCH   1  32
HETATM   32  N4  UNL     1       3.501   0.581   0.682  1.00  0.00    -0.338 N 
HETATM   33  C5  UNL     1       4.858   0.445   0.331  1.00  0.00     0.294 C 
HETATM   34  O4  UNL     1       5.627   1.404   0.357  1.00  0.00    -0.264 OA
ATOM     35  H4  UNL     1       2.910  -0.249   0.640  1.00  0.00     0.163 HD
BRANCH  33  36
HETATM   36  C4  UNL     1       5.382  -0.881  -0.083  1.00  0.00     0.260 C 
HETATM   37  O3  UNL     1       4.633  -1.847  -0.116  1.00  0.00    -0.281 OA
BRANCH  36  38
HETATM   38  C3  UNL     1       6.795  -0.954  -0.435  1.00  0.00     0.114 A 
HETATM   39  C2  UNL     1       7.641  -1.936  -0.850  1.00  0.00     0.197 A 
HETATM   40  N2  UNL     1       8.901  -1.599  -1.076  1.00  0.00    -0.317 N 
HETATM   41  C1  UNL     1       9.288  -0.347  -0.895  1.00  0.00     0.144 A 
ATOM     42  H2  UNL     1       9.571  -2.302  -1.388  1.00  0.00     0.169 HD
HETATM   43  S3  UNL     1       7.876   0.420  -0.392  1.00  0.00    -0.046 SA
BRANCH  39  44
HETATM   44  N3  UNL     1       7.199  -3.304  -1.043  1.00  0.00    -0.096 N 
HETATM   45  O1  UNL     1       8.053  -4.154  -1.431  1.00  0.00    -0.530 OA
HETATM   46  O2  UNL     1       5.961  -3.767  -0.849  1.00  0.00    -0.530 OA
ENDBRANCH  39  44
BRANCH  41  47
HETATM   47  N1  UNL     1      10.505   0.144  -1.077  1.00  0.00    -0.380 N 
ATOM     48  H12 UNL     1      11.360  -0.321  -1.382  1.00  0.00     0.158 HD
ATOM     49  H11 UNL     1      10.803   1.109  -0.937  1.00  0.00     0.158 HD
ENDBRANCH  41  47
ENDBRANCH  36  38
ENDBRANCH  33  36
ENDBRANCH   1  32
TORSDOF 11
