REMARK  10 active torsions:
REMARK  status: ('A' for Active; 'I' for Inactive)
REMARK    1  A    between atoms: C4_5  and  S1_6 
REMARK    2  A    between atoms: C6_12  and  O4_13 
REMARK    3  A    between atoms: O4_13  and  C7_14 
REMARK    4  A    between atoms: C8_17  and  N3_18 
REMARK    5  A    between atoms: N3_18  and  N4_20 
REMARK    6  A    between atoms: N4_20  and  C9_22 
REMARK    7  A    between atoms: C12_25  and  S2_26 
REMARK    8  A    between atoms: S2_26  and  N5_29 
REMARK    9  A    between atoms: C17_41  and  S4_42 
REMARK   10  A    between atoms: S4_42  and  N8_43 
ROOT
HETATM    1  C9  UNL     1       0.756  -0.409   0.728  1.00  0.00     0.071 A 
HETATM    2  C10 UNL     1       1.286   0.547   1.567  1.00  0.00     0.034 A 
HETATM    3  C11 UNL     1       2.628   0.614   1.894  1.00  0.00     0.028 A 
HETATM    4  C12 UNL     1       3.465  -0.331   1.345  1.00  0.00     0.083 A 
HETATM    5  C16 UNL     1       2.930  -1.295   0.498  1.00  0.00     0.053 A 
HETATM    6  C17 UNL     1       1.592  -1.357   0.176  1.00  0.00     0.108 A 
ENDROOT
BRANCH   1   7
HETATM    7  N4  UNL     1      -0.615  -0.412   0.443  1.00  0.00    -0.299 N 
ATOM      8  H4  UNL     1      -1.084  -1.313   0.346  1.00  0.00     0.187 HD
BRANCH   7   9
HETATM    9  N3  UNL     1      -1.318   0.657   0.296  1.00  0.00    -0.297 N 
ATOM     10  H3  UNL     1      -0.916   1.591   0.378  1.00  0.00     0.187 HD
BRANCH   9  11
HETATM   11  C8  UNL     1      -2.697   0.442   0.011  1.00  0.00     0.091 A 
HETATM   12  C2  UNL     1      -3.221   0.862  -1.205  1.00  0.00    -0.005 A 
HETATM   13  C1  UNL     1      -2.336   1.535  -2.203  1.00  0.00     0.052 C 
HETATM   14  C3  UNL     1      -4.556   0.658  -1.488  1.00  0.00     0.081 A 
HETATM   15  N1  UNL     1      -5.070   1.105  -2.757  1.00  0.00    -0.100 NA
HETATM   16  C4  UNL     1      -5.383   0.038  -0.575  1.00  0.00     0.132 A 
HETATM   17  C5  UNL     1      -4.877  -0.387   0.641  1.00  0.00     0.108 A 
HETATM   18  N2  UNL     1      -5.680  -1.027   1.611  1.00  0.00    -0.098 NA
HETATM   19  C6  UNL     1      -3.523  -0.178   0.925  1.00  0.00     0.129 A 
BRANCH  16  20
HETATM   20  S1  UNL     1      -7.061  -0.216  -0.938  1.00  0.00     0.141 S 
HETATM   21  O1  UNL     1      -7.603  -1.460  -0.313  1.00  0.00    -0.591 OA
HETATM   22  O2  UNL     1      -7.252  -0.272  -2.437  1.00  0.00    -0.591 OA
HETATM   23  O3  UNL     1      -7.917   1.135  -0.400  1.00  0.00    -0.591 OA
ENDBRANCH  16  20
BRANCH  19  24
HETATM   24  O4  UNL     1      -2.969  -0.584   2.127  1.00  0.00    -0.286 OA
BRANCH  24  25
HETATM   25  C7  UNL     1      -2.935   0.269   3.270  1.00  0.00     0.505 C 
HETATM   26  F1  UNL     1      -1.661   0.409   3.767  1.00  0.00    -0.184 F 
HETATM   27  F2  UNL     1      -3.694  -0.302   4.298  1.00  0.00    -0.184 F 
ENDBRANCH  24  25
ENDBRANCH  19  24
ENDBRANCH   9  11
ENDBRANCH   7   9
ENDBRANCH   1   7
BRANCH   6  28
HETATM   28  S4  UNL     1       0.986  -2.607  -0.903  1.00  0.00     0.259 S 
HETATM   29  O9  UNL     1      -0.038  -3.465  -0.231  1.00  0.00    -0.201 OA
HETATM   30  O10 UNL     1       0.353  -2.002  -2.132  1.00  0.00    -0.201 OA
BRANCH  28  31
HETATM   31  N8  UNL     1       2.304  -3.606  -1.395  1.00  0.00    -0.324 N 
ATOM     32  H82 UNL     1       3.272  -3.479  -1.099  1.00  0.00     0.169 HD
ATOM     33  H81 UNL     1       1.953  -4.331  -2.021  1.00  0.00     0.169 HD
ENDBRANCH  28  31
ENDBRANCH   6  28
BRANCH   4  34
HETATM   34  S2  UNL     1       5.165  -0.357   1.665  1.00  0.00     0.285 S 
HETATM   35  O5  UNL     1       5.626  -1.796   1.741  1.00  0.00    -0.198 OA
HETATM   36  O6  UNL     1       5.469   0.242   3.029  1.00  0.00    -0.198 OA
BRANCH  34  37
HETATM   37  N5  UNL     1       6.061   0.477   0.456  1.00  0.00    -0.131 N 
HETATM   38  N6  UNL     1       6.952  -0.199  -0.264  1.00  0.00    -0.256 N 
HETATM   39  C13 UNL     1       7.674   0.403  -1.219  1.00  0.00     0.194 A 
ATOM     40  H6  UNL     1       7.088  -1.194  -0.086  1.00  0.00     0.191 HD
HETATM   41  S3  UNL     1       8.767  -0.479  -2.085  1.00  0.00    -0.039 SA
HETATM   42  N7  UNL     1       7.520   1.704  -1.479  1.00  0.00    -0.294 N 
HETATM   43  C14 UNL     1       6.640   2.436  -0.788  1.00  0.00     0.318 A 
ATOM     44  H7  UNL     1       8.079   2.143  -2.211  1.00  0.00     0.171 HD
HETATM   45  O7  UNL     1       6.454   3.673  -0.992  1.00  0.00    -0.262 OA
HETATM   46  C15 UNL     1       5.900   1.780   0.203  1.00  0.00     0.344 A 
HETATM   47  O8  UNL     1       5.063   2.446   0.869  1.00  0.00    -0.259 OA
ENDBRANCH  34  37
ENDBRANCH   4  34
TORSDOF 10
