REMARK  13 active torsions:
REMARK  status: ('A' for Active; 'I' for Inactive)
REMARK    1  A    between atoms: O1_2  and  C2_3 
REMARK    2  A    between atoms: C2_3  and  O2_4 
REMARK    3  A    between atoms: C2_3  and  C3_6 
REMARK    4  A    between atoms: C4_7  and  C5_8 
REMARK    5  A    between atoms: C8_17  and  S1_18 
REMARK    6  A    between atoms: S1_18  and  C9_19 
REMARK    7  A    between atoms: C9_19  and  C10_20 
REMARK    8  A    between atoms: C13_24  and  O5_25 
REMARK    9  A    between atoms: C14_27  and  C15_28 
REMARK   10  A    between atoms: N3_29  and  N4_31 
REMARK   11  A    between atoms: C16_36  and  S2_37 
REMARK   12  A    between atoms: C19_44  and  O9_45 
REMARK   13  A    between atoms: O9_45  and  C20_46 
ROOT
HETATM    1  C3  UNL     1      -3.173   1.345   0.349  1.00  0.00     0.064 C 
HETATM    2  C4  UNL     1      -2.422   2.194  -0.299  1.00  0.00     0.121 C 
HETATM    3  N1  UNL     1      -1.177   1.989  -1.113  1.00  0.00    -0.374 N 
ATOM      4  H1  UNL     1      -1.071   2.640  -1.891  1.00  0.00     0.160 HD
HETATM    5  C6  UNL     1      -0.122   1.048  -0.990  1.00  0.00     0.143 C 
HETATM    6  C7  UNL     1       1.218   1.620  -1.422  1.00  0.00     0.148 C 
HETATM    7  N2  UNL     1       1.970   0.492  -1.814  1.00  0.00    -0.384 N 
ATOM      8  H2  UNL     1       2.986   0.487  -1.899  1.00  0.00     0.160 HD
HETATM    9  C8  UNL     1       1.231  -0.522  -2.050  1.00  0.00     0.082 C 
HETATM   10  C16 UNL     1      -0.216  -0.179  -1.834  1.00  0.00     0.200 C 
HETATM   11  S3  UNL     1      -0.970  -1.543  -0.898  1.00  0.00    -0.127 SA
HETATM   12  C17 UNL     1      -2.732  -1.212  -0.623  1.00  0.00     0.117 C 
HETATM   13  C18 UNL     1      -2.968  -0.168   0.407  1.00  0.00    -0.009 C 
HETATM   14  C19 UNL     1      -2.979  -0.611   1.657  1.00  0.00     0.154 C 
ENDROOT
BRANCH   9  15
HETATM   15  S1  UNL     1       1.881  -2.108  -2.567  1.00  0.00    -0.108 SA
BRANCH  15  16
HETATM   16  C9  UNL     1       3.660  -2.117  -2.700  1.00  0.00     0.137 C 
BRANCH  16  17
HETATM   17  C10 UNL     1       4.374  -1.960  -1.409  1.00  0.00     0.022 A 
HETATM   18  C11 UNL     1       4.718  -3.040  -0.628  1.00  0.00     0.071 A 
HETATM   19  C12 UNL     1       5.385  -2.897   0.568  1.00  0.00     0.153 A 
HETATM   20  F1  UNL     1       5.738  -3.916   1.356  1.00  0.00    -0.203 F 
HETATM   21  C13 UNL     1       5.717  -1.609   0.995  1.00  0.00     0.133 A 
HETATM   22  C14 UNL     1       5.366  -0.549   0.206  1.00  0.00     0.086 A 
HETATM   23  N5  UNL     1       4.713  -0.747  -0.959  1.00  0.00    -0.355 N 
ATOM     24  H5  UNL     1       4.467   0.067  -1.522  1.00  0.00     0.166 HD
BRANCH  21  25
HETATM   25  O5  UNL     1       6.384  -1.422   2.187  1.00  0.00    -0.356 OA
ATOM     26  H5  UNL     1       6.610  -0.546   2.477  1.00  0.00     0.218 HD
ENDBRANCH  21  25
BRANCH  22  27
HETATM   27  C15 UNL     1       5.700   0.805   0.626  1.00  0.00     0.140 C 
HETATM   28  N3  UNL     1       6.319   1.014   1.726  1.00  0.00    -0.299 N 
ATOM     29  H3  UNL     1       6.569   0.205   2.294  1.00  0.00     0.187 HD
BRANCH  28  30
HETATM   30  N4  UNL     1       6.672   2.269   2.195  1.00  0.00    -0.242 N 
HETATM   31 CL1  UNL     1       7.079   2.610   3.828  1.00  0.00     0.028 Cl
ATOM     32  H4  UNL     1       6.691   3.040   1.527  1.00  0.00     0.202 HD
ENDBRANCH  28  30
ENDBRANCH  22  27
ENDBRANCH  16  17
ENDBRANCH  15  16
ENDBRANCH   9  15
BRANCH  10  33
HETATM   33  S2  UNL     1      -0.937   0.066  -3.413  1.00  0.00     0.130 S 
HETATM   34  O6  UNL     1      -0.089   1.089  -4.138  1.00  0.00    -0.594 OA
HETATM   35  O7  UNL     1      -0.880  -1.257  -4.148  1.00  0.00    -0.594 OA
HETATM   36  O8  UNL     1      -2.491   0.643  -3.376  1.00  0.00    -0.594 OA
ENDBRANCH  10  33
BRANCH   2  37
HETATM   37  C5  UNL     1      -2.764   3.557  -0.259  1.00  0.00     0.227 C 
HETATM   38  O3  UNL     1      -1.928   4.334  -0.955  1.00  0.00    -0.643 OA
HETATM   39  O4  UNL     1      -3.706   4.308   0.287  1.00  0.00    -0.643 OA
ENDBRANCH   2  37
BRANCH   1  40
HETATM   40  C2  UNL     1      -4.306   1.742   1.091  1.00  0.00     0.191 C 
BRANCH  40  41
HETATM   41  O1  UNL     1      -4.911   2.912   1.411  1.00  0.00    -0.335 OA
HETATM   42  C1  UNL     1      -6.112   2.943   2.235  1.00  0.00     0.212 C 
ENDBRANCH  40  41
BRANCH  40  43
HETATM   43  O2  UNL     1      -5.013   0.776   1.654  1.00  0.00    -0.340 OA
ATOM     44  H2  UNL     1      -4.589  -0.044   1.430  1.00  0.00     0.220 HD
ENDBRANCH  40  43
ENDBRANCH   1  40
BRANCH  14  45
HETATM   45  O9  UNL     1      -2.815  -1.940   1.946  1.00  0.00    -0.291 OA
BRANCH  45  46
HETATM   46  C20 UNL     1      -3.830  -2.823   2.087  1.00  0.00     0.259 C 
HETATM   47  C21 UNL     1      -3.496  -4.262   2.408  1.00  0.00     0.126 C 
HETATM   48  O10 UNL     1      -5.017  -2.517   1.967  1.00  0.00    -0.265 OA
ENDBRANCH  45  46
ENDBRANCH  14  45
TORSDOF 13
