REMARK  17 active torsions:
REMARK  status: ('A' for Active; 'I' for Inactive)
REMARK    1  A    between atoms: O1_2  and  C2_3 
REMARK    2  A    between atoms: C2_3  and  C3_5 
REMARK    3  A    between atoms: C3_5  and  N1_6 
REMARK    4  A    between atoms: C3_5  and  O4_34 
REMARK    5  A    between atoms: C3_5  and  C15_38 
REMARK    6  A    between atoms: N1_6  and  C4_8 
REMARK    7  A    between atoms: C4_8  and  O3_9 
REMARK    8  A    between atoms: C4_8  and  C5_11 
REMARK    9  A    between atoms: C5_11  and  N2_12 
REMARK   10  A    between atoms: C5_11  and  C10_25 
REMARK   11  A    between atoms: N2_12  and  N3_14 
REMARK   12  A    between atoms: N3_14  and  C6_16 
REMARK   13  A    between atoms: C12_28  and  N6_29 
REMARK   14  A    between atoms: O4_34  and  C13_35 
REMARK   15  A    between atoms: C17_43  and  O6_44 
REMARK   16  A    between atoms: C18_46  and  C19_48 
REMARK   17  A    between atoms: C19_48  and  O8_50 
ROOT
HETATM    1  C4  UNL     1       1.291   0.217   0.297  1.00  0.00     0.169 C 
ENDROOT
BRANCH   1   2
HETATM    2  N1  UNL     1      -0.089   0.222   0.076  1.00  0.00    -0.328 N 
ATOM      3  H1  UNL     1      -0.566   1.101  -0.124  1.00  0.00     0.165 HD
BRANCH   2   4
HETATM    4  C3  UNL     1      -0.852  -1.020   0.129  1.00  0.00     0.251 C 
BRANCH   4   5
HETATM    5  C2  UNL     1      -0.404  -1.973  -0.946  1.00  0.00     0.317 C 
HETATM    6  O2  UNL     1       0.458  -1.693  -1.817  1.00  0.00    -0.260 OA
BRANCH   5   7
HETATM    7  O1  UNL     1      -0.927  -3.258  -1.047  1.00  0.00    -0.323 OA
HETATM    8  C1  UNL     1      -0.516  -4.171  -2.054  1.00  0.00     0.213 C 
ENDBRANCH   5   7
ENDBRANCH   4   5
BRANCH   4   9
HETATM    9  O4  UNL     1      -0.531  -1.658   1.336  1.00  0.00    -0.278 OA
BRANCH   9  10
HETATM   10  C13 UNL     1      -0.712  -1.200   2.604  1.00  0.00     0.257 C 
HETATM   11  C14 UNL     1      -0.314  -2.019   3.799  1.00  0.00     0.126 C 
HETATM   12  O5  UNL     1      -1.218  -0.080   2.761  1.00  0.00    -0.266 OA
ENDBRANCH   9  10
ENDBRANCH   4   9
BRANCH   4  13
HETATM   13  C15 UNL     1      -2.318  -0.810   0.066  1.00  0.00     0.180 C 
HETATM   14  S2  UNL     1      -3.086  -2.454   0.287  1.00  0.00    -0.066 SA
HETATM   15  S3  UNL     1      -4.785  -2.970  -0.896  1.00  0.00    -0.005 SA
HETATM   16  N8  UNL     1      -4.838  -1.646  -2.182  1.00  0.00    -0.222 NA
HETATM   17  C16 UNL     1      -6.175  -1.177  -2.312  1.00  0.00     0.128 C 
HETATM   18  C17 UNL     1      -3.869  -0.831  -1.715  1.00  0.00     0.255 C 
HETATM   19  C18 UNL     1      -2.809  -0.071  -1.200  1.00  0.00     0.247 C 
HETATM   20  F1  UNL     1      -1.765   0.161  -2.082  1.00  0.00    -0.226 F 
BRANCH  18  21
HETATM   21  O6  UNL     1      -4.628  -0.629  -0.515  1.00  0.00    -0.376 OA
ATOM     22  H6  UNL     1      -3.946  -0.055  -0.186  1.00  0.00     0.211 HD
ENDBRANCH  18  21
BRANCH  19  23
HETATM   23  C19 UNL     1      -3.282   1.321  -0.833  1.00  0.00     0.304 C 
HETATM   24  O7  UNL     1      -3.346   1.727   0.353  1.00  0.00    -0.261 OA
BRANCH  23  25
HETATM   25  O8  UNL     1      -3.672   2.219  -1.806  1.00  0.00    -0.324 OA
HETATM   26  C20 UNL     1      -4.124   3.537  -1.494  1.00  0.00     0.213 C 
ENDBRANCH  23  25
ENDBRANCH  19  23
ENDBRANCH   4  13
ENDBRANCH   2   4
ENDBRANCH   1   2
BRANCH   1  27
HETATM   27  O3  UNL     1       1.781  -0.975   0.575  1.00  0.00    -0.344 OA
ATOM     28  H3  UNL     1       2.719  -0.978   0.725  1.00  0.00     0.219 HD
ENDBRANCH   1  27
BRANCH   1  29
HETATM   29  C5  UNL     1       2.286   1.219   0.280  1.00  0.00     0.126 C 
BRANCH  29  30
HETATM   30  N2  UNL     1       3.501   0.941   0.607  1.00  0.00    -0.293 N 
ATOM     31  H2  UNL     1       4.189   1.693   0.582  1.00  0.00     0.187 HD
BRANCH  30  32
HETATM   32  N3  UNL     1       3.919  -0.298   0.984  1.00  0.00    -0.284 N 
ATOM     33  H3  UNL     1       3.212  -0.984   1.248  1.00  0.00     0.188 HD
BRANCH  32  34
HETATM   34  C6  UNL     1       5.158  -0.654   1.026  1.00  0.00     0.134 A 
HETATM   35  C7  UNL     1       6.105   0.283   0.667  1.00  0.00     0.054 A 
HETATM   36  C8  UNL     1       7.447  -0.076   0.704  1.00  0.00     0.047 A 
HETATM   37  C9  UNL     1       7.812  -1.346   1.094  1.00  0.00     0.118 A 
HETATM   38 CL1  UNL     1       9.521  -1.807   1.143  1.00  0.00    -0.063 Cl
HETATM   39  N4  UNL     1       6.843  -2.212   1.432  1.00  0.00    -0.288 N 
HETATM   40  N5  UNL     1       5.548  -1.876   1.399  1.00  0.00    -0.283 N 
ATOM     41  H4  UNL     1       7.102  -3.155   1.723  1.00  0.00     0.188 HD
ATOM     42  H5  UNL     1       4.845  -2.566   1.664  1.00  0.00     0.188 HD
ENDBRANCH  32  34
ENDBRANCH  30  32
ENDBRANCH  29  30
BRANCH  29  43
HETATM   43  C10 UNL     1       2.058   2.661  -0.069  1.00  0.00     0.073 A 
HETATM   44  C11 UNL     1       0.984   3.057  -0.805  1.00  0.00     0.085 A 
HETATM   45  S1  UNL     1       1.153   4.783  -0.808  1.00  0.00    -0.064 SA
HETATM   46  C12 UNL     1       2.565   4.875   0.115  1.00  0.00     0.142 A 
HETATM   47  N7  UNL     1       2.850   3.613   0.388  1.00  0.00    -0.335 N 
ATOM     48  H7  UNL     1       3.672   3.378   0.945  1.00  0.00     0.168 HD
BRANCH  46  49
HETATM   49  N6  UNL     1       3.232   5.950   0.482  1.00  0.00    -0.380 N 
ATOM     50  H62 UNL     1       3.012   6.924   0.271  1.00  0.00     0.158 HD
ATOM     51  H61 UNL     1       4.085   6.006   1.039  1.00  0.00     0.158 HD
ENDBRANCH  46  49
ENDBRANCH  29  43
ENDBRANCH   1  29
TORSDOF 17
