REMARK  11 active torsions:
REMARK  status: ('A' for Active; 'I' for Inactive)
REMARK    1  A    between atoms: O1_2  and  N1_3 
REMARK    2  A    between atoms: C3_5  and  C4_6 
REMARK    3  A    between atoms: C4_6  and  O2_7 
REMARK    4  A    between atoms: O2_7  and  C5_8 
REMARK    5  A    between atoms: C5_8  and  C6_10 
REMARK    6  A    between atoms: C9_14  and  O4_15 
REMARK    7  A    between atoms: O4_15  and  C10_16 
REMARK    8  A    between atoms: C12_21  and  S1_22 
REMARK    9  A    between atoms: S1_22  and  N3_23 
REMARK   10  A    between atoms: C21_46  and  O8_47 
REMARK   11  A    between atoms: C21_46  and  C22_49 
ROOT
HETATM    1  C6  UNL     1      -0.415   1.570   0.637  1.00  0.00     0.071 A 
HETATM    2  C7  UNL     1      -0.926   2.628   1.354  1.00  0.00     0.065 A 
HETATM    3  C8  UNL     1      -2.249   2.642   1.785  1.00  0.00     0.153 A 
HETATM    4  F1  UNL     1      -2.674   3.724   2.487  1.00  0.00    -0.203 F 
HETATM    5  C9  UNL     1      -3.055   1.570   1.482  1.00  0.00     0.147 A 
HETATM    6  C13 UNL     1      -2.534   0.513   0.762  1.00  0.00     0.099 A 
HETATM    7  N4  UNL     1      -3.315  -0.541   0.461  1.00  0.00    -0.334 N 
ATOM      8  H4  UNL     1      -4.290  -0.567   0.760  1.00  0.00     0.168 HD
HETATM    9  C14 UNL     1      -2.788  -1.560  -0.241  1.00  0.00     0.162 A 
HETATM   10  C15 UNL     1      -1.476  -1.570  -0.667  1.00  0.00     0.147 A 
HETATM   11  N5  UNL     1      -0.676  -0.513  -0.369  1.00  0.00    -0.337 N 
ATOM     12  H5  UNL     1       0.299  -0.493  -0.669  1.00  0.00     0.167 HD
HETATM   13  C16 UNL     1      -1.204   0.507   0.333  1.00  0.00     0.080 A 
HETATM   14  N6  UNL     1      -0.687  -2.493  -1.402  1.00  0.00    -0.373 N 
ATOM     15  H6  UNL     1       0.138  -2.034  -1.787  1.00  0.00     0.161 HD
HETATM   16  C17 UNL     1      -0.709  -3.899  -1.767  1.00  0.00     0.122 C 
HETATM   17  C18 UNL     1      -1.860  -4.546  -0.986  1.00  0.00     0.037 C 
HETATM   18  C19 UNL     1      -3.166  -4.260  -1.671  1.00  0.00     0.136 C 
HETATM   19  N7  UNL     1      -4.127  -3.779  -0.716  1.00  0.00    -0.140 NA
HETATM   20  N8  UNL     1      -3.885  -2.456  -0.359  1.00  0.00    -0.286 N 
ATOM     21  H8  UNL     1      -4.756  -1.989  -0.106  1.00  0.00     0.184 HD
ENDROOT
BRANCH   1  22
HETATM   22  C5  UNL     1       0.990   1.577   0.191  1.00  0.00     0.295 C 
HETATM   23  O3  UNL     1       1.673   2.581   0.496  1.00  0.00    -0.259 OA
BRANCH  22  24
HETATM   24  O2  UNL     1       1.581   0.601  -0.507  1.00  0.00    -0.317 OA
BRANCH  24  25
HETATM   25  C4  UNL     1       2.800   0.333  -1.020  1.00  0.00     0.185 C 
BRANCH  25  26
HETATM   26  C3  UNL     1       3.984   0.065  -0.175  1.00  0.00     0.034 C 
HETATM   27  C2  UNL     1       4.431   1.132   0.765  1.00  0.00     0.161 C 
HETATM   28  N1  UNL     1       5.762   0.854   1.235  1.00  0.00    -0.270 N 
HETATM   29  C23 UNL     1       6.258  -0.430   0.959  1.00  0.00     0.138 C 
HETATM   30  C21 UNL     1       5.225  -1.501   1.230  1.00  0.00     0.180 C 
HETATM   31  C20 UNL     1       3.906  -1.272   0.549  1.00  0.00     0.063 C 
BRANCH  28  32
HETATM   32  O1  UNL     1       6.616   1.860   1.094  1.00  0.00    -0.284 OA
HETATM   33  C1  UNL     1       7.053   2.075  -0.194  1.00  0.00     0.237 C 
ENDBRANCH  28  32
BRANCH  30  34
HETATM   34  O8  UNL     1       5.728  -2.719   0.705  1.00  0.00    -0.374 OA
ATOM     35  H8  UNL     1       6.562  -2.864   1.136  1.00  0.00     0.211 HD
ENDBRANCH  30  34
BRANCH  30  36
HETATM   36  C22 UNL     1       5.068  -1.689   2.697  1.00  0.00     0.214 C 
HETATM   37  O9  UNL     1       4.650  -0.812   3.488  1.00  0.00    -0.645 OA
HETATM   38  O10 UNL     1       5.402  -2.913   3.244  1.00  0.00    -0.645 OA
ENDBRANCH  30  36
ENDBRANCH  25  26
ENDBRANCH  24  25
ENDBRANCH  22  24
ENDBRANCH   1  22
BRANCH   5  39
HETATM   39  O4  UNL     1      -4.367   1.597   1.916  1.00  0.00    -0.268 OA
BRANCH  39  40
HETATM   40  C10 UNL     1      -5.405   2.132   1.165  1.00  0.00     0.277 A 
HETATM   41  N2  UNL     1      -6.681   2.142   1.623  1.00  0.00    -0.303 N 
HETATM   42  C11 UNL     1      -7.436   2.711   0.694  1.00  0.00     0.154 A 
ATOM     43  H2  UNL     1      -7.002   1.778   2.520  1.00  0.00     0.171 HD
HETATM   44 CL1  UNL     1      -9.167   2.994   0.742  1.00  0.00    -0.060 Cl
HETATM   45  C12 UNL     1      -6.563   3.045  -0.346  1.00  0.00     0.232 A 
HETATM   46  O7  UNL     1      -5.359   2.677  -0.015  1.00  0.00    -0.256 OA
BRANCH  45  47
HETATM   47  S1  UNL     1      -7.041   3.824  -1.827  1.00  0.00     0.282 S 
HETATM   48  O5  UNL     1      -6.033   3.450  -2.888  1.00  0.00    -0.199 OA
HETATM   49  O6  UNL     1      -8.414   3.372  -2.188  1.00  0.00    -0.199 OA
BRANCH  47  50
HETATM   50  N3  UNL     1      -6.937   5.533  -1.617  1.00  0.00    -0.323 N 
ATOM     51  H32 UNL     1      -6.641   5.997  -0.758  1.00  0.00     0.169 HD
ATOM     52  H31 UNL     1      -7.217   5.990  -2.485  1.00  0.00     0.169 HD
ENDBRANCH  47  50
ENDBRANCH  45  47
ENDBRANCH  39  40
ENDBRANCH   5  39
TORSDOF 11
