REMARK  13 active torsions:
REMARK  status: ('A' for Active; 'I' for Inactive)
REMARK    1  A    between atoms: N1_1  and  C1_5 
REMARK    2  A    between atoms: C1_5  and  N2_6 
REMARK    3  A    between atoms: C1_5  and  C2_10 
REMARK    4  A    between atoms: C3_12  and  S2_13 
REMARK    5  A    between atoms: S2_13  and  C4_16 
REMARK    6  A    between atoms: C6_20  and  N4_21 
REMARK    7  A    between atoms: N4_21  and  C7_23 
REMARK    8  A    between atoms: C8_26  and  N6_27 
REMARK    9  A    between atoms: C11_30  and  N7_31 
REMARK   10  A    between atoms: N7_31  and  O3_32 
REMARK   11  A    between atoms: N7_31  and  C12_34 
REMARK   12  A    between atoms: C15_40  and  N9_41 
REMARK   13  A    between atoms: C21_53  and  O6_54 
ROOT
HETATM    1  N4  UNL     1       0.892  -1.081  -0.543  1.00  0.00    -0.021 N 
ATOM      2  H4  UNL     1       1.473  -1.818  -0.942  1.00  0.00     0.203 HD
ENDROOT
BRANCH   1   3
HETATM    3  C6  UNL     1       1.487   0.091  -0.021  1.00  0.00     0.697 A 
HETATM    4  N3  UNL     1       1.057   1.339  -0.261  1.00  0.00    -0.198 N 
HETATM    5  C5  UNL     1       1.859   2.215   0.399  1.00  0.00     0.149 A 
ATOM      6  H3  UNL     1       0.258   1.589  -0.844  1.00  0.00     0.183 HD
HETATM    7  C4  UNL     1       2.791   1.434   1.048  1.00  0.00     0.165 A 
HETATM    8  N11 UNL     1       2.571   0.137   0.796  1.00  0.00    -0.179 N 
ATOM      9  H11 UNL     1       3.109  -0.656   1.147  1.00  0.00     0.185 HD
BRANCH   7  10
HETATM   10  S2  UNL     1       4.074   2.052   2.045  1.00  0.00     0.232 S 
HETATM   11  O1  UNL     1       4.040   1.455   3.427  1.00  0.00    -0.215 OA
HETATM   12  O2  UNL     1       3.981   3.544   2.130  1.00  0.00    -0.215 OA
BRANCH  10  13
HETATM   13  C3  UNL     1       5.640   1.584   1.353  1.00  0.00     0.131 A 
HETATM   14  S1  UNL     1       6.597   2.433   0.228  1.00  0.00    -0.074 SA
HETATM   15  C2  UNL     1       7.893   1.346   0.088  1.00  0.00     0.076 A 
HETATM   16  C21 UNL     1       7.543   0.329   0.935  1.00  0.00     0.106 A 
HETATM   17  C20 UNL     1       6.371   0.455   1.593  1.00  0.00     0.097 A 
HETATM   18 CL1  UNL     1       5.752  -0.771   2.741  1.00  0.00    -0.079 Cl
BRANCH  15  19
HETATM   19  C1  UNL     1       9.121   1.478  -0.762  1.00  0.00     0.420 C 
BRANCH  19  20
HETATM   20  N1  UNL     1       8.797   1.917  -2.084  1.00  0.00    -0.046 N 
ATOM     21  H13 UNL     1       9.636   2.008  -2.657  1.00  0.00     0.277 HD
ATOM     22  H12 UNL     1       8.320   1.184  -2.608  1.00  0.00     0.277 HD
ATOM     23  H11 UNL     1       8.256   2.782  -2.085  1.00  0.00     0.277 HD
ENDBRANCH  19  20
BRANCH  19  24
HETATM   24  N2  UNL     1       9.878   0.269  -0.761  1.00  0.00    -0.046 N 
ATOM     25  H23 UNL     1       9.401  -0.464  -1.285  1.00  0.00     0.277 HD
ATOM     26  H22 UNL     1      10.717   0.360  -1.334  1.00  0.00     0.277 HD
ATOM     27  H21 UNL     1      10.109  -0.044   0.182  1.00  0.00     0.277 HD
ENDBRANCH  19  24
ENDBRANCH  15  19
BRANCH  16  28
HETATM   28  O6  UNL     1       8.411  -0.792   1.084  1.00  0.00    -0.358 OA
ATOM     29  H6  UNL     1       8.168  -1.498   1.672  1.00  0.00     0.217 HD
ENDBRANCH  16  28
ENDBRANCH  10  13
ENDBRANCH   7  10
ENDBRANCH   1   3
BRANCH   1  30
HETATM   30  C7  UNL     1      -0.380  -1.211  -0.511  1.00  0.00     0.726 A 
HETATM   31  N5  UNL     1      -1.191  -0.283  -0.004  1.00  0.00    -0.021 N 
HETATM   32  C8  UNL     1      -2.544  -0.465   0.001  1.00  0.00     0.709 A 
ATOM     33  H5  UNL     1      -0.796   0.573   0.385  1.00  0.00     0.203 HD
HETATM   34  N8  UNL     1      -2.991  -1.606  -0.523  1.00  0.00    -0.021 N 
HETATM   35  C15 UNL     1      -2.199  -2.585  -1.054  1.00  0.00     0.709 A 
ATOM     36  H8  UNL     1      -3.999  -1.760  -0.528  1.00  0.00     0.203 HD
HETATM   37  N10 UNL     1      -0.898  -2.363  -1.036  1.00  0.00    -0.021 N 
ATOM     38  H10 UNL     1      -0.266  -3.065  -1.421  1.00  0.00     0.203 HD
BRANCH  32  39
HETATM   39  N6  UNL     1      -3.392   0.530   0.546  1.00  0.00    -0.216 N 
HETATM   40  C9  UNL     1      -4.823   0.369   0.468  1.00  0.00     0.143 C 
HETATM   41  C10 UNL     1      -5.376   1.772   0.178  1.00  0.00     0.048 C 
HETATM   42  C11 UNL     1      -5.161   2.578   1.443  1.00  0.00     0.120 C 
HETATM   43  C13 UNL     1      -3.767   2.492   1.979  1.00  0.00     0.048 C 
HETATM   44  C14 UNL     1      -2.814   1.684   1.167  1.00  0.00     0.143 C 
BRANCH  42  45
HETATM   45  N7  UNL     1      -5.589   3.961   1.255  1.00  0.00    -0.231 N 
BRANCH  45  46
HETATM   46  O3  UNL     1      -6.637   4.452   1.954  1.00  0.00    -0.285 OA
ATOM     47  H3  UNL     1      -6.916   5.352   1.832  1.00  0.00     0.245 HD
ENDBRANCH  45  46
BRANCH  45  48
HETATM   48  C12 UNL     1      -4.932   4.831   0.346  1.00  0.00     0.377 C 
HETATM   49  O4  UNL     1      -5.314   6.015   0.200  1.00  0.00    -0.281 OA
ENDBRANCH  45  48
ENDBRANCH  42  45
ENDBRANCH  32  39
BRANCH  35  50
HETATM   50  N9  UNL     1      -2.800  -3.748  -1.593  1.00  0.00    -0.213 N 
HETATM   51  C16 UNL     1      -4.242  -3.785  -1.696  1.00  0.00     0.167 C 
HETATM   52  C17 UNL     1      -4.688  -5.170  -2.111  1.00  0.00     0.188 C 
HETATM   53  O5  UNL     1      -3.984  -6.054  -1.314  1.00  0.00    -0.388 OA
HETATM   54  C18 UNL     1      -2.669  -6.162  -1.651  1.00  0.00     0.188 C 
HETATM   55  C19 UNL     1      -2.024  -4.863  -2.019  1.00  0.00     0.167 C 
ENDBRANCH  35  50
ENDBRANCH   1  30
TORSDOF 13
