REMARK  11 active torsions:
REMARK  status: ('A' for Active; 'I' for Inactive)
REMARK    1  A    between atoms: C3_8  and  C4_9 
REMARK    2  A    between atoms: C4_9  and  C5_11 
REMARK    3  A    between atoms: C5_11  and  S2_12 
REMARK    4  A    between atoms: S2_12  and  C6_13 
REMARK    5  A    between atoms: C8_17  and  C9_18 
REMARK    6  A    between atoms: C9_18  and  C10_19 
REMARK    7  A    between atoms: C11_20  and  O3_21 
REMARK    8  A    between atoms: N4_23  and  C12_24 
REMARK    9  A    between atoms: C15_32  and  C16_33 
REMARK   10  A    between atoms: C16_33  and  O6_34 
REMARK   11  A    between atoms: N6_36  and  O7_37 
ROOT
HETATM    1  C6  UNL     1       0.797   0.648   0.454  1.00  0.00     0.146 A 
HETATM    2  N3  UNL     1      -0.484   0.334   0.236  1.00  0.00    -0.333 N 
ATOM      3  H3  UNL     1      -1.215   0.992  -0.033  1.00  0.00     0.168 HD
HETATM    4  C7  UNL     1      -0.657  -0.989   0.427  1.00  0.00     0.093 A 
HETATM    5  C8  UNL     1      -1.543  -2.040   0.422  1.00  0.00     0.027 A 
HETATM    6  C15 UNL     1      -0.855  -3.184   0.766  1.00  0.00     0.099 A 
HETATM    7  N6  UNL     1       0.421  -2.859   0.979  1.00  0.00    -0.203 N 
HETATM    8  C17 UNL     1       0.570  -1.514   0.778  1.00  0.00     0.163 A 
HETATM    9  N7  UNL     1       1.439  -0.492   0.787  1.00  0.00    -0.319 N 
ATOM     10  H7  UNL     1       2.431  -0.565   1.011  1.00  0.00     0.169 HD
ENDROOT
BRANCH   5  11
HETATM   11  C9  UNL     1      -2.831  -1.930   0.135  1.00  0.00     0.037 C 
BRANCH  11  12
HETATM   12  C10 UNL     1      -3.469  -0.680  -0.208  1.00  0.00     0.084 A 
HETATM   13  C11 UNL     1      -3.808   0.264   0.733  1.00  0.00     0.164 A 
HETATM   14  N4  UNL     1      -4.415   1.422   0.400  1.00  0.00    -0.252 N 
HETATM   15  C13 UNL     1      -4.674   1.614  -0.895  1.00  0.00     0.333 A 
HETATM   16  O4  UNL     1      -5.249   2.708  -1.222  1.00  0.00    -0.246 OA
HETATM   17  N5  UNL     1      -4.371   0.740  -1.870  1.00  0.00    -0.274 N 
HETATM   18  C14 UNL     1      -3.762  -0.422  -1.522  1.00  0.00     0.263 A 
ATOM     19  H5  UNL     1      -4.593   0.944  -2.844  1.00  0.00     0.173 HD
HETATM   20  O5  UNL     1      -3.486  -1.231  -2.446  1.00  0.00    -0.267 OA
BRANCH  13  21
HETATM   21  O3  UNL     1      -3.526   0.041   2.089  1.00  0.00    -0.345 OA
ATOM     22  H3  UNL     1      -3.760   0.693   2.739  1.00  0.00     0.219 HD
ENDBRANCH  13  21
BRANCH  14  23
HETATM   23  C12 UNL     1      -4.789   2.448   1.363  1.00  0.00     0.360 C 
HETATM   24  F1  UNL     1      -6.084   2.162   1.811  1.00  0.00    -0.233 F 
ENDBRANCH  14  23
ENDBRANCH  11  12
ENDBRANCH   5  11
BRANCH   6  25
HETATM   25  C16 UNL     1      -1.432  -4.388   0.856  1.00  0.00     0.164 C 
BRANCH  25  26
HETATM   26  O6  UNL     1      -0.729  -5.506   1.198  1.00  0.00    -0.370 OA
ATOM     27  H6  UNL     1      -1.139  -6.361   1.262  1.00  0.00     0.216 HD
ENDBRANCH  25  26
ENDBRANCH   6  25
BRANCH   7  28
HETATM   28  O7  UNL     1       1.442  -3.679   1.338  1.00  0.00    -0.281 OA
ATOM     29  H7  UNL     1       2.351  -3.448   1.490  1.00  0.00     0.245 HD
ENDBRANCH   7  28
BRANCH   1  30
HETATM   30  S2  UNL     1       1.575   2.232   0.362  1.00  0.00    -0.086 SA
BRANCH  30  31
HETATM   31  C5  UNL     1       2.295   2.612  -1.235  1.00  0.00     0.168 C 
BRANCH  31  32
HETATM   32  C4  UNL     1       3.420   1.729  -1.588  1.00  0.00     0.188 C 
HETATM   33  O2  UNL     1       3.306   0.963  -2.565  1.00  0.00    -0.290 OA
BRANCH  32  34
HETATM   34  C3  UNL     1       4.693   1.719  -0.815  1.00  0.00     0.114 A 
HETATM   35  C1  UNL     1       5.730   0.890  -1.175  1.00  0.00     0.122 A 
HETATM   36  N1  UNL     1       5.794  -0.029  -2.270  1.00  0.00    -0.092 NA
HETATM   37  S1  UNL     1       6.905   1.253   0.020  1.00  0.00    -0.012 SA
HETATM   38  C2  UNL     1       6.023   2.417   0.890  1.00  0.00     0.290 A 
HETATM   39  O1  UNL     1       6.366   3.086   1.933  1.00  0.00    -0.260 OA
HETATM   40  N2  UNL     1       4.867   2.480   0.232  1.00  0.00    -0.312 N 
ATOM     41  H2  UNL     1       4.129   3.113   0.541  1.00  0.00     0.170 HD
ENDBRANCH  32  34
ENDBRANCH  31  32
ENDBRANCH  30  31
ENDBRANCH   1  30
TORSDOF 11
