REMARK  7 active torsions:
REMARK  status: ('A' for Active; 'I' for Inactive)
REMARK    1  A    between atoms: N1_2  and  C3_5 
REMARK    2  A    between atoms: C4_6  and  C5_7 
REMARK    3  A    between atoms: C6_12  and  N4_13 
REMARK       I    between atoms: N4_13  and  C7_15 
REMARK       I    between atoms: C7_15  and  N5_17 
REMARK    4  A    between atoms: C9_21  and  N8_22 
REMARK       I    between atoms: N8_22  and  C10_24 
REMARK    5  A    between atoms: C10_24  and  C11_26 
REMARK    6  A    between atoms: C11_26  and  C12_28 
REMARK    7  A    between atoms: C12_28  and  O6_29 
ROOT
HETATM    1  C1  UNL     1      -6.780   0.379  -0.616  1.00  0.00     0.169 C 
HETATM    2  N1  UNL     1      -5.589   0.840   0.037  1.00  0.00    -0.290 N 
HETATM    3  C2  UNL     1      -5.553   2.166   0.505  1.00  0.00     0.184 C 
HETATM    4  N2  UNL     1      -5.511   3.266   0.887  1.00  0.00    -0.172 NA
ENDROOT
BRANCH   2   5
HETATM    5  C3  UNL     1      -4.418   0.050   0.237  1.00  0.00     0.065 C 
HETATM    6  C4  UNL     1      -4.221  -0.701   1.294  1.00  0.00     0.143 C 
HETATM    7  N3  UNL     1      -3.034  -1.472   1.425  1.00  0.00    -0.294 N 
HETATM    8  S1  UNL     1      -1.723  -2.066   2.442  1.00  0.00    -0.022 SA
HETATM    9  C13 UNL     1      -2.416  -2.217   0.345  1.00  0.00     0.193 C 
HETATM   10  C6  UNL     1      -0.980  -2.126   0.817  1.00  0.00     0.203 C 
HETATM   11  S3  UNL     1      -2.589  -1.396  -1.244  1.00  0.00    -0.134 SA
HETATM   12  C14 UNL     1      -3.418   0.142  -0.825  1.00  0.00     0.136 C 
BRANCH   6  13
HETATM   13  C5  UNL     1      -5.223  -0.762   2.347  1.00  0.00     0.229 C 
HETATM   14  O1  UNL     1      -6.314  -0.143   2.348  1.00  0.00    -0.643 OA
HETATM   15  O2  UNL     1      -5.012  -1.559   3.479  1.00  0.00    -0.643 OA
ENDBRANCH   6  13
BRANCH  10  16
HETATM   16  N4  UNL     1      -0.333  -0.922   0.397  1.00  0.00    -0.324 N 
HETATM   17  C7  UNL     1       0.894  -0.905  -0.341  1.00  0.00     0.338 C 
HETATM   18  O3  UNL     1       1.396  -2.030  -0.614  1.00  0.00    -0.246 OA
HETATM   19  N5  UNL     1       1.524   0.277  -0.751  1.00  0.00    -0.205 N 
HETATM   20  N6  UNL     1       1.095   1.572  -0.526  1.00  0.00    -0.023 NA
HETATM   21  C9  UNL     1       2.749   0.383  -1.490  1.00  0.00     0.227 C 
HETATM   22  N7  UNL     1       1.451   2.328  -1.629  1.00  0.00    -0.122 NA
HETATM   23  C8  UNL     1       2.439   1.599  -2.372  1.00  0.00     0.180 C 
ATOM     24  H4  UNL     1      -0.767  -0.030   0.635  1.00  0.00     0.165 HD
BRANCH  21  25
HETATM   25  N8  UNL     1       3.829   0.744  -0.622  1.00  0.00    -0.330 N 
HETATM   26  C10 UNL     1       5.043   0.011  -0.589  1.00  0.00     0.292 C 
HETATM   27  O4  UNL     1       5.210  -1.002  -1.337  1.00  0.00    -0.264 OA
ATOM     28  H8  UNL     1       3.722   1.552  -0.009  1.00  0.00     0.165 HD
BRANCH  26  29
HETATM   29  C11 UNL     1       6.138   0.377   0.291  1.00  0.00     0.255 C 
HETATM   30  O5  UNL     1       5.996   1.372   1.038  1.00  0.00    -0.283 OA
BRANCH  29  31
HETATM   31  C12 UNL     1       7.411  -0.376   0.340  1.00  0.00     0.270 C 
HETATM   32  S2  UNL     1       8.269  -0.322  -1.269  1.00  0.00    -0.054 SA
BRANCH  31  33
HETATM   33  O6  UNL     1       8.279   0.192   1.269  1.00  0.00    -0.376 OA
ATOM     34  H6  UNL     1       9.096  -0.291   1.300  1.00  0.00     0.211 HD
ENDBRANCH  31  33
ENDBRANCH  29  31
ENDBRANCH  26  29
ENDBRANCH  21  25
ENDBRANCH  10  16
ENDBRANCH   2   5
TORSDOF 7
