REMARK  10 active torsions:
REMARK  status: ('A' for Active; 'I' for Inactive)
REMARK    1  A    between atoms: O1_2  and  C2_3 
REMARK    2  A    between atoms: C2_3  and  C3_5 
REMARK    3  A    between atoms: C3_5  and  C4_7 
REMARK    4  A    between atoms: C4_7  and  N1_8 
REMARK    5  A    between atoms: N1_8  and  C5_11 
REMARK    6  A    between atoms: N4_19  and  C9_20 
REMARK    7  A    between atoms: C12_25  and  N6_26 
REMARK    8  A    between atoms: C14_33  and  N8_34 
REMARK       I    between atoms: N8_34  and  C15_36 
REMARK    9  A    between atoms: C15_36  and  C16_38 
REMARK   10  A    between atoms: C16_38  and  N9_39 
ROOT
HETATM    1  C16 UNL     1      -0.736   5.822  -0.574  1.00  0.00     0.428 C 
HETATM    2  F1  UNL     1      -1.747   5.887   0.399  1.00  0.00    -0.185 F 
HETATM    3  C17 UNL     1       0.520   6.153   0.078  1.00  0.00     0.144 C 
HETATM    4  N10 UNL     1       1.529   6.396   0.606  1.00  0.00    -0.191 NA
ENDROOT
BRANCH   1   5
HETATM    5  C15 UNL     1      -0.692   4.436  -1.097  1.00  0.00     0.302 C 
HETATM    6  N8  UNL     1      -0.405   3.331  -0.257  1.00  0.00    -0.345 N 
ATOM      7  H8  UNL     1      -0.221   3.504   0.731  1.00  0.00     0.163 HD
HETATM    8  O5  UNL     1      -0.926   4.282  -2.340  1.00  0.00    -0.266 OA
BRANCH   6   9
HETATM    9  C14 UNL     1      -0.362   1.961  -0.743  1.00  0.00     0.150 C 
HETATM   10  C7  UNL     1      -1.515   1.218  -0.198  1.00  0.00     0.079 A 
HETATM   11  C6  UNL     1      -1.437  -0.130  -0.023  1.00  0.00     0.136 A 
HETATM   12  N3  UNL     1      -2.770   1.603   0.200  1.00  0.00    -0.350 N 
HETATM   13  N2  UNL     1      -0.196  -0.773  -0.363  1.00  0.00    -0.346 N 
HETATM   14  N4  UNL     1      -2.620  -0.588   0.474  1.00  0.00    -0.285 N 
HETATM   15  C5  UNL     1       1.066  -0.082  -0.224  1.00  0.00     0.296 C 
ATOM     16  H2  UNL     1      -0.207  -1.733  -0.708  1.00  0.00     0.163 HD
HETATM   17  C18 UNL     1       0.977   1.369  -0.562  1.00  0.00     0.025 C 
HETATM   18  C19 UNL     1       1.727   1.582  -1.896  1.00  0.00     0.021 C 
HETATM   19  C20 UNL     1       1.754   2.259   0.418  1.00  0.00     0.021 C 
HETATM   20  C8  UNL     1      -3.408   0.491   0.597  1.00  0.00     0.191 A 
ATOM     21  H3  UNL     1      -3.146   2.551   0.195  1.00  0.00     0.166 HD
BRANCH  15  22
HETATM   22  N1  UNL     1       1.588  -0.331   1.101  1.00  0.00    -0.046 N 
ATOM     23  H12 UNL     1       0.838  -0.296   1.791  1.00  0.00     0.280 HD
ATOM     24  H11 UNL     1       2.152   0.459   1.416  1.00  0.00     0.280 HD
BRANCH  22  25
HETATM   25  C4  UNL     1       2.328  -1.557   1.226  1.00  0.00     0.324 C 
BRANCH  25  26
HETATM   26  C3  UNL     1       3.626  -1.566   0.517  1.00  0.00     0.249 C 
HETATM   27  O3  UNL     1       4.047  -0.570  -0.110  1.00  0.00    -0.285 OA
BRANCH  26  28
HETATM   28  C2  UNL     1       4.489  -2.752   0.515  1.00  0.00     0.330 C 
HETATM   29  O2  UNL     1       4.140  -3.806   1.129  1.00  0.00    -0.256 OA
BRANCH  28  30
HETATM   30  O1  UNL     1       5.705  -2.782  -0.141  1.00  0.00    -0.320 OA
HETATM   31  C1  UNL     1       6.538  -3.914  -0.143  1.00  0.00     0.213 C 
ENDBRANCH  28  30
ENDBRANCH  26  28
ENDBRANCH  25  26
ENDBRANCH  22  25
ENDBRANCH  15  22
BRANCH  14  32
HETATM   32  C9  UNL     1      -2.883  -1.931   0.760  1.00  0.00     0.133 A 
HETATM   33  C10 UNL     1      -3.896  -2.552   0.045  1.00  0.00     0.055 A 
HETATM   34  C11 UNL     1      -4.696  -1.853  -0.990  1.00  0.00     0.071 C 
HETATM   35  N5  UNL     1      -4.131  -3.842   0.339  1.00  0.00    -0.194 N 
HETATM   36  C12 UNL     1      -3.437  -4.520   1.270  1.00  0.00     0.679 A 
ATOM     37  H5  UNL     1      -4.870  -4.329  -0.168  1.00  0.00     0.184 HD
HETATM   38  N7  UNL     1      -2.460  -3.885   1.945  1.00  0.00    -0.154 N 
HETATM   39  C13 UNL     1      -2.154  -2.597   1.722  1.00  0.00     0.288 A 
ATOM     40  H7  UNL     1      -1.934  -4.401   2.650  1.00  0.00     0.187 HD
HETATM   41  O4  UNL     1      -1.223  -2.023   2.381  1.00  0.00    -0.265 OA
BRANCH  36  42
HETATM   42  N6  UNL     1      -3.698  -5.762   1.523  1.00  0.00    -0.234 N 
ATOM     43  H62 UNL     1      -4.438  -6.243   1.012  1.00  0.00     0.174 HD
ATOM     44  H61 UNL     1      -3.172  -6.276   2.229  1.00  0.00     0.174 HD
ENDBRANCH  36  42
ENDBRANCH  14  32
ENDBRANCH   6   9
ENDBRANCH   1   5
BRANCH   1  45
HETATM   45  N9  UNL     1      -1.036   6.729  -1.639  1.00  0.00    -0.020 N 
ATOM     46  H93 UNL     1      -0.387   6.633  -2.420  1.00  0.00     0.280 HD
ATOM     47  H92 UNL     1      -1.894   6.476  -2.129  1.00  0.00     0.280 HD
ATOM     48  H91 UNL     1      -1.066   7.683  -1.279  1.00  0.00     0.280 HD
ENDBRANCH   1  45
TORSDOF 10
