REMARK  5 active torsions:
REMARK  status: ('A' for Active; 'I' for Inactive)
REMARK    1  A    between atoms: C1_2  and  N1_3 
REMARK    2  A    between atoms: N1_3  and  C2_5 
REMARK    3  A    between atoms: C2_5  and  C3_6 
REMARK    4  A    between atoms: C2_5  and  C9_12 
REMARK    5  A    between atoms: C2_5  and  C15_18 
ROOT
HETATM    1  C2  UNL     1       0.092  -0.227   0.493  1.00  0.00     0.115 C 
ENDROOT
BRANCH   1   2
HETATM    2  N1  UNL     1       0.353  -0.714   1.827  1.00  0.00    -0.346 N 
ATOM      3  H1  UNL     1       1.324  -0.868   2.100  1.00  0.00     0.163 HD
BRANCH   2   4
HETATM    4  C1  UNL     1      -0.651  -0.988   2.771  1.00  0.00     0.349 C 
HETATM    5  O1  UNL     1      -1.888  -0.851   2.611  1.00  0.00    -0.284 OA
ENDBRANCH   2   4
ENDBRANCH   1   2
BRANCH   1   6
HETATM    6  C3  UNL     1      -1.038  -1.039  -0.013  1.00  0.00    -0.021 A 
HETATM    7  C4  UNL     1      -2.034  -0.522  -0.772  1.00  0.00     0.010 A 
HETATM    8  C5  UNL     1      -3.059  -1.354  -1.238  1.00  0.00     0.001 A 
HETATM    9  C6  UNL     1      -3.084  -2.692  -0.942  1.00  0.00     0.000 A 
HETATM   10  C7  UNL     1      -2.055  -3.191  -0.166  1.00  0.00     0.001 A 
HETATM   11  C8  UNL     1      -1.056  -2.392   0.290  1.00  0.00     0.010 A 
ENDBRANCH   1   6
BRANCH   1  12
HETATM   12  C9  UNL     1      -0.158   1.245   0.544  1.00  0.00    -0.021 A 
HETATM   13  C10 UNL     1      -0.380   1.971   1.682  1.00  0.00     0.010 A 
HETATM   14  C11 UNL     1      -0.579   3.344   1.673  1.00  0.00     0.001 A 
HETATM   15  C12 UNL     1      -0.554   4.020   0.478  1.00  0.00     0.000 A 
HETATM   16  C13 UNL     1      -0.331   3.304  -0.673  1.00  0.00     0.001 A 
HETATM   17  C14 UNL     1      -0.136   1.960  -0.663  1.00  0.00     0.010 A 
ENDBRANCH   1  12
BRANCH   1  18
HETATM   18  C15 UNL     1       1.331  -0.345  -0.323  1.00  0.00    -0.021 A 
HETATM   19  C16 UNL     1       1.551  -1.366  -1.175  1.00  0.00     0.010 A 
HETATM   20  C17 UNL     1       2.746  -1.464  -1.924  1.00  0.00     0.001 A 
HETATM   21  C18 UNL     1       3.710  -0.496  -1.785  1.00  0.00     0.000 A 
HETATM   22  C19 UNL     1       3.502   0.554  -0.921  1.00  0.00     0.001 A 
HETATM   23  C20 UNL     1       2.309   0.630  -0.188  1.00  0.00     0.010 A 
ENDBRANCH   1  18
TORSDOF 5
