REMARK  6 active torsions:
REMARK  status: ('A' for Active; 'I' for Inactive)
REMARK    1  A    between atoms: N1_1  and  C1_5 
REMARK    2  A    between atoms: C1_5  and  C2_6 
REMARK    3  A    between atoms: C2_6  and  C3_7 
REMARK    4  A    between atoms: C8_12  and  C9_13 
REMARK    5  A    between atoms: C9_13  and  C10_14 
REMARK    6  A    between atoms: C9_13  and  C16_20 
ROOT
HETATM    1  C9  UNL     1      -0.928   0.170   0.399  1.00  0.00    -0.005 C 
ENDROOT
BRANCH   1   2
HETATM    2  C8  UNL     1       0.221   0.420   1.267  1.00  0.00    -0.018 A 
HETATM    3  C3  UNL     1       1.477  -0.064   1.045  1.00  0.00    -0.045 A 
HETATM    4  C4  UNL     1       2.496   0.196   2.010  1.00  0.00     0.008 A 
HETATM    5  C5  UNL     1       2.286   0.906   3.148  1.00  0.00     0.001 A 
HETATM    6  C6  UNL     1       1.024   1.395   3.374  1.00  0.00     0.001 A 
HETATM    7  C7  UNL     1       0.055   1.155   2.467  1.00  0.00     0.013 A 
BRANCH   3   8
HETATM    8  C2  UNL     1       1.978  -0.774  -0.108  1.00  0.00     0.066 C 
BRANCH   8   9
HETATM    9  C1  UNL     1       2.629   0.190  -1.094  1.00  0.00     0.234 C 
BRANCH   9  10
HETATM   10  N1  UNL     1       3.134  -0.553  -2.247  1.00  0.00    -0.079 N 
ATOM     11  H13 UNL     1       3.765  -1.306  -1.973  1.00  0.00     0.274 HD
ATOM     12  H12 UNL     1       2.409  -1.121  -2.686  1.00  0.00     0.274 HD
ATOM     13  H11 UNL     1       3.569   0.092  -2.907  1.00  0.00     0.274 HD
ENDBRANCH   9  10
ENDBRANCH   8   9
ENDBRANCH   3   8
ENDBRANCH   1   2
BRANCH   1  14
HETATM   14  C10 UNL     1      -1.174   1.185  -0.619  1.00  0.00    -0.024 A 
HETATM   15  C11 UNL     1      -0.453   2.354  -0.555  1.00  0.00     0.012 A 
HETATM   16  C12 UNL     1      -0.607   3.397  -1.431  1.00  0.00     0.001 A 
HETATM   17  C13 UNL     1      -1.549   3.231  -2.425  1.00  0.00     0.000 A 
HETATM   18  C14 UNL     1      -2.294   2.080  -2.529  1.00  0.00     0.001 A 
HETATM   19  C15 UNL     1      -2.099   1.067  -1.621  1.00  0.00     0.012 A 
ENDBRANCH   1  14
BRANCH   1  20
HETATM   20  C16 UNL     1      -1.320  -1.213   0.158  1.00  0.00    -0.024 A 
HETATM   21  C17 UNL     1      -1.417  -1.930  -0.987  1.00  0.00     0.012 A 
HETATM   22  C18 UNL     1      -1.823  -3.251  -1.060  1.00  0.00     0.001 A 
HETATM   23  C19 UNL     1      -2.159  -3.915   0.096  1.00  0.00     0.000 A 
HETATM   24  C20 UNL     1      -2.083  -3.250   1.293  1.00  0.00     0.001 A 
HETATM   25  C21 UNL     1      -1.678  -1.946   1.317  1.00  0.00     0.012 A 
ENDBRANCH   1  20
TORSDOF 6
