REMARK  5 active torsions:
REMARK  status: ('A' for Active; 'I' for Inactive)
REMARK    1  A    between atoms: C4_7  and  C5_8 
REMARK    2  A    between atoms: C5_8  and  C6_9 
REMARK    3  A    between atoms: C6_9  and  C7_10 
REMARK    4  A    between atoms: C7_10  and  C8_11 
REMARK    5  A    between atoms: C11_14  and  C12_15 
ROOT
HETATM    1  C8  UNL     1      -0.112  -0.819  -1.535  1.00  0.00    -0.058 A 
HETATM    2  C9  UNL     1      -0.790  -1.479  -0.522  1.00  0.00     0.008 A 
HETATM    3  C10 UNL     1      -2.001  -1.019  -0.049  1.00  0.00     0.013 A 
HETATM    4  C11 UNL     1      -2.601   0.115  -0.554  1.00  0.00    -0.026 A 
HETATM    5  C18 UNL     1      -1.917   0.775  -1.571  1.00  0.00     0.013 A 
HETATM    6  C19 UNL     1      -0.706   0.317  -2.045  1.00  0.00     0.008 A 
ENDROOT
BRANCH   1   7
HETATM    7  C7  UNL     1       1.187  -1.335  -2.023  1.00  0.00     0.039 C 
BRANCH   7   8
HETATM    8  C6  UNL     1       2.372  -0.783  -1.303  1.00  0.00     0.011 C 
BRANCH   8   9
HETATM    9  C5  UNL     1       2.365  -1.084   0.166  1.00  0.00     0.057 C 
BRANCH   9  10
HETATM   10  C4  UNL     1       3.611  -0.471   0.750  1.00  0.00     0.012 A 
HETATM   11  N1  UNL     1       3.516   0.791   1.190  1.00  0.00    -0.369 N 
HETATM   12  C3  UNL     1       4.643   1.340   1.718  1.00  0.00     0.092 A 
ATOM     13  H1  UNL     1       2.642   1.314   1.132  1.00  0.00     0.165 HD
HETATM   14  C2  UNL     1       5.828   0.647   1.802  1.00  0.00     0.072 A 
HETATM   15  C1  UNL     1       5.902  -0.649   1.344  1.00  0.00     0.175 A 
HETATM   16  O1  UNL     1       6.985  -1.289   1.419  1.00  0.00    -0.288 OA
HETATM   17  C20 UNL     1       4.761  -1.226   0.802  1.00  0.00     0.079 A 
ENDBRANCH   9  10
ENDBRANCH   8   9
ENDBRANCH   7   8
ENDBRANCH   1   7
BRANCH   4  18
HETATM   18  C12 UNL     1      -3.878   0.591  -0.050  1.00  0.00    -0.026 A 
HETATM   19  C13 UNL     1      -4.231   0.401   1.272  1.00  0.00     0.012 A 
HETATM   20  C14 UNL     1      -5.437   0.838   1.797  1.00  0.00     0.001 A 
HETATM   21  C15 UNL     1      -6.334   1.493   0.978  1.00  0.00     0.000 A 
HETATM   22  C16 UNL     1      -6.009   1.702  -0.360  1.00  0.00     0.001 A 
HETATM   23  C17 UNL     1      -4.799   1.253  -0.850  1.00  0.00     0.012 A 
ENDBRANCH   4  18
TORSDOF 5
