REMARK  6 active torsions:
REMARK  status: ('A' for Active; 'I' for Inactive)
REMARK    1  A    between atoms: N1_1  and  C1_4 
REMARK    2  A    between atoms: C5_10  and  C6_11 
REMARK    3  A    between atoms: C6_11  and  C7_12 
REMARK    4  A    between atoms: C7_12  and  C8_13 
REMARK    5  A    between atoms: C8_13  and  C9_14 
REMARK    6  A    between atoms: C8_13  and  C15_20 
ROOT
HETATM    1  C8  UNL     1      -0.785   0.361   0.773  1.00  0.00     0.052 C 
ENDROOT
BRANCH   1   2
HETATM    2  C7  UNL     1       0.486   0.746   0.051  1.00  0.00     0.019 C 
BRANCH   2   3
HETATM    3  C6  UNL     1       1.485  -0.322   0.251  1.00  0.00     0.043 C 
BRANCH   3   4
HETATM    4  C5  UNL     1       2.792  -0.094  -0.394  1.00  0.00    -0.017 A 
HETATM    5  C1  UNL     1       3.742  -1.083  -0.220  1.00  0.00     0.034 A 
HETATM    6  C2  UNL     1       5.001  -0.991  -0.770  1.00  0.00     0.046 A 
HETATM    7  C3  UNL     1       5.297   0.132  -1.514  1.00  0.00     0.090 A 
HETATM    8  N2  UNL     1       4.363   1.087  -1.676  1.00  0.00    -0.375 N 
HETATM    9  C4  UNL     1       3.129   0.991  -1.133  1.00  0.00     0.097 A 
ATOM     10  H2  UNL     1       4.594   1.913  -2.228  1.00  0.00     0.164 HD
BRANCH   5  11
HETATM   11  N1  UNL     1       3.502  -2.160   0.476  1.00  0.00    -0.399 N 
ATOM     12  H12 UNL     1       4.203  -2.890   0.604  1.00  0.00     0.156 HD
ATOM     13  H11 UNL     1       2.569  -2.228   0.883  1.00  0.00     0.156 HD
ENDBRANCH   5  11
ENDBRANCH   3   4
ENDBRANCH   2   3
ENDBRANCH   1   2
BRANCH   1  14
HETATM   14  C9  UNL     1      -1.850   1.390   0.638  1.00  0.00    -0.050 A 
HETATM   15  C10 UNL     1      -2.087   2.075  -0.531  1.00  0.00     0.008 A 
HETATM   16  C11 UNL     1      -3.078   3.025  -0.638  1.00  0.00     0.001 A 
HETATM   17  C12 UNL     1      -3.880   3.326   0.443  1.00  0.00     0.000 A 
HETATM   18  C13 UNL     1      -3.668   2.655   1.630  1.00  0.00     0.001 A 
HETATM   19  C14 UNL     1      -2.671   1.708   1.719  1.00  0.00     0.008 A 
ENDBRANCH   1  14
BRANCH   1  20
HETATM   20  C15 UNL     1      -1.282  -0.987   0.425  1.00  0.00    -0.050 A 
HETATM   21  C16 UNL     1      -1.644  -1.881   1.431  1.00  0.00     0.008 A 
HETATM   22  C17 UNL     1      -2.119  -3.134   1.166  1.00  0.00     0.001 A 
HETATM   23  C18 UNL     1      -2.263  -3.572  -0.135  1.00  0.00     0.000 A 
HETATM   24  C19 UNL     1      -1.912  -2.706  -1.153  1.00  0.00     0.001 A 
HETATM   25  C20 UNL     1      -1.434  -1.446  -0.866  1.00  0.00     0.008 A 
ENDBRANCH   1  20
TORSDOF 6
