REMARK  6 active torsions:
REMARK  status: ('A' for Active; 'I' for Inactive)
REMARK    1  A    between atoms: C1_4  and  N2_5 
REMARK    2  A    between atoms: N2_5  and  C2_7 
REMARK    3  A    between atoms: C4_9  and  C5_10 
REMARK       I    between atoms: C5_10  and  N3_12 
REMARK    4  A    between atoms: N3_12  and  C6_13 
REMARK    5  A    between atoms: C6_13  and  C7_14 
REMARK    6  A    between atoms: C8_20  and  N6_21 
ROOT
HETATM    1  C2  UNL     1      -1.502  -1.359  -0.280  1.00  0.00     0.135 C 
HETATM    2  C3  UNL     1      -0.061  -1.200  -0.745  1.00  0.00     0.073 C 
HETATM    3  C4  UNL     1       0.398   0.068  -0.085  1.00  0.00     0.296 C 
HETATM    4  N5  UNL     1      -0.399   0.172   1.129  1.00  0.00    -0.038 N 
ATOM      5  H51 UNL     1      -0.339   1.072   1.605  1.00  0.00     0.280 HD
ATOM      6  H52 UNL     1      -0.057  -0.380   1.915  1.00  0.00     0.280 HD
HETATM    7  C8  UNL     1      -1.747  -0.190   0.659  1.00  0.00     0.309 C 
ENDROOT
BRANCH   3   8
HETATM    8  C5  UNL     1       1.839  -0.115   0.352  1.00  0.00     0.322 C 
HETATM    9  O1  UNL     1       1.934  -0.835   1.392  1.00  0.00    -0.255 OA
HETATM   10  N3  UNL     1       2.872   0.469  -0.348  1.00  0.00    -0.377 NA
BRANCH  10  11
HETATM   11  C6  UNL     1       3.894   1.040  -1.031  1.00  0.00     0.257 C 
BRANCH  11  12
HETATM   12  C7  UNL     1       4.740   1.997  -0.295  1.00  0.00     0.283 C 
HETATM   13  N4  UNL     1       4.465   2.305   1.093  1.00  0.00    -0.056 NA
HETATM   14  O2  UNL     1       5.720   2.603  -0.786  1.00  0.00    -0.269 OA
ENDBRANCH  11  12
ENDBRANCH  10  11
ENDBRANCH   3   8
BRANCH   1  15
HETATM   15  N2  UNL     1      -1.597  -2.611   0.422  1.00  0.00    -0.378 N 
ATOM     16  H2  UNL     1      -1.871  -2.610   1.405  1.00  0.00     0.160 HD
BRANCH  15  17
HETATM   17  C1  UNL     1      -1.323  -3.836  -0.210  1.00  0.00     0.169 C 
HETATM   18  N1  UNL     1      -0.969  -3.982  -1.436  1.00  0.00    -0.396 N 
ATOM     19  H12 UNL     1      -0.884  -3.126  -1.984  1.00  0.00     0.156 HD
ATOM     20  H11 UNL     1      -0.770  -4.871  -1.895  1.00  0.00     0.156 HD
ENDBRANCH  15  17
ENDBRANCH   1  15
BRANCH   7  21
HETATM   21  N6  UNL     1      -2.254   0.921  -0.097  1.00  0.00    -0.338 N 
HETATM   22  C9  UNL     1      -3.369   1.494   0.078  1.00  0.00     0.198 C 
HETATM   23  N7  UNL     1      -4.268   1.053   1.108  1.00  0.00    -0.067 NA
HETATM   24  N8  UNL     1      -3.746   2.602  -0.769  1.00  0.00    -0.067 NA
ATOM     25  H6  UNL     1      -1.661   1.282  -0.844  1.00  0.00     0.164 HD
ENDBRANCH   7  21
TORSDOF 6
