REMARK  6 active torsions:
REMARK  status: ('A' for Active; 'I' for Inactive)
REMARK    1  A    between atoms: N1_1  and  C1_4 
REMARK    2  A    between atoms: C3_8  and  C4_9 
REMARK    3  A    between atoms: C4_9  and  C5_10 
REMARK    4  A    between atoms: C5_10  and  C6_11 
REMARK    5  A    between atoms: C6_11  and  C7_12 
REMARK    6  A    between atoms: C7_12  and  C8_13 
ROOT
HETATM    1  C6  UNL     1      -1.165   0.355   0.667  1.00  0.00     0.005 C 
ENDROOT
BRANCH   1   2
HETATM    2  C5  UNL     1      -1.312  -0.062  -0.754  1.00  0.00     0.005 C 
BRANCH   2   3
HETATM    3  C4  UNL     1      -2.411  -1.051  -0.999  1.00  0.00     0.048 C 
BRANCH   3   4
HETATM    4  C3  UNL     1      -3.751  -0.547  -0.612  1.00  0.00     0.001 A 
HETATM    5  C2  UNL     1      -4.384  -0.651   0.588  1.00  0.00     0.104 A 
HETATM    6  N2  UNL     1      -5.578  -0.127   0.707  1.00  0.00    -0.346 N 
HETATM    7  C1  UNL     1      -6.112   0.480  -0.352  1.00  0.00     0.142 A 
ATOM      8  H2  UNL     1      -6.087  -0.182   1.589  1.00  0.00     0.167 HD
HETATM    9  S1  UNL     1      -4.897   0.305  -1.542  1.00  0.00    -0.058 SA
BRANCH   7  10
HETATM   10  N1  UNL     1      -7.289   1.066  -0.442  1.00  0.00    -0.380 N 
ATOM     11  H12 UNL     1      -8.014   1.170   0.268  1.00  0.00     0.158 HD
ATOM     12  H11 UNL     1      -7.698   1.531  -1.253  1.00  0.00     0.158 HD
ENDBRANCH   7  10
ENDBRANCH   3   4
ENDBRANCH   2   3
ENDBRANCH   1   2
BRANCH   1  13
HETATM   13  C7  UNL     1      -0.067   1.335   0.857  1.00  0.00     0.038 C 
BRANCH  13  14
HETATM   14  C8  UNL     1       1.269   0.891   0.473  1.00  0.00    -0.057 A 
HETATM   15  C9  UNL     1       1.706   1.109  -0.812  1.00  0.00     0.008 A 
HETATM   16  C10 UNL     1       2.959   0.704  -1.210  1.00  0.00     0.013 A 
HETATM   17  C11 UNL     1       3.831   0.067  -0.349  1.00  0.00    -0.026 A 
HETATM   18  C12 UNL     1       5.085  -0.347  -0.720  1.00  0.00     0.012 A 
HETATM   19  C16 UNL     1       3.411  -0.158   0.936  1.00  0.00    -0.025 A 
HETATM   20  C13 UNL     1       5.939  -0.977   0.142  1.00  0.00     0.001 A 
HETATM   21  C14 UNL     1       5.512  -1.201   1.433  1.00  0.00     0.001 A 
HETATM   22  C15 UNL     1       4.254  -0.792   1.825  1.00  0.00     0.012 A 
HETATM   23  C17 UNL     1       2.154   0.250   1.329  1.00  0.00     0.019 A 
ENDBRANCH  13  14
ENDBRANCH   1  13
TORSDOF 6
