REMARK  7 active torsions:
REMARK  status: ('A' for Active; 'I' for Inactive)
REMARK    1  A    between atoms: C2_2  and  C3_3 
REMARK    2  A    between atoms: C3_3  and  C4_4 
REMARK    3  A    between atoms: C4_4  and  C5_5 
REMARK    4  A    between atoms: C4_4  and  C11_17 
REMARK    5  A    between atoms: C8_8  and  N1_9 
REMARK    6  A    between atoms: N1_9  and  N2_11 
REMARK    7  A    between atoms: N2_11  and  N3_12 
ROOT
HETATM    1  C4  UNL     1       0.174   0.847  -0.102  1.00  0.00     0.057 C 
ENDROOT
BRANCH   1   2
HETATM    2  C3  UNL     1       0.286   2.103   0.719  1.00  0.00     0.040 C 
BRANCH   2   3
HETATM    3  C2  UNL     1      -1.030   2.727   0.979  1.00  0.00    -0.036 C 
HETATM    4  C1  UNL     1      -1.300   3.952   0.576  1.00  0.00     0.007 C 
ENDBRANCH   2   3
ENDBRANCH   1   2
BRANCH   1   5
HETATM    5  C5  UNL     1       1.547   0.300  -0.312  1.00  0.00    -0.049 A 
HETATM    6  C6  UNL     1       2.484   0.180   0.681  1.00  0.00     0.010 A 
HETATM    7  C7  UNL     1       3.745  -0.322   0.465  1.00  0.00     0.032 A 
HETATM    8  C8  UNL     1       4.096  -0.726  -0.798  1.00  0.00     0.062 A 
HETATM    9  C9  UNL     1       3.190  -0.626  -1.827  1.00  0.00     0.032 A 
HETATM   10  C10 UNL     1       1.918  -0.116  -1.594  1.00  0.00     0.010 A 
BRANCH   8  11
HETATM   11  N1  UNL     1       5.393  -1.241  -1.022  1.00  0.00    -0.217 N 
ATOM     12  H1  UNL     1       6.151  -0.626  -1.318  1.00  0.00     0.203 HD
BRANCH  11  13
HETATM   13  N2  UNL     1       5.592  -2.435  -0.856  1.00  0.00    -0.243 NA
BRANCH  13  14
HETATM   14  N3  UNL     1       5.689  -3.667  -0.855  1.00  0.00    -0.260 N 
ATOM     15  H32 UNL     1       5.142  -3.668  -1.716  1.00  0.00     0.193 HD
ATOM     16  H31 UNL     1       5.855  -4.664  -0.716  1.00  0.00     0.193 HD
ENDBRANCH  13  14
ENDBRANCH  11  13
ENDBRANCH   8  11
ENDBRANCH   1   5
BRANCH   1  17
HETATM   17  C11 UNL     1      -0.746  -0.159   0.445  1.00  0.00    -0.021 A 
HETATM   18  C12 UNL     1      -0.502  -0.922   1.564  1.00  0.00     0.097 A 
HETATM   19  N4  UNL     1      -1.579  -1.730   1.749  1.00  0.00    -0.365 N 
HETATM   20  C13 UNL     1      -2.493  -1.489   0.771  1.00  0.00     0.042 A 
ATOM     21  H4  UNL     1      -1.685  -2.410   2.502  1.00  0.00     0.165 HD
HETATM   22  C14 UNL     1      -3.729  -2.051   0.539  1.00  0.00     0.030 A 
HETATM   23  C18 UNL     1      -1.985  -0.500  -0.062  1.00  0.00    -0.001 A 
HETATM   24  C15 UNL     1      -4.495  -1.636  -0.541  1.00  0.00     0.002 A 
HETATM   25  C16 UNL     1      -3.983  -0.645  -1.374  1.00  0.00     0.001 A 
HETATM   26  C17 UNL     1      -2.749  -0.091  -1.133  1.00  0.00     0.014 A 
ENDBRANCH   1  17
TORSDOF 7
