REMARK  5 active torsions:
REMARK  status: ('A' for Active; 'I' for Inactive)
REMARK    1  A    between atoms: C2_2  and  C3_3 
REMARK    2  A    between atoms: C3_3  and  C4_4 
REMARK    3  A    between atoms: C3_3  and  C10_10 
REMARK    4  A    between atoms: C14_14  and  N1_15 
REMARK    5  A    between atoms: N1_15  and  C15_17 
ROOT
HETATM    1  C10 UNL     1      -0.820  -0.745   0.448  1.00  0.00    -0.044 A 
HETATM    2  C11 UNL     1      -0.564  -1.888  -0.283  1.00  0.00     0.008 A 
HETATM    3  C12 UNL     1       0.600  -2.016  -1.015  1.00  0.00     0.003 A 
HETATM    4  C13 UNL     1       1.510  -0.975  -1.005  1.00  0.00     0.029 A 
HETATM    5  C14 UNL     1       1.313   0.185  -0.298  1.00  0.00     0.033 A 
HETATM    6  C21 UNL     1       0.115   0.254   0.423  1.00  0.00     0.037 A 
ENDROOT
BRANCH   1   7
HETATM    7  C3  UNL     1      -2.089  -0.642   1.228  1.00  0.00     0.073 C 
BRANCH   7   8
HETATM    8  C2  UNL     1      -2.497  -1.954   1.802  1.00  0.00    -0.023 C 
HETATM    9  C1  UNL     1      -2.557  -2.181   3.097  1.00  0.00     0.008 C 
ENDBRANCH   7   8
BRANCH   7  10
HETATM   10  C4  UNL     1      -3.187  -0.050   0.433  1.00  0.00    -0.046 A 
HETATM   11  C5  UNL     1      -3.402   1.308   0.420  1.00  0.00     0.008 A 
HETATM   12  C6  UNL     1      -4.429   1.872  -0.324  1.00  0.00     0.001 A 
HETATM   13  C7  UNL     1      -5.252   1.063  -1.064  1.00  0.00     0.000 A 
HETATM   14  C8  UNL     1      -5.063  -0.299  -1.072  1.00  0.00     0.001 A 
HETATM   15  C9  UNL     1      -4.020  -0.849  -0.315  1.00  0.00     0.008 A 
ENDBRANCH   7  10
ENDBRANCH   1   7
BRANCH   5  16
HETATM   16  N1  UNL     1       2.247   1.245  -0.265  1.00  0.00    -0.356 N 
ATOM     17  H1  UNL     1       1.863   2.165  -0.049  1.00  0.00     0.166 HD
BRANCH  16  18
HETATM   18  C15 UNL     1       3.626   1.202  -0.489  1.00  0.00     0.032 A 
HETATM   19  C16 UNL     1       4.333   0.053  -0.253  1.00  0.00     0.029 A 
HETATM   20  C17 UNL     1       5.703   0.026  -0.509  1.00  0.00     0.002 A 
HETATM   21  C18 UNL     1       6.377   1.135  -0.997  1.00  0.00     0.000 A 
HETATM   22  C19 UNL     1       5.634   2.265  -1.219  1.00  0.00     0.002 A 
HETATM   23  C20 UNL     1       4.284   2.344  -0.984  1.00  0.00     0.029 A 
ENDBRANCH  16  18
ENDBRANCH   5  16
TORSDOF 5
