REMARK  5 active torsions:
REMARK  status: ('A' for Active; 'I' for Inactive)
REMARK    1  A    between atoms: C2_2  and  C3_3 
REMARK    2  A    between atoms: C8_8  and  N1_9 
REMARK    3  A    between atoms: N1_9  and  C9_11 
REMARK    4  A    between atoms: C9_11  and  C10_12 
REMARK    5  A    between atoms: C13_15  and  C14_16 
ROOT
HETATM    1  C10 UNL     1       0.271  -0.778  -0.166  1.00  0.00    -0.041 A 
HETATM    2  C11 UNL     1       0.794   0.437   0.172  1.00  0.00     0.009 A 
HETATM    3  C12 UNL     1       2.154   0.669   0.324  1.00  0.00     0.013 A 
HETATM    4  C13 UNL     1       3.046  -0.370   0.128  1.00  0.00    -0.026 A 
HETATM    5  C20 UNL     1       2.545  -1.609  -0.215  1.00  0.00     0.013 A 
HETATM    6  C21 UNL     1       1.193  -1.810  -0.359  1.00  0.00     0.009 A 
ENDROOT
BRANCH   1   7
HETATM    7  C9  UNL     1      -1.130  -1.129  -0.350  1.00  0.00     0.158 C 
BRANCH   7   8
HETATM    8  N1  UNL     1      -2.086  -0.084  -0.122  1.00  0.00    -0.385 N 
ATOM      9  H1  UNL     1      -1.785   0.851   0.154  1.00  0.00     0.160 HD
BRANCH   8  10
HETATM   10  C8  UNL     1      -3.454  -0.386  -0.291  1.00  0.00     0.034 A 
HETATM   11  C3  UNL     1      -4.375   0.611  -0.081  1.00  0.00    -0.032 A 
HETATM   12  C4  UNL     1      -5.713   0.318  -0.240  1.00  0.00     0.009 A 
HETATM   13  C5  UNL     1      -6.136  -0.946  -0.603  1.00  0.00     0.001 A 
HETATM   14  C6  UNL     1      -5.207  -1.959  -0.816  1.00  0.00     0.002 A 
HETATM   15  C7  UNL     1      -3.865  -1.678  -0.660  1.00  0.00     0.029 A 
BRANCH  11  16
HETATM   16  C2  UNL     1      -3.941   1.943   0.294  1.00  0.00     0.036 C 
HETATM   17  C1  UNL     1      -3.377   2.777  -0.817  1.00  0.00     0.010 C 
ENDBRANCH  11  16
ENDBRANCH   8  10
ENDBRANCH   7   8
ENDBRANCH   1   7
BRANCH   4  18
HETATM   18  C14 UNL     1       4.484  -0.148   0.284  1.00  0.00    -0.026 A 
HETATM   19  C15 UNL     1       5.075   1.061  -0.010  1.00  0.00     0.012 A 
HETATM   20  C16 UNL     1       6.437   1.253   0.144  1.00  0.00     0.001 A 
HETATM   21  C17 UNL     1       7.245   0.228   0.599  1.00  0.00     0.000 A 
HETATM   22  C18 UNL     1       6.665  -0.986   0.896  1.00  0.00     0.001 A 
HETATM   23  C19 UNL     1       5.321  -1.159   0.740  1.00  0.00     0.012 A 
ENDBRANCH   4  18
TORSDOF 5
