REMARK  5 active torsions:
REMARK  status: ('A' for Active; 'I' for Inactive)
REMARK    1  A    between atoms: C2_2  and  N1_3 
REMARK    2  A    between atoms: C2_2  and  C16_18 
REMARK    3  A    between atoms: N1_3  and  C3_5 
REMARK    4  A    between atoms: C7_9  and  C8_10 
REMARK    5  A    between atoms: C8_10  and  C9_11 
ROOT
HETATM    1  C3  UNL     1      -0.251   0.750   0.554  1.00  0.00     0.029 A 
HETATM    2  C4  UNL     1      -0.050   2.104   0.656  1.00  0.00     0.029 A 
HETATM    3  C5  UNL     1       1.160   2.618   1.142  1.00  0.00     0.003 A 
HETATM    4  C6  UNL     1       2.166   1.758   1.524  1.00  0.00     0.007 A 
HETATM    5  C7  UNL     1       1.985   0.412   1.430  1.00  0.00    -0.052 A 
HETATM    6  C15 UNL     1       0.782  -0.070   0.947  1.00  0.00     0.036 A 
ENDROOT
BRANCH   1   7
HETATM    7  N1  UNL     1      -1.488   0.267   0.067  1.00  0.00    -0.382 N 
ATOM      8  H1  UNL     1      -1.554  -0.736  -0.105  1.00  0.00     0.160 HD
BRANCH   7   9
HETATM    9  C2  UNL     1      -2.652   1.044  -0.208  1.00  0.00     0.111 C 
HETATM   10  C1  UNL     1      -3.259   1.677   1.004  1.00  0.00     0.037 C 
BRANCH   9  11
HETATM   11  C16 UNL     1      -3.669   0.244  -0.921  1.00  0.00    -0.036 A 
HETATM   12  C17 UNL     1      -3.218  -0.586  -1.953  1.00  0.00     0.009 A 
HETATM   13  C18 UNL     1      -4.098  -1.356  -2.663  1.00  0.00     0.001 A 
HETATM   14  C19 UNL     1      -5.452  -1.357  -2.406  1.00  0.00     0.000 A 
HETATM   15  C20 UNL     1      -5.879  -0.533  -1.386  1.00  0.00     0.001 A 
HETATM   16  C21 UNL     1      -5.004   0.246  -0.665  1.00  0.00     0.009 A 
ENDBRANCH   9  11
ENDBRANCH   7   9
ENDBRANCH   1   7
BRANCH   5  17
HETATM   17  C8  UNL     1       2.998  -0.597   1.812  1.00  0.00     0.077 C 
BRANCH  17  18
HETATM   18  C9  UNL     1       3.891  -0.972   0.710  1.00  0.00    -0.054 A 
HETATM   19  C10 UNL     1       5.050  -0.251   0.540  1.00  0.00     0.007 A 
HETATM   20  C11 UNL     1       5.945  -0.551  -0.485  1.00  0.00     0.001 A 
HETATM   21  C12 UNL     1       5.641  -1.593  -1.329  1.00  0.00     0.000 A 
HETATM   22  C13 UNL     1       4.482  -2.312  -1.158  1.00  0.00     0.001 A 
HETATM   23  C14 UNL     1       3.616  -2.002  -0.145  1.00  0.00     0.007 A 
ENDBRANCH  17  18
ENDBRANCH   5  17
TORSDOF 5
