REMARK  5 active torsions:
REMARK  status: ('A' for Active; 'I' for Inactive)
REMARK    1  A    between atoms: C1_2  and  C2_4 
REMARK    2  A    between atoms: C2_4  and  C3_5 
REMARK    3  A    between atoms: C3_5  and  N1_6 
REMARK       I    between atoms: N1_6  and  C4_8 
REMARK       I    between atoms: C4_8  and  N2_10 
REMARK    4  A    between atoms: C7_13  and  C8_14 
REMARK       I    between atoms: C8_14  and  N3_16 
REMARK    5  A    between atoms: N3_16  and  C9_18 
ROOT
HETATM    1  N1  UNL     1       3.115   0.203  -1.223  1.00  0.00    -0.342 N 
ATOM      2  H1  UNL     1       2.262   0.082  -1.770  1.00  0.00     0.164 HD
HETATM    3  C4  UNL     1       3.160  -0.407   0.036  1.00  0.00     0.318 C 
HETATM    4  O3  UNL     1       4.181  -0.287   0.744  1.00  0.00    -0.247 OA
HETATM    5  N2  UNL     1       2.073  -1.160   0.536  1.00  0.00    -0.334 N 
HETATM    6  C5  UNL     1       2.107  -1.800   1.847  1.00  0.00     0.128 C 
HETATM    7  C6  UNL     1       0.836  -1.553   2.629  1.00  0.00     0.034 C 
HETATM    8  C7  UNL     1      -0.397  -1.772   1.816  1.00  0.00     0.081 C 
HETATM    9  C15 UNL     1      -0.008  -2.340   0.452  1.00  0.00     0.034 C 
HETATM   10  C16 UNL     1       0.854  -1.338  -0.236  1.00  0.00     0.128 C 
ENDROOT
BRANCH   8  11
HETATM   11  C8  UNL     1      -1.152  -0.521   1.561  1.00  0.00     0.222 C 
HETATM   12  O4  UNL     1      -0.700   0.551   2.034  1.00  0.00    -0.273 OA
HETATM   13  N3  UNL     1      -2.342  -0.475   0.820  1.00  0.00    -0.356 N 
ATOM     14  H3  UNL     1      -2.703  -1.349   0.438  1.00  0.00     0.162 HD
BRANCH  13  15
HETATM   15  C9  UNL     1      -3.089   0.741   0.565  1.00  0.00     0.084 C 
HETATM   16  C10 UNL     1      -4.397   0.635   1.283  1.00  0.00     0.025 C 
HETATM   17  C11 UNL     1      -5.384   1.682   0.789  1.00  0.00     0.002 C 
HETATM   18  C12 UNL     1      -5.644   1.334  -0.668  1.00  0.00     0.000 C 
HETATM   19  C13 UNL     1      -4.389   1.591  -1.421  1.00  0.00     0.002 C 
HETATM   20  C14 UNL     1      -3.169   0.955  -0.892  1.00  0.00     0.025 C 
ENDBRANCH  13  15
ENDBRANCH   8  11
BRANCH   1  21
HETATM   21  C3  UNL     1       4.163   0.981  -1.808  1.00  0.00     0.135 C 
BRANCH  21  22
HETATM   22  C2  UNL     1       5.455   0.240  -1.998  1.00  0.00     0.133 C 
BRANCH  22  23
HETATM   23  C1  UNL     1       6.441   1.147  -2.604  1.00  0.00     0.174 C 
HETATM   24  O1  UNL     1       6.141   2.323  -2.873  1.00  0.00    -0.648 OA
HETATM   25  O2  UNL     1       7.711   0.690  -2.875  1.00  0.00    -0.648 OA
ENDBRANCH  22  23
ENDBRANCH  21  22
ENDBRANCH   1  21
TORSDOF 5
