REMARK  5 active torsions:
REMARK  status: ('A' for Active; 'I' for Inactive)
REMARK    1  A    between atoms: C2_2  and  C3_3 
REMARK    2  A    between atoms: C3_3  and  C4_4 
REMARK    3  A    between atoms: C4_4  and  N1_5 
REMARK       I    between atoms: N1_5  and  C5_7 
REMARK       I    between atoms: C5_7  and  N2_9 
REMARK    4  A    between atoms: C8_12  and  N3_13 
REMARK       I    between atoms: N3_13  and  C9_15 
REMARK       I    between atoms: C9_15  and  N4_17 
REMARK    5  A    between atoms: N4_17  and  C10_19 
ROOT
HETATM    1  N1  UNL     1       3.972   0.365   1.133  1.00  0.00    -0.319 N 
ATOM      2  H1  UNL     1       3.370   0.080   1.906  1.00  0.00     0.169 HD
HETATM    3  C5  UNL     1       3.502  -0.045  -0.117  1.00  0.00     0.322 C 
HETATM    4  O1  UNL     1       4.081   0.212  -1.177  1.00  0.00    -0.247 OA
HETATM    5  N2  UNL     1       2.281  -0.813  -0.234  1.00  0.00    -0.334 N 
HETATM    6  C6  UNL     1       1.828  -1.218  -1.532  1.00  0.00     0.129 C 
HETATM    7  C7  UNL     1       0.364  -1.039  -1.767  1.00  0.00     0.045 C 
HETATM    8  C8  UNL     1      -0.383  -0.910  -0.458  1.00  0.00     0.089 C 
HETATM    9  C16 UNL     1       0.284  -1.857   0.526  1.00  0.00     0.045 C 
HETATM   10  C17 UNL     1       1.563  -1.142   0.980  1.00  0.00     0.129 C 
ENDROOT
BRANCH   8  11
HETATM   11  N3  UNL     1      -1.783  -1.150  -0.590  1.00  0.00    -0.338 N 
HETATM   12  C9  UNL     1      -2.741  -0.143  -0.283  1.00  0.00     0.316 C 
HETATM   13  O2  UNL     1      -2.302   0.986   0.117  1.00  0.00    -0.247 OA
HETATM   14  N4  UNL     1      -4.141  -0.364  -0.408  1.00  0.00    -0.338 N 
ATOM     15  H4  UNL     1      -4.501  -1.264  -0.726  1.00  0.00     0.164 HD
ATOM     16  H3  UNL     1      -2.105  -2.063  -0.911  1.00  0.00     0.164 HD
BRANCH  14  17
HETATM   17  C10 UNL     1      -5.034   0.710  -0.076  1.00  0.00     0.090 C 
HETATM   18  C11 UNL     1      -6.026   1.001  -1.221  1.00  0.00     0.030 C 
HETATM   19  C12 UNL     1      -7.304   0.680  -0.526  1.00  0.00    -0.012 C 
HETATM   20  C13 UNL     1      -7.097   1.315   0.849  1.00  0.00     0.011 C 
HETATM   21  C15 UNL     1      -6.949  -0.636   0.179  1.00  0.00     0.011 C 
HETATM   22  C14 UNL     1      -6.002   0.246   0.967  1.00  0.00     0.009 C 
ENDBRANCH  14  17
ENDBRANCH   8  11
BRANCH   1  23
HETATM   23  C4  UNL     1       5.109   1.093   1.547  1.00  0.00     0.088 C 
BRANCH  23  24
HETATM   24  C3  UNL     1       6.469   0.595   1.373  1.00  0.00    -0.010 C 
BRANCH  24  25
HETATM   25  C2  UNL     1       7.093   0.368   0.067  1.00  0.00     0.024 C 
HETATM   26  C1  UNL     1       7.243   1.594  -0.810  1.00  0.00     0.009 C 
ENDBRANCH  24  25
ENDBRANCH  23  24
ENDBRANCH   1  23
TORSDOF 5
