REMARK  5 active torsions:
REMARK  status: ('A' for Active; 'I' for Inactive)
REMARK    1  A    between atoms: C1_2  and  C2_4 
REMARK    2  A    between atoms: C2_4  and  C3_5 
REMARK    3  A    between atoms: C3_5  and  N1_6 
REMARK       I    between atoms: N1_6  and  C4_8 
REMARK       I    between atoms: C4_8  and  N2_10 
REMARK    4  A    between atoms: C9_15  and  C10_16 
REMARK       I    between atoms: C10_16  and  N3_18 
REMARK    5  A    between atoms: N3_18  and  C11_20 
ROOT
HETATM    1  N1  UNL     1      -3.860  -0.321  -0.106  1.00  0.00    -0.342 N 
ATOM      2  H1  UNL     1      -4.075  -0.053   0.854  1.00  0.00     0.164 HD
HETATM    3  C4  UNL     1      -2.532  -0.703  -0.414  1.00  0.00     0.319 C 
HETATM    4  O3  UNL     1      -2.350  -1.025  -1.644  1.00  0.00    -0.247 OA
HETATM    5  N2  UNL     1      -1.460  -0.748   0.501  1.00  0.00    -0.321 N 
HETATM    6  C5  UNL     1      -1.645  -0.389   1.873  1.00  0.00     0.128 C 
HETATM    7  C6  UNL     1      -1.386  -1.676   2.670  1.00  0.00     0.020 C 
HETATM    8  C7  UNL     1       0.087  -1.978   2.427  1.00  0.00     0.004 C 
HETATM    9  C8  UNL     1       0.398  -2.195   0.986  1.00  0.00     0.035 C 
HETATM   10  C9  UNL     1      -0.161  -1.164   0.047  1.00  0.00     0.180 C 
ENDROOT
BRANCH  10  11
HETATM   11  C10 UNL     1       0.700  -0.003  -0.153  1.00  0.00     0.241 C 
HETATM   12  O4  UNL     1       0.223   1.139   0.072  1.00  0.00    -0.271 OA
HETATM   13  N3  UNL     1       2.054  -0.077  -0.588  1.00  0.00    -0.355 N 
ATOM     14  H3  UNL     1       2.454  -0.997  -0.773  1.00  0.00     0.162 HD
BRANCH  13  15
HETATM   15  C11 UNL     1       2.882   1.078  -0.779  1.00  0.00     0.084 C 
HETATM   16  C12 UNL     1       4.036   1.016   0.231  1.00  0.00     0.025 C 
HETATM   17  C13 UNL     1       5.088   0.115  -0.380  1.00  0.00     0.002 C 
HETATM   18  C14 UNL     1       5.878   0.929  -1.389  1.00  0.00     0.000 C 
HETATM   19  C15 UNL     1       4.876   1.793  -2.128  1.00  0.00     0.002 C 
HETATM   20  C16 UNL     1       3.506   1.148  -2.143  1.00  0.00     0.025 C 
ENDBRANCH  13  15
ENDBRANCH  10  11
BRANCH   1  21
HETATM   21  C3  UNL     1      -4.917  -0.291  -1.070  1.00  0.00     0.135 C 
BRANCH  21  22
HETATM   22  C2  UNL     1      -6.226   0.153  -0.468  1.00  0.00     0.133 C 
BRANCH  22  23
HETATM   23  C1  UNL     1      -6.161   1.496   0.109  1.00  0.00     0.174 C 
HETATM   24  O1  UNL     1      -5.102   2.144   0.070  1.00  0.00    -0.648 OA
HETATM   25  O2  UNL     1      -7.288   2.040   0.699  1.00  0.00    -0.648 OA
ENDBRANCH  22  23
ENDBRANCH  21  22
ENDBRANCH   1  21
TORSDOF 5
