REMARK  3 active torsions:
REMARK  status: ('A' for Active; 'I' for Inactive)
REMARK    1  A    between atoms: C2_2  and  O2_4 
REMARK    2  A    between atoms: O2_4  and  C3_5 
REMARK    3  A    between atoms: C20_23  and  O3_24 
ROOT
HETATM    1  C3  UNL     1       0.525   1.448   0.034  1.00  0.00     0.166 C 
HETATM    2  C4  UNL     1      -0.626   0.640   0.575  1.00  0.00     0.024 C 
HETATM    3  C5  UNL     1      -1.987   1.106   0.265  1.00  0.00     0.017 C 
HETATM    4  C6  UNL     1      -2.769  -0.214   0.424  1.00  0.00    -0.040 C 
HETATM    5  C7  UNL     1      -3.018  -0.495   1.886  1.00  0.00     0.015 C 
HETATM    6  C8  UNL     1      -4.102   0.013  -0.240  1.00  0.00     0.015 C 
HETATM    7  C9  UNL     1      -1.921  -1.234  -0.238  1.00  0.00    -0.033 C 
HETATM    8  C10 UNL     1      -2.376  -1.557  -1.649  1.00  0.00     0.016 C 
HETATM    9  C11 UNL     1      -1.746  -2.526   0.493  1.00  0.00     0.011 C 
HETATM   10  C12 UNL     1      -0.253  -2.877   0.364  1.00  0.00     0.006 C 
HETATM   11  C13 UNL     1       0.365  -1.529   0.520  1.00  0.00    -0.004 C 
HETATM   12  C14 UNL     1       1.788  -1.462   0.113  1.00  0.00     0.002 C 
HETATM   13  C15 UNL     1       2.007  -1.801  -1.366  1.00  0.00     0.007 C 
HETATM   14  C16 UNL     1       3.500  -1.436  -1.455  1.00  0.00     0.021 C 
HETATM   15  C17 UNL     1       3.426  -0.018  -0.868  1.00  0.00     0.093 C 
HETATM   16 CL1  UNL     1       2.910   1.053  -2.123  1.00  0.00    -0.124 Cl
HETATM   17  C18 UNL     1       2.485  -0.186   0.300  1.00  0.00     0.005 C 
HETATM   18  C19 UNL     1       3.463  -0.433   1.486  1.00  0.00     0.020 C 
HETATM   19  C20 UNL     1       1.748   1.003   0.716  1.00  0.00     0.158 C 
HETATM   20  C21 UNL     1      -0.561  -0.654  -0.255  1.00  0.00     0.005 C 
ENDROOT
BRANCH   1  21
HETATM   21  O2  UNL     1       0.335   2.842   0.330  1.00  0.00    -0.313 OA
BRANCH  21  22
HETATM   22  C2  UNL     1       0.141   3.803  -0.610  1.00  0.00     0.255 C 
HETATM   23  C1  UNL     1      -0.047   5.220  -0.202  1.00  0.00     0.126 C 
HETATM   24  O1  UNL     1       0.121   3.497  -1.814  1.00  0.00    -0.266 OA
ENDBRANCH  21  22
ENDBRANCH   1  21
BRANCH  19  25
HETATM   25  O3  UNL     1       2.657   2.089   0.733  1.00  0.00    -0.392 OA
ATOM     26  H3  UNL     1       3.448   1.801   1.174  1.00  0.00     0.210 HD
ENDBRANCH  19  25
TORSDOF 3
