REMARK  3 active torsions:
REMARK  status: ('A' for Active; 'I' for Inactive)
REMARK    1  A    between atoms: S1_2  and  C2_3 
REMARK    2  A    between atoms: C2_3  and  N2_7 
REMARK    3  A    between atoms: N3_9  and  C3_11 
ROOT
HETATM    1  C3  UNL     1       0.810   0.651   0.123  1.00  0.00     0.102 C 
HETATM    2  C4  UNL     1       0.827   1.680  -1.013  1.00  0.00     0.030 C 
HETATM    3  C5  UNL     1      -0.357   2.610  -0.777  1.00  0.00     0.029 C 
HETATM    4  C6  UNL     1      -1.552   2.162  -1.543  1.00  0.00    -0.030 C 
HETATM    5  C7  UNL     1      -2.715   1.808  -1.020  1.00  0.00    -0.026 C 
HETATM    6  C8  UNL     1      -3.028   1.797   0.427  1.00  0.00     0.071 C 
HETATM    7  C9  UNL     1      -2.567   0.603   1.164  1.00  0.00     0.068 C 
HETATM    8  N4  UNL     1      -2.156  -0.500   0.390  1.00  0.00    -0.354 N 
HETATM    9  C10 UNL     1      -3.118  -1.156  -0.386  1.00  0.00     0.065 C 
HETATM   10  C11 UNL     1      -3.149  -2.641  -0.378  1.00  0.00     0.045 C 
HETATM   11  C12 UNL     1      -2.303  -3.145   0.771  1.00  0.00     0.008 C 
HETATM   12  C13 UNL     1      -0.894  -2.609   0.475  1.00  0.00     0.044 C 
HETATM   13  C14 UNL     1      -0.923  -1.104   0.631  1.00  0.00     0.095 C 
HETATM   14 BR1  UNL     1      -0.282  -0.738   2.421  1.00  0.00    -0.061 Br
HETATM   15  C15 UNL     1       0.098  -0.559  -0.378  1.00  0.00     0.070 C 
ENDROOT
BRANCH   1  16
HETATM   16  N3  UNL     1       2.196   0.274   0.440  1.00  0.00    -0.330 N 
HETATM   17  N2  UNL     1       3.079   1.178   0.326  1.00  0.00    -0.284 N 
ATOM     18  H2  UNL     1       2.816   2.117   0.026  1.00  0.00     0.188 HD
ATOM     19  H3  UNL     1       2.436  -0.671   0.738  1.00  0.00     0.180 HD
BRANCH  17  20
HETATM   20  C2  UNL     1       4.438   0.876   0.619  1.00  0.00     0.151 C 
HETATM   21  N1  UNL     1       4.959   1.358   1.696  1.00  0.00    -0.379 N 
ATOM     22  H12 UNL     1       5.933   1.141   1.906  1.00  0.00     0.158 HD
ATOM     23  H11 UNL     1       4.431   1.946   2.341  1.00  0.00     0.158 HD
BRANCH  20  24
HETATM   24  S1  UNL     1       5.364  -0.155  -0.513  1.00  0.00    -0.098 SA
HETATM   25  C1  UNL     1       7.044  -0.347   0.143  1.00  0.00     0.099 C 
ENDBRANCH  20  24
ENDBRANCH  17  20
ENDBRANCH   1  16
TORSDOF 3
