REMARK  16 active torsions:
REMARK  status: ('A' for Active; 'I' for Inactive)
REMARK    1  A    between atoms: C2_2  and  O2_4 
REMARK    2  A    between atoms: O2_4  and  C3_5 
REMARK    3  A    between atoms: C4_6  and  C5_7 
REMARK    4  A    between atoms: C5_7  and  O3_8 
REMARK    5  A    between atoms: O3_8  and  C6_9 
REMARK    6  A    between atoms: C6_9  and  C7_11 
REMARK    7  A    between atoms: C12_16  and  O5_17 
REMARK    8  A    between atoms: O5_17  and  C13_18 
REMARK    9  A    between atoms: C13_18  and  C14_20 
REMARK   10  A    between atoms: C15_21  and  C16_22 
REMARK   11  A    between atoms: C20_26  and  O7_27 
REMARK   12  A    between atoms: C22_30  and  O8_31 
REMARK   13  A    between atoms: C23_33  and  O9_34 
REMARK   14  A    between atoms: O9_34  and  C24_35 
REMARK   15  A    between atoms: C26_38  and  O11_39 
REMARK   16  A    between atoms: O11_39  and  C27_40 
ROOT
HETATM    1  C3  UNL     1      -2.816  -1.685  -0.325  1.00  0.00     0.170 C 
HETATM    2  C4  UNL     1      -2.735  -0.188  -0.199  1.00  0.00     0.045 C 
HETATM    3  C11 UNL     1      -1.344   0.178   0.162  1.00  0.00     0.044 C 
HETATM    4  C12 UNL     1      -0.500  -0.191  -1.060  1.00  0.00     0.165 C 
HETATM    5  C23 UNL     1      -0.492  -1.656  -1.312  1.00  0.00     0.193 C 
HETATM    6  C26 UNL     1      -1.535  -2.410  -0.531  1.00  0.00     0.194 C 
ENDROOT
BRANCH   4   7
HETATM    7  O5  UNL     1       0.800   0.290  -0.994  1.00  0.00    -0.310 OA
BRANCH   7   8
HETATM    8  C13 UNL     1       1.380   1.218  -1.798  1.00  0.00     0.283 C 
HETATM    9  O6  UNL     1       0.745   1.734  -2.708  1.00  0.00    -0.260 OA
BRANCH   8  10
HETATM   10  C14 UNL     1       2.796   1.596  -1.558  1.00  0.00     0.083 C 
HETATM   11  C15 UNL     1       3.478   1.058  -0.599  1.00  0.00     0.020 C 
BRANCH  11  12
HETATM   12  C16 UNL     1       4.835   1.253  -0.173  1.00  0.00    -0.002 A 
HETATM   13  C17 UNL     1       5.358   0.542   0.918  1.00  0.00     0.023 A 
HETATM   14  C18 UNL     1       6.620   0.656   1.394  1.00  0.00    -0.028 A 
HETATM   15  C19 UNL     1       7.120  -0.133   2.565  1.00  0.00     0.051 C 
HETATM   16  C20 UNL     1       7.470   1.538   0.766  1.00  0.00     0.074 A 
HETATM   17  C21 UNL     1       7.030   2.270  -0.309  1.00  0.00     0.074 A 
HETATM   18  C22 UNL     1       5.705   2.118  -0.771  1.00  0.00     0.078 A 
BRANCH  16  19
HETATM   19  O7  UNL     1       8.782   1.699   1.213  1.00  0.00    -0.360 OA
ATOM     20  H7  UNL     1       9.369   2.308   0.780  1.00  0.00     0.217 HD
ENDBRANCH  16  19
BRANCH  18  21
HETATM   21  O8  UNL     1       5.310   2.880  -1.860  1.00  0.00    -0.360 OA
ATOM     22  H8  UNL     1       5.916   3.482  -2.276  1.00  0.00     0.217 HD
ENDBRANCH  18  21
ENDBRANCH  11  12
ENDBRANCH   8  10
ENDBRANCH   7   8
ENDBRANCH   4   7
BRANCH   5  23
HETATM   23  O9  UNL     1       0.814  -2.151  -1.064  1.00  0.00    -0.311 OA
BRANCH  23  24
HETATM   24  C24 UNL     1       1.642  -2.683  -2.040  1.00  0.00     0.255 C 
HETATM   25  C25 UNL     1       3.010  -3.195  -1.746  1.00  0.00     0.126 C 
HETATM   26  O10 UNL     1       1.202  -2.728  -3.218  1.00  0.00    -0.266 OA
ENDBRANCH  23  24
ENDBRANCH   5  23
BRANCH   2  27
HETATM   27  C5  UNL     1      -3.854   0.237   0.680  1.00  0.00     0.186 C 
BRANCH  27  28
HETATM   28  O3  UNL     1      -4.056   1.522   1.032  1.00  0.00    -0.318 OA
BRANCH  28  29
HETATM   29  C6  UNL     1      -3.345   2.261   1.931  1.00  0.00     0.283 C 
HETATM   30  O4  UNL     1      -2.369   1.747   2.583  1.00  0.00    -0.260 OA
BRANCH  29  31
HETATM   31  C7  UNL     1      -3.612   3.654   2.229  1.00  0.00     0.084 C 
HETATM   32  C8  UNL     1      -4.579   4.316   1.641  1.00  0.00    -0.082 C 
HETATM   33  C9  UNL     1      -5.463   3.685   0.632  1.00  0.00     0.043 C 
HETATM   34  C10 UNL     1      -4.836   5.767   1.967  1.00  0.00     0.043 C 
ENDBRANCH  29  31
ENDBRANCH  28  29
ENDBRANCH  27  28
ENDBRANCH   2  27
BRANCH   6  35
HETATM   35  O11 UNL     1      -1.039  -2.937   0.671  1.00  0.00    -0.311 OA
BRANCH  35  36
HETATM   36  C27 UNL     1      -0.939  -4.283   0.891  1.00  0.00     0.255 C 
HETATM   37  C28 UNL     1      -0.425  -4.882   2.139  1.00  0.00     0.126 C 
HETATM   38  O12 UNL     1      -1.313  -5.035  -0.033  1.00  0.00    -0.266 OA
ENDBRANCH  35  36
ENDBRANCH   6  35
BRANCH   1  39
HETATM   39  O2  UNL     1      -3.767  -2.072  -1.328  1.00  0.00    -0.313 OA
BRANCH  39  40
HETATM   40  C2  UNL     1      -4.946  -2.707  -1.097  1.00  0.00     0.255 C 
HETATM   41  C1  UNL     1      -5.899  -3.085  -2.164  1.00  0.00     0.126 C 
HETATM   42  O1  UNL     1      -5.252  -2.993   0.085  1.00  0.00    -0.266 OA
ENDBRANCH  39  40
ENDBRANCH   1  39
TORSDOF 16
