REMARK  13 active torsions:
REMARK  status: ('A' for Active; 'I' for Inactive)
REMARK    1  A    between atoms: C2_2  and  O2_4 
REMARK    2  A    between atoms: O2_4  and  C3_5 
REMARK    3  A    between atoms: C5_8  and  C6_9 
REMARK    4  A    between atoms: C6_9  and  O4_10 
REMARK    5  A    between atoms: O4_10  and  C7_11 
REMARK    6  A    between atoms: C11_15  and  O5_16 
REMARK    7  A    between atoms: O5_16  and  C12_17 
REMARK    8  A    between atoms: C12_17  and  C13_19 
REMARK    9  A    between atoms: C13_19  and  C14_20 
REMARK   10  A    between atoms: N1_21  and  O7_23 
REMARK   11  A    between atoms: C16_26  and  O8_27 
REMARK   12  A    between atoms: O8_27  and  C17_28 
REMARK   13  A    between atoms: C23_35  and  O10_36 
ROOT
HETATM    1  C3  UNL     1      -0.603  -2.316  -0.170  1.00  0.00     0.167 C 
HETATM    2  C4  UNL     1       0.676  -1.794   0.412  1.00  0.00     0.202 C 
HETATM    3  O3  UNL     1       1.269  -1.108  -0.574  1.00  0.00    -0.372 OA
HETATM    4  C5  UNL     1       1.116   0.278  -0.619  1.00  0.00     0.118 C 
HETATM    5  C11 UNL     1       0.423   0.958   0.443  1.00  0.00     0.172 C 
HETATM    6  C15 UNL     1      -0.955   0.744   0.843  1.00  0.00     0.075 C 
HETATM    7  C16 UNL     1      -1.949  -0.177   0.328  1.00  0.00     0.086 C 
HETATM    8  C19 UNL     1      -2.809   0.655  -0.683  1.00  0.00     0.018 C 
HETATM    9  C20 UNL     1      -4.229   0.830  -0.326  1.00  0.00     0.013 C 
HETATM   10  C21 UNL     1      -2.563   0.127  -2.035  1.00  0.00     0.015 C 
HETATM   11  C22 UNL     1      -1.490  -0.893  -1.957  1.00  0.00     0.029 C 
HETATM   12  C23 UNL     1      -0.200  -0.571  -2.499  1.00  0.00     0.134 C 
HETATM   13  C24 UNL     1       0.664   0.530  -2.030  1.00  0.00     0.015 C 
HETATM   14  C25 UNL     1       1.938   0.307  -2.901  1.00  0.00     0.020 C 
HETATM   15  C26 UNL     1       0.304   1.896  -2.411  1.00  0.00     0.020 C 
HETATM   16  C27 UNL     1      -1.632  -1.331  -0.513  1.00  0.00     0.023 C 
HETATM   17  C28 UNL     1      -2.916  -2.205  -0.543  1.00  0.00     0.022 C 
ENDROOT
BRANCH   5  18
HETATM   18  O5  UNL     1       0.580   2.373   0.183  1.00  0.00    -0.312 OA
BRANCH  18  19
HETATM   19  C12 UNL     1       1.214   3.258   1.017  1.00  0.00     0.264 C 
HETATM   20  O6  UNL     1       1.690   2.781   2.099  1.00  0.00    -0.265 OA
BRANCH  19  21
HETATM   21  C13 UNL     1       1.362   4.704   0.717  1.00  0.00     0.157 C 
BRANCH  21  22
HETATM   22  C14 UNL     1       0.662   5.161  -0.485  1.00  0.00     0.096 C 
HETATM   23  N1  UNL     1      -0.535   5.665  -0.464  1.00  0.00    -0.284 N 
ATOM     24  H1  UNL     1      -0.962   5.962  -1.341  1.00  0.00     0.192 HD
BRANCH  23  25
HETATM   25  O7  UNL     1      -1.244   5.810   0.705  1.00  0.00    -0.291 OA
ATOM     26  H7  UNL     1      -2.119   6.179   0.720  1.00  0.00     0.244 HD
ENDBRANCH  23  25
ENDBRANCH  21  22
ENDBRANCH  19  21
ENDBRANCH  18  19
ENDBRANCH   5  18
BRANCH   4  27
HETATM   27  C6  UNL     1       2.602   0.649  -0.479  1.00  0.00     0.209 C 
BRANCH  27  28
HETATM   28  O4  UNL     1       2.968   0.017   0.743  1.00  0.00    -0.383 OA
BRANCH  28  29
HETATM   29  C7  UNL     1       4.301   0.177   1.029  1.00  0.00     0.121 C 
HETATM   30  C8  UNL     1       4.511   0.603   2.456  1.00  0.00     0.032 C 
HETATM   31  C9  UNL     1       5.783  -0.258   2.436  1.00  0.00     0.005 C 
HETATM   32  C10 UNL     1       5.057  -1.087   1.377  1.00  0.00     0.032 C 
ENDBRANCH  28  29
ENDBRANCH  27  28
ENDBRANCH   4  27
BRANCH   7  33
HETATM   33  O8  UNL     1      -2.970  -0.479   1.252  1.00  0.00    -0.309 OA
BRANCH  33  34
HETATM   34  C17 UNL     1      -2.992  -1.011   2.461  1.00  0.00     0.255 C 
HETATM   35  C18 UNL     1      -4.239  -1.233   3.250  1.00  0.00     0.126 C 
HETATM   36  O9  UNL     1      -1.909  -1.329   2.928  1.00  0.00    -0.266 OA
ENDBRANCH  33  34
ENDBRANCH   7  33
BRANCH  12  37
HETATM   37  O10 UNL     1      -0.412  -0.317  -3.885  1.00  0.00    -0.394 OA
ATOM     38  H10 UNL     1       0.442  -0.104  -4.244  1.00  0.00     0.210 HD
ENDBRANCH  12  37
BRANCH   1  39
HETATM   39  O2  UNL     1      -1.016  -3.458   0.547  1.00  0.00    -0.313 OA
BRANCH  39  40
HETATM   40  C2  UNL     1      -0.998  -4.752   0.122  1.00  0.00     0.255 C 
HETATM   41  C1  UNL     1      -1.457  -5.901   0.955  1.00  0.00     0.126 C 
HETATM   42  O1  UNL     1      -0.563  -4.970  -1.049  1.00  0.00    -0.266 OA
ENDBRANCH  39  40
ENDBRANCH   1  39
TORSDOF 13
