REMARK  10 active torsions:
REMARK  status: ('A' for Active; 'I' for Inactive)
REMARK    1  A    between atoms: O1_2  and  C2_3 
REMARK    2  A    between atoms: C2_3  and  C3_4 
REMARK    3  A    between atoms: C3_4  and  N1_5 
REMARK    4  A    between atoms: C7_10  and  O3_11 
REMARK    5  A    between atoms: C12_16  and  O4_17 
REMARK    6  A    between atoms: C13_19  and  O5_20 
REMARK    7  A    between atoms: C20_29  and  O7_30 
REMARK    8  A    between atoms: C22_32  and  O8_33 
REMARK    9  A    between atoms: C24_35  and  O9_36 
REMARK   10  A    between atoms: C27_39  and  O10_40 
ROOT
HETATM    1  N1  UNL     1       5.244   0.627   0.930  1.00  0.00    -0.278 N 
HETATM    2  C4  UNL     1       5.104  -0.703   0.490  1.00  0.00     0.261 A 
HETATM    3  O2  UNL     1       6.017  -1.579   0.309  1.00  0.00    -0.267 OA
HETATM    4  C5  UNL     1       3.680  -0.967   0.250  1.00  0.00     0.051 A 
HETATM    5  C6  UNL     1       3.010  -2.092  -0.182  1.00  0.00     0.055 A 
HETATM    6  C7  UNL     1       1.651  -2.117  -0.337  1.00  0.00     0.083 A 
HETATM    7  C9  UNL     1       0.974  -0.960  -0.041  1.00  0.00     0.046 A 
HETATM    8  C10 UNL     1      -0.367  -0.958  -0.181  1.00  0.00     0.100 A 
HETATM    9  C11 UNL     1      -1.061   0.217   0.125  1.00  0.00     0.048 A 
HETATM   10  C12 UNL     1      -0.489   1.375   0.541  1.00  0.00     0.113 A 
HETATM   11  C13 UNL     1       0.890   1.348   0.682  1.00  0.00     0.112 A 
HETATM   12  C14 UNL     1       1.623   0.202   0.400  1.00  0.00     0.032 A 
HETATM   13  C15 UNL     1       3.003   0.201   0.550  1.00  0.00     0.062 A 
HETATM   14  C16 UNL     1       3.942   1.221   0.978  1.00  0.00     0.262 A 
HETATM   15  O6  UNL     1       3.803   2.394   1.338  1.00  0.00    -0.267 OA
HETATM   16  C17 UNL     1      -2.527   0.315   0.118  1.00  0.00     0.023 A 
HETATM   17  C18 UNL     1      -3.308  -0.121  -0.974  1.00  0.00    -0.037 A 
HETATM   18  C19 UNL     1      -4.613   0.137  -0.965  1.00  0.00     0.048 A 
HETATM   19  C20 UNL     1      -5.173   0.824   0.120  1.00  0.00     0.104 A 
HETATM   20  C22 UNL     1      -4.363   1.226   1.181  1.00  0.00     0.136 A 
HETATM   21  C24 UNL     1      -2.992   0.967   1.202  1.00  0.00     0.116 A 
HETATM   22  C26 UNL     1      -2.732  -0.997  -2.057  1.00  0.00     0.100 C 
HETATM   23  C27 UNL     1      -2.160  -2.270  -1.430  1.00  0.00     0.270 C 
HETATM   24  O11 UNL     1      -0.989  -2.122  -0.640  1.00  0.00    -0.318 OA
ENDROOT
BRANCH   1  25
HETATM   25  C3  UNL     1       6.474   1.298   1.278  1.00  0.00     0.162 C 
BRANCH  25  26
HETATM   26  C2  UNL     1       7.115   1.991   0.103  1.00  0.00     0.187 C 
BRANCH  26  27
HETATM   27  O1  UNL     1       7.412   1.065  -0.890  1.00  0.00    -0.394 OA
HETATM   28  C1  UNL     1       8.008   1.742  -1.970  1.00  0.00     0.201 C 
ENDBRANCH  26  27
ENDBRANCH  25  26
ENDBRANCH   1  25
BRANCH   6  29
HETATM   29  O3  UNL     1       0.941  -3.218  -0.766  1.00  0.00    -0.355 OA
HETATM   30  C8  UNL     1       1.551  -4.448  -1.092  1.00  0.00     0.210 C 
ENDBRANCH   6  29
BRANCH  11  31
HETATM   31  O5  UNL     1       1.435   2.519   1.110  1.00  0.00    -0.357 OA
ATOM     32  H5  UNL     1       2.380   2.500   1.207  1.00  0.00     0.217 HD
ENDBRANCH  11  31
BRANCH  10  33
HETATM   33  O4  UNL     1      -1.207   2.483   0.775  1.00  0.00    -0.357 OA
ATOM     34  H4  UNL     1      -0.807   3.294   1.066  1.00  0.00     0.217 HD
ENDBRANCH  10  33
BRANCH  23  35
HETATM   35  O10 UNL     1      -3.153  -2.929  -0.711  1.00  0.00    -0.365 OA
HETATM   36  C28 UNL     1      -3.447  -4.135  -1.336  1.00  0.00     0.204 C 
ENDBRANCH  23  35
BRANCH  21  37
HETATM   37  O9  UNL     1      -2.191   1.315   2.251  1.00  0.00    -0.352 OA
HETATM   38  C25 UNL     1      -2.025   0.453   3.396  1.00  0.00     0.210 C 
ENDBRANCH  21  37
BRANCH  20  39
HETATM   39  O8  UNL     1      -4.860   1.909   2.288  1.00  0.00    -0.351 OA
HETATM   40  C23 UNL     1      -4.858   3.339   2.181  1.00  0.00     0.210 C 
ENDBRANCH  20  39
BRANCH  19  41
HETATM   41  O7  UNL     1      -6.514   1.104   0.146  1.00  0.00    -0.353 OA
HETATM   42  C21 UNL     1      -7.432   0.761  -0.845  1.00  0.00     0.210 C 
ENDBRANCH  19  41
TORSDOF 10
