REMARK  14 active torsions:
REMARK  status: ('A' for Active; 'I' for Inactive)
REMARK    1  A    between atoms: C2_2  and  O1_3 
REMARK    2  A    between atoms: O1_3  and  C3_4 
REMARK    3  A    between atoms: C3_4  and  O3_6 
REMARK    4  A    between atoms: O3_6  and  C4_7 
REMARK    5  A    between atoms: C8_11  and  O4_13 
REMARK    6  A    between atoms: C10_15  and  C11_16 
REMARK    7  A    between atoms: C15_22  and  C16_23 
REMARK    8  A    between atoms: C16_23  and  O7_26 
REMARK    9  A    between atoms: C19_28  and  O8_29 
REMARK   10  A    between atoms: O8_29  and  C20_30 
REMARK   11  A    between atoms: C22_33  and  O10_34 
REMARK   12  A    between atoms: O10_34  and  C23_35 
REMARK   13  A    between atoms: C23_35  and  C24_37 
REMARK   14  A    between atoms: C24_37  and  C25_38 
ROOT
HETATM    1  C4  UNL     1      -0.750   1.245  -0.604  1.00  0.00     0.097 C 
HETATM    2  C5  UNL     1       0.010   1.118  -1.866  1.00  0.00    -0.030 C 
HETATM    3  C6  UNL     1      -0.848   0.803  -3.105  1.00  0.00     0.050 C 
HETATM    4  C7  UNL     1       1.282   1.230  -2.120  1.00  0.00     0.020 C 
HETATM    5  C8  UNL     1       2.484   1.513  -1.345  1.00  0.00     0.090 C 
HETATM    6  C9  UNL     1       3.415   2.493  -2.109  1.00  0.00     0.051 C 
HETATM    7  C10 UNL     1       3.331   0.225  -1.298  1.00  0.00     0.162 C 
HETATM    8  C13 UNL     1       2.419  -0.878  -0.931  1.00  0.00     0.141 C 
HETATM    9  O6  UNL     1       1.976  -1.586  -1.805  1.00  0.00    -0.297 OA
HETATM   10  C14 UNL     1       2.104  -1.045   0.508  1.00  0.00     0.089 C 
HETATM   11  C15 UNL     1       0.698  -1.597   0.599  1.00  0.00     0.059 C 
HETATM   12  C19 UNL     1      -0.307  -0.596   1.106  1.00  0.00     0.175 C 
HETATM   13  C22 UNL     1      -1.195  -0.045   0.018  1.00  0.00     0.219 C 
ENDROOT
BRANCH  13  14
HETATM   14  O10 UNL     1      -1.427  -0.987  -1.006  1.00  0.00    -0.306 OA
BRANCH  14  15
HETATM   15  C23 UNL     1      -2.671  -1.549  -1.266  1.00  0.00     0.259 C 
HETATM   16  O11 UNL     1      -3.630  -1.205  -0.561  1.00  0.00    -0.265 OA
BRANCH  15  17
HETATM   17  C24 UNL     1      -2.876  -2.544  -2.362  1.00  0.00     0.115 C 
BRANCH  17  18
HETATM   18  C25 UNL     1      -4.328  -2.968  -2.396  1.00  0.00    -0.013 C 
HETATM   19  C26 UNL     1      -4.630  -3.587  -1.034  1.00  0.00     0.010 C 
HETATM   20  C27 UNL     1      -5.257  -1.815  -2.610  1.00  0.00     0.010 C 
ENDBRANCH  17  18
ENDBRANCH  15  17
ENDBRANCH  14  15
ENDBRANCH  13  14
BRANCH   1  21
HETATM   21  O3  UNL     1      -0.298   2.195   0.302  1.00  0.00    -0.257 OA
BRANCH  21  22
HETATM   22  C3  UNL     1      -0.929   3.375   0.665  1.00  0.00     0.411 C 
HETATM   23  O2  UNL     1      -2.039   3.611   0.108  1.00  0.00    -0.229 OA
BRANCH  22  24
HETATM   24  O1  UNL     1      -0.390   4.260   1.584  1.00  0.00    -0.298 OA
BRANCH  24  25
HETATM   25  C2  UNL     1      -1.131   5.432   1.872  1.00  0.00     0.176 C 
HETATM   26  C1  UNL     1      -0.429   6.303   2.886  1.00  0.00     0.034 C 
ENDBRANCH  24  25
ENDBRANCH  22  24
ENDBRANCH  21  22
ENDBRANCH   1  21
BRANCH  12  27
HETATM   27  O8  UNL     1       0.231   0.395   1.929  1.00  0.00    -0.313 OA
BRANCH  27  28
HETATM   28  C20 UNL     1      -0.061   0.608   3.262  1.00  0.00     0.255 C 
HETATM   29  C21 UNL     1       0.548   1.678   4.086  1.00  0.00     0.126 C 
HETATM   30  O9  UNL     1      -0.894  -0.152   3.808  1.00  0.00    -0.266 OA
ENDBRANCH  27  28
ENDBRANCH  12  27
BRANCH  11  31
HETATM   31  C16 UNL     1       0.783  -2.815   1.492  1.00  0.00     0.057 C 
HETATM   32  C17 UNL     1      -0.583  -3.459   1.668  1.00  0.00     0.045 C 
HETATM   33  C18 UNL     1       1.651  -3.884   0.866  1.00  0.00     0.045 C 
BRANCH  31  34
HETATM   34  O7  UNL     1       1.274  -2.493   2.735  1.00  0.00    -0.390 OA
ATOM     35  H7  UNL     1       1.327  -3.258   3.296  1.00  0.00     0.210 HD
ENDBRANCH  31  34
ENDBRANCH  11  31
BRANCH   5  36
HETATM   36  O4  UNL     1       2.405   2.001  -0.098  1.00  0.00    -0.385 OA
ATOM     37  H4  UNL     1       3.188   2.185   0.407  1.00  0.00     0.211 HD
ENDBRANCH   5  36
BRANCH   7  38
HETATM   38  C11 UNL     1       4.459   0.389  -0.340  1.00  0.00     0.137 C 
HETATM   39  C12 UNL     1       5.441  -0.707  -0.095  1.00  0.00     0.091 C 
HETATM   40  O5  UNL     1       4.662   1.415   0.308  1.00  0.00    -0.297 OA
ENDBRANCH   7  38
TORSDOF 14
