REMARK  12 active torsions:
REMARK  status: ('A' for Active; 'I' for Inactive)
REMARK    1  A    between atoms: O1_2  and  C2_3 
REMARK    2  A    between atoms: C6_9  and  O2_10 
REMARK    3  A    between atoms: C9_14  and  O4_15 
REMARK    4  A    between atoms: C12_20  and  C13_21 
REMARK    5  A    between atoms: C13_21  and  O5_22 
REMARK    6  A    between atoms: O5_22  and  C14_23 
REMARK    7  A    between atoms: C16_26  and  C17_27 
REMARK    8  A    between atoms: C17_27  and  O7_28 
REMARK    9  A    between atoms: O7_28  and  C18_29 
REMARK   10  A    between atoms: C18_29  and  C19_31 
REMARK   11  A    between atoms: C25_37  and  O9_38 
REMARK   12  A    between atoms: C27_40  and  O10_41 
ROOT
HETATM    1  C2  UNL     1      -2.305   3.252  -0.713  1.00  0.00     0.106 A 
HETATM    2  C3  UNL     1      -2.561   2.529   0.437  1.00  0.00     0.070 A 
HETATM    3  C4  UNL     1      -1.997   1.287   0.566  1.00  0.00     0.051 A 
HETATM    4  N1  UNL     1      -2.546   0.565   1.595  1.00  0.00    -0.351 N 
ATOM      5  H1  UNL     1      -2.734   1.010   2.493  1.00  0.00     0.166 HD
HETATM    6  C5  UNL     1      -2.842  -0.769   1.404  1.00  0.00     0.101 A 
HETATM    7  C6  UNL     1      -3.953  -1.428   1.874  1.00  0.00     0.150 A 
HETATM    8  C8  UNL     1      -3.894  -2.753   1.408  1.00  0.00     0.242 A 
HETATM    9  O3  UNL     1      -4.804  -3.553   1.708  1.00  0.00    -0.282 OA
HETATM   10  C9  UNL     1      -2.759  -2.967   0.642  1.00  0.00     0.149 A 
HETATM   11  C10 UNL     1      -2.103  -1.781   0.621  1.00  0.00     0.106 A 
HETATM   12  N2  UNL     1      -0.904  -1.602   0.009  1.00  0.00    -0.316 N 
HETATM   13  C11 UNL     1       0.039  -2.498  -0.156  1.00  0.00     0.107 A 
HETATM   14  C12 UNL     1       1.170  -1.807  -0.620  1.00  0.00    -0.007 A 
HETATM   15  C16 UNL     1       0.874  -0.435  -0.731  1.00  0.00     0.004 A 
HETATM   16  C23 UNL     1      -0.413  -0.360  -0.350  1.00  0.00     0.063 A 
HETATM   17  C24 UNL     1      -1.184   0.803  -0.455  1.00  0.00     0.055 A 
HETATM   18  C25 UNL     1      -0.923   1.473  -1.609  1.00  0.00     0.119 A 
HETATM   19  C27 UNL     1      -1.489   2.728  -1.737  1.00  0.00     0.136 A 
ENDROOT
BRANCH  15  20
HETATM   20  C17 UNL     1       1.887   0.554  -1.113  1.00  0.00     0.220 C 
BRANCH  20  21
HETATM   21  O7  UNL     1       2.931   0.681  -0.191  1.00  0.00    -0.316 OA
BRANCH  21  22
HETATM   22  C18 UNL     1       3.132   0.965   1.080  1.00  0.00     0.266 C 
HETATM   23  O8  UNL     1       2.132   1.218   1.796  1.00  0.00    -0.264 OA
BRANCH  22  24
HETATM   24  C19 UNL     1       4.517   0.994   1.694  1.00  0.00     0.037 C 
HETATM   25  C20 UNL     1       4.603   0.307   3.005  1.00  0.00     0.025 C 
HETATM   26  C21 UNL     1       4.835   2.462   1.929  1.00  0.00     0.025 C 
HETATM   27  C22 UNL     1       5.535   0.511   0.678  1.00  0.00     0.025 C 
ENDBRANCH  22  24
ENDBRANCH  21  22
ENDBRANCH  20  21
ENDBRANCH  15  20
BRANCH  14  28
HETATM   28  C13 UNL     1       2.504  -2.347  -0.889  1.00  0.00     0.219 C 
BRANCH  28  29
HETATM   29  O5  UNL     1       2.531  -3.748  -0.728  1.00  0.00    -0.317 OA
BRANCH  29  30
HETATM   30  C14 UNL     1       1.786  -4.599  -1.519  1.00  0.00     0.255 C 
HETATM   31  C15 UNL     1       1.856  -6.077  -1.265  1.00  0.00     0.126 C 
HETATM   32  O6  UNL     1       1.042  -4.230  -2.454  1.00  0.00    -0.266 OA
ENDBRANCH  29  30
ENDBRANCH  28  29
ENDBRANCH  14  28
BRANCH  18  33
HETATM   33  O9  UNL     1      -0.182   0.923  -2.609  1.00  0.00    -0.352 OA
HETATM   34  C26 UNL     1      -0.765   0.142  -3.659  1.00  0.00     0.210 C 
ENDBRANCH  18  33
BRANCH  10  35
HETATM   35  O4  UNL     1      -2.360  -4.136   0.017  1.00  0.00    -0.355 OA
ATOM     36  H4  UNL     1      -1.582  -4.283  -0.508  1.00  0.00     0.218 HD
ENDBRANCH  10  35
BRANCH  19  37
HETATM   37  O10 UNL     1      -1.233   3.444  -2.869  1.00  0.00    -0.351 OA
HETATM   38  C28 UNL     1      -1.927   3.579  -4.050  1.00  0.00     0.210 C 
ENDBRANCH  19  37
BRANCH   7  39
HETATM   39  O2  UNL     1      -4.909  -0.843   2.644  1.00  0.00    -0.350 OA
HETATM   40  C7  UNL     1      -5.108  -0.657   3.974  1.00  0.00     0.210 C 
ENDBRANCH   7  39
BRANCH   1  41
HETATM   41  O1  UNL     1      -2.882   4.518  -0.843  1.00  0.00    -0.353 OA
HETATM   42  C1  UNL     1      -3.718   5.091   0.133  1.00  0.00     0.210 C 
ENDBRANCH   1  41
TORSDOF 12
