REMARK  12 active torsions:
REMARK  status: ('A' for Active; 'I' for Inactive)
REMARK    1  A    between atoms: C2_2  and  C3_3 
REMARK    2  A    between atoms: C3_3  and  C4_4 
REMARK    3  A    between atoms: C4_4  and  C5_5 
REMARK    4  A    between atoms: C5_5  and  C6_6 
REMARK    5  A    between atoms: C6_6  and  C7_7 
REMARK    6  A    between atoms: C7_7  and  O2_9 
REMARK    7  A    between atoms: O2_9  and  C8_10 
REMARK    8  A    between atoms: C8_10  and  C9_11 
REMARK    9  A    between atoms: C9_11  and  O4_13 
REMARK   10  A    between atoms: O4_13  and  C10_14 
REMARK   11  A    between atoms: C17_21  and  O5_22 
REMARK   12  A    between atoms: C28_40  and  O10_41 
ROOT
HETATM    1  C10 UNL     1      -0.068   0.419   0.720  1.00  0.00     0.190 C 
HETATM    2  C11 UNL     1      -0.428   1.604   1.524  1.00  0.00    -0.056 C 
HETATM    3  C12 UNL     1       0.523   1.816   2.708  1.00  0.00     0.046 C 
HETATM    4  C13 UNL     1      -1.365   2.481   1.410  1.00  0.00    -0.017 C 
HETATM    5  C14 UNL     1      -2.457   2.649   0.422  1.00  0.00     0.007 C 
HETATM    6  C15 UNL     1      -2.504   4.157   0.048  1.00  0.00     0.014 C 
HETATM    7  C16 UNL     1      -3.770   2.399   1.140  1.00  0.00     0.040 C 
HETATM    8  C17 UNL     1      -4.951   2.442   0.228  1.00  0.00     0.124 C 
HETATM    9  C18 UNL     1      -4.883   1.540  -0.959  1.00  0.00     0.086 C 
HETATM   10  C19 UNL     1      -5.946   0.516  -0.985  1.00  0.00     0.011 C 
HETATM   11  N1  UNL     1      -7.122   0.818  -1.351  1.00  0.00    -0.399 N 
ATOM     12  H1  UNL     1      -7.288   1.788  -1.619  1.00  0.00     0.158 HD
HETATM   13  C20 UNL     1      -8.224  -0.063  -1.422  1.00  0.00     0.145 C 
HETATM   14  C21 UNL     1      -5.648  -0.875  -0.582  1.00  0.00     0.262 C 
HETATM   15  O6  UNL     1      -5.110  -0.835   0.700  1.00  0.00    -0.227 OA
HETATM   16  O7  UNL     1      -5.214  -1.955   1.385  1.00  0.00    -0.158 OA
HETATM   17  C22 UNL     1      -4.154  -2.695   1.885  1.00  0.00     0.299 C 
HETATM   18  O8  UNL     1      -4.049  -3.102   3.068  1.00  0.00    -0.262 OA
HETATM   19  C23 UNL     1      -3.054  -3.035   0.946  1.00  0.00     0.154 C 
HETATM   20  C24 UNL     1      -2.742  -4.505   1.119  1.00  0.00     0.029 C 
HETATM   21  C25 UNL     1      -1.840  -2.204   1.199  1.00  0.00     0.146 C 
HETATM   22  O9  UNL     1      -1.591  -1.898   2.340  1.00  0.00    -0.297 OA
HETATM   23  C26 UNL     1      -0.953  -1.763   0.086  1.00  0.00     0.084 C 
HETATM   24  C27 UNL     1      -1.332  -2.475  -1.216  1.00  0.00     0.020 C 
HETATM   25  C28 UNL     1      -1.116  -0.233  -0.087  1.00  0.00     0.162 C 
ENDROOT
BRANCH   1  26
HETATM   26  O4  UNL     1       0.999   0.769  -0.182  1.00  0.00    -0.307 OA
BRANCH  26  27
HETATM   27  C9  UNL     1       2.265   0.256  -0.119  1.00  0.00     0.284 C 
HETATM   28  O3  UNL     1       2.522  -0.577   0.791  1.00  0.00    -0.263 OA
BRANCH  27  29
HETATM   29  C8  UNL     1       3.321   0.654  -1.078  1.00  0.00     0.289 C 
BRANCH  29  30
HETATM   30  O2  UNL     1       4.568   0.092  -0.816  1.00  0.00    -0.312 OA
BRANCH  30  31
HETATM   31  C7  UNL     1       5.225   0.381   0.363  1.00  0.00     0.259 C 
HETATM   32  O1  UNL     1       4.739   1.160   1.238  1.00  0.00    -0.265 OA
BRANCH  31  33
HETATM   33  C6  UNL     1       6.556  -0.262   0.591  1.00  0.00     0.111 C 
BRANCH  33  34
HETATM   34  C5  UNL     1       6.950  -1.144  -0.559  1.00  0.00     0.010 C 
BRANCH  34  35
HETATM   35  C4  UNL     1       8.287  -1.761  -0.259  1.00  0.00     0.004 C 
BRANCH  35  36
HETATM   36  C3  UNL     1       9.372  -0.750  -0.065  1.00  0.00     0.026 C 
BRANCH  36  37
HETATM   37  C2  UNL     1       9.584   0.097  -1.275  1.00  0.00    -0.037 C 
HETATM   38  C1  UNL     1      10.755   0.131  -1.896  1.00  0.00     0.007 C 
ENDBRANCH  36  37
ENDBRANCH  35  36
ENDBRANCH  34  35
ENDBRANCH  33  34
ENDBRANCH  31  33
ENDBRANCH  30  31
ENDBRANCH  29  30
ENDBRANCH  27  29
ENDBRANCH  26  27
ENDBRANCH   1  26
BRANCH  25  39
HETATM   39  O10 UNL     1      -0.886  -0.067  -1.483  1.00  0.00    -0.392 OA
ATOM     40  H10 UNL     1      -1.561  -0.487  -2.003  1.00  0.00     0.210 HD
ENDBRANCH  25  39
BRANCH   8  41
HETATM   41  O5  UNL     1      -5.169   3.784  -0.160  1.00  0.00    -0.395 OA
ATOM     42  H5  UNL     1      -5.921   3.811  -0.740  1.00  0.00     0.210 HD
ENDBRANCH   8  41
TORSDOF 12
