REMARK  12 active torsions:
REMARK  status: ('A' for Active; 'I' for Inactive)
REMARK    1  A    between atoms: O1_2  and  C2_3 
REMARK    2  A    between atoms: C5_6  and  C6_7 
REMARK    3  A    between atoms: C6_7  and  O3_9 
REMARK    4  A    between atoms: O3_9  and  C7_10 
REMARK    5  A    between atoms: C7_10  and  O4_13 
REMARK    6  A    between atoms: O4_13  and  C10_14 
REMARK    7  A    between atoms: C10_14  and  C11_16 
REMARK    8  A    between atoms: C11_16  and  C12_17 
REMARK    9  A    between atoms: C12_17  and  C13_18 
REMARK   10  A    between atoms: C22_29  and  O8_30 
REMARK   11  A    between atoms: C22_29  and  C23_32 
REMARK   12  A    between atoms: C23_32  and  O9_35 
ROOT
HETATM    1  C13 UNL     1      -1.710  -0.298   0.332  1.00  0.00     0.128 C 
HETATM    2  C14 UNL     1      -2.450  -1.537  -0.030  1.00  0.00     0.072 C 
HETATM    3  C15 UNL     1      -3.679  -1.230  -0.902  1.00  0.00     0.094 C 
HETATM    4  C16 UNL     1      -4.565  -2.427  -0.911  1.00  0.00     0.049 C 
HETATM    5  O6  UNL     1      -3.209  -0.825  -2.108  1.00  0.00    -0.342 OA
HETATM    6  C17 UNL     1      -3.554   0.369  -2.603  1.00  0.00     0.161 C 
HETATM    7  C18 UNL     1      -2.484   0.748  -3.643  1.00  0.00     0.078 C 
HETATM    8  C19 UNL     1      -4.857   0.300  -3.381  1.00  0.00     0.078 C 
HETATM    9  O7  UNL     1      -3.629   1.441  -1.747  1.00  0.00    -0.317 OA
HETATM   10  C20 UNL     1      -3.445   1.099  -0.415  1.00  0.00     0.202 C 
HETATM   11  C21 UNL     1      -4.061   2.066   0.558  1.00  0.00     0.143 C 
HETATM   12  C22 UNL     1      -4.657   1.131   1.572  1.00  0.00     0.198 C 
HETATM   13  O10 UNL     1      -4.453  -0.175   1.139  1.00  0.00    -0.338 OA
HETATM   14  C26 UNL     1      -4.375  -0.096  -0.211  1.00  0.00     0.222 C 
HETATM   15  O11 UNL     1      -2.145   0.873  -0.181  1.00  0.00    -0.347 OA
ENDROOT
BRANCH   1  16
HETATM   16  C12 UNL     1      -0.239  -0.435  -0.093  1.00  0.00     0.042 C 
BRANCH  16  17
HETATM   17  C11 UNL     1       0.421  -1.595   0.583  1.00  0.00     0.114 C 
BRANCH  17  18
HETATM   18  C10 UNL     1       1.822  -1.688   0.147  1.00  0.00     0.261 C 
HETATM   19  O5  UNL     1       2.264  -0.852  -0.678  1.00  0.00    -0.265 OA
BRANCH  18  20
HETATM   20  O4  UNL     1       2.720  -2.652   0.587  1.00  0.00    -0.284 OA
BRANCH  20  21
HETATM   21  C7  UNL     1       4.074  -2.669   0.108  1.00  0.00     0.175 C 
HETATM   22  C8  UNL     1       4.802  -3.829   0.753  1.00  0.00     0.080 C 
HETATM   23  C9  UNL     1       4.027  -2.927  -1.378  1.00  0.00     0.080 C 
BRANCH  21  24
HETATM   24  O3  UNL     1       4.711  -1.465   0.431  1.00  0.00    -0.280 OA
BRANCH  24  25
HETATM   25  C6  UNL     1       6.038  -1.269   0.064  1.00  0.00     0.296 C 
HETATM   26  O2  UNL     1       6.615  -2.193  -0.549  1.00  0.00    -0.259 OA
BRANCH  25  27
HETATM   27  C5  UNL     1       6.765  -0.054   0.362  1.00  0.00     0.039 A 
HETATM   28  C4  UNL     1       8.075   0.055  -0.040  1.00  0.00     0.020 A 
HETATM   29  C3  UNL     1       8.820   1.192   0.216  1.00  0.00     0.038 A 
HETATM   30  C2  UNL     1       8.206   2.223   0.890  1.00  0.00     0.068 A 
HETATM   31  C28 UNL     1       6.897   2.115   1.291  1.00  0.00     0.038 A 
HETATM   32  C27 UNL     1       6.148   0.985   1.041  1.00  0.00     0.020 A 
BRANCH  30  33
HETATM   33  O1  UNL     1       8.936   3.373   1.156  1.00  0.00    -0.356 OA
HETATM   34  C1  UNL     1      10.279   3.502   0.753  1.00  0.00     0.210 C 
ENDBRANCH  30  33
ENDBRANCH  25  27
ENDBRANCH  24  25
ENDBRANCH  21  24
ENDBRANCH  20  21
ENDBRANCH  18  20
ENDBRANCH  17  18
ENDBRANCH  16  17
ENDBRANCH   1  16
BRANCH  12  35
HETATM   35  O8  UNL     1      -3.977   1.225   2.809  1.00  0.00    -0.363 OA
ATOM     36  H8  UNL     1      -4.354   0.634   3.450  1.00  0.00     0.213 HD
ENDBRANCH  12  35
BRANCH  12  37
HETATM   37  C23 UNL     1      -6.115   1.456   1.820  1.00  0.00     0.107 C 
HETATM   38  C24 UNL     1      -6.188   2.887   2.310  1.00  0.00     0.051 C 
HETATM   39  C25 UNL     1      -6.743   0.556   2.828  1.00  0.00     0.051 C 
BRANCH  37  40
HETATM   40  O9  UNL     1      -6.861   1.388   0.651  1.00  0.00    -0.385 OA
ATOM     41  H9  UNL     1      -7.776   1.592   0.807  1.00  0.00     0.210 HD
ENDBRANCH  37  40
ENDBRANCH  12  37
TORSDOF 12
