REMARK  14 active torsions:
REMARK  status: ('A' for Active; 'I' for Inactive)
REMARK    1  A    between atoms: O1_2  and  C2_3 
REMARK    2  A    between atoms: C2_3  and  C3_5 
REMARK    3  A    between atoms: C3_5  and  O3_6 
REMARK    4  A    between atoms: C3_5  and  C25_37 
REMARK    5  A    between atoms: O3_6  and  C4_7 
REMARK    6  A    between atoms: C5_8  and  O4_9 
REMARK    7  A    between atoms: O4_9  and  C6_10 
REMARK    8  A    between atoms: C8_13  and  C9_14 
REMARK    9  A    between atoms: C12_18  and  O7_19 
REMARK   10  A    between atoms: O7_19  and  C13_20 
REMARK   11  A    between atoms: C17_25  and  O9_27 
REMARK   12  A    between atoms: C19_29  and  O10_30 
REMARK   13  A    between atoms: O10_30  and  C20_31 
REMARK   14  A    between atoms: C25_37  and  O12_40 
ROOT
HETATM    1  C4  UNL     1       0.498  -0.278  -1.092  1.00  0.00     0.161 C 
HETATM    2  C5  UNL     1      -0.667  -1.254  -1.202  1.00  0.00     0.170 C 
HETATM    3  C8  UNL     1      -1.799  -1.070  -0.289  1.00  0.00     0.056 C 
HETATM    4  C15 UNL     1      -1.904   0.134   0.563  1.00  0.00     0.020 C 
HETATM    5  C16 UNL     1      -0.693   0.970   0.555  1.00  0.00     0.034 C 
HETATM    6  C17 UNL     1      -0.784   2.327   1.136  1.00  0.00     0.085 C 
HETATM    7  C18 UNL     1      -2.071   3.049   0.939  1.00  0.00     0.049 C 
HETATM    8  C19 UNL     1       0.419   3.029   0.547  1.00  0.00     0.167 C 
HETATM    9  C22 UNL     1       0.803   2.235  -0.716  1.00  0.00     0.048 C 
HETATM   10  C23 UNL     1      -0.121   1.091  -0.825  1.00  0.00    -0.006 C 
HETATM   11  C24 UNL     1      -1.143   1.439  -1.885  1.00  0.00     0.018 C 
ENDROOT
BRANCH   1  12
HETATM   12  O3  UNL     1       1.294  -0.692  -0.042  1.00  0.00    -0.364 OA
BRANCH  12  13
HETATM   13  C3  UNL     1       2.640  -0.874  -0.318  1.00  0.00     0.255 C 
BRANCH  13  14
HETATM   14  C2  UNL     1       3.487  -0.126   0.636  1.00  0.00     0.290 C 
HETATM   15  O2  UNL     1       2.987   0.521   1.621  1.00  0.00    -0.262 OA
BRANCH  14  16
HETATM   16  O1  UNL     1       4.856  -0.066   0.540  1.00  0.00    -0.324 OA
HETATM   17  C1  UNL     1       5.644   0.663   1.470  1.00  0.00     0.213 C 
ENDBRANCH  14  16
ENDBRANCH  13  14
BRANCH  13  18
HETATM   18  C25 UNL     1       3.063  -2.326  -0.179  1.00  0.00     0.086 C 
HETATM   19  C26 UNL     1       4.525  -2.419  -0.605  1.00  0.00     0.049 C 
HETATM   20  C27 UNL     1       2.953  -2.854   1.220  1.00  0.00     0.049 C 
BRANCH  18  21
HETATM   21  O12 UNL     1       2.379  -3.192  -1.020  1.00  0.00    -0.387 OA
ATOM     22  H12 UNL     1       2.644  -4.100  -0.933  1.00  0.00     0.210 HD
ENDBRANCH  18  21
ENDBRANCH  13  18
ENDBRANCH  12  13
ENDBRANCH   1  12
BRANCH   2  23
HETATM   23  O4  UNL     1      -1.177  -1.261  -2.535  1.00  0.00    -0.313 OA
BRANCH  23  24
HETATM   24  C6  UNL     1      -1.093  -2.366  -3.352  1.00  0.00     0.255 C 
HETATM   25  C7  UNL     1      -1.595  -2.442  -4.732  1.00  0.00     0.126 C 
HETATM   26  O5  UNL     1      -0.534  -3.393  -2.859  1.00  0.00    -0.266 OA
ENDBRANCH  23  24
ENDBRANCH   2  23
BRANCH   3  27
HETATM   27  C9  UNL     1      -1.871  -2.246   0.653  1.00  0.00     0.009 A 
HETATM   28  C10 UNL     1      -1.046  -3.285   0.886  1.00  0.00     0.037 A 
HETATM   29  C11 UNL     1      -1.655  -4.054   1.889  1.00  0.00     0.145 A 
HETATM   30  O6  UNL     1      -2.780  -3.473   2.213  1.00  0.00    -0.300 OA
HETATM   31  C12 UNL     1      -2.967  -2.395   1.515  1.00  0.00     0.199 A 
BRANCH  31  32
HETATM   32  O7  UNL     1      -4.076  -1.572   1.642  1.00  0.00    -0.254 OA
BRANCH  32  33
HETATM   33  C13 UNL     1      -5.223  -1.759   0.870  1.00  0.00     0.261 C 
HETATM   34  C14 UNL     1      -6.391  -0.859   1.031  1.00  0.00     0.126 C 
HETATM   35  O8  UNL     1      -5.198  -2.715   0.054  1.00  0.00    -0.265 OA
ENDBRANCH  32  33
ENDBRANCH  31  32
ENDBRANCH   3  27
BRANCH   6  36
HETATM   36  O9  UNL     1      -0.608   2.197   2.534  1.00  0.00    -0.387 OA
ATOM     37  H9  UNL     1      -0.666   3.069   2.907  1.00  0.00     0.210 HD
ENDBRANCH   6  36
BRANCH   8  38
HETATM   38  O10 UNL     1       0.182   4.375   0.292  1.00  0.00    -0.313 OA
BRANCH  38  39
HETATM   39  C20 UNL     1       0.924   5.350   0.930  1.00  0.00     0.255 C 
HETATM   40  C21 UNL     1       0.682   6.784   0.667  1.00  0.00     0.126 C 
HETATM   41  O11 UNL     1       1.816   5.017   1.742  1.00  0.00    -0.266 OA
ENDBRANCH  38  39
ENDBRANCH   8  38
TORSDOF 14
