REMARK  6 active torsions:
REMARK  status: ('A' for Active; 'I' for Inactive)
REMARK    1  A    between atoms: C2_2  and  C3_3 
REMARK    2  A    between atoms: C2_2  and  C12_12 
REMARK    3  A    between atoms: C15_16  and  O2_17 
REMARK    4  A    between atoms: C16_19  and  O3_20 
REMARK    5  A    between atoms: C33_40  and  N2_41 
REMARK    6  A    between atoms: C33_40  and  O4_45 
ROOT
HETATM    1  C12 UNL     1       2.260  -0.484  -0.573  1.00  0.00     0.190 C 
HETATM    2  O1  UNL     1       2.090  -0.494  -1.934  1.00  0.00    -0.367 OA
HETATM    3  C13 UNL     1       0.742  -0.310  -2.270  1.00  0.00     0.095 C 
HETATM    4  C14 UNL     1       0.732   0.980  -2.933  1.00  0.00     0.049 C 
HETATM    5  C15 UNL     1       0.265  -1.388  -3.238  1.00  0.00     0.182 C 
HETATM    6  C16 UNL     1      -1.183  -1.618  -3.227  1.00  0.00     0.154 C 
HETATM    7  C17 UNL     1      -2.050  -0.924  -2.254  1.00  0.00     0.026 C 
HETATM    8  C18 UNL     1      -2.774   0.202  -2.857  1.00  0.00     0.008 C 
HETATM    9  C19 UNL     1      -3.667   0.933  -1.836  1.00  0.00     0.005 C 
HETATM   10  C20 UNL     1      -2.707   1.443  -0.809  1.00  0.00    -0.008 C 
HETATM   11  C21 UNL     1      -3.174   2.582   0.016  1.00  0.00     0.006 C 
HETATM   12  C22 UNL     1      -4.704   2.661   0.050  1.00  0.00     0.016 C 
HETATM   13  C23 UNL     1      -5.203   1.452   0.746  1.00  0.00     0.064 C 
HETATM   14 BR1  UNL     1      -6.382   2.116   2.186  1.00  0.00    -0.091 Br
HETATM   15  C24 UNL     1      -4.181   0.648   1.454  1.00  0.00     0.035 C 
HETATM   16  C25 UNL     1      -5.026  -0.329   2.313  1.00  0.00     0.038 C 
HETATM   17  C26 UNL     1      -4.248  -1.614   2.303  1.00  0.00     0.273 C 
HETATM   18  N1  UNL     1      -2.916  -1.099   1.923  1.00  0.00     0.089 N 
HETATM   19  C27 UNL     1      -2.500  -0.316   3.050  1.00  0.00     0.310 C 
HETATM   20  C28 UNL     1      -3.308  -0.286   0.753  1.00  0.00     0.232 C 
HETATM   21  C29 UNL     1      -2.156   0.256  -0.026  1.00  0.00     0.032 C 
HETATM   22  C30 UNL     1      -1.399  -0.693  -0.880  1.00  0.00    -0.021 C 
HETATM   23  C31 UNL     1      -1.653  -2.095  -0.229  1.00  0.00     0.016 C 
HETATM   24  C32 UNL     1       0.056  -0.608  -0.991  1.00  0.00     0.097 C 
HETATM   25  C33 UNL     1       0.925   0.104  -0.033  1.00  0.00     0.256 C 
ENDROOT
BRANCH   1  26
HETATM   26  C2  UNL     1       3.463   0.206  -0.071  1.00  0.00     0.024 C 
HETATM   27  C1  UNL     1       3.570   1.657  -0.331  1.00  0.00     0.013 C 
BRANCH  26  28
HETATM   28  C3  UNL     1       3.858  -0.057   1.345  1.00  0.00     0.025 C 
HETATM   29  C4  UNL     1       3.871  -1.486   1.766  1.00  0.00     0.014 C 
HETATM   30  C5  UNL     1       5.186  -1.991   1.166  1.00  0.00     0.040 C 
HETATM   31  C6  UNL     1       6.060  -0.785   1.401  1.00  0.00    -0.051 A 
HETATM   32  C7  UNL     1       7.432  -0.738   1.512  1.00  0.00     0.007 A 
HETATM   33  C11 UNL     1       5.292   0.349   1.518  1.00  0.00    -0.047 A 
HETATM   34  C8  UNL     1       8.062   0.466   1.747  1.00  0.00     0.001 A 
HETATM   35  C9  UNL     1       7.278   1.618   1.867  1.00  0.00     0.001 A 
HETATM   36  C10 UNL     1       5.915   1.556   1.754  1.00  0.00     0.008 A 
ENDBRANCH  26  28
ENDBRANCH   1  26
BRANCH  25  37
HETATM   37  N2  UNL     1       0.850  -0.221   1.331  1.00  0.00    -0.044 N 
ATOM     38  H23 UNL     1       0.948  -1.221   1.510  1.00  0.00     0.278 HD
ATOM     39  H22 UNL     1       1.665   0.087   1.861  1.00  0.00     0.278 HD
ATOM     40  H21 UNL     1      -0.025   0.165   1.685  1.00  0.00     0.278 HD
ENDBRANCH  25  37
BRANCH  25  41
HETATM   41  O4  UNL     1       0.940   1.484  -0.153  1.00  0.00    -0.363 OA
ATOM     42  H4  UNL     1       0.125   1.843   0.177  1.00  0.00     0.212 HD
ENDBRANCH  25  41
BRANCH   5  43
HETATM   43  O2  UNL     1       1.005  -2.534  -2.938  1.00  0.00    -0.390 OA
ATOM     44  H2  UNL     1       0.708  -3.205  -3.541  1.00  0.00     0.210 HD
ENDBRANCH   5  43
BRANCH   6  45
HETATM   45  O3  UNL     1      -1.684  -1.294  -4.516  1.00  0.00    -0.392 OA
ATOM     46  H3  UNL     1      -2.622  -1.443  -4.509  1.00  0.00     0.210 HD
ENDBRANCH   6  45
TORSDOF 6
