REMARK  7 active torsions:
REMARK  status: ('A' for Active; 'I' for Inactive)
REMARK    1  A    between atoms: C19_23  and  O4_24 
REMARK    2  A    between atoms: C20_26  and  N1_27 
REMARK       I    between atoms: N1_27  and  C21_29 
REMARK    3  A    between atoms: C21_29  and  C22_31 
REMARK    4  A    between atoms: C22_31  and  C23_32 
REMARK    5  A    between atoms: C22_31  and  N2_35 
REMARK    6  A    between atoms: C23_32  and  O6_33 
REMARK    7  A    between atoms: N2_35  and  C24_37 
ROOT
HETATM    1  C1  UNL     1      -0.469   4.569   0.166  1.00  0.00     0.046 C 
HETATM    2  C2  UNL     1      -1.342   3.335   0.191  1.00  0.00    -0.054 C 
HETATM    3  C3  UNL     1      -2.627   3.468   0.369  1.00  0.00     0.139 C 
HETATM    4  O1  UNL     1      -3.381   2.352   0.386  1.00  0.00    -0.343 OA
HETATM    5  C4  UNL     1      -2.921   1.017   0.469  1.00  0.00     0.143 C 
HETATM    6  C5  UNL     1      -3.689   0.459   1.621  1.00  0.00     0.168 C 
HETATM    7  O2  UNL     1      -3.420   0.663   2.781  1.00  0.00    -0.294 OA
HETATM    8  C6  UNL     1      -4.861  -0.401   1.279  1.00  0.00     0.074 C 
HETATM    9  C7  UNL     1      -5.750   0.457   0.433  1.00  0.00     0.063 C 
HETATM   10  C8  UNL     1      -7.111  -0.060   0.170  1.00  0.00     0.018 C 
HETATM   11  C9  UNL     1      -4.953   0.719  -0.799  1.00  0.00     0.139 C 
HETATM   12  O3  UNL     1      -5.497   1.218  -1.772  1.00  0.00    -0.297 OA
HETATM   13  C10 UNL     1      -3.510   0.338  -0.748  1.00  0.00     0.109 C 
HETATM   14  C11 UNL     1      -3.313  -1.152  -0.545  1.00  0.00    -0.008 C 
HETATM   15  C12 UNL     1      -3.905  -1.694  -1.862  1.00  0.00     0.018 C 
HETATM   16  C13 UNL     1      -4.260  -1.579   0.536  1.00  0.00     0.004 C 
HETATM   17  C14 UNL     1      -5.273  -2.600   0.098  1.00  0.00     0.011 C 
HETATM   18  C15 UNL     1      -1.897  -1.529  -0.322  1.00  0.00     0.033 C 
HETATM   19  C16 UNL     1      -1.442  -2.352  -1.534  1.00  0.00     0.029 C 
HETATM   20 BR1  UNL     1      -1.733  -2.995   0.984  1.00  0.00    -0.084 Br
HETATM   21  C17 UNL     1      -0.889  -0.425  -0.057  1.00  0.00     0.013 C 
HETATM   22  C18 UNL     1      -0.192  -0.211  -1.361  1.00  0.00     0.020 C 
HETATM   23  C19 UNL     1       0.057  -0.958   0.994  1.00  0.00     0.178 C 
HETATM   24  C20 UNL     1       1.225  -0.227   1.447  1.00  0.00     0.041 C 
HETATM   25  C28 UNL     1       1.285   1.239   1.479  1.00  0.00     0.024 C 
HETATM   26  C29 UNL     1       0.724   2.157   0.508  1.00  0.00    -0.015 C 
HETATM   27  C30 UNL     1      -0.656   2.033   0.003  1.00  0.00     0.047 C 
HETATM   28  C31 UNL     1      -1.448   0.841   0.542  1.00  0.00     0.054 C 
ENDROOT
BRANCH  24  29
HETATM   29  N1  UNL     1       2.515  -0.874   1.308  1.00  0.00    -0.326 N 
HETATM   30  C21 UNL     1       3.523  -0.629   0.343  1.00  0.00     0.246 C 
HETATM   31  O5  UNL     1       3.314   0.221  -0.543  1.00  0.00    -0.271 OA
ATOM     32  H1  UNL     1       2.724  -1.600   1.994  1.00  0.00     0.168 HD
BRANCH  30  33
HETATM   33  C22 UNL     1       4.819  -1.339   0.360  1.00  0.00     0.194 C 
BRANCH  33  34
HETATM   34  C23 UNL     1       4.493  -2.747  -0.197  1.00  0.00     0.198 C 
BRANCH  34  35
HETATM   35  O6  UNL     1       4.025  -2.651  -1.508  1.00  0.00    -0.398 OA
ATOM     36  H6  UNL     1       3.825  -3.515  -1.850  1.00  0.00     0.209 HD
ENDBRANCH  34  35
ENDBRANCH  33  34
BRANCH  33  37
HETATM   37  N2  UNL     1       5.789  -0.773  -0.442  1.00  0.00    -0.400 N 
ATOM     38  H2  UNL     1       6.081  -1.317  -1.254  1.00  0.00     0.154 HD
BRANCH  37  39
HETATM   39  C24 UNL     1       6.409   0.452  -0.265  1.00  0.00     0.015 C 
HETATM   40  C25 UNL     1       6.633   1.048  -1.682  1.00  0.00     0.037 C 
HETATM   41  C26 UNL     1       5.780   1.547   0.521  1.00  0.00     0.037 C 
HETATM   42  C27 UNL     1       7.887   0.263   0.224  1.00  0.00     0.037 C 
ENDBRANCH  37  39
ENDBRANCH  33  37
ENDBRANCH  30  33
ENDBRANCH  24  29
BRANCH  23  43
HETATM   43  O4  UNL     1      -0.714  -1.126   2.203  1.00  0.00    -0.389 OA
ATOM     44  H4  UNL     1      -0.119  -1.461   2.864  1.00  0.00     0.210 HD
ENDBRANCH  23  43
TORSDOF 7
