REMARK  6 active torsions:
REMARK  status: ('A' for Active; 'I' for Inactive)
REMARK    1  A    between atoms: C3_3  and  O1_5 
REMARK    2  A    between atoms: C3_3  and  C5_7 
REMARK    3  A    between atoms: C19_24  and  O4_25 
REMARK    4  A    between atoms: N1_33  and  C26_34 
REMARK    5  A    between atoms: C26_34  and  C27_35 
REMARK    6  A    between atoms: C30_41  and  O5_42 
ROOT
HETATM    1  C1  UNL     1       5.023   3.239   2.989  1.00  0.00     0.015 C 
HETATM    2  C2  UNL     1       4.542   3.007   1.921  1.00  0.00    -0.075 C 
HETATM    3  C3  UNL     1       3.986   2.777   0.613  1.00  0.00     0.142 C 
HETATM    4  C4  UNL     1       4.789   1.770  -0.179  1.00  0.00     0.065 C 
ENDROOT
BRANCH   3   5
HETATM    5  O1  UNL     1       4.220   3.981  -0.122  1.00  0.00    -0.374 OA
ATOM      6  H1  UNL     1       3.853   3.829  -0.985  1.00  0.00     0.212 HD
ENDBRANCH   3   5
BRANCH   3   7
HETATM    7  C5  UNL     1       2.492   2.511   0.546  1.00  0.00    -0.011 C 
HETATM    8  C6  UNL     1       2.151   2.413  -0.887  1.00  0.00     0.005 C 
HETATM    9  C7  UNL     1       1.652   1.922  -1.927  1.00  0.00    -0.018 C 
HETATM   10  C8  UNL     1       0.852   0.750  -2.425  1.00  0.00     0.035 C 
HETATM   11  C9  UNL     1      -0.447   1.271  -3.005  1.00  0.00     0.019 C 
HETATM   12  C10 UNL     1       0.661  -0.384  -1.497  1.00  0.00    -0.046 C 
HETATM   13  C11 UNL     1       1.651  -1.544  -1.644  1.00  0.00     0.037 C 
HETATM   14  C25 UNL     1      -0.734  -0.895  -1.276  1.00  0.00     0.036 C 
HETATM   15  C12 UNL     1       2.457  -1.692  -0.323  1.00  0.00     0.007 C 
HETATM   16  C13 UNL     1       1.552  -2.143   0.794  1.00  0.00     0.034 C 
HETATM   17  C14 UNL     1       0.617  -1.274   1.427  1.00  0.00     0.145 C 
HETATM   18  O2  UNL     1       1.288  -0.546   2.489  1.00  0.00    -0.314 OA
HETATM   19  C17 UNL     1      -0.756  -1.840   1.733  1.00  0.00     0.110 C 
HETATM   20  C15 UNL     1       2.132   0.571   2.250  1.00  0.00     0.278 C 
HETATM   21  O3  UNL     1       3.299   0.317   2.664  1.00  0.00    -0.264 OA
HETATM   22  C16 UNL     1       1.831   1.847   1.648  1.00  0.00     0.190 C 
HETATM   23 BR1  UNL     1       1.650   3.080   3.220  1.00  0.00    -0.075 Br
HETATM   24  C18 UNL     1      -0.858  -3.321   1.813  1.00  0.00     0.048 C 
HETATM   25  C31 UNL     1      -1.860  -1.234   0.931  1.00  0.00     0.231 C 
HETATM   26  C19 UNL     1      -1.771  -4.059   0.916  1.00  0.00     0.123 C 
HETATM   27  C20 UNL     1      -1.386  -4.394  -0.465  1.00  0.00     0.065 C 
HETATM   28  C21 UNL     1      -2.335  -3.941  -1.533  1.00  0.00    -0.083 C 
HETATM   29  C22 UNL     1      -3.336  -4.755  -1.833  1.00  0.00     0.014 C 
HETATM   30  C23 UNL     1      -2.222  -2.689  -2.264  1.00  0.00     0.062 C 
HETATM   31  C24 UNL     1      -0.989  -1.914  -2.148  1.00  0.00     0.007 C 
HETATM   32  N1  UNL     1      -1.703  -0.461  -0.314  1.00  0.00    -0.316 N 
HETATM   33  O6  UNL     1      -3.023  -1.412   1.380  1.00  0.00    -0.273 OA
BRANCH  26  34
HETATM   34  O4  UNL     1      -1.930  -5.337   1.562  1.00  0.00    -0.395 OA
ATOM     35  H4  UNL     1      -2.517  -5.812   0.985  1.00  0.00     0.210 HD
ENDBRANCH  26  34
BRANCH  32  36
HETATM   36  C26 UNL     1      -2.672   0.637  -0.372  1.00  0.00     0.168 C 
BRANCH  36  37
HETATM   37  C27 UNL     1      -2.342   1.898   0.303  1.00  0.00     0.232 C 
HETATM   38  N2  UNL     1      -2.165   1.829   1.714  1.00  0.00    -0.067 N 
HETATM   39  C28 UNL     1      -2.177   3.235   2.103  1.00  0.00     0.235 C 
ATOM     40  H22 UNL     1      -2.842   1.243   2.203  1.00  0.00     0.277 HD
ATOM     41  H21 UNL     1      -1.343   1.307   2.018  1.00  0.00     0.277 HD
HETATM   42  C29 UNL     1      -3.284   3.827   1.278  1.00  0.00     0.061 C 
HETATM   43  C30 UNL     1      -3.468   2.897   0.127  1.00  0.00     0.152 C 
BRANCH  43  44
HETATM   44  O5  UNL     1      -3.304   3.495  -1.107  1.00  0.00    -0.393 OA
ATOM     45  H5  UNL     1      -4.010   4.121  -1.217  1.00  0.00     0.210 HD
ENDBRANCH  43  44
ENDBRANCH  36  37
ENDBRANCH  32  36
ENDBRANCH   3   7
TORSDOF 6
