REMARK  4 active torsions:
REMARK  status: ('A' for Active; 'I' for Inactive)
REMARK       I    between atoms: C1_2  and  N1_3 
REMARK       I    between atoms: C1_2  and  N2_10 
REMARK    1  A    between atoms: N1_3  and  C2_5 
REMARK    2  A    between atoms: N2_10  and  C7_12 
REMARK    3  A    between atoms: C13_20  and  O3_21 
REMARK    4  A    between atoms: C22_34  and  C23_35 
ROOT
HETATM    1  C7  UNL     1       2.147   0.074   0.794  1.00  0.00     0.116 C 
HETATM    2  C8  UNL     1       1.230  -0.831   1.572  1.00  0.00     0.031 C 
HETATM    3  C9  UNL     1       0.009  -0.151   2.104  1.00  0.00     0.044 C 
HETATM    4  C10 UNL     1      -0.822   0.433   0.974  1.00  0.00     0.214 C 
HETATM    5  O2  UNL     1      -0.636   1.761   0.745  1.00  0.00    -0.369 OA
HETATM    6  C11 UNL     1       0.036   2.086  -0.404  1.00  0.00     0.146 C 
HETATM    7  C12 UNL     1       1.472   2.370  -0.037  1.00  0.00     0.118 C 
HETATM    8 BR1  UNL     1       2.649   2.149  -1.557  1.00  0.00    -0.086 Br
HETATM    9  C13 UNL     1       2.001   1.507   1.080  1.00  0.00     0.157 C 
HETATM   10  C14 UNL     1      -0.533   3.259  -1.167  1.00  0.00     0.045 C 
HETATM   11  C15 UNL     1       0.174   4.551  -0.876  1.00  0.00     0.010 C 
HETATM   12  C16 UNL     1      -0.437   5.704  -1.636  1.00  0.00     0.001 C 
HETATM   13  C17 UNL     1      -1.894   5.869  -1.396  1.00  0.00     0.002 C 
HETATM   14  C18 UNL     1      -2.560   4.562  -1.751  1.00  0.00     0.032 C 
HETATM   15  C19 UNL     1      -2.021   3.381  -1.020  1.00  0.00     0.128 C 
HETATM   16  O4  UNL     1      -2.640   2.252  -1.616  1.00  0.00    -0.380 OA
HETATM   17  C20 UNL     1      -3.921   2.093  -1.135  1.00  0.00     0.212 C 
HETATM   18  C21 UNL     1      -4.522   0.821  -1.538  1.00  0.00     0.088 C 
HETATM   19  N3  UNL     1      -3.931  -0.419  -1.264  1.00  0.00    -0.357 N 
ATOM     20  H3  UNL     1      -3.543  -0.869  -2.093  1.00  0.00     0.166 HD
HETATM   21  C22 UNL     1      -3.756  -1.185  -0.080  1.00  0.00     0.087 C 
HETATM   22  N4  UNL     1      -3.060  -0.781   0.882  1.00  0.00    -0.314 N 
ATOM     23  H4  UNL     1      -3.089  -1.498   1.607  1.00  0.00     0.170 HD
HETATM   24  C29 UNL     1      -2.282   0.236   1.339  1.00  0.00     0.252 C 
HETATM   25  O5  UNL     1      -2.718   1.126   2.129  1.00  0.00    -0.270 OA
ENDROOT
BRANCH   1  26
HETATM   26  N2  UNL     1       3.533  -0.371   1.010  1.00  0.00    -0.336 N 
HETATM   27  C1  UNL     1       4.306  -1.070   0.089  1.00  0.00     0.316 C 
HETATM   28  O1  UNL     1       3.837  -1.379  -1.029  1.00  0.00    -0.247 OA
HETATM   29  N1  UNL     1       5.636  -1.442   0.400  1.00  0.00    -0.339 N 
ATOM     30  H1  UNL     1       6.014  -1.187   1.312  1.00  0.00     0.164 HD
ATOM     31  H2  UNL     1       3.962  -0.149   1.908  1.00  0.00     0.164 HD
BRANCH  29  32
HETATM   32  C2  UNL     1       6.479  -2.167  -0.521  1.00  0.00     0.086 C 
HETATM   33  C3  UNL     1       7.748  -1.408  -0.843  1.00  0.00     0.025 C 
HETATM   34  C4  UNL     1       8.843  -2.004   0.001  1.00  0.00     0.002 C 
HETATM   35  C5  UNL     1       8.214  -3.066   0.854  1.00  0.00     0.002 C 
HETATM   36  C6  UNL     1       6.979  -3.455   0.064  1.00  0.00     0.025 C 
ENDBRANCH  29  32
ENDBRANCH   1  26
BRANCH   9  37
HETATM   37  O3  UNL     1       3.293   2.035   1.346  1.00  0.00    -0.392 OA
ATOM     38  H3  UNL     1       3.199   2.962   1.531  1.00  0.00     0.210 HD
ENDBRANCH   9  37
BRANCH  21  39
HETATM   39  C23 UNL     1      -4.418  -2.577  -0.017  1.00  0.00     0.053 C 
HETATM   40  C24 UNL     1      -3.953  -3.284   1.248  1.00  0.00     0.012 C 
HETATM   41  C25 UNL     1      -4.402  -4.700   1.244  1.00  0.00     0.001 C 
HETATM   42  C26 UNL     1      -5.892  -4.850   1.039  1.00  0.00     0.000 C 
HETATM   43  C27 UNL     1      -6.438  -3.903   0.019  1.00  0.00     0.001 C 
HETATM   44  C28 UNL     1      -5.902  -2.520   0.090  1.00  0.00     0.012 C 
ENDBRANCH  21  39
TORSDOF 4
