REMARK  5 active torsions:
REMARK  status: ('A' for Active; 'I' for Inactive)
REMARK    1  A    between atoms: C2_2  and  C3_3 
REMARK    2  A    between atoms: C3_3  and  O1_4 
REMARK    3  A    between atoms: C4_6  and  O2_7 
REMARK    4  A    between atoms: C24_30  and  N1_31 
REMARK       I    between atoms: N1_31  and  C25_33 
REMARK    5  A    between atoms: C25_33  and  C26_35 
ROOT
HETATM    1  C1  UNL     1      -5.103  -0.986   2.117  1.00  0.00     0.020 C 
HETATM    2  C2  UNL     1      -5.158  -0.753   0.581  1.00  0.00     0.007 C 
HETATM    3  C4  UNL     1      -6.243   0.278   0.415  1.00  0.00     0.128 C 
HETATM    4  C5  UNL     1      -6.041   1.255  -0.699  1.00  0.00     0.033 C 
HETATM    5  C6  UNL     1      -4.600   1.723  -0.627  1.00  0.00     0.012 C 
HETATM    6  C7  UNL     1      -3.676   0.605  -0.966  1.00  0.00    -0.035 C 
HETATM    7  C8  UNL     1      -4.052  -0.040  -2.287  1.00  0.00     0.016 C 
HETATM    8  C9  UNL     1      -3.816  -0.407   0.141  1.00  0.00     0.007 C 
HETATM    9  C10 UNL     1      -2.911  -1.535  -0.202  1.00  0.00     0.007 C 
HETATM   10  C11 UNL     1      -1.524  -1.217  -0.571  1.00  0.00     0.011 C 
HETATM   11  C12 UNL     1      -1.183   0.122  -1.119  1.00  0.00    -0.028 C 
HETATM   12  C13 UNL     1      -0.803  -0.110  -2.599  1.00  0.00     0.016 C 
HETATM   13  C14 UNL     1      -2.254   1.142  -1.102  1.00  0.00     0.004 C 
HETATM   14  C15 UNL     1      -1.977   2.376  -0.288  1.00  0.00     0.022 C 
HETATM   15  C16 UNL     1      -1.228   2.178   0.981  1.00  0.00     0.063 C 
HETATM   16 BR1  UNL     1      -0.696   3.979   1.576  1.00  0.00    -0.091 Br
HETATM   17  C17 UNL     1      -0.028   1.302   0.824  1.00  0.00     0.013 C 
HETATM   18  C18 UNL     1       0.053   0.426   2.047  1.00  0.00     0.007 C 
HETATM   19  C19 UNL     1       1.340  -0.325   2.174  1.00  0.00     0.012 C 
HETATM   20  C20 UNL     1       2.049  -0.267   0.850  1.00  0.00     0.046 A 
HETATM   21  C21 UNL     1       1.148  -0.417  -0.324  1.00  0.00    -0.060 A 
HETATM   22  C22 UNL     1       1.499  -1.508  -0.970  1.00  0.00     0.056 A 
HETATM   23  C23 UNL     1       2.622  -2.182  -0.335  1.00  0.00     0.172 A 
HETATM   24  O3  UNL     1       3.146  -3.286  -0.719  1.00  0.00    -0.291 OA
HETATM   25  C24 UNL     1       3.045  -1.376   0.819  1.00  0.00     0.166 A 
HETATM   26  C31 UNL     1       0.121   0.641  -0.497  1.00  0.00    -0.008 C 
HETATM   27  C32 UNL     1       0.781   1.664  -1.427  1.00  0.00     0.021 C 
ENDROOT
BRANCH  25  28
HETATM   28  N1  UNL     1       4.367  -0.844   0.565  1.00  0.00    -0.348 N 
HETATM   29  C25 UNL     1       5.476  -1.115   1.409  1.00  0.00     0.222 C 
HETATM   30  O4  UNL     1       5.343  -1.841   2.426  1.00  0.00    -0.273 OA
ATOM     31  H1  UNL     1       4.507  -0.251  -0.253  1.00  0.00     0.163 HD
BRANCH  29  32
HETATM   32  C26 UNL     1       6.804  -0.549   1.106  1.00  0.00     0.081 C 
HETATM   33  C27 UNL     1       6.767   0.972   1.086  1.00  0.00     0.041 C 
HETATM   34  C28 UNL     1       8.171   1.471   0.799  1.00  0.00     0.233 C 
HETATM   35  N2  UNL     1       8.643   0.992  -0.489  1.00  0.00    -0.075 N 
HETATM   36  C29 UNL     1       8.716  -0.458  -0.412  1.00  0.00     0.233 C 
ATOM     37  H22 UNL     1       8.075   1.322  -1.269  1.00  0.00     0.277 HD
ATOM     38  H21 UNL     1       9.523   1.421  -0.776  1.00  0.00     0.277 HD
HETATM   39  C30 UNL     1       7.283  -0.967  -0.285  1.00  0.00     0.041 C 
ENDBRANCH  29  32
ENDBRANCH  25  28
BRANCH   2  40
HETATM   40  C3  UNL     1      -5.771  -2.052   0.107  1.00  0.00     0.176 C 
BRANCH  40  41
HETATM   41  O1  UNL     1      -5.066  -3.193   0.420  1.00  0.00    -0.400 OA
ATOM     42  H1  UNL     1      -5.451  -4.009   0.122  1.00  0.00     0.209 HD
ENDBRANCH  40  41
ENDBRANCH   2  40
BRANCH   3  43
HETATM   43  O2  UNL     1      -7.508  -0.284   0.214  1.00  0.00    -0.395 OA
ATOM     44  H2  UNL     1      -8.192   0.366   0.109  1.00  0.00     0.210 HD
ENDBRANCH   3  43
TORSDOF 5
