REMARK  15 active torsions:
REMARK  status: ('A' for Active; 'I' for Inactive)
REMARK    1  A    between atoms: C2_2  and  N1_3 
REMARK    2  A    between atoms: C2_2  and  C3_7 
REMARK    3  A    between atoms: C3_7  and  C4_8 
REMARK       I    between atoms: N2_10  and  C5_12 
REMARK    4  A    between atoms: C5_12  and  C6_14 
REMARK    5  A    between atoms: N3_18  and  S1_19 
REMARK    6  A    between atoms: S1_19  and  N4_22 
REMARK    7  A    between atoms: N4_22  and  C10_24 
REMARK    8  A    between atoms: C11_25  and  O5_26 
REMARK    9  A    between atoms: C11_25  and  N5_28 
REMARK   10  A    between atoms: N5_28  and  C12_30 
REMARK   11  A    between atoms: C12_30  and  C13_31 
REMARK   12  A    between atoms: C12_30  and  C15_37 
REMARK       I    between atoms: C13_31  and  N6_33 
REMARK   13  A    between atoms: N6_33  and  C14_35 
REMARK   14  A    between atoms: C15_37  and  N7_38 
REMARK   15  A    between atoms: C15_37  and  O8_42 
ROOT
HETATM    1  N4  UNL     1      -1.391  -0.823  -1.180  1.00  0.00    -0.278 N 
ATOM      2  H4  UNL     1      -1.750  -0.123  -1.830  1.00  0.00     0.179 HD
ENDROOT
BRANCH   1   3
HETATM    3  S1  UNL     1       0.096  -1.739  -1.339  1.00  0.00     0.303 S 
HETATM    4  O3  UNL     1      -0.097  -3.192  -1.325  1.00  0.00    -0.188 OA
HETATM    5  O4  UNL     1       0.624  -1.326  -2.724  1.00  0.00    -0.188 OA
BRANCH   3   6
HETATM    6  N3  UNL     1       1.211  -1.259  -0.124  1.00  0.00    -0.180 NA
HETATM    7  C6  UNL     1       2.443  -0.862  -0.627  1.00  0.00     0.168 C 
HETATM    8  C7  UNL     1       3.481  -1.726   0.115  1.00  0.00     0.032 C 
HETATM    9  C8  UNL     1       2.694  -2.949   0.477  1.00  0.00     0.018 C 
HETATM   10  C9  UNL     1       1.390  -2.289   0.888  1.00  0.00     0.110 C 
BRANCH   7  11
HETATM   11  C5  UNL     1       2.797   0.580  -0.446  1.00  0.00     0.241 C 
HETATM   12  N2  UNL     1       4.156   0.973  -0.766  1.00  0.00    -0.325 N 
HETATM   13  C3  UNL     1       5.025   1.411   0.045  1.00  0.00     0.080 C 
ATOM     14  H2  UNL     1       4.441   0.888  -1.742  1.00  0.00     0.169 HD
HETATM   15  O2  UNL     1       1.963   1.371  -0.040  1.00  0.00    -0.271 OA
BRANCH  13  16
HETATM   16  C2  UNL     1       6.371   1.744  -0.510  1.00  0.00     0.232 C 
HETATM   17  C1  UNL     1       7.384   0.816   0.154  1.00  0.00     0.046 C 
BRANCH  16  18
HETATM   18  N1  UNL     1       6.708   3.077  -0.113  1.00  0.00    -0.070 N 
ATOM     19  H13 UNL     1       6.758   3.194   0.899  1.00  0.00     0.275 HD
ATOM     20  H12 UNL     1       7.676   3.325  -0.319  1.00  0.00     0.275 HD
ATOM     21  H11 UNL     1       6.031   3.697  -0.557  1.00  0.00     0.275 HD
ENDBRANCH  16  18
ENDBRANCH  13  16
BRANCH  13  22
HETATM   22  C4  UNL     1       4.841   1.626   1.470  1.00  0.00     0.285 C 
HETATM   23  O1  UNL     1       3.830   1.435   2.134  1.00  0.00    -0.300 OA
ENDBRANCH  13  22
ENDBRANCH   7  11
ENDBRANCH   3   6
ENDBRANCH   1   3
BRANCH   1  24
HETATM   24  C10 UNL     1      -2.011  -1.258   0.061  1.00  0.00     0.156 C 
HETATM   25  C11 UNL     1      -3.263  -0.815   0.488  1.00  0.00     0.153 C 
BRANCH  25  26
HETATM   26  O5  UNL     1      -3.637  -1.208   1.742  1.00  0.00    -0.345 OA
ATOM     27  H5  UNL     1      -4.490  -0.906   2.033  1.00  0.00     0.219 HD
ENDBRANCH  25  26
BRANCH  25  28
HETATM   28  N5  UNL     1      -4.278  -0.045  -0.068  1.00  0.00    -0.353 N 
ATOM     29  H5  UNL     1      -4.225   0.316  -1.021  1.00  0.00     0.162 HD
BRANCH  28  30
HETATM   30  C12 UNL     1      -5.426   0.215   0.797  1.00  0.00     0.232 C 
BRANCH  30  31
HETATM   31  C13 UNL     1      -5.978   1.544   0.446  1.00  0.00     0.251 C 
HETATM   32  O6  UNL     1      -6.966   1.669  -0.296  1.00  0.00    -0.271 OA
HETATM   33  N6  UNL     1      -5.303   2.700   1.003  1.00  0.00    -0.303 N 
ATOM     34  H6  UNL     1      -4.467   2.593   1.577  1.00  0.00     0.171 HD
BRANCH  33  35
HETATM   35  C14 UNL     1      -5.834   3.974   0.729  1.00  0.00     0.355 C 
HETATM   36  O7  UNL     1      -6.924   4.026   0.060  1.00  0.00    -0.283 OA
ENDBRANCH  33  35
ENDBRANCH  30  31
BRANCH  30  37
HETATM   37  C15 UNL     1      -6.470  -0.820   0.387  1.00  0.00     0.348 C 
BRANCH  37  38
HETATM   38  N7  UNL     1      -7.035  -0.619  -0.884  1.00  0.00    -0.051 N 
ATOM     39  H73 UNL     1      -7.425   0.321  -0.952  1.00  0.00     0.277 HD
ATOM     40  H72 UNL     1      -6.302  -0.559  -1.590  1.00  0.00     0.277 HD
ATOM     41  H71 UNL     1      -7.733  -1.311  -1.158  1.00  0.00     0.277 HD
ENDBRANCH  37  38
BRANCH  37  42
HETATM   42  O8  UNL     1      -5.973  -2.107   0.563  1.00  0.00    -0.368 OA
ATOM     43  H8  UNL     1      -6.623  -2.751   0.308  1.00  0.00     0.212 HD
ENDBRANCH  37  42
ENDBRANCH  30  37
ENDBRANCH  28  30
ENDBRANCH  25  28
ENDBRANCH   1  24
TORSDOF 15
