REMARK  13 active torsions:
REMARK  status: ('A' for Active; 'I' for Inactive)
REMARK    1  A    between atoms: O1_2  and  C2_3 
REMARK       I    between atoms: C2_3  and  N1_5 
REMARK    2  A    between atoms: N1_5  and  C3_7 
REMARK    3  A    between atoms: C3_7  and  C4_8 
REMARK    4  A    between atoms: C3_7  and  C5_11 
REMARK    5  A    between atoms: C5_11  and  C6_12 
REMARK    6  A    between atoms: C5_11  and  C7_15 
REMARK    7  A    between atoms: C7_15  and  O5_16 
REMARK    8  A    between atoms: C7_15  and  C8_18 
REMARK       I    between atoms: C8_18  and  N4_20 
REMARK    9  A    between atoms: C12_24  and  C13_25 
REMARK       I    between atoms: C13_25  and  N5_27 
REMARK   10  A    between atoms: N5_27  and  C14_29 
REMARK   11  A    between atoms: C14_29  and  C15_30 
REMARK   12  A    between atoms: C14_29  and  C17_34 
REMARK   13  A    between atoms: C15_30  and  C16_31 
ROOT
HETATM    1  C8  UNL     1       0.640   0.085  -1.869  1.00  0.00     0.250 C 
HETATM    2  O6  UNL     1      -0.042  -0.531  -2.733  1.00  0.00    -0.270 OA
HETATM    3  N4  UNL     1      -0.067   0.951  -0.994  1.00  0.00    -0.337 N 
HETATM    4  C9  UNL     1       0.399   1.812   0.074  1.00  0.00     0.127 C 
HETATM    5  C10 UNL     1      -0.424   3.083  -0.193  1.00  0.00     0.022 C 
HETATM    6  C11 UNL     1      -1.797   2.497  -0.428  1.00  0.00     0.037 C 
HETATM    7  C12 UNL     1      -1.525   1.150  -1.004  1.00  0.00     0.179 C 
ENDROOT
BRANCH   1   8
HETATM    8  C7  UNL     1       2.092  -0.140  -1.842  1.00  0.00     0.225 C 
BRANCH   8   9
HETATM    9  C5  UNL     1       2.530  -0.786  -0.560  1.00  0.00     0.144 C 
BRANCH   9  10
HETATM   10  C3  UNL     1       4.026  -0.945  -0.447  1.00  0.00     0.191 C 
BRANCH  10  11
HETATM   11  N1  UNL     1       4.625   0.356  -0.678  1.00  0.00    -0.323 N 
HETATM   12  C2  UNL     1       5.255   1.122   0.308  1.00  0.00     0.360 C 
HETATM   13  O2  UNL     1       5.341   0.714   1.490  1.00  0.00    -0.239 OA
ATOM     14  H1  UNL     1       4.584   0.738  -1.623  1.00  0.00     0.165 HD
BRANCH  12  15
HETATM   15  O1  UNL     1       5.801   2.357   0.004  1.00  0.00    -0.309 OA
HETATM   16  C1  UNL     1       6.449   3.163   0.980  1.00  0.00     0.215 C 
ENDBRANCH  12  15
ENDBRANCH  10  11
BRANCH  10  17
HETATM   17  C4  UNL     1       4.612  -1.999  -1.264  1.00  0.00     0.255 C 
HETATM   18  N2  UNL     1       4.196  -3.353  -1.202  1.00  0.00    -0.060 NA
HETATM   19  O3  UNL     1       5.551  -1.763  -2.099  1.00  0.00    -0.275 OA
ENDBRANCH  10  17
ENDBRANCH   9  10
BRANCH   9  20
HETATM   20  C6  UNL     1       1.831  -2.093  -0.328  1.00  0.00     0.240 C 
HETATM   21  N3  UNL     1       1.936  -2.781   0.908  1.00  0.00    -0.062 NA
HETATM   22  O4  UNL     1       1.120  -2.654  -1.201  1.00  0.00    -0.276 OA
ENDBRANCH   9  20
ENDBRANCH   8   9
BRANCH   8  23
HETATM   23  O5  UNL     1       2.488  -0.897  -2.952  1.00  0.00    -0.385 OA
ATOM     24  H5  UNL     1       2.211  -0.488  -3.763  1.00  0.00     0.210 HD
ENDBRANCH   8  23
ENDBRANCH   1   8
BRANCH   7  25
HETATM   25  C13 UNL     1      -2.173   0.053  -0.272  1.00  0.00     0.241 C 
HETATM   26  O7  UNL     1      -1.540  -0.884   0.272  1.00  0.00    -0.271 OA
HETATM   27  N5  UNL     1      -3.609   0.060  -0.179  1.00  0.00    -0.346 N 
ATOM     28  H5  UNL     1      -4.134   0.817  -0.617  1.00  0.00     0.163 HD
BRANCH  27  29
HETATM   29  C14 UNL     1      -4.319  -0.976   0.517  1.00  0.00     0.182 C 
BRANCH  29  30
HETATM   30  C15 UNL     1      -5.087  -0.505   1.709  1.00  0.00     0.134 C 
BRANCH  30  31
HETATM   31  C16 UNL     1      -6.129   0.489   1.440  1.00  0.00     0.233 C 
HETATM   32  N6  UNL     1      -6.877   0.984   2.538  1.00  0.00    -0.062 NA
HETATM   33  O8  UNL     1      -6.405   0.932   0.309  1.00  0.00    -0.277 OA
ENDBRANCH  30  31
ENDBRANCH  29  30
BRANCH  29  34
HETATM   34  C17 UNL     1      -5.167  -1.758  -0.422  1.00  0.00     0.254 C 
HETATM   35  N7  UNL     1      -5.936  -2.820   0.099  1.00  0.00    -0.060 NA
HETATM   36  O9  UNL     1      -5.200  -1.481  -1.662  1.00  0.00    -0.275 OA
ENDBRANCH  29  34
ENDBRANCH  27  29
ENDBRANCH   7  25
TORSDOF 13
