REMARK  12 active torsions:
REMARK  status: ('A' for Active; 'I' for Inactive)
REMARK    1  A    between atoms: C2_2  and  C4_4 
REMARK    2  A    between atoms: C4_4  and  N1_5 
REMARK    3  A    between atoms: C4_4  and  C11_24 
REMARK       I    between atoms: N1_5  and  C5_7 
REMARK    4  A    between atoms: C5_7  and  C6_9 
REMARK    5  A    between atoms: C6_9  and  N2_10 
REMARK    6  A    between atoms: C6_9  and  C10_21 
REMARK       I    between atoms: N2_10  and  C7_12 
REMARK    7  A    between atoms: C7_12  and  C8_14 
REMARK    8  A    between atoms: C8_14  and  N3_15 
REMARK    9  A    between atoms: C8_14  and  C9_19 
REMARK       I    between atoms: C11_24  and  N5_26 
REMARK   10  A    between atoms: N5_26  and  C12_28 
REMARK   11  A    between atoms: C12_28  and  C13_29 
REMARK   12  A    between atoms: C15_33  and  S1_34 
ROOT
HETATM    1  N1  UNL     1       0.710  -0.644   0.059  1.00  0.00    -0.323 N 
ATOM      2  H1  UNL     1       0.738  -0.746  -0.955  1.00  0.00     0.169 HD
HETATM    3  C5  UNL     1       1.888   0.078   0.523  1.00  0.00     0.254 C 
HETATM    4  O1  UNL     1       1.901   0.358   1.713  1.00  0.00    -0.270 OA
ENDROOT
BRANCH   1   5
HETATM    5  C4  UNL     1      -0.423  -1.228   0.560  1.00  0.00     0.083 C 
BRANCH   5   6
HETATM    6  C2  UNL     1      -0.586  -2.601  -0.081  1.00  0.00     0.033 C 
HETATM    7  C1  UNL     1      -1.747  -3.376   0.486  1.00  0.00     0.016 C 
HETATM    8  C3  UNL     1      -0.785  -2.534  -1.579  1.00  0.00     0.016 C 
ENDBRANCH   5   6
BRANCH   5   9
HETATM    9  C11 UNL     1      -1.665  -0.547   0.892  1.00  0.00     0.265 C 
HETATM   10  O5  UNL     1      -1.962  -0.260   2.077  1.00  0.00    -0.266 OA
HETATM   11  N5  UNL     1      -2.621  -0.194  -0.164  1.00  0.00    -0.337 N 
ATOM     12  H5  UNL     1      -2.384  -0.330  -1.147  1.00  0.00     0.164 HD
BRANCH  11  13
HETATM   13  C12 UNL     1      -3.916   0.354   0.219  1.00  0.00     0.133 A 
HETATM   14  C14 UNL     1      -4.249   1.485  -0.827  1.00  0.00     0.068 A 
HETATM   15  C15 UNL     1      -4.208   1.678   0.654  1.00  0.00     0.170 A 
BRANCH  13  16
HETATM   16  C13 UNL     1      -4.940  -0.746   0.040  1.00  0.00     0.261 C 
HETATM   17  N6  UNL     1      -4.843  -1.497  -1.144  1.00  0.00    -0.060 NA
HETATM   18  O6  UNL     1      -5.835  -0.964   0.883  1.00  0.00    -0.274 OA
ENDBRANCH  13  16
BRANCH  15  19
HETATM   19  S1  UNL     1      -5.774   2.201   1.296  1.00  0.00     0.109 S 
HETATM   20  O7  UNL     1      -6.935   1.415   0.802  1.00  0.00    -0.595 OA
HETATM   21  O8  UNL     1      -5.816   2.281   2.778  1.00  0.00    -0.595 OA
HETATM   22  O9  UNL     1      -5.985   3.823   0.743  1.00  0.00    -0.595 OA
ENDBRANCH  15  19
ENDBRANCH  11  13
ENDBRANCH   5   9
ENDBRANCH   1   5
BRANCH   3  23
HETATM   23  C6  UNL     1       2.921   0.349  -0.407  1.00  0.00     0.267 C 
BRANCH  23  24
HETATM   24  N2  UNL     1       3.847   1.277  -0.790  1.00  0.00    -0.338 N 
HETATM   25  C7  UNL     1       4.890   1.836   0.044  1.00  0.00     0.256 C 
HETATM   26  O2  UNL     1       4.909   1.519   1.272  1.00  0.00    -0.271 OA
ATOM     27  H2  UNL     1       3.799   1.607  -1.754  1.00  0.00     0.163 HD
BRANCH  25  28
HETATM   28  C8  UNL     1       5.951   2.723  -0.488  1.00  0.00     0.335 C 
BRANCH  28  29
HETATM   29  N3  UNL     1       7.042   2.686   0.513  1.00  0.00    -0.060 N 
ATOM     30  H33 UNL     1       6.740   2.930   1.456  1.00  0.00     0.275 HD
ATOM     31  H32 UNL     1       7.367   1.744   0.729  1.00  0.00     0.275 HD
ATOM     32  H31 UNL     1       7.772   3.297   0.147  1.00  0.00     0.275 HD
ENDBRANCH  28  29
BRANCH  28  33
HETATM   33  C9  UNL     1       6.494   2.141  -1.759  1.00  0.00     0.273 C 
HETATM   34  O3  UNL     1       5.918   2.464  -2.782  1.00  0.00    -0.304 OA
ENDBRANCH  28  33
ENDBRANCH  25  28
ENDBRANCH  23  24
BRANCH  23  35
HETATM   35  C10 UNL     1       3.961  -0.887  -0.086  1.00  0.00     0.263 C 
HETATM   36  N4  UNL     1       3.709  -1.526   1.116  1.00  0.00    -0.060 NA
HETATM   37  O4  UNL     1       4.828  -1.127  -0.885  1.00  0.00    -0.274 OA
ENDBRANCH  23  35
ENDBRANCH   3  23
TORSDOF 12
