REMARK  1 active torsions:
REMARK  status: ('A' for Active; 'I' for Inactive)
REMARK    1  A    between atoms: N1_2  and  N3_6 
ROOT
HETATM    1  N3  UNL     1       0.421  -0.000   0.158  1.00  0.00    -0.303 N 
HETATM    2  C2  UNL     1       0.202  -0.672   1.426  1.00  0.00     0.145 C 
HETATM    3  C3  UNL     1      -1.190  -0.375   1.863  1.00  0.00     0.024 C 
HETATM    4  C4  UNL     1      -1.770   0.409   0.729  1.00  0.00     0.033 C 
HETATM    5  C5  UNL     1      -0.870   0.136  -0.444  1.00  0.00     0.042 C 
HETATM    6  C6  UNL     1      -0.972   1.284  -1.409  1.00  0.00     0.039 C 
HETATM    7  C7  UNL     1      -1.213  -1.148  -1.148  1.00  0.00     0.039 C 
ENDROOT
BRANCH   1   8
HETATM    8  N1  UNL     1       1.690   0.388  -0.278  1.00  0.00    -0.247 N 
HETATM    9  C1  UNL     1       2.910  -0.320   0.066  1.00  0.00     0.199 C 
HETATM   10  N2  UNL     1       1.821   1.411  -1.018  1.00  0.00    -0.329 N 
ATOM     11  H22 UNL     1       2.748   1.694  -1.336  1.00  0.00     0.178 HD
ATOM     12  H21 UNL     1       0.964   1.908  -1.260  1.00  0.00     0.178 HD
ENDBRANCH   1   8
TORSDOF 1
