REMARK  2 active torsions:
REMARK  status: ('A' for Active; 'I' for Inactive)
REMARK    1  A    between atoms: C2_2  and  N2_5 
REMARK    2  A    between atoms: N2_5  and  C4_7 
ROOT
HETATM    1  C1  UNL     1       2.800   0.771   1.082  1.00  0.00     0.048 C 
HETATM    2  C2  UNL     1       2.076   0.268  -0.107  1.00  0.00     0.181 C 
HETATM    3  C3  UNL     1       2.955  -0.776  -0.797  1.00  0.00     0.083 C 
HETATM    4  N1  UNL     1       3.555  -1.633  -1.220  1.00  0.00    -0.195 NA
ENDROOT
BRANCH   2   5
HETATM    5  N2  UNL     1       0.857  -0.373   0.185  1.00  0.00    -0.402 N 
ATOM      6  H2  UNL     1       0.865  -1.166   0.827  1.00  0.00     0.154 HD
BRANCH   5   7
HETATM    7  C4  UNL     1      -0.353   0.026  -0.361  1.00  0.00     0.077 C 
HETATM    8  C5  UNL     1      -1.141   1.099   0.284  1.00  0.00     0.024 C 
HETATM    9  C6  UNL     1      -2.554   0.498   0.352  1.00  0.00     0.002 C 
HETATM   10  C7  UNL     1      -2.605  -0.655  -0.622  1.00  0.00     0.002 C 
HETATM   11  C8  UNL     1      -1.215  -1.186  -0.599  1.00  0.00     0.024 C 
ENDBRANCH   5   7
ENDBRANCH   2   5
TORSDOF 2
