REMARK  14 active torsions:
REMARK  status: ('A' for Active; 'I' for Inactive)
REMARK    1  A    between atoms: N1_1  and  C1_4 
REMARK    2  A    between atoms: N4_12  and  C5_13 
REMARK    3  A    between atoms: C6_15  and  C7_16 
REMARK    4  A    between atoms: C7_16  and  O2_17 
REMARK    5  A    between atoms: C8_19  and  O3_20 
REMARK    6  A    between atoms: C8_19  and  C9_22 
REMARK    7  A    between atoms: C9_22  and  O4_23 
REMARK    8  A    between atoms: O4_23  and  N5_24 
REMARK       I    between atoms: C10_26  and  N6_27 
REMARK       I    between atoms: C10_26  and  N8_32 
REMARK    9  A    between atoms: N6_27  and  N7_29 
REMARK   10  A    between atoms: N8_32  and  N9_34 
REMARK   11  A    between atoms: N9_34  and  N10_35 
REMARK   12  A    between atoms: N9_34  and  N11_38 
REMARK   13  A    between atoms: C11_41  and  O5_42 
REMARK   14  A    between atoms: C12_44  and  O6_45 
ROOT
HETATM    1  C5  UNL     1       1.731   1.238  -0.507  1.00  0.00     0.263 C 
HETATM    2  O1  UNL     1       1.795   0.398  -1.600  1.00  0.00    -0.353 OA
HETATM    3  C6  UNL     1       0.849  -0.577  -1.502  1.00  0.00     0.187 C 
HETATM    4  C8  UNL     1       0.113  -0.412  -0.195  1.00  0.00     0.139 C 
HETATM    5  C11 UNL     1       0.380   1.049   0.104  1.00  0.00     0.206 C 
ENDROOT
BRANCH   4   6
HETATM    6  O3  UNL     1       0.594  -1.264   0.767  1.00  0.00    -0.382 OA
ATOM      7  H3  UNL     1       0.131  -1.160   1.590  1.00  0.00     0.210 HD
ENDBRANCH   4   6
BRANCH   4   8
HETATM    8  C9  UNL     1      -1.355  -0.703  -0.393  1.00  0.00     0.245 C 
BRANCH   8   9
HETATM    9  O4  UNL     1      -2.094  -0.520   0.776  1.00  0.00    -0.263 OA
BRANCH   9  10
HETATM   10  N5  UNL     1      -3.439  -0.745   0.757  1.00  0.00    -0.094 N 
HETATM   11  C10 UNL     1      -4.274   0.242   0.711  1.00  0.00     0.729 C 
HETATM   12  N6  UNL     1      -3.795   1.567   0.679  1.00  0.00    -0.136 N 
HETATM   13  N8  UNL     1      -5.678   0.025   0.691  1.00  0.00    -0.113 N 
ATOM     14  H6  UNL     1      -3.224   1.948   1.434  1.00  0.00     0.205 HD
ATOM     15  H8  UNL     1      -6.327   0.690   1.112  1.00  0.00     0.203 HD
ATOM     16  H5  UNL     1      -3.791  -1.702   0.779  1.00  0.00     0.213 HD
BRANCH  12  17
HETATM   17  N7  UNL     1      -4.143   2.342  -0.448  1.00  0.00    -0.331 N 
ATOM     18  H72 UNL     1      -4.714   1.947  -1.195  1.00  0.00     0.177 HD
ATOM     19  H71 UNL     1      -3.796   3.301  -0.471  1.00  0.00     0.177 HD
ENDBRANCH  12  17
BRANCH  13  20
HETATM   20  N9  UNL     1      -6.129  -1.143   0.067  1.00  0.00    -0.039 NA
BRANCH  20  21
HETATM   21  N10 UNL     1      -7.367  -1.008  -0.536  1.00  0.00    -0.327 NA
ATOM     22 2H10 UNL     1      -7.385  -0.248  -1.216  1.00  0.00     0.174 HD
ATOM     23 1H10 UNL     1      -7.696  -1.860  -0.991  1.00  0.00     0.174 HD
ENDBRANCH  20  21
BRANCH  20  24
HETATM   24  N11 UNL     1      -6.104  -2.184   0.999  1.00  0.00    -0.327 NA
ATOM     25 2H11 UNL     1      -5.191  -2.284   1.444  1.00  0.00     0.174 HD
ATOM     26 1H11 UNL     1      -6.433  -3.036   0.544  1.00  0.00     0.174 HD
ENDBRANCH  20  24
ENDBRANCH  13  20
ENDBRANCH   9  10
ENDBRANCH   8   9
ENDBRANCH   4   8
BRANCH   3  27
HETATM   27  C7  UNL     1       1.389  -1.978  -1.637  1.00  0.00     0.199 C 
BRANCH  27  28
HETATM   28  O2  UNL     1       2.330  -2.281  -0.666  1.00  0.00    -0.398 OA
ATOM     29  H2  UNL     1       2.670  -3.164  -0.751  1.00  0.00     0.209 HD
ENDBRANCH  27  28
ENDBRANCH   3  27
BRANCH   5  30
HETATM   30  O5  UNL     1      -0.531   1.774  -0.701  1.00  0.00    -0.388 OA
ATOM     31  H5  UNL     1      -1.390   1.654  -0.313  1.00  0.00     0.210 HD
ENDBRANCH   5  30
BRANCH   1  32
HETATM   32  N4  UNL     1       2.814   1.021   0.428  1.00  0.00    -0.297 N 
HETATM   33  C2  UNL     1       4.083   0.842   0.031  1.00  0.00     0.157 A 
HETATM   34  N2  UNL     1       4.679   0.811  -1.198  1.00  0.00    -0.174 N 
HETATM   35  C3  UNL     1       4.879   0.661   1.142  1.00  0.00     0.130 A 
HETATM   36  C1  UNL     1       6.000   0.612  -1.348  1.00  0.00     0.679 A 
ATOM     37  H2  UNL     1       4.103   0.943  -2.029  1.00  0.00     0.186 HD
HETATM   38  N12 UNL     1       6.753   0.439  -0.248  1.00  0.00    -0.168 N 
HETATM   39  C12 UNL     1       6.254   0.454   1.000  1.00  0.00     0.186 A 
ATOM     40  H12 UNL     1       7.755   0.289  -0.366  1.00  0.00     0.186 HD
HETATM   41  N3  UNL     1       4.071   0.735   2.186  1.00  0.00    -0.346 N 
HETATM   42  C4  UNL     1       2.816   0.953   1.762  1.00  0.00     0.188 A 
ATOM     43  H3  UNL     1       4.356   0.641   3.161  1.00  0.00     0.167 HD
BRANCH  36  44
HETATM   44  N1  UNL     1       6.548   0.587  -2.540  1.00  0.00    -0.234 N 
ATOM     45  H12 UNL     1       5.977   0.718  -3.375  1.00  0.00     0.174 HD
ATOM     46  H11 UNL     1       7.550   0.436  -2.654  1.00  0.00     0.174 HD
ENDBRANCH  36  44
BRANCH  39  47
HETATM   47  O6  UNL     1       7.005   0.278   2.144  1.00  0.00    -0.344 OA
ATOM     48  H6  UNL     1       7.940   0.137   2.047  1.00  0.00     0.219 HD
ENDBRANCH  39  47
ENDBRANCH   1  32
TORSDOF 14
