REMARK  13 active torsions:
REMARK  status: ('A' for Active; 'I' for Inactive)
REMARK    1  A    between atoms: N1_1  and  C1_4 
REMARK    2  A    between atoms: C2_7  and  N3_8 
REMARK    3  A    between atoms: N3_8  and  C3_10 
REMARK    4  A    between atoms: C3_10  and  O1_11 
REMARK    5  A    between atoms: C3_10  and  C4_13 
REMARK    6  A    between atoms: C4_13  and  N4_14 
REMARK    7  A    between atoms: C5_18  and  C6_19 
REMARK    8  A    between atoms: C6_19  and  O2_20 
REMARK    9  A    between atoms: C8_23  and  O3_24 
REMARK   10  A    between atoms: C9_26  and  O4_27 
REMARK   11  A    between atoms: C9_26  and  N5_29 
REMARK   12  A    between atoms: C13_39  and  O7_40 
REMARK   13  A    between atoms: C14_42  and  O8_43 
ROOT
HETATM    1  C1  UNL     1      -3.298   2.987  -0.217  1.00  0.00     0.679 A 
HETATM    2  N2  UNL     1      -3.294   1.662  -0.181  1.00  0.00    -0.176 N 
ATOM      3  H2  UNL     1      -4.186   1.187  -0.322  1.00  0.00     0.186 HD
HETATM    4  C2  UNL     1      -2.198   0.884   0.028  1.00  0.00     0.132 A 
HETATM    5  C5  UNL     1      -0.983   1.527   0.217  1.00  0.00     0.074 A 
HETATM    6  C14 UNL     1      -0.983   2.906   0.183  1.00  0.00     0.168 A 
HETATM    7  N8  UNL     1      -2.138   3.599  -0.034  1.00  0.00    -0.170 N 
ATOM      8  H8  UNL     1      -2.107   4.618  -0.056  1.00  0.00     0.186 HD
ENDROOT
BRANCH   5   9
HETATM    9  C6  UNL     1       0.248   0.787   0.391  1.00  0.00     0.126 C 
HETATM   10  C7  UNL     1       1.373   1.786   0.794  1.00  0.00     0.083 C 
HETATM   11  C8  UNL     1       2.579   0.766   0.910  1.00  0.00     0.180 C 
HETATM   12  C9  UNL     1       2.430   0.187  -0.470  1.00  0.00     0.198 C 
HETATM   13  C13 UNL     1       0.927   0.186  -0.791  1.00  0.00     0.216 C 
BRANCH   9  14
HETATM   14  O2  UNL     1       0.158  -0.059   1.504  1.00  0.00    -0.382 OA
ATOM     15  H2  UNL     1       0.966  -0.545   1.618  1.00  0.00     0.211 HD
ENDBRANCH   9  14
BRANCH  11  16
HETATM   16  O3  UNL     1       3.745   1.471   1.034  1.00  0.00    -0.390 OA
ATOM     17  H3  UNL     1       4.468   0.859   1.104  1.00  0.00     0.210 HD
ENDBRANCH  11  16
BRANCH  12  18
HETATM   18  O4  UNL     1       3.119   1.080  -1.332  1.00  0.00    -0.366 OA
ATOM     19  H4  UNL     1       3.025   0.714  -2.204  1.00  0.00     0.212 HD
ENDBRANCH  12  18
BRANCH  12  20
HETATM   20  N5  UNL     1       3.072  -1.061  -0.574  1.00  0.00    -0.257 N 
HETATM   21  C10 UNL     1       3.051  -1.991   0.387  1.00  0.00     0.195 A 
HETATM   22  N6  UNL     1       3.667  -3.183   0.296  1.00  0.00    -0.304 N 
HETATM   23  C11 UNL     1       4.357  -3.503  -0.808  1.00  0.00     0.329 A 
ATOM     24  H6  UNL     1       3.609  -3.846   1.069  1.00  0.00     0.171 HD
HETATM   25  O5  UNL     1       4.944  -4.631  -0.901  1.00  0.00    -0.247 OA
HETATM   26  N7  UNL     1       4.406  -2.604  -1.798  1.00  0.00    -0.260 N 
HETATM   27  C12 UNL     1       3.786  -1.421  -1.690  1.00  0.00     0.334 A 
ATOM     28  H7  UNL     1       4.924  -2.823  -2.649  1.00  0.00     0.175 HD
HETATM   29  O6  UNL     1       3.844  -0.593  -2.627  1.00  0.00    -0.246 OA
ENDBRANCH  12  20
BRANCH  13  30
HETATM   30  O7  UNL     1       0.648  -1.124  -1.103  1.00  0.00    -0.387 OA
ATOM     31  H7  UNL     1       1.081  -1.507  -1.857  1.00  0.00     0.210 HD
ENDBRANCH  13  30
ENDBRANCH   5   9
BRANCH   4  32
HETATM   32  N3  UNL     1      -2.342  -0.508   0.116  1.00  0.00    -0.348 N 
ATOM     33  H3  UNL     1      -1.549  -1.104   0.353  1.00  0.00     0.163 HD
BRANCH  32  34
HETATM   34  C3  UNL     1      -3.663  -1.079  -0.142  1.00  0.00     0.244 C 
BRANCH  34  35
HETATM   35  O1  UNL     1      -4.075  -0.760  -1.437  1.00  0.00    -0.375 OA
ATOM     36  H1  UNL     1      -4.933  -1.131  -1.605  1.00  0.00     0.212 HD
ENDBRANCH  34  35
BRANCH  34  37
HETATM   37  C4  UNL     1      -3.643  -2.590  -0.052  1.00  0.00     0.282 C 
BRANCH  37  38
HETATM   38  N4  UNL     1      -3.227  -3.048   1.257  1.00  0.00    -0.075 N 
ATOM     39  H43 UNL     1      -2.326  -2.649   1.520  1.00  0.00     0.274 HD
ATOM     40  H42 UNL     1      -3.804  -2.640   1.993  1.00  0.00     0.274 HD
ATOM     41  H41 UNL     1      -3.214  -4.066   1.318  1.00  0.00     0.274 HD
ENDBRANCH  37  38
ENDBRANCH  34  37
ENDBRANCH  32  34
ENDBRANCH   4  32
BRANCH   6  42
HETATM   42  O8  UNL     1       0.112   3.736   0.353  1.00  0.00    -0.345 OA
ATOM     43  H8  UNL     1       0.112   4.686   0.330  1.00  0.00     0.219 HD
ENDBRANCH   6  42
BRANCH   1  44
HETATM   44  N1  UNL     1      -4.389   3.665  -0.424  1.00  0.00    -0.234 N 
ATOM     45  H12 UNL     1      -5.282   3.194  -0.565  1.00  0.00     0.174 HD
ATOM     46  H11 UNL     1      -4.392   4.685  -0.452  1.00  0.00     0.174 HD
ENDBRANCH   1  44
TORSDOF 13
