REMARK  15 active torsions:
REMARK  status: ('A' for Active; 'I' for Inactive)
REMARK    1  A    between atoms: N2_5  and  C2_6 
REMARK    2  A    between atoms: N6_14  and  C4_15 
REMARK    3  A    between atoms: C4_15  and  O1_16 
REMARK    4  A    between atoms: C4_15  and  C5_18 
REMARK    5  A    between atoms: C5_18  and  N7_19 
REMARK    6  A    between atoms: C5_18  and  C6_23 
REMARK    7  A    between atoms: C6_23  and  O2_24 
REMARK    8  A    between atoms: C6_23  and  C7_26 
REMARK    9  A    between atoms: C7_26  and  O3_27 
REMARK   10  A    between atoms: C7_26  and  O4_29 
REMARK   11  A    between atoms: C10_35  and  C11_36 
REMARK   12  A    between atoms: C11_36  and  O5_37 
REMARK   13  A    between atoms: C12_40  and  N9_41 
REMARK   14  A    between atoms: N9_41  and  N10_42 
REMARK   15  A    between atoms: N11_45  and  N12_46 
ROOT
HETATM    1  C2  UNL     1       0.798  -1.702   0.203  1.00  0.00     0.715 A 
HETATM    2  N3  UNL     1       0.678  -3.009  -0.078  1.00  0.00    -0.130 N 
ATOM      3  H3  UNL     1       1.523  -3.572  -0.174  1.00  0.00     0.205 HD
HETATM    4  N4  UNL     1      -0.485  -3.584  -0.233  1.00  0.00    -0.267 N 
ATOM      5  H4  UNL     1      -0.534  -4.580  -0.447  1.00  0.00     0.189 HD
HETATM    6  C3  UNL     1      -1.611  -2.873  -0.113  1.00  0.00     0.182 A 
HETATM    7  N5  UNL     1      -2.920  -2.710  -0.114  1.00  0.00    -0.275 N 
ATOM      8  H5  UNL     1      -3.698  -3.351  -0.271  1.00  0.00     0.189 HD
HETATM    9  N6  UNL     1      -2.862  -1.396   0.167  1.00  0.00    -0.239 N 
HETATM   10  C8  UNL     1      -1.504  -1.544   0.173  1.00  0.00     0.187 A 
HETATM   11  N8  UNL     1      -0.311  -0.953   0.332  1.00  0.00    -0.169 N 
ATOM     12  H8  UNL     1      -0.246   0.042   0.546  1.00  0.00     0.186 HD
ENDROOT
BRANCH   1  13
HETATM   13  N2  UNL     1       2.070  -1.090   0.370  1.00  0.00    -0.009 N 
HETATM   14  C1  UNL     1       2.071   0.318   0.653  1.00  0.00     0.712 C 
HETATM   15  N1  UNL     1       0.962   0.943   0.621  1.00  0.00    -0.232 N 
HETATM   16  N11 UNL     1       3.276   1.054   0.966  1.00  0.00    -0.084 N 
ATOM     17  H12 UNL     1       0.112   0.424   0.400  1.00  0.00     0.174 HD
ATOM     18  H11 UNL     1       0.963   1.943   0.822  1.00  0.00     0.174 HD
HETATM   19  C12 UNL     1       4.456   0.516   1.562  1.00  0.00     0.379 C 
HETATM   20  O6  UNL     1       5.056  -0.488   0.864  1.00  0.00    -0.340 OA
HETATM   21  C10 UNL     1       4.403  -1.053  -0.181  1.00  0.00     0.168 C 
HETATM   22  C9  UNL     1       3.239  -1.976   0.229  1.00  0.00     0.201 C 
BRANCH  16  23
HETATM   23  N12 UNL     1       3.250   2.412   0.636  1.00  0.00    -0.325 N 
ATOM     24 2H12 UNL     1       2.407   2.796   0.210  1.00  0.00     0.177 HD
ATOM     25 1H12 UNL     1       4.100   2.931   0.857  1.00  0.00     0.177 HD
ENDBRANCH  16  23
BRANCH  19  26
HETATM   26  N9  UNL     1       5.344   1.597   1.915  1.00  0.00    -0.092 NA
BRANCH  26  27
HETATM   27  N10 UNL     1       4.759   2.564   2.716  1.00  0.00    -0.344 N 
ATOM     28 2H10 UNL     1       3.787   2.503   3.020  1.00  0.00     0.172 HD
ATOM     29 1H10 UNL     1       5.387   3.328   2.966  1.00  0.00     0.172 HD
ENDBRANCH  26  27
ENDBRANCH  19  26
BRANCH  21  30
HETATM   30  C11 UNL     1       5.394  -1.960  -0.918  1.00  0.00     0.197 C 
BRANCH  30  31
HETATM   31  O5  UNL     1       4.792  -2.576  -2.007  1.00  0.00    -0.398 OA
ATOM     32  H5  UNL     1       5.406  -3.138  -2.464  1.00  0.00     0.209 HD
ENDBRANCH  30  31
ENDBRANCH  21  30
ENDBRANCH   1  13
BRANCH   9  33
HETATM   33  C4  UNL     1      -3.795  -0.304   0.374  1.00  0.00     0.276 C 
BRANCH  33  34
HETATM   34  O1  UNL     1      -3.346   0.387   1.499  1.00  0.00    -0.373 OA
ATOM     35  H1  UNL     1      -3.957   1.102   1.635  1.00  0.00     0.212 HD
ENDBRANCH  33  34
BRANCH  33  36
HETATM   36  C5  UNL     1      -3.791   0.554  -0.852  1.00  0.00     0.266 C 
BRANCH  36  37
HETATM   37  N7  UNL     1      -4.262  -0.176  -2.015  1.00  0.00    -0.068 N 
ATOM     38  H73 UNL     1      -3.729  -1.034  -2.158  1.00  0.00     0.275 HD
ATOM     39  H72 UNL     1      -5.181  -0.587  -1.850  1.00  0.00     0.275 HD
ATOM     40  H71 UNL     1      -4.259   0.409  -2.851  1.00  0.00     0.275 HD
ENDBRANCH  36  37
BRANCH  36  41
HETATM   41  C6  UNL     1      -4.513   1.845  -0.737  1.00  0.00     0.207 C 
BRANCH  41  42
HETATM   42  O2  UNL     1      -4.063   2.554   0.383  1.00  0.00    -0.388 OA
ATOM     43  H2  UNL     1      -4.525   3.381   0.457  1.00  0.00     0.210 HD
ENDBRANCH  41  42
BRANCH  41  44
HETATM   44  C7  UNL     1      -5.998   1.767  -0.669  1.00  0.00     0.284 C 
BRANCH  44  45
HETATM   45  O3  UNL     1      -6.583   1.092  -1.714  1.00  0.00    -0.369 OA
ATOM     46  H3  UNL     1      -7.531   1.042  -1.671  1.00  0.00     0.212 HD
ENDBRANCH  44  45
BRANCH  44  47
HETATM   47  O4  UNL     1      -6.450   1.313   0.587  1.00  0.00    -0.369 OA
ATOM     48  H4  UNL     1      -7.398   1.263   0.630  1.00  0.00     0.212 HD
ENDBRANCH  44  47
ENDBRANCH  41  44
ENDBRANCH  36  41
ENDBRANCH  33  36
ENDBRANCH   9  33
TORSDOF 15
