REMARK  6 active torsions:
REMARK  status: ('A' for Active; 'I' for Inactive)
REMARK    1  A    between atoms: N1_1  and  N2_4 
REMARK       I    between atoms: N2_4  and  C1_6 
REMARK    2  A    between atoms: C1_6  and  C2_8 
REMARK    3  A    between atoms: N3_9  and  N4_11 
REMARK       I    between atoms: N4_11  and  C3_13 
REMARK       I    between atoms: C3_13  and  N5_15 
REMARK    4  A    between atoms: N5_15  and  N6_17 
REMARK    5  A    between atoms: C4_19  and  C5_20 
REMARK    6  A    between atoms: N7_24  and  N8_25 
ROOT
HETATM    1  N4  UNL     1       2.108  -1.785   0.766  1.00  0.00    -0.251 N 
ATOM      2  H4  UNL     1       2.192  -1.845   1.781  1.00  0.00     0.191 HD
HETATM    3  C3  UNL     1       0.870  -1.375   0.171  1.00  0.00     0.353 C 
HETATM    4  O2  UNL     1       0.742  -1.294  -1.081  1.00  0.00    -0.244 OA
HETATM    5  N5  UNL     1      -0.215  -1.060   1.023  1.00  0.00    -0.251 N 
ATOM      6  H5  UNL     1      -0.111  -1.126   2.036  1.00  0.00     0.191 HD
ENDROOT
BRANCH   1   7
HETATM    7  N3  UNL     1       3.176  -2.096  -0.030  1.00  0.00    -0.302 N 
HETATM    8  C2  UNL     1       4.235  -1.462  -0.217  1.00  0.00     0.182 C 
ATOM      9  H3  UNL     1       3.096  -2.973  -0.545  1.00  0.00     0.186 HD
BRANCH   8  10
HETATM   10  C1  UNL     1       4.632  -0.223   0.351  1.00  0.00     0.276 C 
HETATM   11  N2  UNL     1       3.953   0.605   1.260  1.00  0.00    -0.272 N 
ATOM     12  H2  UNL     1       3.033   0.312   1.589  1.00  0.00     0.189 HD
HETATM   13  O1  UNL     1       5.795   0.232  -0.009  1.00  0.00    -0.265 OA
BRANCH  11  14
HETATM   14  N1  UNL     1       4.483   1.825   1.742  1.00  0.00    -0.342 N 
ATOM     15  H12 UNL     1       5.404   2.102   1.403  1.00  0.00     0.176 HD
ATOM     16  H11 UNL     1       3.990   2.426   2.402  1.00  0.00     0.176 HD
ENDBRANCH  11  14
ENDBRANCH   8  10
ENDBRANCH   1   7
BRANCH   5  17
HETATM   17  N6  UNL     1      -1.428  -0.659   0.464  1.00  0.00    -0.306 N 
HETATM   18  C4  UNL     1      -1.516   0.349  -0.351  1.00  0.00     0.138 C 
ATOM     19  H6  UNL     1      -2.275  -1.175   0.703  1.00  0.00     0.186 HD
BRANCH  18  20
HETATM   20  C5  UNL     1      -2.837   0.669  -0.868  1.00  0.00     0.072 A 
HETATM   21  C6  UNL     1      -3.092   1.704  -1.738  1.00  0.00     0.034 A 
HETATM   22  C7  UNL     1      -4.449   1.685  -1.993  1.00  0.00     0.022 A 
HETATM   23  C8  UNL     1      -5.010   0.661  -1.293  1.00  0.00     0.116 A 
HETATM   24  N7  UNL     1      -4.005   0.061  -0.619  1.00  0.00    -0.273 N 
BRANCH  24  25
HETATM   25  N8  UNL     1      -4.107  -1.055   0.245  1.00  0.00    -0.339 N 
ATOM     26  H82 UNL     1      -3.348  -1.508   0.754  1.00  0.00     0.177 HD
ATOM     27  H81 UNL     1      -4.996  -1.518   0.435  1.00  0.00     0.177 HD
ENDBRANCH  24  25
ENDBRANCH  18  20
ENDBRANCH   5  17
TORSDOF 6
