REMARK  4 active torsions:
REMARK  status: ('A' for Active; 'I' for Inactive)
REMARK       I    between atoms: C1_4  and  N3_6 
REMARK    1  A    between atoms: N3_6  and  N4_8 
REMARK       I    between atoms: N4_8  and  C2_10 
REMARK    2  A    between atoms: C2_10  and  C3_12 
REMARK    3  A    between atoms: C3_12  and  C4_13 
REMARK    4  A    between atoms: C3_12  and  N5_16 
ROOT
HETATM    1  C3  UNL     1       0.104  -0.827   0.847  1.00  0.00     0.303 C 
ENDROOT
BRANCH   1   2
HETATM    2  C2  UNL     1      -0.533   0.460   0.482  1.00  0.00     0.271 C 
HETATM    3  N4  UNL     1      -1.948   0.440   0.256  1.00  0.00    -0.265 N 
ATOM      4  H4  UNL     1      -2.442  -0.447   0.355  1.00  0.00     0.190 HD
HETATM    5  O1  UNL     1       0.155   1.487   0.386  1.00  0.00    -0.269 OA
BRANCH   3   6
HETATM    6  N3  UNL     1      -2.683   1.575  -0.093  1.00  0.00    -0.271 N 
HETATM    7  C1  UNL     1      -4.054   1.501  -0.441  1.00  0.00     0.200 C 
HETATM    8  N1  UNL     1      -4.682   2.522  -0.901  1.00  0.00    -0.372 N 
HETATM    9  N2  UNL     1      -4.799   0.281  -0.302  1.00  0.00    -0.062 NA
ATOM     10  H12 UNL     1      -5.669   2.469  -1.152  1.00  0.00     0.158 HD
ATOM     11  H11 UNL     1      -4.153   3.388  -1.000  1.00  0.00     0.158 HD
ATOM     12  H3  UNL     1      -2.219   2.483  -0.097  1.00  0.00     0.189 HD
ENDBRANCH   3   6
ENDBRANCH   1   2
BRANCH   1  13
HETATM   13  C4  UNL     1      -0.313  -1.903  -0.121  1.00  0.00     0.208 C 
HETATM   14  O2  UNL     1      -0.833  -2.979   0.244  1.00  0.00    -0.646 OA
HETATM   15  O3  UNL     1      -0.116  -1.712  -1.477  1.00  0.00    -0.646 OA
ENDBRANCH   1  13
BRANCH   1  16
HETATM   16  N5  UNL     1       1.552  -0.769   0.773  1.00  0.00    -0.247 N 
HETATM   17  N6  UNL     1       2.468  -1.519   1.414  1.00  0.00    -0.277 N 
HETATM   18  C5  UNL     1       3.435  -0.837   0.776  1.00  0.00     0.166 A 
ATOM     19  H6  UNL     1       2.440  -2.279   2.093  1.00  0.00     0.189 HD
HETATM   20  N7  UNL     1       4.738  -0.620   0.543  1.00  0.00    -0.347 N 
HETATM   21  C8  UNL     1       2.495  -0.066   0.119  1.00  0.00     0.170 A 
HETATM   22  C6  UNL     1       5.158   0.338  -0.324  1.00  0.00     0.107 A 
ATOM     23  H7  UNL     1       5.431  -1.189   1.029  1.00  0.00     0.167 HD
HETATM   24  C7  UNL     1       4.191   1.081  -0.957  1.00  0.00     0.107 A 
HETATM   25  N8  UNL     1       2.870   0.873  -0.729  1.00  0.00    -0.347 N 
ATOM     26  H8  UNL     1       2.171   1.439  -1.210  1.00  0.00     0.167 HD
ENDBRANCH   1  16
TORSDOF 4
