REMARK  8 active torsions:
REMARK  status: ('A' for Active; 'I' for Inactive)
REMARK    1  A    between atoms: N1_1  and  C1_4 
REMARK    2  A    between atoms: C4_13  and  N5_14 
REMARK    3  A    between atoms: N5_14  and  N6_16 
REMARK    4  A    between atoms: N6_16  and  C5_18 
REMARK    5  A    between atoms: C5_18  and  C6_19 
REMARK    6  A    between atoms: C5_18  and  C7_21 
REMARK    7  A    between atoms: C7_21  and  N7_22 
REMARK    8  A    between atoms: C7_21  and  O2_26 
ROOT
HETATM    1  C1  UNL     1       4.295   0.354   0.395  1.00  0.00     0.115 A 
HETATM    2  N2  UNL     1       5.131  -0.691   0.130  1.00  0.00    -0.338 N 
ATOM      3  H2  UNL     1       6.132  -0.601   0.304  1.00  0.00     0.168 HD
HETATM    4  C2  UNL     1       4.635  -1.840  -0.361  1.00  0.00     0.183 A 
HETATM    5  N3  UNL     1       3.311  -1.949  -0.588  1.00  0.00    -0.337 N 
ATOM      6  H3  UNL     1       2.944  -2.825  -0.960  1.00  0.00     0.168 HD
HETATM    7  C3  UNL     1       2.455  -0.935  -0.338  1.00  0.00     0.137 A 
HETATM    8  N4  UNL     1       1.142  -1.035  -0.561  1.00  0.00    -0.174 N 
ATOM      9  H4  UNL     1       0.776  -1.911  -0.934  1.00  0.00     0.186 HD
HETATM   10  C4  UNL     1       0.262  -0.009  -0.310  1.00  0.00     0.698 A 
HETATM   11  N8  UNL     1       0.735   1.140   0.178  1.00  0.00    -0.199 N 
ATOM     12  H8  UNL     1       0.096   1.912   0.370  1.00  0.00     0.183 HD
HETATM   13  C8  UNL     1       2.044   1.284   0.417  1.00  0.00     0.125 A 
HETATM   14  C9  UNL     1       2.941   0.252   0.165  1.00  0.00     0.068 A 
ENDROOT
BRANCH  10  15
HETATM   15  N5  UNL     1      -0.985  -0.172  -0.547  1.00  0.00    -0.135 N 
ATOM     16  H5  UNL     1      -1.309  -1.064  -0.920  1.00  0.00     0.205 HD
BRANCH  15  17
HETATM   17  N6  UNL     1      -1.900   0.831  -0.310  1.00  0.00    -0.306 N 
ATOM     18  H6  UNL     1      -1.653   1.786  -0.570  1.00  0.00     0.181 HD
BRANCH  17  19
HETATM   19  C5  UNL     1      -3.205   0.590   0.295  1.00  0.00     0.216 C 
BRANCH  19  20
HETATM   20  C6  UNL     1      -3.009  -0.012   1.628  1.00  0.00     0.262 C 
HETATM   21  O1  UNL     1      -1.904  -0.235   2.060  1.00  0.00    -0.304 OA
ENDBRANCH  19  20
BRANCH  19  22
HETATM   22  C7  UNL     1      -4.054  -0.289  -0.606  1.00  0.00     0.347 C 
BRANCH  22  23
HETATM   23  N7  UNL     1      -5.366  -0.504  -0.087  1.00  0.00    -0.051 N 
ATOM     24  H73 UNL     1      -5.328  -0.880   0.861  1.00  0.00     0.277 HD
ATOM     25  H72 UNL     1      -5.833   0.382   0.106  1.00  0.00     0.277 HD
ATOM     26  H71 UNL     1      -5.936  -1.095  -0.692  1.00  0.00     0.277 HD
ENDBRANCH  22  23
BRANCH  22  27
HETATM   27  O2  UNL     1      -3.414  -1.497  -0.793  1.00  0.00    -0.368 OA
ATOM     28  H2  UNL     1      -3.945  -2.047  -1.357  1.00  0.00     0.212 HD
ENDBRANCH  22  27
ENDBRANCH  19  22
ENDBRANCH  17  19
ENDBRANCH  15  17
ENDBRANCH  10  15
BRANCH   1  29
HETATM   29  N1  UNL     1       4.737   1.465   0.864  1.00  0.00    -0.385 N 
ATOM     30  H12 UNL     1       5.740   1.541   1.034  1.00  0.00     0.157 HD
ATOM     31  H11 UNL     1       4.112   2.246   1.062  1.00  0.00     0.157 HD
ENDBRANCH   1  29
TORSDOF 8
