REMARK  3 active torsions:
REMARK  status: ('A' for Active; 'I' for Inactive)
REMARK    1  A    between atoms: C1_2  and  O2_3 
REMARK    2  A    between atoms: C1_2  and  C8_13 
REMARK    3  A    between atoms: O2_3  and  C2_4 
ROOT
HETATM    1  C2  UNL     1       1.460   0.022   0.151  1.00  0.00     0.134 C 
HETATM    2  C3  UNL     1       2.438   1.051  -0.393  1.00  0.00     0.041 C 
HETATM    3  C4  UNL     1       3.755   0.346  -0.503  1.00  0.00     0.044 A 
HETATM    4  C5  UNL     1       4.485   0.091   0.787  1.00  0.00     0.239 A 
HETATM    5  N1  UNL     1       4.105  -1.308   0.804  1.00  0.00    -0.070 N 
ATOM      6  H11 UNL     1       3.582  -1.691   1.591  1.00  0.00     0.277 HD
ATOM      7  H12 UNL     1       4.811  -2.033   0.930  1.00  0.00     0.277 HD
HETATM    8  C6  UNL     1       3.471  -1.127  -0.468  1.00  0.00     0.194 A 
HETATM    9  C7  UNL     1       1.977  -1.250  -0.486  1.00  0.00     0.066 C 
ENDROOT
BRANCH   1  10
HETATM   10  O2  UNL     1       0.152   0.248  -0.295  1.00  0.00    -0.316 OA
BRANCH  10  11
HETATM   11  C1  UNL     1      -0.947   0.435   0.494  1.00  0.00     0.263 C 
HETATM   12  O1  UNL     1      -0.795   0.406   1.741  1.00  0.00    -0.265 OA
BRANCH  11  13
HETATM   13  C8  UNL     1      -2.317   0.672  -0.020  1.00  0.00     0.085 C 
HETATM   14  C9  UNL     1      -2.798  -0.478  -0.881  1.00  0.00     0.014 C 
HETATM   15  C10 UNL     1      -4.296  -0.265  -0.904  1.00  0.00     0.001 C 
HETATM   16  C11 UNL     1      -4.635   0.562   0.311  1.00  0.00     0.001 C 
HETATM   17  C12 UNL     1      -3.336   0.647   1.100  1.00  0.00     0.014 C 
ENDBRANCH  11  13
ENDBRANCH  10  11
ENDBRANCH   1  10
TORSDOF 3
