REMARK  1 active torsions:
REMARK  status: ('A' for Active; 'I' for Inactive)
REMARK    1  A    between atoms: C2_2  and  C4_5 
ROOT
HETATM    1  C1  UNL     1       3.669   1.212   0.403  1.00  0.00     0.028 C 
HETATM    2  C2  UNL     1       2.860  -0.021   0.082  1.00  0.00     0.121 C 
HETATM    3  C3  UNL     1       2.911  -0.342  -1.345  1.00  0.00     0.066 C 
HETATM    4  N1  UNL     1       2.955  -0.596  -2.465  1.00  0.00    -0.197 NA
ENDROOT
BRANCH   2   5
HETATM    5  C4  UNL     1       1.388   0.267   0.458  1.00  0.00     0.156 C 
HETATM    6  N2  UNL     1       0.696  -0.925   0.131  1.00  0.00    -0.403 N 
HETATM    7  C5  UNL     1      -0.542  -1.155   0.868  1.00  0.00     0.078 C 
ATOM      8  H2  UNL     1       1.040  -1.579  -0.572  1.00  0.00     0.154 HD
HETATM    9  C6  UNL     1      -1.505  -1.886  -0.067  1.00  0.00     0.024 C 
HETATM   10  C11 UNL     1      -1.130   0.251   0.947  1.00  0.00     0.030 C 
HETATM   11  C7  UNL     1      -2.847  -1.206  -0.183  1.00  0.00     0.002 C 
HETATM   12  C8  UNL     1      -2.721   0.187  -0.834  1.00  0.00     0.005 C 
HETATM   13  C9  UNL     1      -1.344   0.583  -0.540  1.00  0.00    -0.003 C 
HETATM   14  C10 UNL     1      -0.851   1.956  -0.717  1.00  0.00     0.080 C 
HETATM   15  S1  UNL     1       0.949   1.763  -0.386  1.00  0.00    -0.142 SA
ENDBRANCH   2   5
TORSDOF 1
