REMARK  2 active torsions:
REMARK  status: ('A' for Active; 'I' for Inactive)
REMARK       I    between atoms: C2_2  and  N1_4 
REMARK    1  A    between atoms: N1_4  and  O2_5 
REMARK    2  A    between atoms: N1_4  and  C3_7 
ROOT
HETATM    1  C3  UNL     1       0.519   0.164   0.491  1.00  0.00     0.135 C 
HETATM    2  C4  UNL     1      -0.124  -1.169   0.421  1.00  0.00     0.029 C 
HETATM    3  C5  UNL     1      -1.277  -1.364   1.368  1.00  0.00     0.002 C 
HETATM    4  C6  UNL     1      -2.433  -0.471   1.163  1.00  0.00     0.000 C 
HETATM    5  C7  UNL     1      -2.809  -0.287  -0.298  1.00  0.00     0.000 C 
HETATM    6  C8  UNL     1      -2.287   1.077  -0.695  1.00  0.00     0.001 C 
HETATM    7  C9  UNL     1      -0.981   0.832  -1.441  1.00  0.00     0.021 C 
HETATM    8  C10 UNL     1       0.226   1.120  -0.613  1.00  0.00     0.118 C 
HETATM    9  C11 UNL     1       0.021   2.481  -0.047  1.00  0.00     0.066 C 
HETATM   10  N2  UNL     1      -0.142   3.531   0.409  1.00  0.00    -0.197 NA
ENDROOT
BRANCH   1  11
HETATM   11  N1  UNL     1       1.980  -0.031   0.478  1.00  0.00    -0.223 N 
HETATM   12  C2  UNL     1       2.590  -0.674  -0.631  1.00  0.00     0.239 C 
HETATM   13  C1  UNL     1       4.055  -0.875  -0.679  1.00  0.00     0.119 C 
HETATM   14  O1  UNL     1       1.877  -1.078  -1.583  1.00  0.00    -0.272 OA
BRANCH  11  15
HETATM   15  O2  UNL     1       2.765   0.386   1.484  1.00  0.00    -0.284 OA
ATOM     16  H2  UNL     1       2.357   0.816   2.226  1.00  0.00     0.245 HD
ENDBRANCH  11  15
ENDBRANCH   1  11
TORSDOF 2
