REMARK  4 active torsions:
REMARK  status: ('A' for Active; 'I' for Inactive)
REMARK    1  A    between atoms: C4_4  and  C5_5 
REMARK    2  A    between atoms: C5_5  and  C7_8 
REMARK    3  A    between atoms: C7_8  and  C8_13 
REMARK    4  A    between atoms: N2_9  and  O1_11 
ROOT
HETATM    1  C1  UNL     1       6.687  -0.659   0.620  1.00  0.00     0.027 C 
HETATM    2  C2  UNL     1       5.551  -0.525   0.232  1.00  0.00    -0.026 C 
HETATM    3  C3  UNL     1       4.212  -0.371  -0.201  1.00  0.00    -0.014 C 
HETATM    4  C4  UNL     1       3.059  -0.249  -0.554  1.00  0.00    -0.067 C 
ENDROOT
BRANCH   4   5
HETATM    5  C5  UNL     1       1.649  -0.094  -0.959  1.00  0.00     0.220 C 
HETATM    6  C6  UNL     1       1.482   1.116  -1.773  1.00  0.00     0.082 C 
HETATM    7  N1  UNL     1       1.372   2.080  -2.424  1.00  0.00    -0.196 NA
BRANCH   5   8
HETATM    8  C7  UNL     1       0.795  -0.053   0.238  1.00  0.00     0.043 C 
HETATM    9  N2  UNL     1       1.389  -0.124   1.383  1.00  0.00    -0.275 N 
ATOM     10  H2  UNL     1       2.406  -0.204   1.397  1.00  0.00     0.193 HD
BRANCH   9  11
HETATM   11  O1  UNL     1       0.732  -0.098   2.561  1.00  0.00    -0.290 OA
ATOM     12  H1  UNL     1       1.169  -0.150   3.403  1.00  0.00     0.244 HD
ENDBRANCH   9  11
BRANCH   8  13
HETATM   13  C8  UNL     1      -0.658   0.060   0.252  1.00  0.00     0.035 C 
HETATM   14  C9  UNL     1      -1.242   1.282  -0.391  1.00  0.00     0.010 C 
HETATM   15  C10 UNL     1      -2.679   1.392   0.149  1.00  0.00     0.001 C 
HETATM   16  C11 UNL     1      -3.272   0.048   0.434  1.00  0.00     0.000 C 
HETATM   17  C12 UNL     1      -2.773  -0.914  -0.639  1.00  0.00     0.001 C 
HETATM   18  C13 UNL     1      -1.306  -1.192  -0.370  1.00  0.00     0.010 C 
ENDBRANCH   8  13
ENDBRANCH   5   8
ENDBRANCH   4   5
TORSDOF 4
