REMARK  1 active torsions:
REMARK  status: ('A' for Active; 'I' for Inactive)
REMARK    1  A    between atoms: S1_2  and  C2_3 
ROOT
HETATM    1  C2  UNL     1       2.054  -0.191   0.846  1.00  0.00     0.183 C 
HETATM    2  C3  UNL     1       2.114  -0.816  -0.513  1.00  0.00     0.046 C 
HETATM    3  C4  UNL     1       0.846  -0.249  -1.146  1.00  0.00     0.043 C 
HETATM    4  C5  UNL     1      -0.051  -0.188   0.061  1.00  0.00     0.082 C 
HETATM    5  C6  UNL     1      -0.754  -1.527   0.214  1.00  0.00     0.040 C 
HETATM    6  C7  UNL     1      -1.872  -1.545  -0.795  1.00  0.00     0.008 C 
HETATM    7  C8  UNL     1      -3.202  -1.158  -0.251  1.00  0.00     0.044 C 
HETATM    8  C9  UNL     1      -3.240  -0.068   0.746  1.00  0.00     0.056 C 
HETATM    9  N1  UNL     1      -2.054   0.645   1.012  1.00  0.00    -0.395 N 
ATOM     10  H1  UNL     1      -1.861   1.007   1.946  1.00  0.00     0.159 HD
HETATM   11  C10 UNL     1      -1.134   0.847  -0.049  1.00  0.00     0.111 C 
HETATM   12  C11 UNL     1      -0.468   2.199   0.184  1.00  0.00     0.035 C 
HETATM   13  O1  UNL     1       0.737   0.057   1.164  1.00  0.00    -0.362 OA
ENDROOT
BRANCH   1  14
HETATM   14  S1  UNL     1       2.963   1.354   0.980  1.00  0.00    -0.142 SA
HETATM   15  C1  UNL     1       4.522   1.360   0.094  1.00  0.00     0.092 C 
ENDBRANCH   1  14
TORSDOF 1
