REMARK  4 active torsions:
REMARK  status: ('A' for Active; 'I' for Inactive)
REMARK    1  A    between atoms: O1_2  and  C2_3 
REMARK    2  A    between atoms: C2_3  and  C3_5 
REMARK    3  A    between atoms: C8_10  and  C9_11 
REMARK    4  A    between atoms: C9_11  and  O3_13 
ROOT
HETATM    1  C3  UNL     1       1.511  -0.409   0.397  1.00  0.00     0.019 C 
HETATM    2  C4  UNL     1       1.219   0.659  -0.301  1.00  0.00    -0.071 C 
HETATM    3  C5  UNL     1       2.361   1.393  -0.853  1.00  0.00     0.044 C 
HETATM    4  C6  UNL     1      -0.135   1.274  -0.640  1.00  0.00     0.035 C 
HETATM    5  C7  UNL     1      -0.946   1.291   0.594  1.00  0.00     0.011 C 
HETATM    6  C8  UNL     1      -1.965   0.272   0.796  1.00  0.00     0.014 C 
HETATM    7  C11 UNL     1      -1.822  -1.075   0.266  1.00  0.00     0.007 C 
HETATM    8  C12 UNL     1      -0.511  -1.698   0.108  1.00  0.00     0.005 C 
HETATM    9  C13 UNL     1       0.546  -1.374   1.097  1.00  0.00     0.045 C 
ENDROOT
BRANCH   1  10
HETATM   10  C2  UNL     1       2.877  -0.763   0.561  1.00  0.00     0.289 C 
HETATM   11  O2  UNL     1       3.213  -1.801   1.234  1.00  0.00    -0.260 OA
BRANCH  10  12
HETATM   12  O1  UNL     1       3.942  -0.085   0.053  1.00  0.00    -0.323 OA
HETATM   13  C1  UNL     1       5.301  -0.470   0.237  1.00  0.00     0.213 C 
ENDBRANCH  10  12
ENDBRANCH   1  10
BRANCH   6  14
HETATM   14  C9  UNL     1      -3.301   0.843   0.274  1.00  0.00     0.118 C 
HETATM   15  C10 UNL     1      -4.417  -0.143   0.442  1.00  0.00     0.040 C 
BRANCH  14  16
HETATM   16  O3  UNL     1      -3.152   1.257  -1.048  1.00  0.00    -0.396 OA
ATOM     17  H3  UNL     1      -3.974   1.608  -1.369  1.00  0.00     0.210 HD
ENDBRANCH  14  16
ENDBRANCH   6  14
TORSDOF 4
