REMARK  2 active torsions:
REMARK  status: ('A' for Active; 'I' for Inactive)
REMARK    1  A    between atoms: C2_2  and  C3_3 
REMARK    2  A    between atoms: C3_3  and  C5_5 
ROOT
HETATM    1  C5  UNL     1      -0.669  -0.021   0.585  1.00  0.00     0.004 C 
HETATM    2  C6  UNL     1      -0.656   1.323  -0.130  1.00  0.00     0.046 C 
HETATM    3  C7  UNL     1       0.634   2.049   0.047  1.00  0.00     0.098 C 
HETATM    4  C8  UNL     1       0.523   3.482   0.386  1.00  0.00     0.049 C 
HETATM    5  C9  UNL     1       1.567   1.343   1.023  1.00  0.00     0.113 C 
HETATM    6  C10 UNL     1       1.779   0.097   0.177  1.00  0.00     0.265 C 
HETATM    7  N1  UNL     1       2.955  -0.609   0.587  1.00  0.00    -0.039 N 
ATOM      8  H11 UNL     1       2.954  -0.775   1.593  1.00  0.00     0.281 HD
ATOM      9  H12 UNL     1       3.783  -0.017   0.522  1.00  0.00     0.281 HD
HETATM   10  C11 UNL     1       3.132  -1.828  -0.139  1.00  0.00     0.236 C 
HETATM   11  C12 UNL     1       1.927  -2.668  -0.275  1.00  0.00     0.028 C 
HETATM   12  C13 UNL     1       0.627  -1.924  -0.475  1.00  0.00     0.011 C 
HETATM   13  C14 UNL     1       0.582  -0.802   0.488  1.00  0.00     0.057 C 
HETATM   14  O1  UNL     1       1.778   0.585  -1.098  1.00  0.00    -0.199 OA
HETATM   15  O2  UNL     1       1.383   1.810  -1.132  1.00  0.00    -0.227 OA
ENDROOT
BRANCH   1  16
HETATM   16  C3  UNL     1      -1.953  -0.749   0.397  1.00  0.00     0.008 C 
HETATM   17  C4  UNL     1      -2.366  -0.980  -1.030  1.00  0.00     0.014 C 
BRANCH  16  18
HETATM   18  C2  UNL     1      -3.051   0.114   0.992  1.00  0.00    -0.032 C 
HETATM   19  C1  UNL     1      -4.070   0.575   0.297  1.00  0.00     0.007 C 
ENDBRANCH  16  18
ENDBRANCH   1  16
TORSDOF 2
