REMARK  3 active torsions:
REMARK  status: ('A' for Active; 'I' for Inactive)
REMARK    1  A    between atoms: C2_2  and  C5_6 
REMARK    2  A    between atoms: C3_3  and  C4_4 
REMARK    3  A    between atoms: C11_13  and  O2_15 
ROOT
HETATM    1  C5  UNL     1      -0.813   0.230  -0.631  1.00  0.00     0.110 C 
HETATM    2  S1  UNL     1       0.072   1.831  -0.776  1.00  0.00    -0.156 SA
HETATM    3  C6  UNL     1       1.767   1.357  -1.215  1.00  0.00     0.083 C 
HETATM    4  C7  UNL     1       2.211   0.318  -0.217  1.00  0.00    -0.036 C 
HETATM    5  C8  UNL     1       3.613  -0.088  -0.645  1.00  0.00     0.015 C 
HETATM    6  C9  UNL     1       2.347   0.979   1.126  1.00  0.00     0.015 C 
HETATM    7  C10 UNL     1       1.384  -0.913  -0.211  1.00  0.00     0.048 C 
HETATM    8  C11 UNL     1      -0.048  -0.765   0.176  1.00  0.00     0.071 C 
HETATM    9  C12 UNL     1      -0.694  -2.130  -0.151  1.00  0.00     0.047 C 
ENDROOT
BRANCH   1  10
HETATM   10  C2  UNL     1      -2.160   0.449  -0.046  1.00  0.00    -0.064 C 
HETATM   11  C1  UNL     1      -2.348   0.986   1.318  1.00  0.00     0.044 C 
HETATM   12  C3  UNL     1      -3.213   0.146  -0.774  1.00  0.00     0.045 C 
BRANCH  12  13
HETATM   13  C4  UNL     1      -4.548   0.324  -0.276  1.00  0.00     0.259 C 
HETATM   14  O1  UNL     1      -5.563   0.039  -0.965  1.00  0.00    -0.302 OA
ENDBRANCH  12  13
ENDBRANCH   1  10
BRANCH   8  15
HETATM   15  O2  UNL     1      -0.227  -0.638   1.556  1.00  0.00    -0.389 OA
ATOM     16  H2  UNL     1       0.260  -1.271   2.070  1.00  0.00     0.210 HD
ENDBRANCH   8  15
TORSDOF 3
