REMARK  4 active torsions:
REMARK  status: ('A' for Active; 'I' for Inactive)
REMARK    1  A    between atoms: C6_9  and  C7_10 
REMARK    2  A    between atoms: N3_11  and  N4_13 
REMARK    3  A    between atoms: N4_13  and  C8_15 
REMARK    4  A    between atoms: C8_15  and  C10_17 
ROOT
HETATM    1  C7  UNL     1       1.083  -0.774  -0.290  1.00  0.00     0.122 C 
HETATM    2  N3  UNL     1       0.247   0.099  -0.689  1.00  0.00    -0.315 N 
ATOM      3  H3  UNL     1       0.615   1.021  -0.925  1.00  0.00     0.185 HD
ENDROOT
BRANCH   1   4
HETATM    4  C6  UNL     1       2.486  -0.473  -0.177  1.00  0.00     0.028 A 
HETATM    5  C2  UNL     1       3.502  -1.338   0.246  1.00  0.00     0.035 A 
HETATM    6  C1  UNL     1       3.315  -2.754   0.665  1.00  0.00     0.070 C 
HETATM    7  N1  UNL     1       4.649  -0.637   0.196  1.00  0.00    -0.302 N 
HETATM    8  N2  UNL     1       4.439   0.582  -0.219  1.00  0.00    -0.300 N 
ATOM      9  H1  UNL     1       5.564  -1.010   0.450  1.00  0.00     0.186 HD
HETATM   10  C3  UNL     1       5.424   1.654  -0.411  1.00  0.00     0.177 C 
HETATM   11  C4  UNL     1       3.127   0.729  -0.460  1.00  0.00     0.037 A 
HETATM   12  C5  UNL     1       2.407   1.953  -0.953  1.00  0.00     0.071 C 
ENDBRANCH   1   4
BRANCH   2  13
HETATM   13  N4  UNL     1      -1.112  -0.091  -0.831  1.00  0.00    -0.332 N 
ATOM     14  H4  UNL     1      -1.522  -0.201  -1.759  1.00  0.00     0.180 HD
BRANCH  13  15
HETATM   15  C8  UNL     1      -1.947  -0.133   0.341  1.00  0.00     0.102 C 
HETATM   16  C9  UNL     1      -1.793   1.195   1.053  1.00  0.00     0.034 C 
BRANCH  15  17
HETATM   17  C10 UNL     1      -3.406  -0.339   0.005  1.00  0.00    -0.030 C 
HETATM   18  C11 UNL     1      -3.902   0.808  -0.881  1.00  0.00     0.016 C 
HETATM   19  C12 UNL     1      -4.247  -0.288   1.262  1.00  0.00     0.016 C 
HETATM   20  C13 UNL     1      -3.644  -1.614  -0.738  1.00  0.00     0.016 C 
ENDBRANCH  15  17
ENDBRANCH  13  15
ENDBRANCH   2  13
TORSDOF 4
