REMARK  1 active torsions:
REMARK  status: ('A' for Active; 'I' for Inactive)
REMARK    1  A    between atoms: C2_2  and  C3_3 
ROOT
HETATM    1  C1  UNL     1       3.092   0.036   1.499  1.00  0.00     0.047 C 
HETATM    2  C2  UNL     1       2.056  -0.109   0.362  1.00  0.00     0.067 C 
HETATM    3  C4  UNL     1       1.946  -1.562   0.095  1.00  0.00     0.038 C 
HETATM    4  C5  UNL     1       0.572  -2.085  -0.104  1.00  0.00     0.006 C 
HETATM    5  C6  UNL     1      -0.284  -0.961  -0.649  1.00  0.00     0.038 C 
HETATM    6  C7  UNL     1      -0.270   0.147   0.365  1.00  0.00     0.063 C 
HETATM    7  C8  UNL     1      -0.922   1.369  -0.295  1.00  0.00     0.039 C 
HETATM    8  C9  UNL     1      -2.029   0.984  -1.226  1.00  0.00     0.030 C 
HETATM    9  C10 UNL     1      -3.289   0.572  -0.525  1.00  0.00     0.232 C 
HETATM   10  N1  UNL     1      -3.193   0.593   0.901  1.00  0.00    -0.075 N 
ATOM     11  H11 UNL     1      -4.103   0.686   1.353  1.00  0.00     0.277 HD
ATOM     12  H12 UNL     1      -2.774   1.454   1.252  1.00  0.00     0.277 HD
HETATM   13  C11 UNL     1      -2.481  -0.583   1.329  1.00  0.00     0.235 C 
HETATM   14  C12 UNL     1      -1.045  -0.280   1.577  1.00  0.00     0.065 C 
HETATM   15  O1  UNL     1       0.957   0.540   0.782  1.00  0.00    -0.369 OA
ENDROOT
BRANCH   2  16
HETATM   16  C3  UNL     1       2.722   0.642  -0.802  1.00  0.00     0.123 C 
HETATM   17  S1  UNL     1       2.972   2.363  -0.256  1.00  0.00    -0.095 SA
ENDBRANCH   2  16
TORSDOF 1
