REMARK  4 active torsions:
REMARK  status: ('A' for Active; 'I' for Inactive)
REMARK    1  A    between atoms: C2_3  and  C3_4 
REMARK    2  A    between atoms: C4_5  and  C5_6 
REMARK    3  A    between atoms: C5_6  and  C7_9 
REMARK    4  A    between atoms: C11_13  and  O1_14 
ROOT
HETATM    1  N1  UNL     1      -0.905   3.864   2.463  1.00  0.00    -0.197 NA
HETATM    2  C1  UNL     1      -0.652   3.235   1.514  1.00  0.00     0.063 C 
HETATM    3  C2  UNL     1      -0.350   2.474   0.329  1.00  0.00     0.158 C 
ENDROOT
BRANCH   3   4
HETATM    4  C3  UNL     1      -0.461   0.979   0.588  1.00  0.00    -0.056 C 
HETATM    5  C4  UNL     1       0.450   0.047   0.486  1.00  0.00    -0.055 C 
HETATM    6  C10 UNL     1      -0.117  -1.302   0.844  1.00  0.00     0.074 C 
HETATM    7  C11 UNL     1      -1.600  -1.084   0.761  1.00  0.00     0.069 C 
HETATM    8  C12 UNL     1      -2.186  -1.295  -0.595  1.00  0.00     0.039 C 
HETATM    9  C15 UNL     1      -1.761   0.394   1.027  1.00  0.00     0.050 C 
HETATM   10  C13 UNL     1      -2.624   0.042  -1.119  1.00  0.00     0.004 C 
HETATM   11  C14 UNL     1      -2.879   0.854   0.118  1.00  0.00     0.012 C 
BRANCH   5  12
HETATM   12  C5  UNL     1       1.857   0.318   0.068  1.00  0.00     0.126 C 
HETATM   13  C6  UNL     1       2.801  -0.134   1.124  1.00  0.00     0.068 C 
HETATM   14  N2  UNL     1       3.526  -0.471   1.958  1.00  0.00    -0.197 NA
BRANCH  12  15
HETATM   15  C7  UNL     1       2.233  -0.426  -1.179  1.00  0.00     0.007 A 
HETATM   16  C8  UNL     1       3.671  -0.159  -1.620  1.00  0.00     0.007 A 
HETATM   17  C9  UNL     1       3.224  -1.529  -1.136  1.00  0.00     0.007 A 
ENDBRANCH  12  15
ENDBRANCH   5  12
BRANCH   7  18
HETATM   18  O1  UNL     1      -2.270  -1.849   1.703  1.00  0.00    -0.389 OA
ATOM     19  H1  UNL     1      -3.208  -1.711   1.650  1.00  0.00     0.210 HD
ENDBRANCH   7  18
ENDBRANCH   3   4
TORSDOF 4
