REMARK  5 active torsions:
REMARK  status: ('A' for Active; 'I' for Inactive)
REMARK    1  A    between atoms: C2_2  and  O2_4 
REMARK    2  A    between atoms: O2_4  and  C3_5 
REMARK    3  A    between atoms: C3_5  and  C4_6 
REMARK    4  A    between atoms: C3_5  and  C6_10 
REMARK    5  A    between atoms: C4_6  and  O3_8 
ROOT
HETATM    1  C6  UNL     1       0.921  -0.892  -0.394  1.00  0.00     0.040 C 
HETATM    2  C7  UNL     1       1.331   0.462   0.059  1.00  0.00    -0.023 C 
HETATM    3  C8  UNL     1       0.991   1.668   0.140  1.00  0.00    -0.030 C 
HETATM    4  C9  UNL     1       1.555   2.957   0.699  1.00  0.00     0.027 C 
HETATM    5  C10 UNL     1       1.052   2.913   2.208  1.00  0.00     0.004 C 
HETATM    6  C11 UNL     1       1.163   1.596   2.866  1.00  0.00     0.000 C 
HETATM    7  C12 UNL     1       0.067   0.545   2.901  1.00  0.00     0.000 C 
HETATM    8  C13 UNL     1       0.307  -0.315   1.792  1.00  0.00     0.001 C 
HETATM    9  C14 UNL     1       0.215  -1.510   0.989  1.00  0.00     0.011 C 
ENDROOT
BRANCH   1  10
HETATM   10  C3  UNL     1      -0.022  -1.091  -1.488  1.00  0.00     0.167 C 
BRANCH  10  11
HETATM   11  O2  UNL     1      -1.306  -0.520  -1.256  1.00  0.00    -0.313 OA
BRANCH  11  12
HETATM   12  C2  UNL     1      -1.830   0.342  -2.222  1.00  0.00     0.255 C 
HETATM   13  C1  UNL     1      -3.185   0.981  -2.024  1.00  0.00     0.126 C 
HETATM   14  O1  UNL     1      -1.180   0.582  -3.243  1.00  0.00    -0.266 OA
ENDBRANCH  11  12
ENDBRANCH  10  11
BRANCH  10  15
HETATM   15  C4  UNL     1      -0.177  -2.600  -1.735  1.00  0.00     0.144 C 
HETATM   16  C5  UNL     1      -1.029  -2.862  -2.927  1.00  0.00     0.042 C 
BRANCH  15  17
HETATM   17  O3  UNL     1       1.112  -3.085  -1.980  1.00  0.00    -0.393 OA
ATOM     18  H3  UNL     1       1.016  -4.018  -2.133  1.00  0.00     0.210 HD
ENDBRANCH  15  17
ENDBRANCH  10  15
ENDBRANCH   1  10
TORSDOF 5
