REMARK  6 active torsions:
REMARK  status: ('A' for Active; 'I' for Inactive)
REMARK    1  A    between atoms: C2_2  and  N1_5 
REMARK    2  A    between atoms: N1_5  and  C5_7 
REMARK    3  A    between atoms: C5_7  and  O1_12 
REMARK    4  A    between atoms: O1_12  and  C7_13 
REMARK    5  A    between atoms: C7_13  and  C8_14 
REMARK    6  A    between atoms: C8_14  and  C9_15 
ROOT
HETATM    1  C5  UNL     1      -1.265   0.564  -0.176  1.00  0.00     0.229 C 
HETATM    2  N2  UNL     1      -0.733   1.694  -0.464  1.00  0.00    -0.259 N 
ATOM      3  H2  UNL     1       0.011   2.065   0.126  1.00  0.00     0.181 HD
HETATM    4  C6  UNL     1      -1.160   2.423  -1.576  1.00  0.00     0.185 C 
HETATM    5  N3  UNL     1      -1.511   3.054  -2.504  1.00  0.00    -0.172 NA
ENDROOT
BRANCH   1   6
HETATM    6  N1  UNL     1      -2.298   0.074  -1.015  1.00  0.00    -0.348 N 
ATOM      7  H1  UNL     1      -2.108   0.008  -2.015  1.00  0.00     0.163 HD
BRANCH   6   8
HETATM    8  C2  UNL     1      -3.588  -0.334  -0.553  1.00  0.00     0.022 C 
HETATM    9  C1  UNL     1      -4.348   0.788   0.142  1.00  0.00     0.037 C 
HETATM   10  C3  UNL     1      -3.515  -1.494   0.416  1.00  0.00     0.037 C 
HETATM   11  C4  UNL     1      -4.425  -0.787  -1.727  1.00  0.00     0.037 C 
ENDBRANCH   6   8
ENDBRANCH   1   6
BRANCH   1  12
HETATM   12  O1  UNL     1      -0.795  -0.107   0.941  1.00  0.00    -0.322 OA
BRANCH  12  13
HETATM   13  C7  UNL     1       0.571   0.013   1.365  1.00  0.00     0.179 C 
BRANCH  13  14
HETATM   14  C8  UNL     1       1.424  -0.478   0.234  1.00  0.00     0.031 C 
BRANCH  14  15
HETATM   15  C9  UNL     1       2.891  -0.415   0.529  1.00  0.00    -0.013 C 
HETATM   16  C10 UNL     1       3.629  -0.940  -0.698  1.00  0.00     0.005 C 
HETATM   17  C11 UNL     1       5.052  -0.495  -0.380  1.00  0.00     0.000 C 
HETATM   18  C12 UNL     1       4.868   0.896   0.153  1.00  0.00     0.000 C 
HETATM   19  C13 UNL     1       3.412   1.002   0.599  1.00  0.00     0.005 C 
ENDBRANCH  14  15
ENDBRANCH  13  14
ENDBRANCH  12  13
ENDBRANCH   1  12
TORSDOF 6
