REMARK  5 active torsions:
REMARK  status: ('A' for Active; 'I' for Inactive)
REMARK    1  A    between atoms: C2_2  and  O2_4 
REMARK    2  A    between atoms: O2_4  and  C3_5 
REMARK    3  A    between atoms: C6_10  and  O5_11 
REMARK    4  A    between atoms: C8_15  and  O6_16 
REMARK    5  A    between atoms: C14_23  and  C15_24 
ROOT
HETATM    1  C3  UNL     1       0.159   0.781   0.244  1.00  0.00     0.214 C 
HETATM    2  O3  UNL     1      -0.467   1.025   1.438  1.00  0.00    -0.342 OA
HETATM    3  C4  UNL     1      -1.840   0.866   1.385  1.00  0.00     0.182 C 
HETATM    4  C5  UNL     1      -2.219  -0.642   1.593  1.00  0.00     0.163 C 
HETATM    5  O4  UNL     1      -3.378  -0.864   0.920  1.00  0.00    -0.351 OA
HETATM    6  C6  UNL     1      -3.539   0.129   0.030  1.00  0.00     0.282 C 
HETATM    7  C7  UNL     1      -2.179   0.812  -0.090  1.00  0.00     0.132 C 
HETATM    8 BR1  UNL     1      -2.461   2.307  -1.095  1.00  0.00    -0.074 Br
HETATM    9  C8  UNL     1      -1.027  -0.105  -0.329  1.00  0.00     0.146 C 
HETATM   10  C9  UNL     1      -1.084  -1.129   0.744  1.00  0.00     0.066 C 
HETATM   11  C10 UNL     1      -0.979  -2.464   0.205  1.00  0.00     0.013 C 
HETATM   12  C11 UNL     1      -2.182  -3.048  -0.502  1.00  0.00     0.015 C 
HETATM   13  C12 UNL     1       0.251  -2.464  -0.684  1.00  0.00    -0.025 C 
HETATM   14  C13 UNL     1       1.195  -1.377  -0.703  1.00  0.00    -0.020 C 
HETATM   15  C14 UNL     1       1.261  -0.237   0.210  1.00  0.00     0.077 C 
ENDROOT
BRANCH   1  16
HETATM   16  O2  UNL     1       0.267   1.895  -0.533  1.00  0.00    -0.280 OA
BRANCH  16  17
HETATM   17  C2  UNL     1       0.738   3.138  -0.243  1.00  0.00     0.257 C 
HETATM   18  C1  UNL     1       0.859   4.236  -1.288  1.00  0.00     0.126 C 
HETATM   19  O1  UNL     1       1.119   3.493   0.902  1.00  0.00    -0.266 OA
ENDBRANCH  16  17
ENDBRANCH   1  16
BRANCH   9  20
HETATM   20  O6  UNL     1      -0.933  -0.411  -1.602  1.00  0.00    -0.382 OA
ATOM     21  H6  UNL     1      -1.643  -0.941  -1.945  1.00  0.00     0.210 HD
ENDBRANCH   9  20
BRANCH  15  22
HETATM   22  C15 UNL     1       2.619   0.420   0.125  1.00  0.00    -0.010 C 
HETATM   23  C16 UNL     1       3.760  -0.583  -0.047  1.00  0.00     0.010 C 
HETATM   24  C17 UNL     1       3.018   0.944   1.553  1.00  0.00     0.010 C 
ENDBRANCH  15  22
BRANCH   6  25
HETATM   25  O5  UNL     1      -4.167  -0.104  -1.149  1.00  0.00    -0.369 OA
ATOM     26  H5  UNL     1      -4.281   0.598  -1.778  1.00  0.00     0.212 HD
ENDBRANCH   6  25
TORSDOF 5
