REMARK  6 active torsions:
REMARK  status: ('A' for Active; 'I' for Inactive)
REMARK    1  A    between atoms: O1_2  and  C2_3 
REMARK    2  A    between atoms: C2_3  and  C3_5 
REMARK    3  A    between atoms: C4_7  and  O3_8 
REMARK    4  A    between atoms: O3_8  and  C5_9 
REMARK    5  A    between atoms: C14_19  and  O5_20 
REMARK    6  A    between atoms: C19_27  and  O7_28 
ROOT
HETATM    1  C3  UNL     1      -1.708  -0.825   0.399  1.00  0.00     0.221 C 
HETATM    2  F1  UNL     1      -1.211  -1.443   1.494  1.00  0.00    -0.229 F 
HETATM    3  C4  UNL     1      -2.633   0.291   0.908  1.00  0.00     0.183 C 
HETATM    4  C7  UNL     1      -1.614   1.389   1.199  1.00  0.00     0.046 C 
HETATM    5  C8  UNL     1      -0.782   1.364  -0.053  1.00  0.00    -0.034 C 
HETATM    6  C9  UNL     1      -1.444   2.241  -1.076  1.00  0.00     0.016 C 
HETATM    7  C10 UNL     1       0.655   1.765   0.209  1.00  0.00     0.015 C 
HETATM    8  C11 UNL     1       1.295   0.478   0.571  1.00  0.00    -0.002 C 
HETATM    9  C12 UNL     1       0.638  -0.455  -0.457  1.00  0.00     0.001 C 
HETATM   10  C13 UNL     1       1.065  -1.822  -0.110  1.00  0.00     0.037 C 
HETATM   11  C14 UNL     1       2.524  -1.932  -0.592  1.00  0.00     0.123 C 
HETATM   12  C15 UNL     1       3.200  -0.606  -0.661  1.00  0.00     0.028 C 
HETATM   13  C16 UNL     1       4.701  -0.877  -0.475  1.00  0.00     0.086 C 
HETATM   14  C17 UNL     1       5.383   0.419  -0.689  1.00  0.00     0.129 C 
HETATM   15  O6  UNL     1       6.285   0.506  -1.501  1.00  0.00    -0.298 OA
HETATM   16  C18 UNL     1       4.916   1.578   0.122  1.00  0.00     0.110 C 
HETATM   17  C19 UNL     1       3.399   1.726   0.028  1.00  0.00     0.130 C 
HETATM   18  C20 UNL     1       2.764   0.391   0.356  1.00  0.00     0.026 C 
HETATM   19  C21 UNL     1      -0.759  -0.098  -0.454  1.00  0.00     0.051 C 
ENDROOT
BRANCH   1  20
HETATM   20  C2  UNL     1      -2.518  -1.800  -0.416  1.00  0.00     0.301 C 
HETATM   21  O2  UNL     1      -2.189  -2.051  -1.604  1.00  0.00    -0.261 OA
BRANCH  20  22
HETATM   22  O1  UNL     1      -3.625  -2.438   0.095  1.00  0.00    -0.324 OA
HETATM   23  C1  UNL     1      -4.350  -3.353  -0.736  1.00  0.00     0.213 C 
ENDBRANCH  20  22
ENDBRANCH   1  20
BRANCH   3  24
HETATM   24  O3  UNL     1      -3.573   0.670  -0.054  1.00  0.00    -0.312 OA
BRANCH  24  25
HETATM   25  C5  UNL     1      -4.942   0.632   0.240  1.00  0.00     0.255 C 
HETATM   26  C6  UNL     1      -5.958   1.031  -0.767  1.00  0.00     0.126 C 
HETATM   27  O4  UNL     1      -5.270   0.243   1.400  1.00  0.00    -0.266 OA
ENDBRANCH  24  25
ENDBRANCH   3  24
BRANCH  11  28
HETATM   28  O5  UNL     1       3.230  -2.843   0.201  1.00  0.00    -0.395 OA
ATOM     29  H5  UNL     1       4.130  -2.911  -0.096  1.00  0.00     0.210 HD
ENDBRANCH  11  28
BRANCH  17  30
HETATM   30  O7  UNL     1       3.069   2.698   1.001  1.00  0.00    -0.395 OA
ATOM     31  H7  UNL     1       2.125   2.790   0.943  1.00  0.00     0.210 HD
ENDBRANCH  17  30
TORSDOF 6
