REMARK  6 active torsions:
REMARK  status: ('A' for Active; 'I' for Inactive)
REMARK    1  A    between atoms: C2_2  and  O2_4 
REMARK    2  A    between atoms: O2_4  and  C3_5 
REMARK    3  A    between atoms: C5_7  and  O3_8 
REMARK    4  A    between atoms: C10_14  and  O4_15 
REMARK    5  A    between atoms: C16_23  and  C17_24 
REMARK    6  A    between atoms: C20_29  and  C22_31 
ROOT
HETATM    1  C3  UNL     1       1.968  -0.145  -0.155  1.00  0.00     0.173 C 
HETATM    2  C4  UNL     1       1.550  -0.876  -1.355  1.00  0.00     0.039 C 
HETATM    3  C5  UNL     1       0.460  -1.842  -1.358  1.00  0.00     0.052 C 
HETATM    4  C6  UNL     1      -0.876  -1.504  -0.777  1.00  0.00     0.026 C 
HETATM    5  C7  UNL     1      -1.763  -2.720  -1.184  1.00  0.00     0.024 C 
HETATM    6  C8  UNL     1      -1.306  -0.418  -1.698  1.00  0.00     0.020 C 
HETATM    7  C9  UNL     1      -2.446   0.428  -1.442  1.00  0.00     0.034 C 
HETATM    8  C10 UNL     1      -2.091   1.794  -0.982  1.00  0.00     0.127 C 
HETATM    9  C11 UNL     1      -1.027   2.150  -0.097  1.00  0.00    -0.006 A 
HETATM   10  C12 UNL     1      -1.156   3.727   0.022  1.00  0.00     0.019 C 
HETATM   11  C13 UNL     1      -0.927   1.674   1.279  1.00  0.00     0.037 A 
HETATM   12  C14 UNL     1      -1.984   0.798   1.521  1.00  0.00     0.177 C 
HETATM   13  F1  UNL     1      -2.473   1.072   2.848  1.00  0.00    -0.249 F 
HETATM   14  C15 UNL     1      -2.070  -0.643   1.332  1.00  0.00     0.064 C 
HETATM   15  C16 UNL     1      -0.969  -1.416   0.645  1.00  0.00     0.097 C 
HETATM   16  C19 UNL     1       0.206  -0.738   1.317  1.00  0.00     0.155 C 
HETATM   17  O6  UNL     1       0.527  -1.244   2.363  1.00  0.00    -0.296 OA
HETATM   18  C20 UNL     1       0.863   0.415   0.728  1.00  0.00     0.053 C 
HETATM   19  C21 UNL     1       1.715   0.919   1.948  1.00  0.00     0.027 C 
HETATM   20  C22 UNL     1       0.139   1.554   0.267  1.00  0.00     0.023 A 
ENDROOT
BRANCH   1  21
HETATM   21  O2  UNL     1       2.788   0.954  -0.455  1.00  0.00    -0.311 OA
BRANCH  21  22
HETATM   22  C2  UNL     1       4.077   1.168  -0.079  1.00  0.00     0.255 C 
HETATM   23  C1  UNL     1       4.886   2.365  -0.433  1.00  0.00     0.126 C 
HETATM   24  O1  UNL     1       4.615   0.298   0.613  1.00  0.00    -0.266 OA
ENDBRANCH  21  22
ENDBRANCH   1  21
BRANCH   3  25
HETATM   25  O3  UNL     1       0.825  -3.193  -1.309  1.00  0.00    -0.364 OA
ATOM     26  H3  UNL     1       0.114  -3.823  -1.311  1.00  0.00     0.217 HD
ENDBRANCH   3  25
BRANCH  15  27
HETATM   27  C17 UNL     1      -1.010  -2.770   1.257  1.00  0.00     0.140 C 
HETATM   28  C18 UNL     1       0.012  -3.771   1.529  1.00  0.00     0.092 C 
HETATM   29  O5  UNL     1      -2.142  -3.162   1.623  1.00  0.00    -0.297 OA
ENDBRANCH  15  27
BRANCH   8  30
HETATM   30  O4  UNL     1      -1.802   2.514  -2.193  1.00  0.00    -0.395 OA
ATOM     31  H4  UNL     1      -1.575   3.388  -1.899  1.00  0.00     0.210 HD
ENDBRANCH   8  30
TORSDOF 6
