REMARK  8 active torsions:
REMARK  status: ('A' for Active; 'I' for Inactive)
REMARK    1  A    between atoms: C10_10  and  C11_11 
REMARK    2  A    between atoms: C11_11  and  C12_12 
REMARK       I    between atoms: C12_12  and  N1_14 
REMARK    3  A    between atoms: N1_14  and  C13_16 
REMARK    4  A    between atoms: C13_16  and  C14_17 
REMARK    5  A    between atoms: C14_17  and  C15_18 
REMARK    6  A    between atoms: C15_18  and  N2_19 
REMARK    7  A    between atoms: N4_29  and  N5_30 
REMARK       I    between atoms: N5_30  and  C20_32 
REMARK    8  A    between atoms: C20_32  and  C21_34 
ROOT
HETATM    1  C1  UNL     1      -6.052   0.806  -0.119  1.00  0.00     0.018 C 
HETATM    2  C2  UNL     1      -4.821   1.302  -0.796  1.00  0.00    -0.016 C 
HETATM    3  C3  UNL     1      -5.227   1.648  -2.253  1.00  0.00     0.018 C 
HETATM    4  C4  UNL     1      -4.340   2.633  -0.180  1.00  0.00     0.003 A 
HETATM    5  C5  UNL     1      -3.932   2.598   1.225  1.00  0.00     0.013 A 
HETATM    6  C6  UNL     1      -3.048   1.941   0.272  1.00  0.00     0.021 A 
HETATM    7  C7  UNL     1      -3.492   0.746  -0.604  1.00  0.00     0.060 C 
HETATM    8  C8  UNL     1      -2.762   0.950  -2.016  1.00  0.00     0.036 C 
HETATM    9  C9  UNL     1      -1.332   0.574  -1.629  1.00  0.00     0.030 C 
HETATM   10  C10 UNL     1      -1.510  -0.376  -0.540  1.00  0.00     0.112 C 
HETATM   11  N4  UNL     1      -2.990  -0.445  -0.259  1.00  0.00    -0.309 N 
ENDROOT
BRANCH  10  12
HETATM   12  C11 UNL     1      -0.679  -0.148   0.638  1.00  0.00     0.129 C 
BRANCH  12  13
HETATM   13  C12 UNL     1       0.773  -0.306   0.251  1.00  0.00     0.219 C 
HETATM   14  O1  UNL     1       1.105  -0.691  -0.897  1.00  0.00    -0.274 OA
HETATM   15  N1  UNL     1       1.751  -0.009   1.227  1.00  0.00    -0.361 N 
ATOM     16  H1  UNL     1       1.408   0.327   2.127  1.00  0.00     0.162 HD
BRANCH  15  17
HETATM   17  C13 UNL     1       3.158  -0.128   1.090  1.00  0.00     0.124 C 
BRANCH  17  18
HETATM   18  C14 UNL     1       3.474  -1.602   0.880  1.00  0.00     0.039 C 
BRANCH  18  19
HETATM   19  C15 UNL     1       4.933  -1.853   0.787  1.00  0.00     0.122 C 
BRANCH  19  20
HETATM   20  N2  UNL     1       5.514  -1.180  -0.334  1.00  0.00    -0.380 N 
HETATM   21  C16 UNL     1       6.417  -0.295  -0.281  1.00  0.00     0.081 C 
HETATM   22  C17 UNL     1       7.142   0.323   0.874  1.00  0.00     0.106 C 
HETATM   23  N3  UNL     1       7.023   0.348  -1.426  1.00  0.00    -0.316 N 
HETATM   24  C18 UNL     1       8.557   0.343   0.337  1.00  0.00     0.181 C 
HETATM   25 CL1  UNL     1       9.474   1.629   1.166  1.00  0.00    -0.115 Cl
HETATM   26  C19 UNL     1       8.375   0.625  -1.104  1.00  0.00     0.241 C 
HETATM   27  O2  UNL     1       9.301   1.033  -1.845  1.00  0.00    -0.271 OA
ATOM     28  H3  UNL     1       6.560   0.564  -2.309  1.00  0.00     0.170 HD
ATOM     29  H2  UNL     1       5.169  -1.437  -1.259  1.00  0.00     0.160 HD
ENDBRANCH  19  20
ENDBRANCH  18  19
ENDBRANCH  17  18
ENDBRANCH  15  17
ENDBRANCH  12  13
ENDBRANCH  10  12
BRANCH  11  30
HETATM   30  N5  UNL     1      -3.257  -1.631   0.189  1.00  0.00    -0.269 N 
HETATM   31  C20 UNL     1      -4.295  -2.350   0.781  1.00  0.00     0.260 C 
HETATM   32  O3  UNL     1      -5.434  -2.095   1.114  1.00  0.00    -0.270 OA
ATOM     33  H5  UNL     1      -2.444  -2.235   0.070  1.00  0.00     0.190 HD
BRANCH  31  34
HETATM   34  C21 UNL     1      -3.950  -3.855   1.128  1.00  0.00     0.222 C 
HETATM   35 BR1  UNL     1      -5.502  -4.708   1.849  1.00  0.00    -0.069 Br
HETATM   36 BR2  UNL     1      -2.531  -3.804   2.433  1.00  0.00    -0.069 Br
ENDBRANCH  31  34
ENDBRANCH  11  30
TORSDOF 8
