REMARK  10 active torsions:
REMARK  status: ('A' for Active; 'I' for Inactive)
REMARK    1  A    between atoms: C2_2  and  C5_5 
REMARK    2  A    between atoms: C5_5  and  N1_6 
REMARK    3  A    between atoms: C5_5  and  C21_30 
REMARK       I    between atoms: N1_6  and  C6_8 
REMARK    4  A    between atoms: C6_8  and  C7_10 
REMARK    5  A    between atoms: N2_14  and  C11_15 
REMARK    6  A    between atoms: C11_15  and  O2_16 
REMARK    7  A    between atoms: C11_15  and  C12_18 
REMARK       I    between atoms: C21_30  and  N3_32 
REMARK    8  A    between atoms: N3_32  and  C22_34 
REMARK    9  A    between atoms: C22_34  and  C23_35 
REMARK       I    between atoms: C23_35  and  N4_37 
REMARK   10  A    between atoms: C24_38  and  C25_39 
ROOT
HETATM    1  N1  UNL     1      -0.655  -1.753   0.921  1.00  0.00    -0.342 N 
ATOM      2  H1  UNL     1      -0.847  -2.737   0.734  1.00  0.00     0.163 HD
HETATM    3  C6  UNL     1      -1.666  -0.802   0.624  1.00  0.00     0.265 C 
HETATM    4  O1  UNL     1      -1.354   0.379   0.839  1.00  0.00    -0.266 OA
ENDROOT
BRANCH   1   5
HETATM    5  C5  UNL     1       0.643  -1.397   1.479  1.00  0.00     0.184 C 
BRANCH   5   6
HETATM    6  C2  UNL     1       1.361  -2.546   2.039  1.00  0.00    -0.022 C 
HETATM    7  C1  UNL     1       1.667  -3.639   1.039  1.00  0.00     0.017 C 
HETATM    8  C3  UNL     1       0.456  -3.148   3.128  1.00  0.00     0.017 C 
HETATM    9  C4  UNL     1       2.638  -2.198   2.738  1.00  0.00     0.017 C 
ENDBRANCH   5   6
BRANCH   5  10
HETATM   10  C21 UNL     1       1.409  -0.578   0.468  1.00  0.00     0.241 C 
HETATM   11  O3  UNL     1       0.955  -0.515  -0.699  1.00  0.00    -0.271 OA
HETATM   12  N3  UNL     1       2.593   0.125   0.751  1.00  0.00    -0.351 N 
ATOM     13  H3  UNL     1       2.991   0.089   1.689  1.00  0.00     0.163 HD
BRANCH  12  14
HETATM   14  C22 UNL     1       3.253   0.902  -0.282  1.00  0.00     0.225 C 
BRANCH  14  15
HETATM   15  C23 UNL     1       4.463   1.577   0.255  1.00  0.00     0.238 C 
HETATM   16  O4  UNL     1       4.786   1.373   1.475  1.00  0.00    -0.272 OA
HETATM   17  N4  UNL     1       5.295   2.446  -0.488  1.00  0.00    -0.331 N 
HETATM   18  C24 UNL     1       5.137   2.790  -1.879  1.00  0.00     0.189 C 
HETATM   19  C29 UNL     1       6.409   3.173   0.064  1.00  0.00     0.092 A 
HETATM   20  C26 UNL     1       5.907   4.060  -2.103  1.00  0.00     0.043 C 
HETATM   21  C27 UNL     1       6.844   4.171  -0.949  1.00  0.00     0.013 A 
HETATM   22  C28 UNL     1       7.759   3.078  -0.612  1.00  0.00     0.032 A 
BRANCH  18  23
HETATM   23  C25 UNL     1       5.572   1.771  -2.839  1.00  0.00     0.197 C 
HETATM   24  O5  UNL     1       5.991   0.660  -2.465  1.00  0.00    -0.646 OA
HETATM   25  O6  UNL     1       5.516   2.048  -4.192  1.00  0.00    -0.646 OA
ENDBRANCH  18  23
ENDBRANCH  14  15
ENDBRANCH  12  14
ENDBRANCH   5  10
ENDBRANCH   1   5
BRANCH   3  26
HETATM   26  C7  UNL     1      -2.999  -1.144   0.098  1.00  0.00     0.087 C 
HETATM   27  C8  UNL     1      -3.301  -2.555  -0.160  1.00  0.00     0.056 A 
HETATM   28  C9  UNL     1      -4.024  -2.462  -1.546  1.00  0.00     0.023 A 
HETATM   29  C18 UNL     1      -2.997  -3.480  -1.214  1.00  0.00    -0.032 A 
HETATM   30  C10 UNL     1      -3.583  -1.137  -2.123  1.00  0.00     0.137 C 
HETATM   31  N2  UNL     1      -3.574  -0.310  -0.900  1.00  0.00    -0.329 N 
HETATM   32  C19 UNL     1      -1.764  -3.587  -2.045  1.00  0.00     0.016 C 
HETATM   33  C20 UNL     1      -3.642  -4.886  -1.060  1.00  0.00     0.016 C 
BRANCH  31  34
HETATM   34  C11 UNL     1      -4.078   0.985  -0.904  1.00  0.00     0.123 C 
BRANCH  34  35
HETATM   35  O2  UNL     1      -4.525   1.404  -2.058  1.00  0.00    -0.349 OA
ATOM     36  H2  UNL     1      -4.870   2.289  -2.061  1.00  0.00     0.219 HD
ENDBRANCH  34  35
BRANCH  34  37
HETATM   37  C12 UNL     1      -4.205   1.972   0.162  1.00  0.00     0.074 C 
HETATM   38  C13 UNL     1      -4.936   1.534   1.406  1.00  0.00     0.027 C 
HETATM   39  C14 UNL     1      -5.959   2.642   1.526  1.00  0.00     0.094 C 
HETATM   40  C15 UNL     1      -6.502   2.647   0.089  1.00  0.00     0.190 C 
HETATM   41  C17 UNL     1      -5.184   3.872   1.096  1.00  0.00     0.257 C 
HETATM   42  F1  UNL     1      -7.505   3.534  -0.133  1.00  0.00    -0.248 F 
HETATM   43  C16 UNL     1      -5.109   3.136  -0.236  1.00  0.00     0.105 C 
HETATM   44  F2  UNL     1      -5.910   5.041   1.066  1.00  0.00    -0.205 F 
HETATM   45  F3  UNL     1      -3.932   4.020   1.641  1.00  0.00    -0.205 F 
ENDBRANCH  34  37
ENDBRANCH  31  34
ENDBRANCH   3  26
TORSDOF 10
