REMARK  8 active torsions:
REMARK  status: ('A' for Active; 'I' for Inactive)
REMARK    1  A    between atoms: C4_5  and  C5_6 
REMARK    2  A    between atoms: C5_6  and  C6_7 
REMARK    3  A    between atoms: C6_7  and  C7_8 
REMARK    4  A    between atoms: C7_8  and  N2_9 
REMARK    5  A    between atoms: C12_15  and  S1_16 
REMARK    6  A    between atoms: S1_16  and  N3_17 
REMARK    7  A    between atoms: C13_22  and  C14_23 
REMARK    8  A    between atoms: N5_29  and  O3_30 
ROOT
HETATM    1  N2  UNL     1      -0.477  -0.385  -0.747  1.00  0.00    -0.341 N 
HETATM    2  C8  UNL     1      -0.236  -0.611  -2.048  1.00  0.00     0.111 A 
HETATM    3  C9  UNL     1      -1.302  -0.829  -2.915  1.00  0.00     0.027 A 
HETATM    4 BR1  UNL     1      -0.964  -1.152  -4.775  1.00  0.00    -0.050 Br
HETATM    5  C10 UNL     1      -2.605  -0.815  -2.453  1.00  0.00     0.037 A 
HETATM    6  C11 UNL     1      -2.842  -0.584  -1.126  1.00  0.00     0.035 A 
HETATM    7  C12 UNL     1      -3.953  -0.490  -0.294  1.00  0.00     0.117 A 
HETATM    8  C13 UNL     1      -3.529  -0.230   0.994  1.00  0.00     0.060 A 
HETATM    9  N4  UNL     1      -2.186  -0.163   0.962  1.00  0.00    -0.342 N 
ATOM     10  H4  UNL     1      -1.587   0.018   1.768  1.00  0.00     0.167 HD
HETATM   11  C15 UNL     1      -1.751  -0.372  -0.300  1.00  0.00     0.119 A 
ENDROOT
BRANCH   1  12
HETATM   12  C7  UNL     1       0.654  -0.157   0.160  1.00  0.00     0.130 C 
BRANCH  12  13
HETATM   13  C6  UNL     1       1.003   1.293   0.249  1.00  0.00     0.026 C 
BRANCH  13  14
HETATM   14  C5  UNL     1       2.144   1.517   1.177  1.00  0.00     0.061 C 
BRANCH  14  15
HETATM   15  C4  UNL     1       3.397   0.849   0.833  1.00  0.00     0.040 A 
HETATM   16  C3  UNL     1       3.699  -0.413   1.300  1.00  0.00     0.029 A 
HETATM   17  C2  UNL     1       4.879  -1.063   0.987  1.00  0.00     0.030 A 
HETATM   18  C1  UNL     1       5.757  -0.393   0.178  1.00  0.00     0.064 A 
HETATM   19  N1  UNL     1       6.990  -0.988  -0.192  1.00  0.00    -0.101 NA
HETATM   20  C16 UNL     1       5.440   0.855  -0.275  1.00  0.00     0.149 A 
HETATM   21  N5  UNL     1       4.296   1.481   0.031  1.00  0.00    -0.238 N 
BRANCH  21  22
HETATM   22  O3  UNL     1       4.022   2.753  -0.457  1.00  0.00    -0.283 OA
ATOM     23  H3  UNL     1       4.650   3.194  -1.017  1.00  0.00     0.245 HD
ENDBRANCH  21  22
ENDBRANCH  14  15
ENDBRANCH  13  14
ENDBRANCH  12  13
ENDBRANCH   1  12
BRANCH   7  24
HETATM   24  S1  UNL     1      -5.579  -0.684  -0.858  1.00  0.00     0.259 S 
HETATM   25  O1  UNL     1      -6.499  -1.328   0.128  1.00  0.00    -0.201 OA
HETATM   26  O2  UNL     1      -5.571  -1.605  -2.069  1.00  0.00    -0.201 OA
BRANCH  24  27
HETATM   27  N3  UNL     1      -6.220   0.819  -1.338  1.00  0.00    -0.324 N 
ATOM     28  H32 UNL     1      -5.707   1.699  -1.294  1.00  0.00     0.169 HD
ATOM     29  H31 UNL     1      -7.178   0.705  -1.670  1.00  0.00     0.169 HD
ENDBRANCH  24  27
ENDBRANCH   7  24
BRANCH   8  30
HETATM   30  C14 UNL     1      -4.392  -0.056   2.162  1.00  0.00     0.180 C 
HETATM   31 BR2  UNL     1      -4.117   1.699   2.981  1.00  0.00    -0.072 Br
HETATM   32 BR3  UNL     1      -3.894  -1.377   3.503  1.00  0.00    -0.072 Br
ENDBRANCH   8  30
TORSDOF 8
