REMARK  6 active torsions:
REMARK  status: ('A' for Active; 'I' for Inactive)
REMARK    1  A    between atoms: O1_2  and  C2_3 
REMARK    2  A    between atoms: C2_3  and  C3_4 
REMARK    3  A    between atoms: C2_3  and  C5_14 
REMARK    4  A    between atoms: C3_4  and  N1_5 
REMARK    5  A    between atoms: C3_4  and  C4_9 
REMARK    6  A    between atoms: C4_9  and  N2_10 
ROOT
HETATM    1  C3  UNL     1       1.080  -0.106   0.707  1.00  0.00     0.237 C 
ENDROOT
BRANCH   1   2
HETATM    2  C2  UNL     1      -0.255   0.555   0.673  1.00  0.00     0.157 C 
BRANCH   2   3
HETATM    3  O1  UNL     1      -0.353   1.235  -0.550  1.00  0.00    -0.388 OA
HETATM    4  C1  UNL     1      -0.408   2.606  -0.421  1.00  0.00     0.202 C 
ENDBRANCH   2   3
BRANCH   2   5
HETATM    5  C5  UNL     1      -1.433  -0.283   1.002  1.00  0.00     0.017 A 
HETATM    6  C6  UNL     1      -1.946  -1.393   0.212  1.00  0.00     0.007 A 
HETATM    7  C7  UNL     1      -2.658  -0.053   0.108  1.00  0.00     0.007 A 
ENDBRANCH   2   5
ENDBRANCH   1   2
BRANCH   1   8
HETATM    8  N1  UNL     1       1.329  -0.863   1.914  1.00  0.00    -0.071 N 
ATOM      9  H13 UNL     1       1.198  -0.277   2.738  1.00  0.00     0.274 HD
ATOM     10  H12 UNL     1       0.587  -1.545   2.069  1.00  0.00     0.274 HD
ATOM     11  H11 UNL     1       2.243  -1.315   1.937  1.00  0.00     0.274 HD
ENDBRANCH   1   8
BRANCH   1  12
HETATM   12  C4  UNL     1       1.449  -0.842  -0.559  1.00  0.00     0.265 C 
BRANCH  12  13
HETATM   13  N2  UNL     1       2.773  -1.426  -0.368  1.00  0.00    -0.077 N 
ATOM     14  H23 UNL     1       3.473  -0.737  -0.093  1.00  0.00     0.274 HD
ATOM     15  H22 UNL     1       2.829  -2.015   0.463  1.00  0.00     0.274 HD
ATOM     16  H21 UNL     1       3.022  -1.923  -1.223  1.00  0.00     0.274 HD
ENDBRANCH  12  13
ENDBRANCH   1  12
TORSDOF 6
