REMARK  4 active torsions:
REMARK  status: ('A' for Active; 'I' for Inactive)
REMARK    1  A    between atoms: N1_2  and  C2_5 
REMARK    2  A    between atoms: C2_5  and  C3_6 
REMARK    3  A    between atoms: C3_6  and  N2_7 
REMARK    4  A    between atoms: C3_6  and  C4_11 
ROOT
HETATM    1  C3  UNL     1       0.002   0.216   0.920  1.00  0.00     0.218 C 
ENDROOT
BRANCH   1   2
HETATM    2  C2  UNL     1       1.279  -0.513   0.512  1.00  0.00     0.264 C 
BRANCH   2   3
HETATM    3  N1  UNL     1       1.965   0.284  -0.513  1.00  0.00    -0.077 N 
HETATM    4  C1  UNL     1       3.185  -0.379  -0.925  1.00  0.00     0.267 C 
ATOM      5  H12 UNL     1       2.137   1.240  -0.202  1.00  0.00     0.276 HD
ATOM      6  H11 UNL     1       1.357   0.492  -1.305  1.00  0.00     0.276 HD
ENDBRANCH   2   3
ENDBRANCH   1   2
BRANCH   1   7
HETATM    7  N2  UNL     1      -0.616  -0.621   1.924  1.00  0.00    -0.073 N 
ATOM      8  H23 UNL     1      -0.772  -1.581   1.618  1.00  0.00     0.274 HD
ATOM      9  H22 UNL     1      -0.002  -0.843   2.708  1.00  0.00     0.274 HD
ATOM     10  H21 UNL     1      -1.470  -0.134   2.197  1.00  0.00     0.274 HD
ENDBRANCH   1   7
BRANCH   1  11
HETATM   11  C4  UNL     1      -0.886   0.481  -0.240  1.00  0.00     0.076 C 
HETATM   12  C5  UNL     1      -2.130   1.193   0.103  1.00  0.00     0.133 C 
HETATM   13  C6  UNL     1      -2.733   0.604  -1.138  1.00  0.00     0.065 C 
HETATM   14  O1  UNL     1      -2.561   0.043   0.730  1.00  0.00    -0.379 OA
HETATM   15  C7  UNL     1      -1.994  -0.485  -0.408  1.00  0.00     0.133 C 
ENDBRANCH   1  11
TORSDOF 4
