REMARK  5 active torsions:
REMARK  status: ('A' for Active; 'I' for Inactive)
REMARK    1  A    between atoms: C2_2  and  C3_3 
REMARK    2  A    between atoms: C3_3  and  N1_4 
REMARK    3  A    between atoms: C3_3  and  C4_8 
REMARK    4  A    between atoms: C4_8  and  C5_9 
REMARK    5  A    between atoms: C6_13  and  C7_14 
ROOT
HETATM    1  C5  UNL     1       0.706   0.102   0.511  1.00  0.00     0.225 A 
HETATM    2  N2  UNL     1       0.800  -1.316   0.235  1.00  0.00    -0.057 N 
ATOM      3  H21 UNL     1       0.125  -2.050   0.022  1.00  0.00     0.278 HD
ATOM      4  H22 UNL     1       1.023  -2.141   0.793  1.00  0.00     0.278 HD
HETATM    5  C6  UNL     1       1.580  -0.382  -0.565  1.00  0.00     0.267 A 
ENDROOT
BRANCH   1   6
HETATM    6  C4  UNL     1      -0.482   0.913   0.146  1.00  0.00     0.072 C 
BRANCH   6   7
HETATM    7  C3  UNL     1      -1.784   0.526   0.768  1.00  0.00     0.207 C 
BRANCH   7   8
HETATM    8  C2  UNL     1      -2.239  -0.838   0.459  1.00  0.00    -0.005 C 
HETATM    9  C1  UNL     1      -2.991  -1.096  -0.597  1.00  0.00     0.009 C 
ENDBRANCH   7   8
BRANCH   7  10
HETATM   10  N1  UNL     1      -2.799   1.487   0.292  1.00  0.00    -0.072 N 
ATOM     11  H13 UNL     1      -3.018   1.364  -0.697  1.00  0.00     0.275 HD
ATOM     12  H12 UNL     1      -3.727   1.292   0.668  1.00  0.00     0.275 HD
ATOM     13  H11 UNL     1      -2.483   2.433   0.506  1.00  0.00     0.275 HD
ENDBRANCH   7  10
ENDBRANCH   6   7
ENDBRANCH   1   6
BRANCH   5  14
HETATM   14  C7  UNL     1       3.028  -0.277  -0.336  1.00  0.00     0.057 A 
HETATM   15  N3  UNL     1       4.093  -0.761  -1.277  1.00  0.00    -0.364 N 
HETATM   16  C8  UNL     1       4.467  -0.173  -0.108  1.00  0.00     0.115 A 
ATOM     17  H3  UNL     1       4.350  -1.208  -2.157  1.00  0.00     0.165 HD
ENDBRANCH   5  14
TORSDOF 5
