REMARK  4 active torsions:
REMARK  status: ('A' for Active; 'I' for Inactive)
REMARK    1  A    between atoms: C1_4  and  C2_5 
REMARK    2  A    between atoms: N2_6  and  C3_8 
REMARK    3  A    between atoms: C3_8  and  C4_9 
REMARK    4  A    between atoms: N3_11  and  O1_12 
ROOT
HETATM    1  C4  UNL     1       1.016  -0.114   0.419  1.00  0.00     0.084 A 
HETATM    2  C5  UNL     1       1.965   0.716   0.967  1.00  0.00     0.177 A 
HETATM    3  N3  UNL     1       3.079   0.650   0.217  1.00  0.00    -0.158 N 
HETATM    4  N4  UNL     1       2.817  -0.196  -0.759  1.00  0.00    -0.216 N 
ATOM      5  H4  UNL     1       3.472  -0.457  -1.496  1.00  0.00     0.211 HD
HETATM    6  N5  UNL     1       1.585  -0.658  -0.647  1.00  0.00    -0.282 N 
ATOM      7  H5  UNL     1       1.143  -1.326  -1.279  1.00  0.00     0.188 HD
ENDROOT
BRANCH   1   8
HETATM    8  C3  UNL     1      -0.384  -0.353   0.930  1.00  0.00     0.120 C 
BRANCH   8   9
HETATM    9  N2  UNL     1      -1.059  -1.256   0.121  1.00  0.00    -0.372 N 
HETATM   10  C2  UNL     1      -2.077  -1.233  -0.606  1.00  0.00     0.104 C 
ATOM     11  H2  UNL     1      -0.611  -2.172   0.118  1.00  0.00     0.164 HD
BRANCH  10  12
HETATM   12  C1  UNL     1      -2.949  -0.123  -0.841  1.00  0.00     0.097 C 
HETATM   13  N1  UNL     1      -2.869   1.058  -0.364  1.00  0.00    -0.407 N 
ATOM     14  H12 UNL     1      -2.078   1.213   0.261  1.00  0.00     0.155 HD
ATOM     15  H11 UNL     1      -3.491   1.849  -0.532  1.00  0.00     0.155 HD
ENDBRANCH  10  12
ENDBRANCH   8   9
ENDBRANCH   1   8
BRANCH   3  16
HETATM   16  O1  UNL     1       4.274   1.338   0.430  1.00  0.00    -0.267 OA
ATOM     17  H1  UNL     1       5.061   1.291  -0.100  1.00  0.00     0.247 HD
ENDBRANCH   3  16
TORSDOF 4
