REMARK  3 active torsions:
REMARK  status: ('A' for Active; 'I' for Inactive)
REMARK    1  A    between atoms: C3_3  and  C4_4 
REMARK    2  A    between atoms: C3_3  and  C6_7 
REMARK    3  A    between atoms: C4_4  and  O1_5 
ROOT
HETATM    1  C1  UNL     1       0.173   3.472  -0.041  1.00  0.00     0.012 C 
HETATM    2  C2  UNL     1       0.347   2.279  -0.018  1.00  0.00    -0.106 C 
HETATM    3  C3  UNL     1       0.562   0.805   0.035  1.00  0.00     0.146 C 
ENDROOT
BRANCH   3   4
HETATM    4  C4  UNL     1       1.696   0.522  -0.913  1.00  0.00     0.188 C 
BRANCH   4   5
HETATM    5  O1  UNL     1       2.054  -0.810  -0.988  1.00  0.00    -0.395 OA
HETATM    6  C5  UNL     1       2.508  -1.310   0.227  1.00  0.00     0.201 C 
ENDBRANCH   4   5
ENDBRANCH   3   4
BRANCH   3   7
HETATM    7  C6  UNL     1      -0.725   0.201  -0.549  1.00  0.00     0.400 C 
HETATM    8  N1  UNL     1      -1.809   0.645   0.302  1.00  0.00    -0.043 N 
HETATM    9  C7  UNL     1      -2.000  -0.446   1.220  1.00  0.00     0.262 C 
ATOM     10  H12 UNL     1      -1.648   1.547   0.750  1.00  0.00     0.279 HD
ATOM     11  H11 UNL     1      -2.652   0.921  -0.202  1.00  0.00     0.279 HD
HETATM   12  C8  UNL     1      -1.800  -1.652   0.312  1.00  0.00     0.262 C 
HETATM   13  N2  UNL     1      -0.723  -1.219  -0.588  1.00  0.00    -0.043 N 
ATOM     14  H22 UNL     1      -0.803  -1.600  -1.531  1.00  0.00     0.279 HD
ATOM     15  H21 UNL     1       0.183  -1.630  -0.365  1.00  0.00     0.279 HD
ENDBRANCH   3   7
TORSDOF 3
