REMARK  10 active torsions:
REMARK  status: ('A' for Active; 'I' for Inactive)
REMARK       I    between atoms: C2_2  and  N1_4 
REMARK    1  A    between atoms: N1_4  and  C3_6 
REMARK    2  A    between atoms: C4_7  and  C5_8 
REMARK    3  A    between atoms: C6_12  and  N2_13 
REMARK       I    between atoms: N2_13  and  C7_15 
REMARK       I    between atoms: C7_15  and  N3_16 
REMARK       I    between atoms: C7_15  and  N4_20 
REMARK    4  A    between atoms: C8_24  and  N5_25 
REMARK    5  A    between atoms: N5_25  and  N6_27 
REMARK       I    between atoms: N6_27  and  C9_29 
REMARK    6  A    between atoms: C9_29  and  C10_31 
REMARK    7  A    between atoms: C10_31  and  C11_32 
REMARK    8  A    between atoms: C11_32  and  N7_33 
REMARK    9  A    between atoms: C13_41  and  N11_42 
REMARK   10  A    between atoms: C16_48  and  O6_49 
ROOT
HETATM    1  C3  UNL     1      -2.680   0.919  -0.811  1.00  0.00     0.112 A 
HETATM    2  C4  UNL     1      -3.434   0.488   0.252  1.00  0.00     0.183 A 
HETATM    3  O4  UNL     1      -3.303  -0.728   0.775  1.00  0.00    -0.282 OA
HETATM    4  C6  UNL     1      -2.446  -1.592   0.308  1.00  0.00     0.178 A 
HETATM    5  C8  UNL     1      -1.660  -1.211  -0.761  1.00  0.00     0.135 A 
HETATM    6  C16 UNL     1      -1.750   0.032  -1.343  1.00  0.00     0.128 A 
ENDROOT
BRANCH   5   7
HETATM    7  N5  UNL     1      -0.735  -2.144  -1.270  1.00  0.00    -0.292 N 
ATOM      8  H5  UNL     1      -1.034  -2.760  -2.026  1.00  0.00     0.187 HD
BRANCH   7   9
HETATM    9  N6  UNL     1       0.566  -2.266  -0.793  1.00  0.00    -0.269 N 
HETATM   10  C9  UNL     1       1.130  -1.447   0.228  1.00  0.00     0.237 C 
HETATM   11  O5  UNL     1       0.427  -0.557   0.740  1.00  0.00    -0.272 OA
ATOM     12  H6  UNL     1       1.156  -2.991  -1.202  1.00  0.00     0.190 HD
BRANCH  10  13
HETATM   13  C10 UNL     1       2.514  -1.686   0.636  1.00  0.00     0.126 C 
BRANCH  13  14
HETATM   14  C11 UNL     1       3.082  -0.719   1.630  1.00  0.00     0.161 C 
BRANCH  14  15
HETATM   15  N7  UNL     1       3.129   0.621   1.091  1.00  0.00    -0.258 N 
HETATM   16  N8  UNL     1       2.286   1.626   1.135  1.00  0.00    -0.237 N 
HETATM   17  N9  UNL     1       2.770   2.685   0.507  1.00  0.00    -0.267 N 
ATOM     18  H8  UNL     1       1.376   1.595   1.594  1.00  0.00     0.208 HD
HETATM   19  C12 UNL     1       3.989   2.376   0.022  1.00  0.00     0.183 A 
ATOM     20  H9  UNL     1       2.300   3.584   0.407  1.00  0.00     0.190 HD
HETATM   21  N10 UNL     1       5.058   2.838  -0.672  1.00  0.00    -0.172 N 
HETATM   22  C15 UNL     1       4.215   1.071   0.391  1.00  0.00     0.187 A 
HETATM   23  C13 UNL     1       5.950   1.834  -0.740  1.00  0.00     0.681 A 
ATOM     24  H10 UNL     1       5.166   3.772  -1.068  1.00  0.00     0.186 HD
HETATM   25  N12 UNL     1       5.425   0.757  -0.085  1.00  0.00    -0.167 N 
HETATM   26  C14 UNL     1       6.094  -0.512   0.057  1.00  0.00     0.177 C 
BRANCH  23  27
HETATM   27  N11 UNL     1       7.108   1.859  -1.315  1.00  0.00    -0.234 N 
ATOM     28 2H11 UNL     1       7.500   2.663  -1.804  1.00  0.00     0.174 HD
ATOM     29 1H11 UNL     1       7.785   1.097  -1.367  1.00  0.00     0.174 HD
ENDBRANCH  23  27
ENDBRANCH  14  15
ENDBRANCH  13  14
ENDBRANCH  10  13
ENDBRANCH   7   9
ENDBRANCH   5   7
BRANCH   4  30
HETATM   30  N2  UNL     1      -2.310  -2.793   0.816  1.00  0.00    -0.319 N 
HETATM   31  C7  UNL     1      -3.169  -3.120   1.937  1.00  0.00     0.482 C 
HETATM   32  N3  UNL     1      -2.737  -4.354   2.558  1.00  0.00    -0.033 N 
HETATM   33  N4  UNL     1      -4.525  -3.175   1.476  1.00  0.00    -0.033 N 
ATOM     34  H33 UNL     1      -2.681  -5.119   1.886  1.00  0.00     0.278 HD
ATOM     35  H32 UNL     1      -1.754  -4.320   2.829  1.00  0.00     0.278 HD
ATOM     36  H31 UNL     1      -3.341  -4.584   3.347  1.00  0.00     0.278 HD
ATOM     37  H43 UNL     1      -4.811  -2.318   1.002  1.00  0.00     0.278 HD
ATOM     38  H42 UNL     1      -4.645  -3.817   0.692  1.00  0.00     0.278 HD
ATOM     39  H41 UNL     1      -5.129  -3.405   2.265  1.00  0.00     0.278 HD
ATOM     40  H2  UNL     1      -1.636  -3.461   0.443  1.00  0.00     0.165 HD
ENDBRANCH   4  30
BRANCH   6  41
HETATM   41  O6  UNL     1      -0.973   0.419  -2.407  1.00  0.00    -0.356 OA
ATOM     42  H6  UNL     1      -0.338  -0.187  -2.770  1.00  0.00     0.218 HD
ENDBRANCH   6  41
BRANCH   1  43
HETATM   43  N1  UNL     1      -2.848   2.220  -1.365  1.00  0.00    -0.323 N 
HETATM   44  C2  UNL     1      -3.734   2.417  -2.455  1.00  0.00     0.218 C 
HETATM   45  C1  UNL     1      -3.926   3.762  -3.050  1.00  0.00     0.117 C 
HETATM   46  O1  UNL     1      -4.382   1.459  -2.947  1.00  0.00    -0.274 OA
ATOM     47  H1  UNL     1      -2.331   3.010  -0.978  1.00  0.00     0.169 HD
ENDBRANCH   1  43
BRANCH   2  48
HETATM   48  C5  UNL     1      -4.420   1.381   0.848  1.00  0.00     0.236 C 
HETATM   49  O2  UNL     1      -5.115   0.964   1.832  1.00  0.00    -0.642 OA
HETATM   50  O3  UNL     1      -4.668   2.652   0.434  1.00  0.00    -0.642 OA
ENDBRANCH   2  48
TORSDOF 10
