REMARK  13 active torsions:
REMARK  status: ('A' for Active; 'I' for Inactive)
REMARK    1  A    between atoms: O1_2  and  C2_3 
REMARK    2  A    between atoms: C2_3  and  O2_4 
REMARK    3  A    between atoms: C2_3  and  C3_6 
REMARK    4  A    between atoms: C4_9  and  C5_10 
REMARK    5  A    between atoms: C6_13  and  O3_14 
REMARK    6  A    between atoms: C7_16  and  N3_17 
REMARK    7  A    between atoms: N3_17  and  C8_19 
REMARK    8  A    between atoms: N7_26  and  N8_27 
REMARK    9  A    between atoms: N8_27  and  N9_29 
REMARK   10  A    between atoms: C9_32  and  N10_33 
REMARK       I    between atoms: N10_33  and  C10_35 
REMARK   11  A    between atoms: C12_38  and  O5_39 
REMARK   12  A    between atoms: C13_43  and  C14_44 
REMARK   13  A    between atoms: C14_44  and  C15_46 
ROOT
HETATM    1  C5  UNL     1       0.447   0.232   0.291  1.00  0.00     0.114 A 
HETATM    2  N2  UNL     1      -0.132   1.423   0.590  1.00  0.00    -0.330 N 
ATOM      3  H2  UNL     1       0.469   2.217   0.812  1.00  0.00     0.168 HD
HETATM    4  C6  UNL     1      -1.464   1.599   0.605  1.00  0.00     0.171 A 
HETATM    5  C7  UNL     1      -2.326   0.562   0.312  1.00  0.00     0.129 A 
HETATM    6  C9  UNL     1      -1.759  -0.640   0.010  1.00  0.00     0.102 A 
HETATM    7  C12 UNL     1      -0.354  -0.831  -0.007  1.00  0.00     0.125 A 
ENDROOT
BRANCH   1   8
HETATM    8  C4  UNL     1       1.922   0.169   0.313  1.00  0.00     0.136 A 
HETATM    9  N1  UNL     1       2.734  -0.821   0.078  1.00  0.00    -0.338 N 
HETATM   10  C3  UNL     1       4.067  -0.441   0.216  1.00  0.00     0.097 A 
ATOM     11  H1  UNL     1       2.431  -1.761  -0.176  1.00  0.00     0.167 HD
HETATM   12  C13 UNL     1       4.020   0.880   0.559  1.00  0.00     0.119 A 
HETATM   13  N11 UNL     1       2.723   1.227   0.611  1.00  0.00    -0.335 N 
ATOM     14  H11 UNL     1       2.384   2.161   0.843  1.00  0.00     0.168 HD
BRANCH  10  15
HETATM   15  C2  UNL     1       5.177  -1.348  -0.007  1.00  0.00     0.309 C 
BRANCH  15  16
HETATM   16  O1  UNL     1       6.215  -0.949  -0.778  1.00  0.00    -0.360 OA
HETATM   17  C1  UNL     1       7.457  -1.466  -0.356  1.00  0.00     0.205 C 
ENDBRANCH  15  16
BRANCH  15  18
HETATM   18  O2  UNL     1       4.609  -2.469  -0.777  1.00  0.00    -0.366 OA
ATOM     19  H2  UNL     1       3.880  -2.749  -0.236  1.00  0.00     0.213 HD
ENDBRANCH  15  18
ENDBRANCH  10  15
BRANCH  12  20
HETATM   20  C14 UNL     1       5.084   1.819   0.847  1.00  0.00     0.276 C 
HETATM   21  O6  UNL     1       6.292   1.425   0.802  1.00  0.00    -0.278 OA
BRANCH  20  22
HETATM   22  C15 UNL     1       4.885   3.208   1.190  1.00  0.00     0.253 C 
HETATM   23  O7  UNL     1       3.797   3.790   1.279  1.00  0.00    -0.642 OA
HETATM   24  O8  UNL     1       6.069   3.964   1.446  1.00  0.00    -0.642 OA
ENDBRANCH  20  22
ENDBRANCH  12  20
ENDBRANCH   1   8
BRANCH   7  25
HETATM   25  O5  UNL     1       0.134  -2.061  -0.319  1.00  0.00    -0.356 OA
ATOM     26  H5  UNL     1      -0.424  -2.801  -0.527  1.00  0.00     0.218 HD
ENDBRANCH   7  25
BRANCH   4  27
HETATM   27  O3  UNL     1      -1.983   2.828   0.915  1.00  0.00    -0.344 OA
ATOM     28  H3  UNL     1      -2.925   2.952   0.926  1.00  0.00     0.219 HD
ENDBRANCH   4  27
BRANCH   6  29
HETATM   29  N10 UNL     1      -2.584  -1.739  -0.300  1.00  0.00    -0.323 N 
HETATM   30  C10 UNL     1      -3.084  -2.664   0.622  1.00  0.00     0.218 C 
HETATM   31  C11 UNL     1      -3.948  -3.784   0.169  1.00  0.00     0.117 C 
HETATM   32  O4  UNL     1      -2.819  -2.575   1.847  1.00  0.00    -0.274 OA
ATOM     33  H10 UNL     1      -2.838  -1.871  -1.279  1.00  0.00     0.169 HD
ENDBRANCH   6  29
BRANCH   5  34
HETATM   34  N3  UNL     1      -3.693   0.741   0.332  1.00  0.00    -0.181 N 
ATOM     35  H3  UNL     1      -4.185   0.151   1.003  1.00  0.00     0.184 HD
BRANCH  34  36
HETATM   36  C8  UNL     1      -4.442   1.508  -0.336  1.00  0.00     0.737 A 
HETATM   37  N4  UNL     1      -4.042   2.375  -1.275  1.00  0.00    -0.113 N 
HETATM   38  N5  UNL     1      -5.083   3.011  -1.765  1.00  0.00    -0.212 N 
ATOM     39  H4  UNL     1      -3.075   2.520  -1.566  1.00  0.00     0.207 HD
HETATM   40  N6  UNL     1      -6.145   2.549  -1.138  1.00  0.00    -0.190 N 
ATOM     41  H5  UNL     1      -5.071   3.726  -2.492  1.00  0.00     0.210 HD
HETATM   42  N7  UNL     1      -5.775   1.627  -0.257  1.00  0.00     0.011 N 
ATOM     43  H6  UNL     1      -7.105   2.853  -1.304  1.00  0.00     0.212 HD
BRANCH  42  44
HETATM   44  N8  UNL     1      -6.673   0.945   0.575  1.00  0.00    -0.212 N 
ATOM     45  H8  UNL     1      -6.900   1.363   1.477  1.00  0.00     0.210 HD
BRANCH  44  46
HETATM   46  N9  UNL     1      -7.277  -0.271   0.248  1.00  0.00    -0.329 N 
ATOM     47  H92 UNL     1      -7.038  -0.675  -0.658  1.00  0.00     0.178 HD
ATOM     48  H91 UNL     1      -7.931  -0.767   0.854  1.00  0.00     0.178 HD
ENDBRANCH  44  46
ENDBRANCH  42  44
ENDBRANCH  34  36
ENDBRANCH   5  34
TORSDOF 13
