REMARK  14 active torsions:
REMARK  status: ('A' for Active; 'I' for Inactive)
REMARK    1  A    between atoms: C2_2  and  C4_4 
REMARK       I    between atoms: C4_4  and  N1_6 
REMARK    2  A    between atoms: N1_6  and  C5_8 
REMARK    3  A    between atoms: C5_8  and  C6_9 
REMARK    4  A    between atoms: C5_8  and  C16_48 
REMARK    5  A    between atoms: C7_12  and  C8_13 
REMARK    6  A    between atoms: C8_13  and  O2_14 
REMARK    7  A    between atoms: C8_13  and  O3_16 
REMARK    8  A    between atoms: C9_19  and  C10_20 
REMARK    9  A    between atoms: C10_20  and  N3_21 
REMARK   10  A    between atoms: C12_29  and  N7_30 
REMARK   11  A    between atoms: C13_35  and  N9_36 
REMARK   12  A    between atoms: N9_36  and  N10_38 
REMARK   13  A    between atoms: N11_43  and  N12_45 
REMARK   14  A    between atoms: C16_48  and  O5_50 
ROOT
HETATM    1  N3  UNL     1       1.368   0.753   0.775  1.00  0.00    -0.254 N 
HETATM    2  N4  UNL     1       1.575   0.926   2.081  1.00  0.00    -0.237 N 
ATOM      3  H4  UNL     1       0.764   0.891   2.699  1.00  0.00     0.208 HD
HETATM    4  N5  UNL     1       2.756   1.139   2.630  1.00  0.00    -0.269 N 
ATOM      5  H5  UNL     1       2.841   1.263   3.639  1.00  0.00     0.190 HD
HETATM    6  C11 UNL     1       3.862   1.191   1.832  1.00  0.00     0.154 A 
HETATM    7  N6  UNL     1       5.085   1.413   2.374  1.00  0.00    -0.174 N 
ATOM      8  H6  UNL     1       5.192   1.540   3.380  1.00  0.00     0.186 HD
HETATM    9  C12 UNL     1       6.152   1.462   1.562  1.00  0.00     0.679 A 
HETATM   10  N8  UNL     1       5.973   1.290   0.235  1.00  0.00    -0.174 N 
ATOM     11  H8  UNL     1       6.792   1.330  -0.372  1.00  0.00     0.186 HD
HETATM   12  C13 UNL     1       4.770   1.068  -0.331  1.00  0.00     0.153 A 
HETATM   13  C14 UNL     1       3.666   1.015   0.494  1.00  0.00     0.102 A 
HETATM   14  C15 UNL     1       2.385   0.787  -0.068  1.00  0.00     0.156 A 
HETATM   15  N11 UNL     1       2.360   0.622  -1.333  1.00  0.00    -0.290 N 
ATOM     16  H11 UNL     1       3.275   0.694  -1.779  1.00  0.00     0.188 HD
ENDROOT
BRANCH   1  17
HETATM   17  C10 UNL     1       0.003   0.546   0.359  1.00  0.00     0.219 C 
BRANCH  17  18
HETATM   18  C9  UNL     1      -0.265  -0.928   0.354  1.00  0.00     0.100 A 
HETATM   19  C6  UNL     1      -1.449  -1.571   0.069  1.00  0.00     0.068 A 
HETATM   20  N2  UNL     1      -1.159  -2.899   0.208  1.00  0.00    -0.336 N 
HETATM   21  C7  UNL     1       0.112  -3.044   0.553  1.00  0.00     0.180 A 
ATOM     22  H2  UNL     1      -1.820  -3.663   0.068  1.00  0.00     0.167 HD
HETATM   23  O4  UNL     1       0.629  -1.857   0.635  1.00  0.00    -0.293 OA
BRANCH  19  24
HETATM   24  C5  UNL     1      -2.704  -0.936  -0.317  1.00  0.00     0.165 C 
BRANCH  24  25
HETATM   25  N1  UNL     1      -3.062   0.223   0.462  1.00  0.00    -0.348 N 
HETATM   26  C4  UNL     1      -3.421   1.464  -0.116  1.00  0.00     0.221 C 
HETATM   27  O1  UNL     1      -3.426   1.542  -1.370  1.00  0.00    -0.273 OA
ATOM     28  H1  UNL     1      -3.056   0.145   1.479  1.00  0.00     0.163 HD
BRANCH  26  29
HETATM   29  C2  UNL     1      -3.787   2.658   0.663  1.00  0.00     0.070 C 
HETATM   30  C1  UNL     1      -4.123   3.835  -0.215  1.00  0.00     0.019 C 
HETATM   31  C3  UNL     1      -4.993   2.350   1.519  1.00  0.00     0.019 C 
ENDBRANCH  26  29
ENDBRANCH  24  25
BRANCH  24  32
HETATM   32  C16 UNL     1      -3.873  -1.905  -0.296  1.00  0.00     0.142 C 
HETATM   33  C17 UNL     1      -3.619  -3.175  -1.046  1.00  0.00     0.042 C 
BRANCH  32  34
HETATM   34  O5  UNL     1      -4.956  -1.232  -0.853  1.00  0.00    -0.394 OA
ATOM     35  H5  UNL     1      -5.687  -1.838  -0.840  1.00  0.00     0.210 HD
ENDBRANCH  32  34
ENDBRANCH  24  32
ENDBRANCH  19  24
BRANCH  21  36
HETATM   36  C8  UNL     1       0.905  -4.285   0.822  1.00  0.00     0.331 C 
BRANCH  36  37
HETATM   37  O2  UNL     1       2.126  -4.197   0.127  1.00  0.00    -0.364 OA
ATOM     38  H2  UNL     1       2.629  -4.984   0.298  1.00  0.00     0.213 HD
ENDBRANCH  36  37
BRANCH  36  39
HETATM   39  O3  UNL     1       0.200  -5.355   0.289  1.00  0.00    -0.364 OA
ATOM     40  H3  UNL     1       0.703  -6.142   0.460  1.00  0.00     0.213 HD
ENDBRANCH  36  39
ENDBRANCH  21  36
ENDBRANCH  17  18
ENDBRANCH   1  17
BRANCH  15  41
HETATM   41  N12 UNL     1       1.349   0.370  -2.191  1.00  0.00    -0.344 N 
ATOM     42 2H12 UNL     1       0.444   0.302  -1.725  1.00  0.00     0.176 HD
ATOM     43 1H12 UNL     1       1.329   0.238  -3.202  1.00  0.00     0.176 HD
ENDBRANCH  15  41
BRANCH  12  44
HETATM   44  N9  UNL     1       4.604   0.910  -1.588  1.00  0.00    -0.291 N 
ATOM     45  H9  UNL     1       3.659   0.746  -1.934  1.00  0.00     0.188 HD
BRANCH  44  46
HETATM   46  N10 UNL     1       5.640   0.950  -2.503  1.00  0.00    -0.344 N 
ATOM     47 2H10 UNL     1       6.579   1.115  -2.139  1.00  0.00     0.176 HD
ATOM     48 1H10 UNL     1       5.507   0.824  -3.506  1.00  0.00     0.176 HD
ENDBRANCH  44  46
ENDBRANCH  12  44
BRANCH   9  49
HETATM   49  N7  UNL     1       7.347   1.678   2.061  1.00  0.00    -0.234 N 
ATOM     50  H72 UNL     1       7.482   1.808   3.064  1.00  0.00     0.174 HD
ATOM     51  H71 UNL     1       8.158   1.715   1.444  1.00  0.00     0.174 HD
ENDBRANCH   9  49
TORSDOF 14
