REMARK  14 active torsions:
REMARK  status: ('A' for Active; 'I' for Inactive)
REMARK    1  A    between atoms: C2_2  and  N1_3 
REMARK    2  A    between atoms: C4_9  and  S1_10 
REMARK    3  A    between atoms: S1_10  and  C5_11 
REMARK    4  A    between atoms: C10_21  and  N6_22 
REMARK    5  A    between atoms: N7_25  and  C11_26 
REMARK    6  A    between atoms: C11_26  and  N8_27 
REMARK    7  A    between atoms: N8_27  and  C12_29 
REMARK    8  A    between atoms: C12_29  and  C13_30 
REMARK    9  A    between atoms: C12_29  and  C14_33 
REMARK   10  A    between atoms: C12_29  and  N9_36 
REMARK   11  A    between atoms: C13_30  and  O1_31 
REMARK   12  A    between atoms: C14_33  and  O2_34 
REMARK   13  A    between atoms: N9_36  and  O3_38 
REMARK   14  A    between atoms: N10_40  and  C15_41 
ROOT
HETATM    1  C5  UNL     1       3.032  -0.357  -0.050  1.00  0.00     0.081 A 
HETATM    2  C6  UNL     1       1.843   0.362   0.122  1.00  0.00     0.070 A 
HETATM    3  C7  UNL     1       0.682  -0.361   0.284  1.00  0.00     0.080 A 
HETATM    4  C8  UNL     1       0.623  -1.720   0.288  1.00  0.00     0.082 A 
HETATM    5  C9  UNL     1       1.813  -2.393   0.117  1.00  0.00     0.116 A 
HETATM    6  N4  UNL     1       1.809  -3.676   0.114  1.00  0.00    -0.385 N 
ATOM      7  H41 UNL     1       2.690  -4.174  -0.013  1.00  0.00     0.157 HD
ATOM      8  H42 UNL     1       0.939  -4.195   0.235  1.00  0.00     0.157 HD
HETATM    9  N5  UNL     1       2.981  -1.696  -0.046  1.00  0.00    -0.336 N 
ATOM     10  H5  UNL     1       3.848  -2.218  -0.170  1.00  0.00     0.168 HD
HETATM   11  C10 UNL     1      -0.702  -2.070   0.475  1.00  0.00     0.134 A 
HETATM   12  N7  UNL     1      -1.426  -0.941   0.582  1.00  0.00    -0.248 N 
HETATM   13  N10 UNL     1      -0.593   0.081   0.467  1.00  0.00    -0.218 N 
ENDROOT
BRANCH  12  14
HETATM   14  C11 UNL     1      -2.888  -0.884   0.790  1.00  0.00     0.270 C 
BRANCH  14  15
HETATM   15  N8  UNL     1      -3.604  -0.865  -0.420  1.00  0.00    -0.374 N 
ATOM     16  H8  UNL     1      -3.108  -0.912  -1.310  1.00  0.00     0.157 HD
BRANCH  15  17
HETATM   17  C12 UNL     1      -5.023  -0.780  -0.397  1.00  0.00     0.163 C 
BRANCH  17  18
HETATM   18  C13 UNL     1      -5.386   0.572   0.250  1.00  0.00     0.221 C 
BRANCH  18  19
HETATM   19  O1  UNL     1      -6.783   0.709   0.290  1.00  0.00    -0.396 OA
ATOM     20  H1  UNL     1      -7.007   1.542   0.689  1.00  0.00     0.209 HD
ENDBRANCH  18  19
ENDBRANCH  17  18
BRANCH  17  21
HETATM   21  C14 UNL     1      -5.632  -0.703  -1.783  1.00  0.00     0.221 C 
BRANCH  21  22
HETATM   22  O2  UNL     1      -5.252  -1.873  -2.459  1.00  0.00    -0.396 OA
ATOM     23  H2  UNL     1      -5.634  -1.825  -3.328  1.00  0.00     0.209 HD
ENDBRANCH  21  22
ENDBRANCH  17  21
BRANCH  17  24
HETATM   24  N9  UNL     1      -5.728  -1.771   0.340  1.00  0.00    -0.272 N 
ATOM     25  H9  UNL     1      -6.358  -2.424  -0.125  1.00  0.00     0.190 HD
BRANCH  24  26
HETATM   26  O3  UNL     1      -5.539  -1.817   1.648  1.00  0.00    -0.292 OA
ATOM     27  H3  UNL     1      -6.010  -2.479   2.140  1.00  0.00     0.244 HD
ENDBRANCH  24  26
ENDBRANCH  17  24
ENDBRANCH  15  17
ENDBRANCH  14  15
ENDBRANCH  12  14
BRANCH  11  28
HETATM   28  N6  UNL     1      -1.086  -3.299   0.526  1.00  0.00    -0.383 N 
ATOM     29  H62 UNL     1      -0.537  -4.155   0.445  1.00  0.00     0.157 HD
ATOM     30  H61 UNL     1      -2.063  -3.557   0.664  1.00  0.00     0.157 HD
ENDBRANCH  11  28
BRANCH  13  31
HETATM   31  C15 UNL     1      -0.958   1.442   0.525  1.00  0.00     0.214 C 
HETATM   32  N11 UNL     1      -1.274   2.164  -0.490  1.00  0.00    -0.272 N 
HETATM   33  N12 UNL     1      -1.585   3.456  -0.134  1.00  0.00    -0.119 NA
ATOM     34  H11 UNL     1      -1.292   1.819  -1.450  1.00  0.00     0.185 HD
HETATM   35  C16 UNL     1      -1.135   3.626   1.227  1.00  0.00     0.259 C 
HETATM   36  N13 UNL     1      -1.052   2.267   1.671  1.00  0.00    -0.345 N 
ATOM     37  H13 UNL     1      -1.059   1.950   2.641  1.00  0.00     0.164 HD
ENDBRANCH  13  31
BRANCH   1  38
HETATM   38  S1  UNL     1       4.481   0.632  -0.253  1.00  0.00    -0.035 SA
BRANCH  38  39
HETATM   39  C4  UNL     1       5.982  -0.284  -0.469  1.00  0.00     0.168 A 
HETATM   40  N1  UNL     1       7.201   0.298  -0.641  1.00  0.00    -0.270 N 
HETATM   41  N2  UNL     1       8.145  -0.613  -0.778  1.00  0.00    -0.292 N 
HETATM   42  C3  UNL     1       7.529  -1.802  -0.693  1.00  0.00     0.199 A 
ATOM     43  H2  UNL     1       9.141  -0.447  -0.920  1.00  0.00     0.188 HD
HETATM   44  N3  UNL     1       6.212  -1.617  -0.505  1.00  0.00    -0.330 N 
ATOM     45  H3  UNL     1       5.510  -2.351  -0.407  1.00  0.00     0.168 HD
BRANCH  40  46
HETATM   46  C2  UNL     1       7.361   1.754  -0.660  1.00  0.00     0.147 C 
HETATM   47  C1  UNL     1       7.218   2.288  -2.072  1.00  0.00     0.028 C 
ENDBRANCH  40  46
ENDBRANCH  38  39
ENDBRANCH   1  38
TORSDOF 14
