REMARK  8 active torsions:
REMARK  status: ('A' for Active; 'I' for Inactive)
REMARK    1  A    between atoms: C2_2  and  C3_3 
REMARK    2  A    between atoms: C3_3  and  C4_4 
REMARK    3  A    between atoms: C6_7  and  C7_8 
REMARK    4  A    between atoms: C7_8  and  N1_9 
REMARK       I    between atoms: N1_9  and  C8_11 
REMARK    5  A    between atoms: C8_11  and  O3_13 
REMARK    6  A    between atoms: O3_13  and  C9_14 
REMARK    7  A    between atoms: C18_25  and  S1_26 
REMARK    8  A    between atoms: C20_28  and  O5_29 
ROOT
HETATM    1  C3  UNL     1      -1.621  -0.292  -0.061  1.00  0.00     0.075 A 
HETATM    2  C6  UNL     1      -0.349   0.180  -0.672  1.00  0.00    -0.038 A 
HETATM    3  C13 UNL     1      -0.310   1.064  -1.621  1.00  0.00     0.061 A 
HETATM    4  C14 UNL     1      -1.457   1.742  -2.215  1.00  0.00     0.183 A 
HETATM    5  O4  UNL     1      -1.390   2.574  -3.144  1.00  0.00    -0.288 OA
HETATM    6  C15 UNL     1      -2.733   1.362  -1.619  1.00  0.00     0.026 A 
HETATM    7  C16 UNL     1      -3.898   1.990  -2.069  1.00  0.00     0.041 A 
HETATM    8  C17 UNL     1      -5.115   1.714  -1.492  1.00  0.00     0.054 A 
HETATM    9 CL1  UNL     1      -6.572   2.494  -2.049  1.00  0.00    -0.083 Cl
HETATM   10  C18 UNL     1      -5.164   0.805  -0.461  1.00  0.00     0.055 A 
HETATM   11  C20 UNL     1      -4.043   0.170   0.004  1.00  0.00     0.092 A 
HETATM   12  C21 UNL     1      -2.805   0.477  -0.616  1.00  0.00     0.011 A 
ENDROOT
BRANCH   2  13
HETATM   13  C7  UNL     1       0.950  -0.318  -0.101  1.00  0.00     0.160 C 
BRANCH  13  14
HETATM   14  N1  UNL     1       2.108   0.356  -0.601  1.00  0.00    -0.333 N 
HETATM   15  C8  UNL     1       3.426  -0.077  -0.121  1.00  0.00     0.361 C 
HETATM   16  O2  UNL     1       3.503  -1.015   0.705  1.00  0.00    -0.238 OA
ATOM     17  H1  UNL     1       2.020   1.118  -1.274  1.00  0.00     0.165 HD
BRANCH  15  18
HETATM   18  O3  UNL     1       4.573   0.517  -0.552  1.00  0.00    -0.294 OA
BRANCH  18  19
HETATM   19  C9  UNL     1       5.834   0.130  -0.117  1.00  0.00     0.061 C 
HETATM   20  C10 UNL     1       6.078  -1.323  -0.469  1.00  0.00     0.046 C 
HETATM   21  C11 UNL     1       6.055   0.280   1.363  1.00  0.00     0.046 C 
HETATM   22  C12 UNL     1       6.857   1.014  -0.816  1.00  0.00     0.046 C 
ENDBRANCH  18  19
ENDBRANCH  15  18
ENDBRANCH  13  14
ENDBRANCH   2  13
BRANCH   1  23
HETATM   23  C2  UNL     1      -1.901  -1.708  -0.524  1.00  0.00     0.023 C 
HETATM   24  C1  UNL     1      -1.025  -2.813  -0.116  1.00  0.00     0.007 C 
ENDBRANCH   1  23
BRANCH   1  25
HETATM   25  C4  UNL     1      -1.654  -0.169   1.389  1.00  0.00     0.140 C 
HETATM   26  C5  UNL     1      -1.345  -1.173   2.383  1.00  0.00     0.092 C 
HETATM   27  O1  UNL     1      -1.996   0.943   1.897  1.00  0.00    -0.297 OA
ENDBRANCH   1  25
BRANCH  11  28
HETATM   28  O5  UNL     1      -4.099  -0.739   1.048  1.00  0.00    -0.359 OA
ATOM     29  H5  UNL     1      -3.321  -1.179   1.371  1.00  0.00     0.217 HD
ENDBRANCH  11  28
BRANCH  10  30
HETATM   30  S1  UNL     1      -6.725   0.391   0.347  1.00  0.00    -0.130 SA
HETATM   31  C19 UNL     1      -7.024   1.506   1.735  1.00  0.00     0.095 C 
ENDBRANCH  10  30
TORSDOF 8
