REMARK  7 active torsions:
REMARK  status: ('A' for Active; 'I' for Inactive)
REMARK    1  A    between atoms: N1_1  and  C1_5 
REMARK    2  A    between atoms: C1_5  and  C2_6 
REMARK    3  A    between atoms: C3_9  and  C4_10 
REMARK    4  A    between atoms: C4_10  and  S1_11 
REMARK    5  A    between atoms: S1_11  and  C5_14 
REMARK    6  A    between atoms: C9_20  and  N3_21 
REMARK    7  A    between atoms: N3_21  and  C10_23 
ROOT
HETATM    1  C2  UNL     1      -1.534  -2.009  -0.339  1.00  0.00     0.089 A 
HETATM    2  N2  UNL     1      -1.714  -0.711  -0.189  1.00  0.00    -0.352 N 
ATOM      3  H2  UNL     1      -2.660  -0.335  -0.124  1.00  0.00     0.166 HD
HETATM    4  C3  UNL     1      -0.702   0.087  -0.124  1.00  0.00     0.058 A 
HETATM    5  C9  UNL     1       0.554  -0.473  -0.220  1.00  0.00     0.096 A 
HETATM    6  S3  UNL     1       0.190  -2.127  -0.393  1.00  0.00    -0.055 SA
ENDROOT
BRANCH   4   7
HETATM    7  C4  UNL     1      -0.846   1.583   0.096  1.00  0.00     0.206 C 
BRANCH   7   8
HETATM    8  S1  UNL     1      -2.554   2.056   0.110  1.00  0.00     0.187 S 
HETATM    9  O1  UNL     1      -3.317   1.377   1.179  1.00  0.00    -0.222 OA
HETATM   10  O2  UNL     1      -3.139   1.788  -1.251  1.00  0.00    -0.222 OA
BRANCH   8  11
HETATM   11  C5  UNL     1      -2.609   3.811   0.395  1.00  0.00     0.101 A 
HETATM   12  C6  UNL     1      -3.074   4.798  -0.434  1.00  0.00     0.033 A 
HETATM   13  C7  UNL     1      -2.999   6.055   0.011  1.00  0.00     0.033 A 
HETATM   14  C8  UNL     1      -2.464   6.253   1.258  1.00  0.00     0.075 A 
HETATM   15 CL1  UNL     1      -2.234   7.800   2.092  1.00  0.00    -0.076 Cl
HETATM   16  S2  UNL     1      -2.084   4.672   1.766  1.00  0.00    -0.066 SA
ENDBRANCH   8  11
ENDBRANCH   7   8
ENDBRANCH   4   7
BRANCH   5  17
HETATM   17  N3  UNL     1       1.831   0.201  -0.233  1.00  0.00    -0.378 N 
ATOM     18  H3  UNL     1       1.878   1.218  -0.178  1.00  0.00     0.160 HD
BRANCH  17  19
HETATM   19  C10 UNL     1       3.057  -0.593  -0.326  1.00  0.00     0.082 C 
HETATM   20  C11 UNL     1       3.295  -1.235   0.981  1.00  0.00     0.025 C 
HETATM   21  C12 UNL     1       4.530  -0.741   1.701  1.00  0.00     0.002 C 
HETATM   22  C13 UNL     1       5.695  -0.594   0.714  1.00  0.00     0.000 C 
HETATM   23  C14 UNL     1       5.288   0.603  -0.137  1.00  0.00     0.002 C 
HETATM   24  C15 UNL     1       4.107   0.214  -0.952  1.00  0.00     0.025 C 
ENDBRANCH  17  19
ENDBRANCH   5  17
BRANCH   1  25
HETATM   25  C1  UNL     1      -2.512  -3.152  -0.465  1.00  0.00     0.172 C 
HETATM   26  C16 UNL     1      -3.265  -3.181  -1.760  1.00  0.00     0.046 C 
HETATM   27  C17 UNL     1      -4.513  -3.487  -0.952  1.00  0.00     0.006 C 
HETATM   28  C18 UNL     1      -3.791  -2.866   0.247  1.00  0.00     0.046 C 
BRANCH  25  29
HETATM   29  N1  UNL     1      -1.864  -4.393  -0.108  1.00  0.00    -0.064 N 
ATOM     30  H13 UNL     1      -1.016  -4.553  -0.651  1.00  0.00     0.275 HD
ATOM     31  H12 UNL     1      -1.440  -4.351   0.819  1.00  0.00     0.275 HD
ATOM     32  H11 UNL     1      -2.525  -5.165  -0.193  1.00  0.00     0.275 HD
ENDBRANCH  25  29
ENDBRANCH   1  25
TORSDOF 7
