REMARK  6 active torsions:
REMARK  status: ('A' for Active; 'I' for Inactive)
REMARK    1  A    between atoms: C4_4  and  C5_5 
REMARK    2  A    between atoms: C6_6  and  C7_7 
REMARK    3  A    between atoms: N2_11  and  C9_12 
REMARK    4  A    between atoms: C9_12  and  C10_13 
REMARK    5  A    between atoms: C10_13  and  N3_14 
REMARK    6  A    between atoms: C18_27  and  N6_28 
ROOT
HETATM    1  C5  UNL     1      -2.973  -0.385  -1.357  1.00  0.00     0.016 A 
HETATM    2  C6  UNL     1      -1.850  -0.800  -2.022  1.00  0.00     0.032 A 
HETATM    3  S1  UNL     1      -2.223  -0.485  -3.651  1.00  0.00    -0.070 SA
HETATM    4  C16 UNL     1      -3.789   0.165  -3.459  1.00  0.00     0.090 A 
HETATM    5  N4  UNL     1      -4.747   0.658  -4.309  1.00  0.00    -0.346 N 
ATOM      6  H4  UNL     1      -4.564   0.675  -5.312  1.00  0.00     0.167 HD
HETATM    7  C17 UNL     1      -5.916   1.117  -3.847  1.00  0.00     0.182 A 
HETATM    8  N5  UNL     1      -6.144   1.089  -2.529  1.00  0.00    -0.338 N 
ATOM      9  H5  UNL     1      -7.032   1.436  -2.166  1.00  0.00     0.168 HD
HETATM   10  C18 UNL     1      -5.231   0.615  -1.682  1.00  0.00     0.113 A 
HETATM   11  C19 UNL     1      -3.983   0.118  -2.110  1.00  0.00     0.054 A 
ENDROOT
BRANCH   2  12
HETATM   12  C7  UNL     1      -0.620  -1.377  -1.426  1.00  0.00     0.016 A 
HETATM   13  C8  UNL     1      -0.496  -2.539  -0.697  1.00  0.00     0.121 A 
HETATM   14  N1  UNL     1       0.787  -2.709  -0.335  1.00  0.00    -0.309 N 
HETATM   15  N2  UNL     1       1.473  -1.687  -0.816  1.00  0.00    -0.301 N 
ATOM     16  H1  UNL     1       1.162  -3.485   0.211  1.00  0.00     0.186 HD
HETATM   17  C15 UNL     1       0.652  -0.860  -1.482  1.00  0.00     0.124 A 
BRANCH  15  18
HETATM   18  C9  UNL     1       2.913  -1.445  -0.669  1.00  0.00     0.178 C 
BRANCH  18  19
HETATM   19  C10 UNL     1       3.170  -0.621   0.590  1.00  0.00     0.294 C 
BRANCH  19  20
HETATM   20  N3  UNL     1       4.587  -0.366   0.756  1.00  0.00     0.090 N 
HETATM   21  C11 UNL     1       5.082   0.520  -0.272  1.00  0.00     0.272 C 
HETATM   22  C12 UNL     1       6.047   1.471   0.351  1.00  0.00     0.032 C 
HETATM   23  C13 UNL     1       5.843   1.337   1.844  1.00  0.00     0.032 C 
HETATM   24  C14 UNL     1       4.739   0.337   2.014  1.00  0.00     0.272 C 
ENDBRANCH  19  20
ENDBRANCH  18  19
ENDBRANCH  15  18
ENDBRANCH   2  12
BRANCH   1  25
HETATM   25  C4  UNL     1      -3.012  -0.511   0.135  1.00  0.00     0.019 A 
HETATM   26  C3  UNL     1      -2.331   0.255   1.043  1.00  0.00     0.028 A 
HETATM   27  C2  UNL     1      -2.494  -0.036   2.340  1.00  0.00    -0.032 A 
HETATM   28  C1  UNL     1      -1.790   0.740   3.448  1.00  0.00     0.050 C 
HETATM   29  C20 UNL     1      -3.330  -1.080   2.647  1.00  0.00     0.081 A 
HETATM   30  S2  UNL     1      -3.857  -1.613   1.120  1.00  0.00    -0.077 SA
HETATM   31 CL1  UNL     1      -3.739  -1.693   4.260  1.00  0.00    -0.076 Cl
ENDBRANCH   1  25
BRANCH  10  32
HETATM   32  N6  UNL     1      -5.550   0.640  -0.431  1.00  0.00    -0.385 N 
ATOM     33  H62 UNL     1      -6.453   1.000  -0.121  1.00  0.00     0.157 HD
ATOM     34  H61 UNL     1      -4.851   0.277   0.217  1.00  0.00     0.157 HD
ENDBRANCH  10  32
TORSDOF 6
