REMARK  2 active torsions:
REMARK  status: ('A' for Active; 'I' for Inactive)
REMARK    1  A    between atoms: C2_3  and  C3_4 
REMARK       I    between atoms: C3_4  and  N2_6 
REMARK    2  A    between atoms: C4_8  and  C5_9 
ROOT
HETATM    1  N1  UNL     1       1.098   0.627  -1.865  1.00  0.00    -0.100 NA
HETATM    2  C1  UNL     1       0.285  -0.022  -0.846  1.00  0.00     0.076 A 
HETATM    3  C2  UNL     1       0.822  -1.044  -0.114  1.00  0.00     0.098 A 
HETATM    4  S1  UNL     1      -0.456  -1.484   0.927  1.00  0.00    -0.087 SA
HETATM    5  C7  UNL     1      -1.633  -0.365   0.407  1.00  0.00    -0.008 A 
HETATM    6  C8  UNL     1      -0.983   0.330  -0.579  1.00  0.00    -0.019 A 
HETATM    7  C9  UNL     1      -1.675   1.455  -1.338  1.00  0.00     0.042 C 
HETATM    8  C10 UNL     1      -2.431   2.309  -0.341  1.00  0.00     0.005 C 
HETATM    9  C11 UNL     1      -3.845   1.817  -0.301  1.00  0.00     0.001 C 
HETATM   10  C12 UNL     1      -3.961   0.333  -0.104  1.00  0.00     0.005 C 
HETATM   11  C13 UNL     1      -3.039  -0.216   0.937  1.00  0.00     0.046 C 
ENDROOT
BRANCH   3  12
HETATM   12  C3  UNL     1       2.170  -1.629  -0.193  1.00  0.00     0.264 C 
HETATM   13  O1  UNL     1       2.964  -1.161  -1.027  1.00  0.00    -0.267 OA
HETATM   14  N2  UNL     1       2.485  -2.682   0.677  1.00  0.00    -0.334 N 
HETATM   15  C4  UNL     1       3.666  -2.789   1.158  1.00  0.00     0.098 C 
ATOM     16  H2  UNL     1       1.770  -3.365   0.928  1.00  0.00     0.168 HD
BRANCH  15  17
HETATM   17  C5  UNL     1       4.699  -1.805   0.797  1.00  0.00     0.183 A 
HETATM   18  C6  UNL     1       4.777  -0.511   1.407  1.00  0.00     0.206 A 
HETATM   19  O2  UNL     1       5.600  -1.547   1.855  1.00  0.00    -0.376 OA
ENDBRANCH  15  17
ENDBRANCH   3  12
TORSDOF 2
