REMARK  3 active torsions:
REMARK  status: ('A' for Active; 'I' for Inactive)
REMARK    1  A    between atoms: C2_2  and  C3_3 
REMARK    2  A    between atoms: C3_3  and  C4_4 
REMARK    3  A    between atoms: C12_15  and  O4_16 
ROOT
HETATM    1  C4  UNL     1      -1.676  -0.668   0.436  1.00  0.00     0.102 C 
HETATM    2  C5  UNL     1      -2.353  -1.948   0.057  1.00  0.00     0.050 C 
HETATM    3  O1  UNL     1      -0.981  -0.878   1.696  1.00  0.00    -0.229 OA
HETATM    4  O2  UNL     1      -0.291   0.233   1.832  1.00  0.00    -0.231 OA
HETATM    5  C6  UNL     1       0.220   0.596   0.593  1.00  0.00     0.201 C 
HETATM    6  C7  UNL     1       1.676   0.732   0.558  1.00  0.00     0.160 C 
HETATM    7  O3  UNL     1       2.127   1.767  -0.295  1.00  0.00    -0.383 OA
HETATM    8  C8  UNL     1       3.497   1.878  -0.058  1.00  0.00     0.168 C 
HETATM    9  C9  UNL     1       4.268   0.775  -0.761  1.00  0.00     0.027 C 
HETATM   10  C10 UNL     1       3.236  -0.320  -1.069  1.00  0.00     0.012 C 
HETATM   11  C11 UNL     1       2.458  -0.503   0.242  1.00  0.00     0.046 C 
HETATM   12  C12 UNL     1       1.624  -1.745   0.143  1.00  0.00     0.125 C 
HETATM   13  C13 UNL     1       0.359  -1.606  -0.609  1.00  0.00     0.047 C 
HETATM   14  C14 UNL     1      -0.437  -0.352  -0.363  1.00  0.00     0.024 C 
HETATM   15  C15 UNL     1      -0.746   0.256  -1.698  1.00  0.00     0.021 C 
ENDROOT
BRANCH   1  16
HETATM   16  C3  UNL     1      -2.591   0.446   0.753  1.00  0.00     0.041 C 
BRANCH  16  17
HETATM   17  C2  UNL     1      -3.553   0.891  -0.300  1.00  0.00    -0.002 C 
HETATM   18  C1  UNL     1      -4.367   2.041   0.326  1.00  0.00     0.005 C 
ENDBRANCH  16  17
ENDBRANCH   1  16
BRANCH  12  19
HETATM   19  O4  UNL     1       1.480  -2.347   1.412  1.00  0.00    -0.395 OA
ATOM     20  H4  UNL     1       0.952  -3.134   1.349  1.00  0.00     0.210 HD
ENDBRANCH  12  19
TORSDOF 3
