REMARK  2 active torsions:
REMARK  status: ('A' for Active; 'I' for Inactive)
REMARK    1  A    between atoms: C2_2  and  C3_3 
REMARK    2  A    between atoms: N3_13  and  C9_14 
ROOT
HETATM    1  C1  UNL     1       0.525  -0.074   0.842  1.00  0.00     0.139 A 
HETATM    2  C2  UNL     1       1.685   0.328   0.219  1.00  0.00     0.048 A 
HETATM    3  N1  UNL     1       1.372   1.477  -0.407  1.00  0.00    -0.289 N 
ATOM      4  H1  UNL     1       2.010   2.043  -0.967  1.00  0.00     0.188 HD
HETATM    5  N2  UNL     1       0.099   1.750  -0.175  1.00  0.00    -0.240 N 
ATOM      6  H2  UNL     1      -0.392   2.568  -0.536  1.00  0.00     0.208 HD
HETATM    7  N3  UNL     1      -0.451   0.824   0.584  1.00  0.00    -0.281 N 
ENDROOT
BRANCH   7   8
HETATM    8  C9  UNL     1      -1.832   0.802   1.038  1.00  0.00     0.137 C 
HETATM    9  C10 UNL     1      -2.231  -0.636   1.167  1.00  0.00     0.035 C 
HETATM   10  C11 UNL     1      -3.584  -0.933   0.551  1.00  0.00     0.016 C 
HETATM   11  C12 UNL     1      -3.445  -1.105  -0.932  1.00  0.00     0.008 C 
HETATM   12  C15 UNL     1      -4.460   0.222   0.941  1.00  0.00     0.277 C 
HETATM   13  C13 UNL     1      -4.303  -0.220  -1.755  1.00  0.00     0.031 C 
HETATM   14  C14 UNL     1      -4.604   1.115  -1.193  1.00  0.00     0.272 C 
HETATM   15  N4  UNL     1      -4.068   1.344   0.132  1.00  0.00     0.090 N 
HETATM   16  C16 UNL     1      -2.669   1.611   0.114  1.00  0.00     0.299 C 
ENDBRANCH   7   8
BRANCH   2  17
HETATM   17  C3  UNL     1       2.995  -0.367   0.242  1.00  0.00     0.038 C 
HETATM   18  C4  UNL     1       3.375  -0.754  -1.168  1.00  0.00     0.011 C 
HETATM   19  C5  UNL     1       4.858  -0.608  -1.415  1.00  0.00     0.001 C 
HETATM   20  C6  UNL     1       5.680  -0.954  -0.194  1.00  0.00     0.000 C 
HETATM   21  C7  UNL     1       5.379  -0.016   0.929  1.00  0.00     0.001 C 
HETATM   22  C8  UNL     1       3.994   0.577   0.863  1.00  0.00     0.011 C 
ENDBRANCH   2  17
TORSDOF 2
