REMARK  12 active torsions:
REMARK  status: ('A' for Active; 'I' for Inactive)
REMARK    1  A    between atoms: C1_4  and  C2_5 
REMARK    2  A    between atoms: C1_4  and  N13_45 
REMARK    3  A    between atoms: C2_5  and  S1_6 
REMARK    4  A    between atoms: S1_6  and  C3_7 
REMARK    5  A    between atoms: C3_7  and  C4_8 
REMARK    6  A    between atoms: N3_12  and  C6_14 
REMARK    7  A    between atoms: N7_26  and  C11_27 
REMARK    8  A    between atoms: C11_27  and  C12_28 
REMARK    9  A    between atoms: C12_28  and  N8_29 
REMARK   10  A    between atoms: C12_28  and  C13_33 
REMARK   11  A    between atoms: N9_36  and  N10_37 
REMARK   12  A    between atoms: N13_45  and  N14_47 
ROOT
HETATM    1  C6  UNL     1      -1.181   1.408   1.373  1.00  0.00     0.708 A 
HETATM    2  N4  UNL     1      -1.777   0.230   1.402  1.00  0.00    -0.173 N 
ATOM      3  H4  UNL     1      -1.514  -0.423   2.140  1.00  0.00     0.186 HD
HETATM    4  C7  UNL     1      -2.734  -0.168   0.494  1.00  0.00     0.145 A 
HETATM    5  N5  UNL     1      -3.264  -1.255   0.519  1.00  0.00    -0.383 N 
ATOM      6  H51 UNL     1      -3.972  -1.550  -0.153  1.00  0.00     0.157 HD
ATOM      7  H52 UNL     1      -2.998  -1.907   1.257  1.00  0.00     0.157 HD
HETATM    8  C8  UNL     1      -3.099   0.726  -0.518  1.00  0.00     0.127 A 
HETATM    9  C9  UNL     1      -2.469   1.936  -0.525  1.00  0.00     0.176 A 
HETATM   10  N6  UNL     1      -2.983   2.614  -1.588  1.00  0.00    -0.334 N 
ATOM     11  H6  UNL     1      -2.728   3.557  -1.882  1.00  0.00     0.168 HD
HETATM   12  C10 UNL     1      -3.873   1.827  -2.171  1.00  0.00     0.185 A 
HETATM   13  N7  UNL     1      -3.974   0.612  -1.514  1.00  0.00    -0.334 N 
HETATM   14  N9  UNL     1      -1.527   2.289   0.392  1.00  0.00    -0.074 N 
ENDROOT
BRANCH   1  15
HETATM   15  N3  UNL     1      -0.165   1.816   2.315  1.00  0.00    -0.174 N 
HETATM   16  C5  UNL     1       0.953   1.156   2.375  1.00  0.00     0.125 A 
HETATM   17  N2  UNL     1       1.144   0.101   1.561  1.00  0.00    -0.331 N 
HETATM   18  C14 UNL     1       1.954   1.524   3.223  1.00  0.00     0.094 A 
HETATM   19  C4  UNL     1       2.297  -0.599   1.561  1.00  0.00     0.093 A 
ATOM     20  H2  UNL     1       0.396  -0.177   0.926  1.00  0.00     0.168 HD
HETATM   21  N12 UNL     1       3.273  -0.221   2.403  1.00  0.00    -0.334 N 
HETATM   22  C15 UNL     1       3.164   0.808   3.239  1.00  0.00     0.121 A 
ATOM     23  H12 UNL     1       4.144  -0.751   2.401  1.00  0.00     0.168 HD
HETATM   24  N11 UNL     1       4.194   1.210   4.136  1.00  0.00    -0.083 NA
ATOM     25  H3  UNL     1      -0.324   2.616   2.928  1.00  0.00     0.186 HD
BRANCH  19  26
HETATM   26  C3  UNL     1       2.459  -1.789   0.662  1.00  0.00     0.150 C 
BRANCH  26  27
HETATM   27  S1  UNL     1       2.997  -1.378  -0.975  1.00  0.00    -0.154 SA
BRANCH  27  28
HETATM   28  C2  UNL     1       4.627  -0.700  -1.138  1.00  0.00     0.151 C 
BRANCH  28  29
HETATM   29  C1  UNL     1       5.724  -1.621  -0.828  1.00  0.00     0.098 C 
HETATM   30  N1  UNL     1       5.622  -2.838  -0.431  1.00  0.00    -0.387 N 
ATOM     31  H12 UNL     1       4.671  -3.189  -0.316  1.00  0.00     0.157 HD
ATOM     32  H11 UNL     1       6.386  -3.479  -0.215  1.00  0.00     0.157 HD
BRANCH  29  33
HETATM   33  N13 UNL     1       7.064  -1.126  -0.990  1.00  0.00    -0.295 N 
ATOM     34  H13 UNL     1       7.281  -0.556  -1.807  1.00  0.00     0.187 HD
BRANCH  33  35
HETATM   35  N14 UNL     1       8.077  -1.396  -0.072  1.00  0.00    -0.344 N 
ATOM     36 2H14 UNL     1       7.842  -1.968   0.740  1.00  0.00     0.176 HD
ATOM     37 1H14 UNL     1       9.028  -1.045  -0.187  1.00  0.00     0.176 HD
ENDBRANCH  33  35
ENDBRANCH  29  33
ENDBRANCH  28  29
ENDBRANCH  27  28
ENDBRANCH  26  27
ENDBRANCH  19  26
ENDBRANCH   1  15
BRANCH  14  38
HETATM   38  N10 UNL     1      -0.939   3.486   0.352  1.00  0.00    -0.322 N 
ATOM     39 2H10 UNL     1      -0.233   3.751   1.039  1.00  0.00     0.178 HD
ATOM     40 1H10 UNL     1      -1.198   4.145  -0.382  1.00  0.00     0.178 HD
ENDBRANCH  14  38
BRANCH  13  41
HETATM   41  C11 UNL     1      -4.852  -0.458  -1.936  1.00  0.00     0.174 C 
BRANCH  41  42
HETATM   42  C12 UNL     1      -6.185  -0.358  -1.241  1.00  0.00     0.301 C 
BRANCH  42  43
HETATM   43  N8  UNL     1      -6.888   0.866  -1.478  1.00  0.00    -0.064 N 
ATOM     44  H83 UNL     1      -6.301   1.665  -1.237  1.00  0.00     0.275 HD
ATOM     45  H82 UNL     1      -6.997   1.024  -2.480  1.00  0.00     0.275 HD
ATOM     46  H81 UNL     1      -7.790   0.934  -1.007  1.00  0.00     0.275 HD
ENDBRANCH  42  43
BRANCH  42  47
HETATM   47  C13 UNL     1      -7.022  -1.485  -1.825  1.00  0.00     0.206 C 
HETATM   48  O1  UNL     1      -8.084  -1.248  -2.450  1.00  0.00    -0.646 OA
HETATM   49  O2  UNL     1      -6.581  -2.765  -1.649  1.00  0.00    -0.646 OA
ENDBRANCH  42  47
ENDBRANCH  41  42
ENDBRANCH  13  41
TORSDOF 12
