REMARK  12 active torsions:
REMARK  status: ('A' for Active; 'I' for Inactive)
REMARK    1  A    between atoms: C3_4  and  C4_5 
REMARK    2  A    between atoms: C4_5  and  N1_6 
REMARK    3  A    between atoms: N1_6  and  C5_9 
REMARK    4  A    between atoms: C5_9  and  C6_10 
REMARK    5  A    between atoms: C6_10  and  N2_11 
REMARK    6  A    between atoms: C7_16  and  C8_17 
REMARK    7  A    between atoms: C8_17  and  N5_18 
REMARK    8  A    between atoms: C11_23  and  N7_24 
REMARK    9  A    between atoms: C12_29  and  N9_30 
REMARK   10  A    between atoms: C14_38  and  N12_39 
REMARK       I    between atoms: N12_39  and  C15_41 
REMARK       I    between atoms: C15_41  and  N13_42 
REMARK       I    between atoms: C15_41  and  N14_46 
REMARK   11  A    between atoms: C16_50  and  O2_51 
REMARK   12  A    between atoms: C17_53  and  O3_54 
ROOT
HETATM    1  N2  UNL     1       0.042  -0.433  -2.166  1.00  0.00    -0.108 N 
HETATM    2  N3  UNL     1      -0.910   0.479  -2.550  1.00  0.00    -0.225 N 
ATOM      3  H3  UNL     1      -0.605   1.358  -2.967  1.00  0.00     0.209 HD
HETATM    4  N4  UNL     1      -2.175   0.268  -2.404  1.00  0.00    -0.272 N 
ATOM      5  H4  UNL     1      -2.857   0.967  -2.700  1.00  0.00     0.190 HD
HETATM    6  C7  UNL     1      -2.577  -0.894  -1.852  1.00  0.00     0.131 A 
HETATM    7  N11 UNL     1      -1.671  -1.824  -1.458  1.00  0.00    -0.176 N 
ATOM      8  H11 UNL     1      -1.981  -2.702  -1.041  1.00  0.00     0.185 HD
HETATM    9  C14 UNL     1      -0.345  -1.573  -1.625  1.00  0.00     0.700 A 
ENDROOT
BRANCH   6  10
HETATM   10  C8  UNL     1      -4.016  -1.114  -1.704  1.00  0.00     0.210 C 
BRANCH  10  11
HETATM   11  N5  UNL     1      -4.423  -0.748  -0.365  1.00  0.00    -0.320 N 
HETATM   12  C9  UNL     1      -4.553  -1.585   0.707  1.00  0.00     0.185 A 
HETATM   13  N6  UNL     1      -4.966  -0.904   1.787  1.00  0.00    -0.346 N 
HETATM   14  C10 UNL     1      -5.110   0.394   1.441  1.00  0.00     0.123 A 
ATOM     15  H6  UNL     1      -5.141  -1.299   2.711  1.00  0.00     0.167 HD
HETATM   16  C11 UNL     1      -5.477   1.511   2.149  1.00  0.00     0.145 A 
HETATM   17  C13 UNL     1      -4.763   0.460   0.085  1.00  0.00     0.155 A 
HETATM   18  N8  UNL     1      -5.498   2.697   1.528  1.00  0.00    -0.175 N 
HETATM   19  C12 UNL     1      -5.157   2.783   0.212  1.00  0.00     0.679 A 
ATOM     20  H8  UNL     1      -5.769   3.536   2.040  1.00  0.00     0.186 HD
HETATM   21  N10 UNL     1      -4.804   1.694  -0.480  1.00  0.00    -0.174 N 
ATOM     22  H10 UNL     1      -4.557   1.794  -1.465  1.00  0.00     0.186 HD
BRANCH  16  23
HETATM   23  N7  UNL     1      -5.809   1.444   3.401  1.00  0.00    -0.383 N 
ATOM     24  H72 UNL     1      -5.793   0.540   3.874  1.00  0.00     0.157 HD
ATOM     25  H71 UNL     1      -6.082   2.274   3.927  1.00  0.00     0.157 HD
ENDBRANCH  16  23
BRANCH  19  26
HETATM   26  N9  UNL     1      -5.151   3.918  -0.383  1.00  0.00    -0.234 N 
ATOM     27  H92 UNL     1      -5.420   4.748   0.145  1.00  0.00     0.174 HD
ATOM     28  H91 UNL     1      -4.896   3.982  -1.368  1.00  0.00     0.174 HD
ENDBRANCH  19  26
ENDBRANCH  10  11
ENDBRANCH   6  10
BRANCH   9  29
HETATM   29  N12 UNL     1       0.489  -2.455  -1.222  1.00  0.00    -0.172 N 
HETATM   30  C15 UNL     1       0.054  -3.713  -0.634  1.00  0.00     0.494 C 
HETATM   31  N13 UNL     1      -0.890  -3.496   0.474  1.00  0.00    -0.032 N 
HETATM   32  N14 UNL     1      -0.631  -4.477  -1.640  1.00  0.00    -0.032 N 
ATOM     33 3H13 UNL     1      -0.499  -2.871   1.179  1.00  0.00     0.278 HD
ATOM     34 2H13 UNL     1      -1.685  -2.928   0.180  1.00  0.00     0.278 HD
ATOM     35 1H13 UNL     1      -1.195  -4.378   0.886  1.00  0.00     0.278 HD
ATOM     36 3H14 UNL     1      -1.399  -3.960  -2.068  1.00  0.00     0.278 HD
ATOM     37 2H14 UNL     1      -0.067  -4.612  -2.479  1.00  0.00     0.278 HD
ATOM     38 1H14 UNL     1      -0.936  -5.359  -1.228  1.00  0.00     0.278 HD
ATOM     39  H12 UNL     1       1.488  -2.271  -1.315  1.00  0.00     0.181 HD
ENDBRANCH   9  29
BRANCH   1  40
HETATM   40  C6  UNL     1       1.369   0.004  -2.480  1.00  0.00     0.197 C 
BRANCH  40  41
HETATM   41  C5  UNL     1       2.039   0.830  -1.460  1.00  0.00     0.255 C 
BRANCH  41  42
HETATM   42  N1  UNL     1       2.439   0.272  -0.210  1.00  0.00    -0.068 N 
ATOM     43  H12 UNL     1       3.167  -0.438  -0.291  1.00  0.00     0.277 HD
ATOM     44  H11 UNL     1       1.733  -0.329   0.217  1.00  0.00     0.277 HD
BRANCH  42  45
HETATM   45  C4  UNL     1       2.824   1.426   0.628  1.00  0.00     0.300 C 
BRANCH  45  46
HETATM   46  C3  UNL     1       4.227   1.302   1.039  1.00  0.00     0.115 A 
HETATM   47  O1  UNL     1       5.113   0.385   0.731  1.00  0.00    -0.312 OA
HETATM   48  C2  UNL     1       6.278   0.633   1.286  1.00  0.00     0.085 A 
HETATM   49  C1  UNL     1       7.529  -0.207   1.143  1.00  0.00     0.079 C 
HETATM   50  C17 UNL     1       6.180   1.784   2.016  1.00  0.00     0.131 A 
HETATM   51  C16 UNL     1       4.893   2.215   1.871  1.00  0.00     0.133 A 
BRANCH  50  52
HETATM   52  O3  UNL     1       7.138   2.438   2.770  1.00  0.00    -0.356 OA
ATOM     53  H3  UNL     1       7.070   3.238   3.278  1.00  0.00     0.218 HD
ENDBRANCH  50  52
BRANCH  51  54
HETATM   54  O2  UNL     1       4.275   3.331   2.420  1.00  0.00    -0.356 OA
ATOM     55  H2  UNL     1       4.726   3.949   2.983  1.00  0.00     0.218 HD
ENDBRANCH  51  54
ENDBRANCH  45  46
ENDBRANCH  42  45
ENDBRANCH  41  42
ENDBRANCH  40  41
ENDBRANCH   1  40
TORSDOF 12
