REMARK  14 active torsions:
REMARK  status: ('A' for Active; 'I' for Inactive)
REMARK    1  A    between atoms: C2_2  and  N1_3 
REMARK    2  A    between atoms: C2_2  and  C8_24 
REMARK    3  A    between atoms: N1_3  and  O1_4 
REMARK    4  A    between atoms: O1_4  and  C3_5 
REMARK    5  A    between atoms: C3_5  and  S1_6 
REMARK    6  A    between atoms: S1_6  and  C4_7 
REMARK    7  A    between atoms: C5_10  and  N3_11 
REMARK    8  A    between atoms: C6_16  and  N5_17 
REMARK    9  A    between atoms: C9_25  and  O2_26 
REMARK   10  A    between atoms: N10_31  and  C12_32 
REMARK   11  A    between atoms: C12_32  and  C14_35 
REMARK   12  A    between atoms: C14_35  and  O3_36 
REMARK   13  A    between atoms: C14_35  and  N12_38 
REMARK   14  A    between atoms: N12_38  and  N13_39 
ROOT
HETATM    1  C12 UNL     1      -5.676  -0.713  -0.803  1.00  0.00     0.245 C 
HETATM    2  C13 UNL     1      -6.506  -0.886  -2.017  1.00  0.00     0.089 C 
HETATM    3  N11 UNL     1      -7.145  -1.020  -2.971  1.00  0.00    -0.195 NA
ENDROOT
BRANCH   1   4
HETATM    4  N10 UNL     1      -4.359  -0.159  -1.128  1.00  0.00    -0.300 N 
HETATM    5  C11 UNL     1      -4.280   0.829  -2.040  1.00  0.00     0.125 A 
HETATM    6  C10 UNL     1      -3.083   1.398  -2.398  1.00  0.00     0.096 A 
HETATM    7  C9  UNL     1      -1.889   0.962  -1.815  1.00  0.00     0.110 A 
HETATM    8  N9  UNL     1      -2.982   2.432  -3.363  1.00  0.00    -0.098 NA
HETATM    9  C8  UNL     1      -1.953  -0.042  -0.884  1.00  0.00     0.106 A 
HETATM   10  C15 UNL     1      -3.214  -0.576  -0.572  1.00  0.00     0.265 A 
HETATM   11  O4  UNL     1      -3.279  -1.487   0.264  1.00  0.00    -0.267 OA
BRANCH   7  12
HETATM   12  O2  UNL     1      -0.690   1.562  -2.205  1.00  0.00    -0.358 OA
ATOM     13  H2  UNL     1      -0.646   2.258  -2.850  1.00  0.00     0.217 HD
ENDBRANCH   7  12
BRANCH   9  14
HETATM   14  C2  UNL     1      -0.733  -0.494  -0.236  1.00  0.00     0.132 C 
HETATM   15  C1  UNL     1      -0.831  -1.613   0.777  1.00  0.00     0.089 C 
BRANCH  14  16
HETATM   16  N1  UNL     1       0.374  -0.040  -0.449  1.00  0.00    -0.284 NA
BRANCH  16  17
HETATM   17  O1  UNL     1       1.473   0.448  -0.695  1.00  0.00    -0.199 OA
BRANCH  17  18
HETATM   18  C3  UNL     1       2.238   1.539  -0.314  1.00  0.00     0.299 C 
BRANCH  18  19
HETATM   19  S1  UNL     1       3.840   1.552  -1.186  1.00  0.00    -0.063 SA
BRANCH  19  20
HETATM   20  C4  UNL     1       4.813   0.187  -0.634  1.00  0.00     0.176 A 
HETATM   21  N2  UNL     1       4.666  -1.020  -1.170  1.00  0.00    -0.170 N 
HETATM   22  C5  UNL     1       5.414  -2.063  -0.728  1.00  0.00     0.692 A 
ATOM     23  H2  UNL     1       3.987  -1.164  -1.918  1.00  0.00     0.186 HD
HETATM   24  N4  UNL     1       6.295  -1.868   0.245  1.00  0.00    -0.022 N 
HETATM   25  C6  UNL     1       6.477  -0.640   0.822  1.00  0.00     0.701 A 
ATOM     26  H4  UNL     1       6.853  -2.656   0.573  1.00  0.00     0.203 HD
HETATM   27  N8  UNL     1       5.721   0.366   0.362  1.00  0.00    -0.169 N 
ATOM     28  H8  UNL     1       5.830   1.294   0.771  1.00  0.00     0.186 HD
BRANCH  22  29
HETATM   29  N3  UNL     1       5.237  -3.237  -1.278  1.00  0.00    -0.234 N 
ATOM     30  H32 UNL     1       4.560  -3.387  -2.026  1.00  0.00     0.174 HD
ATOM     31  H31 UNL     1       5.799  -4.021  -0.946  1.00  0.00     0.174 HD
ENDBRANCH  22  29
BRANCH  25  32
HETATM   32  N5  UNL     1       7.440  -0.582   1.811  1.00  0.00    -0.165 N 
HETATM   33  C7  UNL     1       7.862   0.305   2.534  1.00  0.00     0.215 C 
HETATM   34  N6  UNL     1       7.439   1.643   2.561  1.00  0.00    -0.066 NA
HETATM   35  N7  UNL     1       8.917  -0.026   3.472  1.00  0.00    -0.066 NA
ATOM     36  H5  UNL     1       7.899  -1.478   1.972  1.00  0.00     0.186 HD
ENDBRANCH  25  32
ENDBRANCH  19  20
ENDBRANCH  18  19
ENDBRANCH  17  18
ENDBRANCH  16  17
ENDBRANCH  14  16
ENDBRANCH   9  14
ENDBRANCH   1   4
BRANCH   1  37
HETATM   37  C14 UNL     1      -6.439   0.094   0.203  1.00  0.00     0.267 C 
BRANCH  37  38
HETATM   38  O3  UNL     1      -7.700  -0.583   0.338  1.00  0.00    -0.375 OA
ATOM     39  H3  UNL     1      -8.184  -0.071   0.976  1.00  0.00     0.211 HD
ENDBRANCH  37  38
BRANCH  37  40
HETATM   40  N12 UNL     1      -5.862   0.030   1.545  1.00  0.00    -0.113 NA
BRANCH  40  41
HETATM   41  N13 UNL     1      -6.136  -1.197   2.167  1.00  0.00    -0.346 N 
ATOM     42 2H13 UNL     1      -6.673  -1.943   1.724  1.00  0.00     0.172 HD
ATOM     43 1H13 UNL     1      -5.733  -1.242   3.103  1.00  0.00     0.172 HD
ENDBRANCH  40  41
ENDBRANCH  37  40
ENDBRANCH   1  37
TORSDOF 14
