REMARK  15 active torsions:
REMARK  status: ('A' for Active; 'I' for Inactive)
REMARK    1  A    between atoms: N1_2  and  C3_4 
REMARK    2  A    between atoms: C3_4  and  C4_5 
REMARK    3  A    between atoms: C4_5  and  N2_6 
REMARK    4  A    between atoms: N2_6  and  C5_8 
REMARK    5  A    between atoms: C6_11  and  N4_12 
REMARK    6  A    between atoms: C7_17  and  C8_18 
REMARK    7  A    between atoms: C8_18  and  C9_23 
REMARK    8  A    between atoms: N6_19  and  O1_21 
REMARK    9  A    between atoms: C9_23  and  O2_24 
REMARK   10  A    between atoms: C9_23  and  C10_26 
REMARK   11  A    between atoms: C10_26  and  N7_27 
REMARK   12  A    between atoms: C11_31  and  C12_32 
REMARK   13  A    between atoms: C13_37  and  C14_38 
REMARK       I    between atoms: C14_38  and  N10_40 
REMARK   14  A    between atoms: N10_40  and  N11_42 
REMARK   15  A    between atoms: C17_49  and  N14_50 
ROOT
HETATM    1  C5  UNL     1       1.804  -0.449  -0.173  1.00  0.00     0.132 A 
HETATM    2  N3  UNL     1       2.810  -1.292  -0.297  1.00  0.00    -0.176 N 
ATOM      3  H3  UNL     1       3.733  -0.994   0.018  1.00  0.00     0.186 HD
HETATM    4  C6  UNL     1       2.681  -2.515  -0.814  1.00  0.00     0.678 A 
HETATM    5  N5  UNL     1       1.468  -2.894  -1.222  1.00  0.00    -0.189 N 
ATOM      6  H5  UNL     1       1.364  -3.829  -1.617  1.00  0.00     0.184 HD
HETATM    7  C7  UNL     1       0.331  -2.084  -1.140  1.00  0.00     0.092 A 
HETATM    8  C11 UNL     1       0.504  -0.855  -0.611  1.00  0.00     0.068 A 
ENDROOT
BRANCH   8   9
HETATM    9  C12 UNL     1      -0.546   0.103  -0.358  1.00  0.00     0.092 C 
HETATM   10  N8  UNL     1      -1.274  -0.048   0.781  1.00  0.00    -0.297 N 
HETATM   11  N9  UNL     1      -2.422   0.535   1.080  1.00  0.00    -0.293 N 
ATOM     12  H8  UNL     1      -0.891  -0.682   1.483  1.00  0.00     0.187 HD
HETATM   13  C13 UNL     1      -2.981   1.680   0.658  1.00  0.00     0.144 C 
ATOM     14  H9  UNL     1      -2.987   0.020   1.756  1.00  0.00     0.187 HD
HETATM   15  C15 UNL     1      -2.721   2.286  -0.574  1.00  0.00     0.106 C 
HETATM   16  N12 UNL     1      -3.732   3.154  -1.063  1.00  0.00    -0.098 NA
HETATM   17  C16 UNL     1      -1.615   2.155  -1.379  1.00  0.00     0.101 C 
HETATM   18  N13 UNL     1      -1.419   3.118  -2.416  1.00  0.00    -0.098 NA
HETATM   19  C17 UNL     1      -0.662   1.141  -1.255  1.00  0.00     0.081 C 
BRANCH  13  20
HETATM   20  C14 UNL     1      -3.930   2.375   1.509  1.00  0.00     0.289 C 
HETATM   21  O3  UNL     1      -4.453   3.444   1.117  1.00  0.00    -0.264 OA
HETATM   22  N10 UNL     1      -4.280   1.869   2.783  1.00  0.00    -0.271 N 
ATOM     23  H10 UNL     1      -3.850   0.999   3.096  1.00  0.00     0.189 HD
BRANCH  22  24
HETATM   24  N11 UNL     1      -5.185   2.506   3.628  1.00  0.00    -0.342 N 
ATOM     25 2H11 UNL     1      -5.605   3.375   3.299  1.00  0.00     0.176 HD
ATOM     26 1H11 UNL     1      -5.437   2.141   4.547  1.00  0.00     0.176 HD
ENDBRANCH  22  24
ENDBRANCH  13  20
BRANCH  19  27
HETATM   27  N14 UNL     1       0.248   1.253  -2.183  1.00  0.00    -0.396 N 
ATOM     28 2H14 UNL     1       0.944   0.513  -2.092  1.00  0.00     0.156 HD
ATOM     29 1H14 UNL     1       0.162   2.022  -2.848  1.00  0.00     0.156 HD
ENDBRANCH  19  27
ENDBRANCH   8   9
BRANCH   1  30
HETATM   30  N2  UNL     1       1.898   0.728   0.339  1.00  0.00    -0.373 N 
ATOM     31  H2  UNL     1       1.045   1.286   0.379  1.00  0.00     0.161 HD
BRANCH  30  32
HETATM   32  C4  UNL     1       3.087   1.321   0.855  1.00  0.00     0.151 C 
BRANCH  32  33
HETATM   33  C3  UNL     1       3.440   0.794   2.214  1.00  0.00     0.290 C 
BRANCH  33  34
HETATM   34  N1  UNL     1       4.649   1.393   2.743  1.00  0.00     0.081 N 
HETATM   35  C1  UNL     1       5.826   0.998   2.006  1.00  0.00     0.309 C 
HETATM   36  C2  UNL     1       4.790   1.169   4.162  1.00  0.00     0.309 C 
ENDBRANCH  33  34
ENDBRANCH  32  33
ENDBRANCH  30  32
ENDBRANCH   1  30
BRANCH   7  37
HETATM   37  C8  UNL     1      -0.890  -2.601  -1.701  1.00  0.00     0.090 C 
HETATM   38  N6  UNL     1      -0.963  -3.833  -1.988  1.00  0.00    -0.269 N 
ATOM     39  H6  UNL     1      -1.895  -3.994  -2.370  1.00  0.00     0.194 HD
BRANCH  38  40
HETATM   40  O1  UNL     1      -0.367  -4.942  -1.999  1.00  0.00    -0.290 OA
ATOM     41  H1  UNL     1      -0.422  -5.866  -2.214  1.00  0.00     0.244 HD
ENDBRANCH  38  40
BRANCH  37  42
HETATM   42  C9  UNL     1      -2.113  -1.870  -2.132  1.00  0.00     0.197 C 
BRANCH  42  43
HETATM   43  O2  UNL     1      -1.890  -1.242  -3.378  1.00  0.00    -0.388 OA
ATOM     44  H2  UNL     1      -2.671  -0.775  -3.653  1.00  0.00     0.210 HD
ENDBRANCH  42  43
BRANCH  42  45
HETATM   45  C10 UNL     1      -3.190  -2.931  -2.527  1.00  0.00     0.267 C 
BRANCH  45  46
HETATM   46  N7  UNL     1      -3.560  -3.696  -1.364  1.00  0.00    -0.077 N 
ATOM     47  H73 UNL     1      -2.752  -4.119  -0.908  1.00  0.00     0.274 HD
ATOM     48  H72 UNL     1      -3.868  -3.102  -0.594  1.00  0.00     0.274 HD
ATOM     49  H71 UNL     1      -4.263  -4.389  -1.622  1.00  0.00     0.274 HD
ENDBRANCH  45  46
ENDBRANCH  42  45
ENDBRANCH  37  42
ENDBRANCH   7  37
BRANCH   4  50
HETATM   50  N4  UNL     1       3.690  -3.319  -0.923  1.00  0.00    -0.234 N 
ATOM     51  H42 UNL     1       4.617  -3.029  -0.611  1.00  0.00     0.174 HD
ATOM     52  H41 UNL     1       3.591  -4.254  -1.318  1.00  0.00     0.174 HD
ENDBRANCH   4  50
TORSDOF 15
