REMARK  0 active torsions:
REMARK  status: ('A' for Active; 'I' for Inactive)
ROOT
HETATM    1  C1  UNL     1      -1.462   0.636  -0.054  1.00  0.00     0.000 C 
HETATM    2  C2  UNL     1      -0.336   1.513   0.358  1.00  0.00     0.000 C 
HETATM    3  C3  UNL     1       1.051   1.007  -0.076  1.00  0.00     0.005 C 
HETATM    4  C4  UNL     1       1.108  -0.383   0.381  1.00  0.00    -0.010 A 
HETATM    5  C5  UNL     1       1.351  -1.622  -0.245  1.00  0.00     0.010 A 
HETATM    6  C6  UNL     1       0.102  -1.077  -0.604  1.00  0.00    -0.010 A 
HETATM    7  C7  UNL     1      -1.169  -0.868   0.091  1.00  0.00     0.005 C 
ENDROOT
TORSDOF 0
