REMARK  1 active torsions:
REMARK  status: ('A' for Active; 'I' for Inactive)
REMARK    1  A    between atoms: O1_1  and  C1_3 
ROOT
HETATM    1  C1  UNL     1       1.419   0.071  -0.276  1.00  0.00     0.118 C 
HETATM    2  C2  UNL     1       0.758  -1.275  -0.216  1.00  0.00     0.032 C 
HETATM    3  C3  UNL     1      -0.685  -1.069  -0.614  1.00  0.00     0.002 C 
HETATM    4  C4  UNL     1      -1.279  -0.088   0.392  1.00  0.00     0.000 C 
HETATM    5  C5  UNL     1      -0.649   1.263   0.073  1.00  0.00     0.002 C 
HETATM    6  C6  UNL     1       0.805   1.157   0.547  1.00  0.00     0.032 C 
ENDROOT
BRANCH   1   7
HETATM    7  O1  UNL     1       2.528   0.262  -1.054  1.00  0.00    -0.396 OA
ATOM      8  H1  UNL     1       2.946   1.114  -1.092  1.00  0.00     0.210 HD
ENDBRANCH   1   7
TORSDOF 1
