REMARK  0 active torsions:
REMARK  status: ('A' for Active; 'I' for Inactive)
ROOT
HETATM    1  C1  UNL     1       1.714   0.100  -0.344  1.00  0.00     0.006 C 
HETATM    2  C2  UNL     1       0.854  -0.977   0.260  1.00  0.00     0.011 C 
HETATM    3  C3  UNL     1      -0.348  -0.545  -0.552  1.00  0.00    -0.033 A 
HETATM    4  C4  UNL     1      -1.558  -0.993   0.061  1.00  0.00     0.015 A 
HETATM    5  C5  UNL     1      -1.425   0.413   0.070  1.00  0.00    -0.005 A 
HETATM    6  C6  UNL     1      -0.268   1.217   0.579  1.00  0.00     0.011 C 
HETATM    7  C7  UNL     1       0.361   0.721  -0.697  1.00  0.00    -0.005 C 
ENDROOT
TORSDOF 0
