REMARK  1 active torsions:
REMARK  status: ('A' for Active; 'I' for Inactive)
REMARK    1  A    between atoms: C2_2  and  C3_3 
ROOT
HETATM    1  C3  UNL     1       0.389  -0.413  -0.411  1.00  0.00     0.007 C 
HETATM    2  C4  UNL     1      -0.603  -1.045   0.570  1.00  0.00     0.008 C 
HETATM    3  C5  UNL     1      -1.898  -0.491  -0.029  1.00  0.00     0.001 C 
HETATM    4  C6  UNL     1      -1.569   0.975  -0.103  1.00  0.00     0.001 C 
HETATM    5  C7  UNL     1      -0.054   1.016  -0.343  1.00  0.00     0.008 C 
ENDROOT
BRANCH   1   6
HETATM    6  C2  UNL     1       1.788  -0.662  -0.065  1.00  0.00    -0.032 C 
HETATM    7  C1  UNL     1       2.686   0.236   0.292  1.00  0.00     0.007 C 
ENDBRANCH   1   6
TORSDOF 1
