REMARK  4 active torsions:
REMARK  status: ('A' for Active; 'I' for Inactive)
REMARK    1  A    between atoms: C2_2  and  C3_3 
REMARK    2  A    between atoms: C6_9  and  C7_10 
REMARK    3  A    between atoms: C7_10  and  C8_11 
REMARK    4  A    between atoms: C13_16  and  O3_17 
ROOT
HETATM    1  C8  UNL     1      -1.526  -0.874   0.788  1.00  0.00     0.023 A 
HETATM    2  C9  UNL     1      -2.501  -0.071   1.269  1.00  0.00    -0.026 A 
HETATM    3  C10 UNL     1      -2.600   0.639   2.563  1.00  0.00     0.051 C 
HETATM    4  C11 UNL     1      -3.513  -0.018   0.300  1.00  0.00     0.001 A 
HETATM    5  C12 UNL     1      -4.716   0.631   0.248  1.00  0.00     0.052 A 
HETATM    6  C13 UNL     1      -5.518   0.494  -0.862  1.00  0.00     0.088 A 
HETATM    7  C14 UNL     1      -5.124  -0.295  -1.931  1.00  0.00     0.069 A 
HETATM    8 CL1  UNL     1      -6.194  -0.438  -3.334  1.00  0.00    -0.081 Cl
HETATM    9  C15 UNL     1      -3.926  -0.938  -1.872  1.00  0.00     0.057 A 
HETATM   10  C16 UNL     1      -3.117  -0.804  -0.762  1.00  0.00     0.047 A 
HETATM   11  N1  UNL     1      -1.905  -1.308  -0.430  1.00  0.00    -0.353 N 
HETATM   12  C17 UNL     1      -1.138  -2.181  -1.264  1.00  0.00     0.156 C 
ENDROOT
BRANCH   1  13
HETATM   13  C7  UNL     1      -0.238  -1.214   1.439  1.00  0.00     0.103 C 
BRANCH  13  14
HETATM   14  C6  UNL     1       0.808  -0.184   1.273  1.00  0.00    -0.011 C 
HETATM   15  S1  UNL     1       0.601   1.528   1.819  1.00  0.00    -0.100 SA
HETATM   16  C5  UNL     1       1.859   2.169   0.651  1.00  0.00     0.207 C 
HETATM   17  O2  UNL     1       1.443   2.084  -0.688  1.00  0.00    -0.304 OA
HETATM   18  C20 UNL     1       2.803   0.952   0.729  1.00  0.00     0.069 C 
HETATM   19  C4  UNL     1       2.433   1.437  -1.469  1.00  0.00     0.265 C 
HETATM   20  C3  UNL     1       3.555   1.286  -0.524  1.00  0.00     0.097 C 
HETATM   21  O1  UNL     1       2.287   1.118  -2.662  1.00  0.00    -0.265 OA
HETATM   22  C18 UNL     1       2.017  -0.263   0.729  1.00  0.00    -0.062 C 
HETATM   23  C19 UNL     1       2.478  -1.604   0.170  1.00  0.00     0.045 C 
BRANCH  20  24
HETATM   24  C2  UNL     1       4.687   0.467  -0.917  1.00  0.00     0.011 C 
HETATM   25  C1  UNL     1       5.698   0.486   0.241  1.00  0.00     0.006 C 
ENDBRANCH  20  24
ENDBRANCH  13  14
ENDBRANCH   1  13
BRANCH   6  26
HETATM   26  O3  UNL     1      -6.742   1.145  -0.931  1.00  0.00    -0.359 OA
ATOM     27  H3  UNL     1      -7.296   1.050  -1.697  1.00  0.00     0.217 HD
ENDBRANCH   6  26
TORSDOF 4
