REMARK  5 active torsions:
REMARK  status: ('A' for Active; 'I' for Inactive)
REMARK    1  A    between atoms: C2_2  and  C3_3 
REMARK    2  A    between atoms: C2_2  and  C9_11 
REMARK    3  A    between atoms: C3_3  and  C4_4 
REMARK    4  A    between atoms: C4_4  and  C5_5 
REMARK    5  A    between atoms: C16_18  and  O2_19 
ROOT
HETATM    1  C9  UNL     1       0.781   0.092  -0.086  1.00  0.00     0.022 C 
HETATM    2  C10 UNL     1       1.171  -0.552   1.201  1.00  0.00     0.010 C 
HETATM    3  C11 UNL     1      -0.229  -0.584   1.853  1.00  0.00     0.006 C 
HETATM    4  C12 UNL     1      -1.111  -1.036   0.674  1.00  0.00    -0.001 C 
HETATM    5  C13 UNL     1      -2.433  -0.408   0.751  1.00  0.00    -0.005 C 
HETATM    6  C14 UNL     1      -2.649   0.431   2.022  1.00  0.00     0.008 C 
HETATM    7  C15 UNL     1      -4.141   0.657   2.180  1.00  0.00     0.032 C 
HETATM    8  C16 UNL     1      -4.929   0.342   0.959  1.00  0.00     0.118 C 
HETATM    9  C17 UNL     1      -4.285   0.738  -0.329  1.00  0.00     0.036 C 
HETATM   10  C18 UNL     1      -2.812   0.507  -0.380  1.00  0.00    -0.008 C 
HETATM   11  C19 UNL     1      -2.478  -0.270  -1.663  1.00  0.00     0.006 C 
HETATM   12  C20 UNL     1      -0.981  -0.203  -1.720  1.00  0.00     0.010 C 
HETATM   13  C21 UNL     1      -0.294  -0.850  -0.564  1.00  0.00    -0.033 C 
HETATM   14  C22 UNL     1       0.189  -2.190  -1.034  1.00  0.00     0.016 C 
ENDROOT
BRANCH   1  15
HETATM   15  C2  UNL     1       1.793   0.506  -1.021  1.00  0.00    -0.084 C 
HETATM   16  C1  UNL     1       1.878   1.832  -1.268  1.00  0.00     0.015 C 
BRANCH  15  17
HETATM   17  C3  UNL     1       2.732  -0.319  -1.780  1.00  0.00     0.040 C 
BRANCH  17  18
HETATM   18  C4  UNL     1       3.813  -1.012  -1.035  1.00  0.00     0.069 C 
BRANCH  18  19
HETATM   19  C5  UNL     1       4.764  -0.167  -0.318  1.00  0.00     0.055 A 
HETATM   20  C6  UNL     1       5.936   0.361  -0.804  1.00  0.00     0.036 A 
HETATM   21  C7  UNL     1       6.493   1.084   0.223  1.00  0.00     0.052 A 
HETATM   22  C8  UNL     1       5.643   0.974   1.302  1.00  0.00     0.145 A 
HETATM   23 CL1  UNL     1       5.850   1.698   2.897  1.00  0.00    -0.057 Cl
HETATM   24  O1  UNL     1       4.658   0.232   0.914  1.00  0.00    -0.303 OA
ENDBRANCH  18  19
ENDBRANCH  17  18
ENDBRANCH  15  17
ENDBRANCH   1  15
BRANCH   8  25
HETATM   25  O2  UNL     1      -6.141   1.068   1.048  1.00  0.00    -0.396 OA
ATOM     26  H2  UNL     1      -6.644   0.867   0.268  1.00  0.00     0.210 HD
ENDBRANCH   8  25
TORSDOF 5
