REMARK  5 active torsions:
REMARK  status: ('A' for Active; 'I' for Inactive)
REMARK    1  A    between atoms: C4_4  and  C5_5 
REMARK    2  A    between atoms: C9_9  and  C10_10 
REMARK    3  A    between atoms: C10_10  and  C11_11 
REMARK    4  A    between atoms: C11_11  and  N1_12 
REMARK    5  A    between atoms: C15_17  and  O1_19 
ROOT
HETATM    1  C1  UNL     1      -4.188   2.476  -1.326  1.00  0.00     0.014 C 
HETATM    2  C2  UNL     1      -3.621   1.335  -0.963  1.00  0.00    -0.085 C 
HETATM    3  C3  UNL     1      -4.201   0.763   0.289  1.00  0.00     0.039 C 
HETATM    4  C4  UNL     1      -3.797  -0.658   0.447  1.00  0.00    -0.005 C 
HETATM    5  C7  UNL     1      -2.340  -0.926   0.423  1.00  0.00     0.014 C 
HETATM    6  C8  UNL     1      -1.467   0.211   0.842  1.00  0.00     0.016 C 
HETATM    7  C9  UNL     1      -0.580   0.510  -0.320  1.00  0.00    -0.036 C 
HETATM    8  C18 UNL     1      -1.244   1.396  -1.351  1.00  0.00     0.018 C 
HETATM    9  C19 UNL     1      -2.546   0.871  -1.856  1.00  0.00     0.016 C 
HETATM   10  C20 UNL     1      -2.537  -0.627  -2.059  1.00  0.00     0.035 C 
HETATM   11  C21 UNL     1      -1.843  -1.355  -0.956  1.00  0.00     0.042 C 
HETATM   12 CL1  UNL     1      -1.944  -3.086  -1.201  1.00  0.00    -0.119 Cl
HETATM   13  C22 UNL     1      -0.390  -0.858  -0.941  1.00  0.00     0.035 C 
ENDROOT
BRANCH   7  14
HETATM   14  C10 UNL     1       0.732   1.140   0.023  1.00  0.00     0.029 C 
BRANCH  14  15
HETATM   15  C11 UNL     1       1.610   0.328   0.923  1.00  0.00     0.120 C 
BRANCH  15  16
HETATM   16  N1  UNL     1       2.811   1.085   1.138  1.00  0.00    -0.396 N 
HETATM   17  C12 UNL     1       3.950   0.633   0.801  1.00  0.00    -0.015 C 
HETATM   18  C13 UNL     1       5.233   1.354   0.990  1.00  0.00     0.055 C 
HETATM   19  C17 UNL     1       4.289  -0.663   0.164  1.00  0.00     0.089 C 
HETATM   20  C14 UNL     1       6.170   0.232   1.391  1.00  0.00     0.043 C 
HETATM   21  C15 UNL     1       5.782  -0.838   0.374  1.00  0.00     0.059 C 
HETATM   22  C16 UNL     1       6.550  -0.550  -0.889  1.00  0.00     0.046 C 
ATOM     23  H1  UNL     1       2.749   2.006   1.571  1.00  0.00     0.159 HD
BRANCH  21  24
HETATM   24  O1  UNL     1       6.085  -2.106   0.889  1.00  0.00    -0.390 OA
ATOM     25  H1  UNL     1       5.844  -2.772   0.256  1.00  0.00     0.210 HD
ENDBRANCH  21  24
ENDBRANCH  15  16
ENDBRANCH  14  15
ENDBRANCH   7  14
BRANCH   4  26
HETATM   26  C5  UNL     1      -4.474  -1.250   1.690  1.00  0.00     0.001 C 
HETATM   27  C6  UNL     1      -5.979  -1.153   1.500  1.00  0.00     0.005 C 
ENDBRANCH   4  26
TORSDOF 5
