REMARK  5 active torsions:
REMARK  status: ('A' for Active; 'I' for Inactive)
REMARK    1  A    between atoms: N1_2  and  C1_4 
REMARK    2  A    between atoms: C6_9  and  N2_10 
REMARK    3  A    between atoms: N2_10  and  C7_12 
REMARK    4  A    between atoms: C7_12  and  C8_14 
REMARK    5  A    between atoms: C8_14  and  C9_15 
ROOT
HETATM    1  C8  UNL     1      -0.514  -0.353  -0.464  1.00  0.00     0.052 C 
HETATM    2  C15 UNL     1      -0.290  -1.312   0.759  1.00  0.00     0.052 C 
HETATM    3  C16 UNL     1      -0.442  -2.772   0.388  1.00  0.00    -0.029 C 
HETATM    4  C17 UNL     1      -1.624  -3.313  -0.229  1.00  0.00    -0.030 C 
HETATM    5  C18 UNL     1      -1.799  -3.407  -1.736  1.00  0.00     0.038 C 
HETATM    6  C19 UNL     1      -1.703  -1.993  -2.411  1.00  0.00     0.084 C 
HETATM    7  C20 UNL     1      -1.092  -1.146  -1.477  1.00  0.00    -0.169 C 
ENDROOT
BRANCH   1   8
HETATM    8  C7  UNL     1       0.928   0.075  -0.817  1.00  0.00     0.199 C 
HETATM    9 CL1  UNL     1       1.065   0.966  -2.298  1.00  0.00    -0.101 Cl
BRANCH   8  10
HETATM   10  N2  UNL     1       1.639   0.557   0.325  1.00  0.00    -0.369 N 
ATOM     11  H2  UNL     1       1.135   0.832   1.168  1.00  0.00     0.161 HD
BRANCH  10  12
HETATM   12  C6  UNL     1       3.044   0.648   0.272  1.00  0.00     0.062 A 
HETATM   13  C1  UNL     1       3.773   1.227   1.268  1.00  0.00     0.129 A 
HETATM   14  C2  UNL     1       5.191   1.240   1.201  1.00  0.00     0.038 A 
HETATM   15  C3  UNL     1       5.876   0.690   0.161  1.00  0.00     0.003 A 
HETATM   16  C4  UNL     1       5.150   0.109  -0.843  1.00  0.00     0.002 A 
HETATM   17  C5  UNL     1       3.777   0.091  -0.784  1.00  0.00     0.032 A 
BRANCH  13  18
HETATM   18  N1  UNL     1       3.195   1.840   2.400  1.00  0.00    -0.113 N 
HETATM   19  O1  UNL     1       3.819   1.849   3.508  1.00  0.00    -0.532 OA
HETATM   20  O2  UNL     1       1.992   2.439   2.404  1.00  0.00    -0.532 OA
ENDBRANCH  13  18
ENDBRANCH  10  12
ENDBRANCH   8  10
ENDBRANCH   1   8
BRANCH   1  21
HETATM   21  C9  UNL     1      -1.295   0.798   0.121  1.00  0.00     0.009 C 
HETATM   22  C10 UNL     1      -2.725   0.375   0.363  1.00  0.00     0.006 C 
HETATM   23  C11 UNL     1      -3.547   1.348   1.131  1.00  0.00     0.000 C 
HETATM   24  C12 UNL     1      -3.318   2.784   0.768  1.00  0.00     0.000 C 
HETATM   25  C13 UNL     1      -1.920   3.107   0.402  1.00  0.00     0.000 C 
HETATM   26  C14 UNL     1      -1.302   2.084  -0.579  1.00  0.00     0.006 C 
ENDBRANCH   1  21
TORSDOF 5
