REMARK  4 active torsions:
REMARK  status: ('A' for Active; 'I' for Inactive)
REMARK    1  A    between atoms: C3_4  and  C4_5 
REMARK    2  A    between atoms: C5_6  and  C6_7 
REMARK    3  A    between atoms: C17_19  and  N2_20 
REMARK    4  A    between atoms: N2_20  and  C18_22 
ROOT
HETATM    1 CL1  UNL     1       2.979   0.538  -3.186  1.00  0.00    -0.082 Cl
HETATM    2  C1  UNL     1       2.207   0.363  -1.626  1.00  0.00     0.061 A 
HETATM    3  C2  UNL     1       0.861   0.051  -1.561  1.00  0.00     0.037 A 
HETATM    4  C3  UNL     1       0.181  -0.103  -0.363  1.00  0.00    -0.035 A 
HETATM    5  C15 UNL     1       0.902   0.067   0.822  1.00  0.00     0.014 A 
HETATM    6  C16 UNL     1       2.236   0.377   0.780  1.00  0.00     0.032 A 
HETATM    7  C17 UNL     1       2.892   0.525  -0.439  1.00  0.00     0.050 A 
ENDROOT
BRANCH   4   8
HETATM    8  C4  UNL     1      -1.217  -0.426  -0.260  1.00  0.00     0.008 C 
HETATM    9  C5  UNL     1      -1.992  -0.606  -1.295  1.00  0.00    -0.019 C 
BRANCH   9  10
HETATM   10  C6  UNL     1      -3.419  -0.936  -1.278  1.00  0.00     0.031 C 
HETATM   11  C7  UNL     1      -4.198   0.041  -2.114  1.00  0.00     0.015 C 
HETATM   12  C8  UNL     1      -4.489   1.302  -1.393  1.00  0.00     0.045 C 
HETATM   13  C9  UNL     1      -4.151   1.362   0.046  1.00  0.00     0.058 C 
HETATM   14  N1  UNL     1      -4.128   0.178   0.794  1.00  0.00    -0.388 N 
HETATM   15  C10 UNL     1      -5.017   0.128   1.920  1.00  0.00     0.122 C 
HETATM   16  C14 UNL     1      -3.976  -1.066   0.111  1.00  0.00     0.091 C 
HETATM   17  C11 UNL     1      -6.414  -0.083   1.418  1.00  0.00     0.020 C 
HETATM   18  C12 UNL     1      -6.499  -1.049   0.287  1.00  0.00     0.004 C 
HETATM   19  C13 UNL     1      -5.257  -1.868   0.063  1.00  0.00     0.026 C 
ENDBRANCH   9  10
ENDBRANCH   4   8
BRANCH   7  20
HETATM   20  N2  UNL     1       4.275   0.854  -0.479  1.00  0.00    -0.384 N 
ATOM     21  H2  UNL     1       4.698   0.986  -1.398  1.00  0.00     0.160 HD
BRANCH  20  22
HETATM   22  C18 UNL     1       5.127   1.016   0.668  1.00  0.00     0.081 C 
HETATM   23  C19 UNL     1       6.515   1.435   0.151  1.00  0.00     0.025 C 
HETATM   24  C20 UNL     1       7.086   0.253  -0.584  1.00  0.00     0.002 C 
HETATM   25  C21 UNL     1       7.524  -0.755   0.462  1.00  0.00     0.000 C 
HETATM   26  C22 UNL     1       6.768  -0.564   1.742  1.00  0.00     0.002 C 
HETATM   27  C23 UNL     1       5.289  -0.232   1.498  1.00  0.00     0.025 C 
ENDBRANCH  20  22
ENDBRANCH   7  20
TORSDOF 4
