REMARK  3 active torsions:
REMARK  status: ('A' for Active; 'I' for Inactive)
REMARK    1  A    between atoms: C6_11  and  C7_12 
REMARK    2  A    between atoms: C7_12  and  N3_13 
REMARK    3  A    between atoms: N3_13  and  C8_16 
ROOT
HETATM    1  C1  UNL     1       6.899   0.405   0.843  1.00  0.00     0.069 C 
HETATM    2  C2  UNL     1       5.517   0.308   0.348  1.00  0.00     0.024 A 
HETATM    3  N1  UNL     1       5.272   0.183  -0.944  1.00  0.00    -0.355 N 
ATOM      4  H1  UNL     1       6.053   0.154  -1.599  1.00  0.00     0.166 HD
HETATM    5  C3  UNL     1       4.020   0.094  -1.414  1.00  0.00     0.083 A 
HETATM    6  C4  UNL     1       3.821  -0.046  -2.771  1.00  0.00     0.131 A 
HETATM    7 CL1  UNL     1       5.220  -0.091  -3.840  1.00  0.00    -0.062 Cl
HETATM    8  N2  UNL     1       2.595  -0.146  -3.263  1.00  0.00    -0.354 N 
ATOM      9  H2  UNL     1       2.454  -0.250  -4.268  1.00  0.00     0.166 HD
HETATM   10  C5  UNL     1       1.550  -0.110  -2.445  1.00  0.00     0.099 A 
HETATM   11  C6  UNL     1       1.649   0.033  -1.033  1.00  0.00    -0.004 A 
HETATM   12  C16 UNL     1       2.910   0.134  -0.530  1.00  0.00     0.010 A 
HETATM   13  C17 UNL     1       3.116   0.263   0.823  1.00  0.00    -0.029 A 
HETATM   14  C18 UNL     1       2.043   0.309   1.786  1.00  0.00     0.050 C 
HETATM   15  C19 UNL     1       4.471   0.349   1.227  1.00  0.00     0.040 A 
HETATM   16 BR1  UNL     1       4.790   0.528   3.116  1.00  0.00    -0.048 Br
ENDROOT
BRANCH  11  17
HETATM   17  C7  UNL     1       0.442   0.083  -0.250  1.00  0.00     0.274 C 
BRANCH  17  18
HETATM   18  N3  UNL     1      -0.772  -0.091  -1.113  1.00  0.00    -0.063 N 
ATOM     19  H32 UNL     1      -0.812   0.602  -1.860  1.00  0.00     0.278 HD
ATOM     20  H31 UNL     1      -0.713  -0.930  -1.691  1.00  0.00     0.278 HD
BRANCH  18  21
HETATM   21  C8  UNL     1      -1.972  -0.078  -0.294  1.00  0.00     0.123 C 
HETATM   22  C9  UNL     1      -2.140   1.240   0.386  1.00  0.00     0.046 C 
HETATM   23  C10 UNL     1      -2.054  -1.254   0.618  1.00  0.00     0.038 C 
HETATM   24  C11 UNL     1      -3.333  -1.308   1.375  1.00  0.00     0.003 C 
HETATM   25  C12 UNL     1      -4.472  -0.566   0.769  1.00  0.00     0.004 C 
HETATM   26  C13 UNL     1      -4.410  -0.587  -0.718  1.00  0.00    -0.016 C 
HETATM   27  C14 UNL     1      -5.458   0.374  -1.295  1.00  0.00     0.010 C 
HETATM   28  C15 UNL     1      -3.098  -0.223  -1.305  1.00  0.00     0.042 C 
ENDBRANCH  18  21
ENDBRANCH  17  18
ENDBRANCH  11  17
TORSDOF 3
