REMARK  4 active torsions:
REMARK  status: ('A' for Active; 'I' for Inactive)
REMARK    1  A    between atoms: C4_6  and  N2_7 
REMARK    2  A    between atoms: N2_7  and  C5_9 
REMARK    3  A    between atoms: N3_22  and  C16_23 
REMARK    4  A    between atoms: C16_23  and  C17_24 
ROOT
HETATM    1  C1  UNL     1       0.545  -2.972  -1.038  1.00  0.00     0.052 C 
HETATM    2  C2  UNL     1      -0.412  -1.909  -0.776  1.00  0.00    -0.019 A 
HETATM    3  C3  UNL     1      -1.664  -1.982  -1.400  1.00  0.00     0.099 A 
HETATM    4  N1  UNL     1      -2.610  -1.072  -1.141  1.00  0.00    -0.351 N 
ATOM      5  H1  UNL     1      -3.514  -1.146  -1.608  1.00  0.00     0.166 HD
HETATM    6  C4  UNL     1      -2.396  -0.064  -0.280  1.00  0.00     0.119 A 
HETATM    7  C9  UNL     1      -1.167   0.016   0.338  1.00  0.00     0.048 A 
HETATM    8  C10 UNL     1      -0.691   0.900   1.260  1.00  0.00     0.007 A 
HETATM    9  C11 UNL     1      -1.269   2.004   1.861  1.00  0.00     0.018 A 
HETATM   10  C12 UNL     1      -0.568   2.753   2.791  1.00  0.00     0.043 A 
HETATM   11  C13 UNL     1       0.719   2.373   3.105  1.00  0.00     0.118 A 
HETATM   12  F1  UNL     1       1.458   3.075   4.016  1.00  0.00    -0.206 F 
HETATM   13  C14 UNL     1       1.269   1.262   2.485  1.00  0.00     0.072 A 
HETATM   14  C15 UNL     1       0.586   0.499   1.552  1.00  0.00     0.049 A 
HETATM   15  N3  UNL     1       0.930  -0.614   0.835  1.00  0.00    -0.341 N 
HETATM   16  C23 UNL     1      -0.143  -0.901   0.106  1.00  0.00     0.057 A 
ENDROOT
BRANCH  15  17
HETATM   17  C16 UNL     1       2.205  -1.247   0.961  1.00  0.00     0.168 C 
BRANCH  17  18
HETATM   18  C17 UNL     1       3.306  -0.532   0.203  1.00  0.00    -0.040 A 
HETATM   19  C18 UNL     1       3.271  -0.284  -1.140  1.00  0.00     0.012 A 
HETATM   20  C19 UNL     1       4.315   0.345  -1.756  1.00  0.00     0.043 A 
HETATM   21  C20 UNL     1       5.437   0.758  -1.075  1.00  0.00     0.116 A 
HETATM   22  F2  UNL     1       6.475   1.383  -1.684  1.00  0.00    -0.206 F 
HETATM   23  C21 UNL     1       5.496   0.520   0.279  1.00  0.00     0.043 A 
HETATM   24  C22 UNL     1       4.446  -0.111   0.888  1.00  0.00     0.012 A 
ENDBRANCH  17  18
ENDBRANCH  15  17
BRANCH   6  25
HETATM   25  N2  UNL     1      -3.343   0.763  -0.082  1.00  0.00    -0.341 N 
ATOM     26  H2  UNL     1      -3.206   1.538   0.567  1.00  0.00     0.167 HD
BRANCH  25  27
HETATM   27  C5  UNL     1      -4.620   0.619  -0.770  1.00  0.00     0.040 A 
HETATM   28  C6  UNL     1      -4.872   1.117  -1.989  1.00  0.00     0.037 A 
HETATM   29  C7  UNL     1      -6.120   0.905  -2.515  1.00  0.00     0.052 A 
HETATM   30  S1  UNL     1      -6.900   0.018  -1.289  1.00  0.00    -0.111 SA
HETATM   31  C8  UNL     1      -5.635  -0.062  -0.150  1.00  0.00     0.079 A 
ENDBRANCH  25  27
ENDBRANCH   6  25
TORSDOF 4
