REMARK  4 active torsions:
REMARK  status: ('A' for Active; 'I' for Inactive)
REMARK    1  A    between atoms: C8_9  and  C9_10 
REMARK    2  A    between atoms: C9_10  and  O2_12 
REMARK    3  A    between atoms: O2_12  and  C10_13 
REMARK    4  A    between atoms: C10_13  and  C12_15 
ROOT
HETATM    1  C1  UNL     1      -2.268   1.267   3.575  1.00  0.00     0.015 C 
HETATM    2  C2  UNL     1      -2.187   1.244   2.371  1.00  0.00    -0.073 C 
HETATM    3  C3  UNL     1      -2.077   1.193   0.889  1.00  0.00     0.175 C 
HETATM    4  F1  UNL     1      -1.596   2.449   0.545  1.00  0.00    -0.228 F 
HETATM    5  C4  UNL     1      -3.439   0.946   0.325  1.00  0.00     0.039 C 
HETATM    6  C5  UNL     1      -3.536   1.823  -0.933  1.00  0.00     0.009 C 
HETATM    7  C6  UNL     1      -2.818   1.153  -2.051  1.00  0.00     0.002 C 
HETATM    8  C7  UNL     1      -1.380   0.884  -1.853  1.00  0.00     0.020 C 
HETATM    9  C8  UNL     1      -0.994  -0.203  -0.899  1.00  0.00     0.058 C 
HETATM   10  C17 UNL     1      -1.835  -1.412  -1.143  1.00  0.00     0.031 C 
HETATM   11  C18 UNL     1      -2.758  -1.469   0.035  1.00  0.00    -0.025 C 
HETATM   12  C19 UNL     1      -3.300  -2.860   0.199  1.00  0.00     0.016 C 
HETATM   13  C20 UNL     1      -3.830  -0.447   0.079  1.00  0.00     0.019 C 
HETATM   14  C21 UNL     1      -1.786  -1.160   1.168  1.00  0.00     0.100 C 
HETATM   15 CL1  UNL     1      -0.710  -2.461   1.543  1.00  0.00    -0.124 Cl
HETATM   16  C22 UNL     1      -1.114   0.079   0.550  1.00  0.00     0.076 C 
ENDROOT
BRANCH   9  17
HETATM   17  C9  UNL     1       0.421  -0.564  -1.285  1.00  0.00     0.269 C 
HETATM   18  O1  UNL     1       0.739  -1.729  -1.612  1.00  0.00    -0.264 OA
BRANCH  17  19
HETATM   19  O2  UNL     1       1.436   0.376  -1.297  1.00  0.00    -0.309 OA
BRANCH  19  20
HETATM   20  C10 UNL     1       2.785   0.110  -1.653  1.00  0.00     0.179 C 
HETATM   21  C11 UNL     1       3.041   0.892  -2.963  1.00  0.00     0.047 C 
BRANCH  20  22
HETATM   22  C12 UNL     1       3.737   0.536  -0.624  1.00  0.00     0.062 A 
HETATM   23  N1  UNL     1       4.615   1.554  -0.608  1.00  0.00    -0.302 N 
HETATM   24  N2  UNL     1       5.282   1.587   0.532  1.00  0.00    -0.304 N 
ATOM     25  H1  UNL     1       4.749   2.214  -1.375  1.00  0.00     0.186 HD
HETATM   26  C13 UNL     1       4.875   0.584   1.335  1.00  0.00     0.030 A 
ATOM     27  H2  UNL     1       6.000   2.271   0.770  1.00  0.00     0.186 HD
HETATM   28  C14 UNL     1       5.367   0.258   2.710  1.00  0.00     0.070 C 
HETATM   29  C15 UNL     1       3.892  -0.082   0.596  1.00  0.00    -0.012 A 
HETATM   30  C16 UNL     1       3.151  -1.273   1.077  1.00  0.00     0.052 C 
ENDBRANCH  20  22
ENDBRANCH  19  20
ENDBRANCH  17  19
ENDBRANCH   9  17
TORSDOF 4
