REMARK  4 active torsions:
REMARK  status: ('A' for Active; 'I' for Inactive)
REMARK    1  A    between atoms: C2_2  and  C3_3 
REMARK    2  A    between atoms: C3_3  and  N1_6 
REMARK    3  A    between atoms: C6_9  and  C7_10 
REMARK    4  A    between atoms: C11_14  and  C12_15 
ROOT
HETATM    1  N1  UNL     1      -2.066  -0.361  -0.364  1.00  0.00    -0.247 N 
HETATM    2  N2  UNL     1      -1.919   0.879   0.044  1.00  0.00    -0.297 N 
ATOM      3  H2  UNL     1      -2.685   1.487   0.334  1.00  0.00     0.187 HD
HETATM    4  C6  UNL     1      -0.607   1.245   0.028  1.00  0.00     0.050 A 
HETATM    5  C11 UNL     1       0.108   0.166  -0.417  1.00  0.00     0.067 A 
HETATM    6  C22 UNL     1      -0.848  -0.828  -0.654  1.00  0.00     0.275 A 
HETATM    7  O2  UNL     1      -0.574  -1.984  -1.078  1.00  0.00    -0.266 OA
ENDROOT
BRANCH   5   8
HETATM    8  C12 UNL     1       1.551   0.035  -0.647  1.00  0.00    -0.009 C 
HETATM    9  C13 UNL     1       2.221  -0.758   0.158  1.00  0.00    -0.039 C 
HETATM   10  C14 UNL     1       1.549  -1.516   1.258  1.00  0.00     0.050 C 
HETATM   11  C15 UNL     1       3.665  -0.829   0.128  1.00  0.00     0.007 A 
HETATM   12  C16 UNL     1       4.392  -1.669   0.939  1.00  0.00     0.060 A 
HETATM   13  C20 UNL     1       4.312   0.007  -0.791  1.00  0.00     0.083 A 
HETATM   14  C17 UNL     1       5.760  -1.696   0.856  1.00  0.00     0.155 A 
HETATM   15  F1  UNL     1       6.513  -2.522   1.648  1.00  0.00    -0.203 F 
HETATM   16  C18 UNL     1       6.417  -0.876  -0.046  1.00  0.00     0.157 A 
HETATM   17  F2  UNL     1       7.777  -0.931  -0.103  1.00  0.00    -0.203 F 
HETATM   18  C19 UNL     1       5.686  -0.036  -0.858  1.00  0.00     0.083 A 
HETATM   19  O1  UNL     1       3.568   0.842  -1.596  1.00  0.00    -0.346 OA
HETATM   20  C21 UNL     1       2.220   0.584  -1.836  1.00  0.00     0.216 C 
ENDBRANCH   5   8
BRANCH   4  21
HETATM   21  C7  UNL     1      -0.134   2.598   0.460  1.00  0.00    -0.006 C 
HETATM   22  C8  UNL     1      -1.383   3.402   0.892  1.00  0.00     0.021 C 
HETATM   23  C9  UNL     1       0.779   2.573   1.637  1.00  0.00     0.021 C 
HETATM   24  C10 UNL     1       0.419   3.421  -0.696  1.00  0.00     0.021 C 
ENDBRANCH   4  21
BRANCH   1  25
HETATM   25  C3  UNL     1      -3.345  -1.091  -0.480  1.00  0.00     0.049 C 
HETATM   26  C4  UNL     1      -4.461  -0.130  -0.184  1.00  0.00     0.040 C 
HETATM   27  C5  UNL     1      -3.454  -1.651  -1.870  1.00  0.00     0.040 C 
BRANCH  25  28
HETATM   28  C2  UNL     1      -3.402  -2.202   0.551  1.00  0.00     0.028 C 
HETATM   29  C1  UNL     1      -4.695  -2.936   0.512  1.00  0.00     0.007 C 
ENDBRANCH  25  28
ENDBRANCH   1  25
TORSDOF 4
