REMARK  7 active torsions:
REMARK  status: ('A' for Active; 'I' for Inactive)
REMARK    1  A    between atoms: C2_2  and  C4_4 
REMARK    2  A    between atoms: C4_4  and  C5_5 
REMARK    3  A    between atoms: C4_4  and  C18_23 
REMARK    4  A    between atoms: C5_5  and  C6_6 
REMARK    5  A    between atoms: C7_7  and  C8_8 
REMARK    6  A    between atoms: C14_16  and  C15_17 
REMARK    7  A    between atoms: C19_28  and  C20_29 
ROOT
HETATM    1  C5  UNL     1      -0.134  -0.269  -0.181  1.00  0.00     0.107 C 
ENDROOT
BRANCH   1   2
HETATM    2  C4  UNL     1      -1.126   0.805   0.074  1.00  0.00     0.069 C 
BRANCH   2   3
HETATM    3  C2  UNL     1      -0.969   2.062  -0.726  1.00  0.00    -0.011 C 
HETATM    4  C1  UNL     1      -1.083   1.845  -2.212  1.00  0.00     0.010 C 
HETATM    5  C3  UNL     1      -2.025   3.049  -0.248  1.00  0.00     0.010 C 
ENDBRANCH   2   3
BRANCH   2   6
HETATM    6  C18 UNL     1      -2.476   0.198  -0.270  1.00  0.00     0.102 A 
HETATM    7  N2  UNL     1      -2.666  -0.625  -1.335  1.00  0.00    -0.287 N 
HETATM    8  N3  UNL     1      -3.917  -0.993  -1.350  1.00  0.00    -0.287 N 
ATOM      9  H2  UNL     1      -1.952  -0.907  -2.007  1.00  0.00     0.188 HD
HETATM   10  C19 UNL     1      -4.574  -0.423  -0.304  1.00  0.00     0.105 A 
ATOM     11  H3  UNL     1      -4.339  -1.614  -2.041  1.00  0.00     0.188 HD
HETATM   12  N4  UNL     1      -3.634   0.318   0.348  1.00  0.00    -0.333 N 
ATOM     13  H4  UNL     1      -3.801   0.878   1.184  1.00  0.00     0.168 HD
BRANCH  10  14
HETATM   14  C20 UNL     1      -5.984  -0.570   0.054  1.00  0.00     0.009 C 
HETATM   15  C21 UNL     1      -6.742   0.754  -0.140  1.00  0.00     0.023 C 
HETATM   16  C22 UNL     1      -6.594  -1.642  -0.863  1.00  0.00     0.023 C 
HETATM   17  C23 UNL     1      -6.222  -0.999   1.484  1.00  0.00     0.023 C 
ENDBRANCH  10  14
ENDBRANCH   2   6
ENDBRANCH   1   2
BRANCH   1  18
HETATM   18  C6  UNL     1       1.226   0.028   0.101  1.00  0.00    -0.100 C 
HETATM   19  C7  UNL     1       2.392   0.179   0.341  1.00  0.00    -0.067 C 
BRANCH  19  20
HETATM   20  C8  UNL     1       3.807   0.257   0.655  1.00  0.00     0.018 A 
HETATM   21  C9  UNL     1       4.370   1.098   1.561  1.00  0.00     0.023 A 
HETATM   22  C10 UNL     1       5.743   1.029   1.845  1.00  0.00     0.032 A 
HETATM   23  C11 UNL     1       6.570   0.116   1.225  1.00  0.00     0.043 A 
HETATM   24  N1  UNL     1       7.903   0.036   1.531  1.00  0.00    -0.365 N 
HETATM   25  C16 UNL     1       6.015  -0.739   0.303  1.00  0.00     0.007 A 
HETATM   26  C12 UNL     1       8.692  -0.874   0.951  1.00  0.00     0.089 A 
ATOM     27  H1  UNL     1       8.300   0.682   2.213  1.00  0.00     0.165 HD
HETATM   28  C13 UNL     1       8.210  -1.760   0.027  1.00  0.00     0.034 A 
HETATM   29  C14 UNL     1       6.836  -1.680  -0.298  1.00  0.00     0.061 A 
HETATM   30  C17 UNL     1       4.665  -0.663   0.028  1.00  0.00     0.035 A 
BRANCH  29  31
HETATM   31  C15 UNL     1       6.268  -2.605  -1.283  1.00  0.00     0.418 C 
HETATM   32  F1  UNL     1       7.316  -3.444  -1.712  1.00  0.00    -0.166 F 
HETATM   33  F2  UNL     1       5.872  -1.951  -2.447  1.00  0.00    -0.166 F 
HETATM   34  F3  UNL     1       5.316  -3.469  -0.791  1.00  0.00    -0.166 F 
ENDBRANCH  29  31
ENDBRANCH  19  20
ENDBRANCH   1  18
TORSDOF 7
