REMARK  2 active torsions:
REMARK  status: ('A' for Active; 'I' for Inactive)
REMARK    1  A    between atoms: C8_9  and  N1_10 
REMARK    2  A    between atoms: N1_10  and  C9_12 
ROOT
HETATM    1  C9  UNL     1       4.269  -1.223  -0.059  1.00  0.00     0.244 C 
HETATM    2  C10 UNL     1       4.749  -2.502   0.408  1.00  0.00     0.078 C 
HETATM    3  N2  UNL     1       5.143  -3.518   0.797  1.00  0.00    -0.196 NA
ENDROOT
BRANCH   1   4
HETATM    4  N1  UNL     1       2.807  -1.165  -0.099  1.00  0.00    -0.377 N 
ATOM      5  H1  UNL     1       2.262  -1.979   0.185  1.00  0.00     0.160 HD
BRANCH   4   6
HETATM    6  C8  UNL     1       2.147  -0.002  -0.524  1.00  0.00     0.038 A 
HETATM    7  C7  UNL     1       0.784   0.134  -0.499  1.00  0.00     0.015 A 
HETATM    8  C6  UNL     1      -0.068  -0.899   0.068  1.00  0.00     0.141 C 
HETATM    9  C14 UNL     1       0.282   1.330  -1.021  1.00  0.00    -0.038 A 
HETATM   10  C2  UNL     1      -1.531  -0.547   0.107  1.00  0.00     0.002 C 
HETATM   11  C5  UNL     1       0.225  -1.301   1.489  1.00  0.00     0.050 C 
HETATM   12  F1  UNL     1       0.011  -2.043  -0.743  1.00  0.00    -0.237 F 
HETATM   13  C1  UNL     1      -2.338  -1.822   0.001  1.00  0.00     0.019 C 
HETATM   14  C3  UNL     1      -1.703  -0.023   1.519  1.00  0.00     0.013 C 
HETATM   15  C19 UNL     1      -2.002   0.392  -0.935  1.00  0.00     0.013 C 
HETATM   16  C4  UNL     1      -1.097  -1.194   2.267  1.00  0.00     0.004 C 
HETATM   17  C15 UNL     1      -1.150   1.608  -1.103  1.00  0.00     0.046 C 
HETATM   18  C18 UNL     1      -3.341   0.990  -0.556  1.00  0.00     0.033 C 
HETATM   19  C16 UNL     1      -1.685   2.562  -0.130  1.00  0.00    -0.021 C 
HETATM   20  C17 UNL     1      -2.931   2.215   0.185  1.00  0.00    -0.029 C 
HETATM   21  C13 UNL     1       1.122   2.323  -1.530  1.00  0.00     0.009 A 
HETATM   22  C12 UNL     1       2.463   2.164  -1.540  1.00  0.00     0.003 A 
HETATM   23  C11 UNL     1       2.982   1.001  -1.038  1.00  0.00     0.030 A 
ENDBRANCH   4   6
ENDBRANCH   1   4
TORSDOF 2
