REMARK  2 active torsions:
REMARK  status: ('A' for Active; 'I' for Inactive)
REMARK    1  A    between atoms: C3_3  and  O1_4 
REMARK    2  A    between atoms: O1_4  and  N1_5 
ROOT
HETATM    1  C1  UNL     1       6.218   3.024   0.836  1.00  0.00     0.014 C 
HETATM    2  C2  UNL     1       5.784   1.964   0.421  1.00  0.00    -0.089 C 
HETATM    3  C3  UNL     1       5.269   0.694  -0.091  1.00  0.00     0.294 C 
ENDROOT
BRANCH   3   4
HETATM    4  O1  UNL     1       3.937   0.550   0.353  1.00  0.00    -0.269 OA
BRANCH   4   5
HETATM    5  N1  UNL     1       3.145  -0.512   0.068  1.00  0.00    -0.274 N 
HETATM    6  C4  UNL     1       1.865  -0.435   0.036  1.00  0.00     0.010 C 
HETATM    7  C5  UNL     1       1.242   0.877   0.326  1.00  0.00     0.054 C 
HETATM    8  C17 UNL     1       1.069  -1.636  -0.282  1.00  0.00     0.059 C 
HETATM    9  C6  UNL     1       0.990   1.683  -0.941  1.00  0.00     0.006 C 
HETATM   10  C7  UNL     1      -0.278   2.514  -0.785  1.00  0.00     0.000 C 
HETATM   11  C8  UNL     1      -1.436   1.577  -1.021  1.00  0.00     0.000 C 
HETATM   12  C9  UNL     1      -2.750   2.108  -0.560  1.00  0.00     0.000 C 
HETATM   13  C10 UNL     1      -3.506   1.055   0.240  1.00  0.00     0.000 C 
HETATM   14  C11 UNL     1      -3.445  -0.303  -0.410  1.00  0.00     0.000 C 
HETATM   15  C12 UNL     1      -2.894  -1.367   0.515  1.00  0.00     0.004 C 
HETATM   16  C13 UNL     1      -2.084  -2.370  -0.270  1.00  0.00     0.035 C 
HETATM   17  C14 UNL     1      -0.940  -2.907   0.472  1.00  0.00    -0.069 C 
HETATM   18  C15 UNL     1      -0.936  -4.198   0.793  1.00  0.00     0.087 C 
HETATM   19  C16 UNL     1       0.234  -2.096   0.896  1.00  0.00     0.040 C 
HETATM   20 CL1  UNL     1      -2.273  -5.257   0.344  1.00  0.00    -0.097 Cl
ATOM     21  H1  UNL     1       3.585  -1.411  -0.129  1.00  0.00     0.193 HD
ENDBRANCH   4   5
ENDBRANCH   3   4
TORSDOF 2
