REMARK  2 active torsions:
REMARK  status: ('A' for Active; 'I' for Inactive)
REMARK    1  A    between atoms: C3_3  and  N1_4 
REMARK    2  A    between atoms: N1_4  and  C4_6 
ROOT
HETATM    1  C1  UNL     1       3.210  -2.064  -1.001  1.00  0.00     0.052 C 
HETATM    2  C2  UNL     1       3.174  -0.688  -0.432  1.00  0.00    -0.012 A 
HETATM    3  C3  UNL     1       1.955  -0.021  -0.236  1.00  0.00     0.036 A 
HETATM    4  C14 UNL     1       2.058   1.241   0.295  1.00  0.00     0.031 A 
HETATM    5  C15 UNL     1       3.280   1.844   0.627  1.00  0.00     0.027 A 
HETATM    6  C16 UNL     1       4.455   1.141   0.412  1.00  0.00     0.067 A 
HETATM    7  C17 UNL     1       5.717   1.738   0.744  1.00  0.00     0.101 C 
HETATM    8  N2  UNL     1       6.741   2.212   1.008  1.00  0.00    -0.191 NA
HETATM    9  C18 UNL     1       4.392  -0.128  -0.120  1.00  0.00     0.062 A 
HETATM   10 CL1  UNL     1       5.890  -0.990  -0.379  1.00  0.00    -0.082 Cl
ENDROOT
BRANCH   3  11
HETATM   11  N1  UNL     1       0.756  -0.661  -0.591  1.00  0.00    -0.380 N 
ATOM     12  H1  UNL     1       0.872  -1.581  -1.017  1.00  0.00     0.160 HD
BRANCH  11  13
HETATM   13  C4  UNL     1      -0.601  -0.231  -0.452  1.00  0.00     0.031 C 
HETATM   14  C5  UNL     1      -1.045  -0.029   0.953  1.00  0.00     0.035 C 
HETATM   15  C6  UNL     1      -2.548   0.196   1.021  1.00  0.00    -0.012 C 
HETATM   16  C7  UNL     1      -3.335  -0.960   0.493  1.00  0.00     0.009 C 
HETATM   17  C11 UNL     1      -2.897   1.431   0.240  1.00  0.00     0.009 C 
HETATM   18  C8  UNL     1      -2.909  -1.156  -0.947  1.00  0.00    -0.012 C 
HETATM   19  C9  UNL     1      -3.270   0.037  -1.772  1.00  0.00     0.009 C 
HETATM   20  C13 UNL     1      -1.453  -1.413  -0.995  1.00  0.00     0.035 C 
HETATM   21  C10 UNL     1      -2.471   1.208  -1.192  1.00  0.00    -0.012 C 
HETATM   22  C12 UNL     1      -0.986   0.932  -1.306  1.00  0.00     0.035 C 
ENDBRANCH  11  13
ENDBRANCH   3  11
TORSDOF 2
