REMARK  3 active torsions:
REMARK  status: ('A' for Active; 'I' for Inactive)
REMARK    1  A    between atoms: C2_2  and  C3_3 
REMARK    2  A    between atoms: C3_3  and  C4_5 
REMARK    3  A    between atoms: C12_14  and  O2_15 
ROOT
HETATM    1  C4  UNL     1       1.926  -0.359   0.385  1.00  0.00     0.014 C 
HETATM    2  C5  UNL     1       1.981  -0.947   1.551  1.00  0.00     0.023 C 
HETATM    3 CL1  UNL     1       3.248  -0.854   2.778  1.00  0.00    -0.088 Cl
HETATM    4  C6  UNL     1       0.785  -1.771   1.749  1.00  0.00     0.057 C 
HETATM    5  C7  UNL     1      -0.133  -1.382   0.620  1.00  0.00     0.004 C 
HETATM    6  C8  UNL     1      -1.364  -0.750   1.123  1.00  0.00     0.011 C 
HETATM    7  C9  UNL     1      -1.645   0.643   0.689  1.00  0.00    -0.010 C 
HETATM    8  C10 UNL     1      -3.113   0.956   0.873  1.00  0.00     0.007 C 
HETATM    9  C11 UNL     1      -4.016   0.100   0.069  1.00  0.00     0.032 C 
HETATM   10  C12 UNL     1      -3.610  -0.133  -1.340  1.00  0.00     0.118 C 
HETATM   11  C13 UNL     1      -2.142  -0.187  -1.587  1.00  0.00     0.036 C 
HETATM   12  C14 UNL     1      -1.341   0.757  -0.773  1.00  0.00    -0.007 C 
HETATM   13  C15 UNL     1       0.133   0.584  -0.935  1.00  0.00     0.019 C 
HETATM   14  C16 UNL     1       0.690  -0.674  -0.373  1.00  0.00    -0.008 C 
HETATM   15  C17 UNL     1       1.131  -1.592  -1.510  1.00  0.00     0.021 C 
ENDROOT
BRANCH   1  16
HETATM   16  C3  UNL     1       2.994   0.535  -0.115  1.00  0.00     0.157 C 
HETATM   17  O1  UNL     1       2.844   1.054  -1.249  1.00  0.00    -0.293 OA
BRANCH  16  18
HETATM   18  C2  UNL     1       4.220   0.851   0.643  1.00  0.00     0.079 C 
HETATM   19  C1  UNL     1       5.040   1.835  -0.206  1.00  0.00     0.013 C 
ENDBRANCH  16  18
ENDBRANCH   1  16
BRANCH  10  20
HETATM   20  O2  UNL     1      -4.265   0.770  -2.206  1.00  0.00    -0.396 OA
ATOM     21  H2  UNL     1      -4.005   0.621  -3.108  1.00  0.00     0.210 HD
ENDBRANCH  10  20
TORSDOF 3
