REMARK  3 active torsions:
REMARK  status: ('A' for Active; 'I' for Inactive)
REMARK    1  A    between atoms: C2_2  and  C3_3 
REMARK    2  A    between atoms: C5_5  and  O1_6 
REMARK    3  A    between atoms: N1_16  and  C12_17 
ROOT
HETATM    1  C3  UNL     1      -0.907  -0.460   0.413  1.00  0.00     0.120 C 
HETATM    2  C4  UNL     1      -1.874   0.681   0.329  1.00  0.00     0.012 A 
HETATM    3  C5  UNL     1      -2.468   1.153   1.471  1.00  0.00     0.077 A 
HETATM    4  C6  UNL     1      -3.364   2.203   1.382  1.00  0.00     0.079 A 
HETATM    5  C7  UNL     1      -3.693   2.807   0.183  1.00  0.00     0.120 A 
HETATM    6  F1  UNL     1      -4.578   3.840   0.118  1.00  0.00    -0.206 F 
HETATM    7  C8  UNL     1      -3.085   2.319  -0.953  1.00  0.00     0.058 A 
HETATM    8  C9  UNL     1      -2.190   1.271  -0.872  1.00  0.00     0.029 A 
HETATM    9  C10 UNL     1      -1.519   0.718  -2.038  1.00  0.00     0.198 C 
HETATM   10  O2  UNL     1      -2.033   0.873  -3.167  1.00  0.00    -0.286 OA
HETATM   11  C11 UNL     1      -0.266  -0.003  -1.883  1.00  0.00     0.142 C 
HETATM   12  N1  UNL     1       0.059  -0.463  -0.592  1.00  0.00    -0.373 N 
ENDROOT
BRANCH  12  13
HETATM   13  C12 UNL     1       1.345  -0.911  -0.336  1.00  0.00     0.084 C 
HETATM   14  C13 UNL     1       2.363  -0.591  -1.408  1.00  0.00     0.025 C 
HETATM   15  C14 UNL     1       2.915   0.797  -1.067  1.00  0.00     0.002 C 
HETATM   16  C15 UNL     1       3.996   0.566  -0.041  1.00  0.00     0.000 C 
HETATM   17  C16 UNL     1       3.475  -0.514   0.904  1.00  0.00     0.002 C 
HETATM   18  C17 UNL     1       1.955  -0.461   0.978  1.00  0.00     0.025 C 
ENDBRANCH  12  13
BRANCH   1  19
HETATM   19  C2  UNL     1      -1.768  -1.708   0.515  1.00  0.00     0.026 C 
HETATM   20  C1  UNL     1      -0.988  -2.971   0.614  1.00  0.00     0.007 C 
ENDBRANCH   1  19
BRANCH   3  21
HETATM   21  O1  UNL     1      -2.201   0.608   2.732  1.00  0.00    -0.360 OA
ATOM     22  H1  UNL     1      -2.613   0.935   3.523  1.00  0.00     0.217 HD
ENDBRANCH   3  21
TORSDOF 3
