REMARK  6 active torsions:
REMARK  status: ('A' for Active; 'I' for Inactive)
REMARK       I    between atoms: N1_2  and  C2_4 
REMARK    1  A    between atoms: C2_4  and  C3_6 
REMARK    2  A    between atoms: C3_6  and  C4_7 
REMARK    3  A    between atoms: C4_7  and  C5_8 
REMARK    4  A    between atoms: N2_11  and  C8_13 
REMARK    5  A    between atoms: C8_13  and  C14_22 
REMARK       I    between atoms: N3_14  and  C9_16 
REMARK    6  A    between atoms: C9_16  and  C10_18 
ROOT
HETATM    1  C8  UNL     1       0.351  -0.355  -0.381  1.00  0.00     0.088 C 
HETATM    2  N3  UNL     1       1.215  -0.996   0.202  1.00  0.00    -0.316 N 
ATOM      3  H3  UNL     1       0.769  -1.891   0.404  1.00  0.00     0.170 HD
HETATM    4  C9  UNL     1       2.454  -1.123   0.713  1.00  0.00     0.227 C 
HETATM    5  O2  UNL     1       2.630  -0.757   1.945  1.00  0.00    -0.273 OA
ENDROOT
BRANCH   1   6
HETATM    6  N2  UNL     1      -0.914  -0.890  -0.631  1.00  0.00    -0.344 N 
HETATM    7  C3  UNL     1      -1.980  -1.181  -0.124  1.00  0.00     0.079 C 
ATOM      8  H2  UNL     1      -0.963  -1.129  -1.621  1.00  0.00     0.167 HD
BRANCH   7   9
HETATM    9  C2  UNL     1      -2.392  -1.033   1.241  1.00  0.00     0.263 C 
HETATM   10  N1  UNL     1      -1.675  -0.499   2.328  1.00  0.00    -0.360 N 
HETATM   11  C1  UNL     1      -2.206  -0.409   3.675  1.00  0.00     0.149 C 
ATOM     12  H1  UNL     1      -0.729  -0.156   2.159  1.00  0.00     0.162 HD
HETATM   13  O1  UNL     1      -3.580  -1.437   1.550  1.00  0.00    -0.266 OA
ENDBRANCH   7   9
BRANCH   7  14
HETATM   14  C4  UNL     1      -3.019  -1.771  -1.073  1.00  0.00     0.067 C 
BRANCH  14  15
HETATM   15  C5  UNL     1      -4.212  -0.904  -1.244  1.00  0.00    -0.017 C 
HETATM   16  C6  UNL     1      -5.137  -1.649  -2.224  1.00  0.00     0.010 C 
HETATM   17  C7  UNL     1      -3.893   0.410  -1.926  1.00  0.00     0.010 C 
ENDBRANCH  14  15
ENDBRANCH   7  14
ENDBRANCH   1   6
BRANCH   1  18
HETATM   18  C14 UNL     1       0.612   1.046  -0.888  1.00  0.00     0.053 C 
HETATM   19  C15 UNL     1       2.029   1.475  -0.723  1.00  0.00     0.012 C 
HETATM   20  C16 UNL     1       2.170   2.902  -1.260  1.00  0.00     0.001 C 
HETATM   21  C17 UNL     1       1.317   3.798  -0.429  1.00  0.00     0.000 C 
HETATM   22  C18 UNL     1      -0.142   3.411  -0.564  1.00  0.00     0.001 C 
HETATM   23  C19 UNL     1      -0.362   1.959  -0.208  1.00  0.00     0.012 C 
ENDBRANCH   1  18
BRANCH   4  24
HETATM   24  C10 UNL     1       3.659  -1.652  -0.002  1.00  0.00     0.082 A 
HETATM   25  C11 UNL     1       4.977  -0.953   0.174  1.00  0.00     0.019 A 
HETATM   26  C12 UNL     1       4.717  -2.372   0.700  1.00  0.00    -0.005 A 
HETATM   27  C13 UNL     1       4.808  -2.494   2.180  1.00  0.00     0.011 C 
ENDBRANCH   4  24
TORSDOF 6
