REMARK  2 active torsions:
REMARK  status: ('A' for Active; 'I' for Inactive)
REMARK    1  A    between atoms: N2_12  and  C9_13 
REMARK    2  A    between atoms: C9_13  and  C10_14 
ROOT
HETATM    1  C1  UNL     1      -1.616  -1.147   1.597  1.00  0.00     0.008 C 
HETATM    2  C2  UNL     1      -1.440   0.167   1.571  1.00  0.00    -0.017 C 
HETATM    3  C3  UNL     1      -1.396   0.647   0.147  1.00  0.00    -0.008 C 
HETATM    4  C4  UNL     1      -2.097   1.962   0.116  1.00  0.00     0.042 C 
HETATM    5  C5  UNL     1      -1.901   2.742  -1.143  1.00  0.00     0.233 C 
HETATM    6  N1  UNL     1      -0.566   2.705  -1.656  1.00  0.00    -0.075 N 
ATOM      7  H11 UNL     1      -0.291   3.583  -2.097  1.00  0.00     0.277 HD
ATOM      8  H12 UNL     1      -0.477   2.104  -2.475  1.00  0.00     0.277 HD
HETATM    9  C6  UNL     1       0.318   2.321  -0.591  1.00  0.00     0.239 C 
HETATM   10  C7  UNL     1       0.031   0.840  -0.313  1.00  0.00     0.041 C 
HETATM   11  C8  UNL     1       1.045   0.248   0.604  1.00  0.00     0.124 C 
HETATM   12  N2  UNL     1       1.504  -1.056   0.222  1.00  0.00    -0.411 N 
HETATM   13  C13 UNL     1       0.712  -2.159   0.630  1.00  0.00     0.120 C 
HETATM   14  C14 UNL     1      -0.505  -2.407  -0.233  1.00  0.00     0.062 C 
HETATM   15  C15 UNL     1      -1.710  -1.674   0.218  1.00  0.00     0.084 C 
HETATM   16  O1  UNL     1      -2.890  -2.434   0.170  1.00  0.00    -0.376 OA
HETATM   17  C16 UNL     1      -3.925  -1.486   0.188  1.00  0.00     0.169 C 
HETATM   18  C17 UNL     1      -3.455  -0.476  -0.823  1.00  0.00     0.035 C 
HETATM   19  C18 UNL     1      -2.004  -0.437  -0.630  1.00  0.00     0.039 C 
ENDROOT
BRANCH  12  20
HETATM   20  C9  UNL     1       2.914  -1.207   0.366  1.00  0.00     0.121 C 
BRANCH  20  21
HETATM   21  C10 UNL     1       3.630  -0.428  -0.708  1.00  0.00     0.003 A 
HETATM   22  C11 UNL     1       5.131  -0.443  -0.732  1.00  0.00     0.007 A 
HETATM   23  C12 UNL     1       4.390   0.802  -0.425  1.00  0.00     0.007 A 
ENDBRANCH  20  21
ENDBRANCH  12  20
TORSDOF 2
