REMARK  3 active torsions:
REMARK  status: ('A' for Active; 'I' for Inactive)
REMARK    1  A    between atoms: C4_4  and  N1_5 
REMARK    2  A    between atoms: N1_5  and  C5_8 
REMARK    3  A    between atoms: N2_22  and  O2_23 
ROOT
HETATM    1  C5  UNL     1       0.044   0.527  -0.163  1.00  0.00     0.217 C 
HETATM    2  C6  UNL     1      -0.188   1.651   0.842  1.00  0.00     0.002 C 
HETATM    3  C7  UNL     1      -1.462   2.302   0.989  1.00  0.00    -0.028 C 
HETATM    4  C8  UNL     1      -2.791   1.667   1.084  1.00  0.00     0.031 C 
HETATM    5  C9  UNL     1      -3.322   0.996  -0.129  1.00  0.00    -0.010 C 
HETATM    6  C10 UNL     1      -3.866  -0.357  -0.083  1.00  0.00     0.009 C 
HETATM    7  C11 UNL     1      -2.984  -1.537  -0.132  1.00  0.00    -0.013 C 
HETATM    8  C12 UNL     1      -2.480  -1.620   1.310  1.00  0.00     0.005 C 
HETATM    9  C13 UNL     1      -1.323  -0.682   1.156  1.00  0.00     0.012 C 
HETATM   10  C14 UNL     1      -1.244  -0.130  -0.183  1.00  0.00    -0.008 C 
HETATM   11  C15 UNL     1      -2.067   0.800  -0.915  1.00  0.00     0.016 C 
HETATM   12  C16 UNL     1      -1.627  -1.397  -0.827  1.00  0.00     0.016 C 
ENDROOT
BRANCH   1  13
HETATM   13  N1  UNL     1       1.167  -0.275   0.252  1.00  0.00    -0.059 N 
ATOM     14  H12 UNL     1       0.847  -1.131   0.705  1.00  0.00     0.278 HD
ATOM     15  H11 UNL     1       1.651   0.165   1.035  1.00  0.00     0.278 HD
BRANCH  13  16
HETATM   16  C4  UNL     1       2.091  -0.580  -0.803  1.00  0.00     0.238 C 
HETATM   17  C2  UNL     1       3.478  -0.092  -0.396  1.00  0.00     0.089 C 
HETATM   18  C1  UNL     1       4.542  -0.516  -1.370  1.00  0.00     0.039 C 
HETATM   19  C3  UNL     1       3.512   1.354  -0.042  1.00  0.00     0.039 C 
HETATM   20  N2  UNL     1       3.630  -0.971   0.765  1.00  0.00    -0.060 NA
HETATM   21  O1  UNL     1       3.293  -2.192   0.331  1.00  0.00    -0.276 OA
HETATM   22  C17 UNL     1       2.392  -2.072  -0.706  1.00  0.00     0.231 C 
BRANCH  20  23
HETATM   23  O2  UNL     1       4.875  -0.879   1.251  1.00  0.00    -0.288 OA
ATOM     24  H2  UNL     1       4.974  -1.449   2.004  1.00  0.00     0.239 HD
ENDBRANCH  20  23
ENDBRANCH  13  16
ENDBRANCH   1  13
TORSDOF 3
