REMARK  8 active torsions:
REMARK  status: ('A' for Active; 'I' for Inactive)
REMARK    1  A    between atoms: C2_2  and  C3_3 
REMARK    2  A    between atoms: C3_3  and  O1_4 
REMARK    3  A    between atoms: O1_4  and  C4_5 
REMARK    4  A    between atoms: C5_6  and  C6_7 
REMARK    5  A    between atoms: N5_19  and  C10_20 
REMARK    6  A    between atoms: C13_30  and  N9_31 
REMARK    7  A    between atoms: C15_33  and  N10_34 
REMARK    8  A    between atoms: N11_37  and  C18_38 
ROOT
HETATM    1  C10 UNL     1       3.387   0.616   1.133  1.00  0.00     0.709 A 
HETATM    2  N6  UNL     1       2.999  -0.046   2.228  1.00  0.00    -0.173 N 
ATOM      3  H6  UNL     1       3.715  -0.340   2.892  1.00  0.00     0.186 HD
HETATM    4  C11 UNL     1       1.720  -0.345   2.503  1.00  0.00     0.146 A 
HETATM    5  N7  UNL     1       1.339  -0.980   3.553  1.00  0.00    -0.383 N 
ATOM      6  H71 UNL     1       0.367  -1.207   3.762  1.00  0.00     0.157 HD
ATOM      7  H72 UNL     1       2.081  -1.259   4.195  1.00  0.00     0.157 HD
HETATM    8  C12 UNL     1       0.709   0.035   1.629  1.00  0.00     0.138 A 
HETATM    9  N8  UNL     1      -0.619  -0.094   1.606  1.00  0.00    -0.184 N 
ATOM     10  H8  UNL     1      -1.183  -0.558   2.318  1.00  0.00     0.184 HD
HETATM   11  C13 UNL     1      -1.091   0.489   0.489  1.00  0.00     0.682 A 
HETATM   12  N12 UNL     1      -0.041   0.982  -0.183  1.00  0.00    -0.174 N 
ATOM     13  H12 UNL     1      -0.092   1.480  -1.072  1.00  0.00     0.186 HD
HETATM   14  C24 UNL     1       1.091   0.719   0.495  1.00  0.00     0.167 A 
HETATM   15  N13 UNL     1       2.397   0.993   0.270  1.00  0.00    -0.172 N 
ATOM     16  H13 UNL     1       2.652   1.501  -0.577  1.00  0.00     0.186 HD
ENDROOT
BRANCH   1  17
HETATM   17  N5  UNL     1       4.735   0.955   0.821  1.00  0.00    -0.063 N 
HETATM   18  C4  UNL     1       5.482   0.634  -0.277  1.00  0.00     0.197 A 
HETATM   19  C5  UNL     1       6.676   1.275  -0.086  1.00  0.00     0.080 A 
HETATM   20  C9  UNL     1       6.640   1.976   1.131  1.00  0.00     0.128 A 
HETATM   21  N4  UNL     1       5.438   1.743   1.634  1.00  0.00    -0.288 N 
ATOM     22  H4  UNL     1       5.097   2.115   2.521  1.00  0.00     0.187 HD
BRANCH  18  23
HETATM   23  O1  UNL     1       5.080  -0.137  -1.288  1.00  0.00    -0.333 OA
BRANCH  23  24
HETATM   24  C3  UNL     1       5.045  -1.427  -1.674  1.00  0.00     0.177 C 
BRANCH  24  25
HETATM   25  C2  UNL     1       4.409  -2.477  -0.841  1.00  0.00     0.022 C 
HETATM   26  C1  UNL     1       5.127  -2.675   0.497  1.00  0.00     0.007 C 
ENDBRANCH  24  25
ENDBRANCH  23  24
ENDBRANCH  18  23
BRANCH  19  27
HETATM   27  C6  UNL     1       7.829   1.298  -0.971  1.00  0.00     0.140 A 
HETATM   28  N1  UNL     1       9.005   1.937  -0.681  1.00  0.00    -0.279 N 
HETATM   29  N2  UNL     1       9.886   1.810  -1.634  1.00  0.00    -0.245 N 
ATOM     30  H1  UNL     1       9.173   2.454   0.182  1.00  0.00     0.189 HD
HETATM   31  C7  UNL     1      11.252   2.356  -1.686  1.00  0.00     0.183 C 
HETATM   32  C8  UNL     1       9.301   1.073  -2.587  1.00  0.00     0.342 A 
HETATM   33  O2  UNL     1       9.866   0.751  -3.662  1.00  0.00    -0.245 OA
HETATM   34  N3  UNL     1       8.044   0.764  -2.175  1.00  0.00    -0.291 N 
ATOM     35  H3  UNL     1       7.370   0.210  -2.703  1.00  0.00     0.172 HD
ENDBRANCH  19  27
ENDBRANCH   1  17
BRANCH  11  36
HETATM   36  N9  UNL     1      -2.449   0.608   0.042  1.00  0.00    -0.214 N 
HETATM   37  C14 UNL     1      -3.295  -0.226  -0.774  1.00  0.00     0.167 C 
HETATM   38  C15 UNL     1      -4.493   0.438  -0.191  1.00  0.00     0.116 C 
HETATM   39  C23 UNL     1      -3.530   1.540   0.172  1.00  0.00     0.167 C 
BRANCH  38  40
HETATM   40  N10 UNL     1      -5.068  -0.213   0.939  1.00  0.00    -0.402 N 
HETATM   41  C16 UNL     1      -5.572  -1.520   0.687  1.00  0.00     0.147 C 
HETATM   42  C17 UNL     1      -7.085  -1.542   0.637  1.00  0.00     0.292 C 
HETATM   43  N11 UNL     1      -7.531  -0.212   0.365  1.00  0.00     0.095 N 
HETATM   44  C21 UNL     1      -7.328   0.598   1.520  1.00  0.00     0.292 C 
HETATM   45  C22 UNL     1      -5.836   0.602   1.813  1.00  0.00     0.147 C 
BRANCH  43  46
HETATM   46  C18 UNL     1      -8.836  -0.110  -0.215  1.00  0.00     0.215 C 
HETATM   47  C19 UNL     1      -8.804  -0.803  -1.566  1.00  0.00     0.042 C 
HETATM   48  C20 UNL     1      -9.076   1.373  -0.508  1.00  0.00     0.042 C 
ENDBRANCH  43  46
ENDBRANCH  38  40
ENDBRANCH  11  36
TORSDOF 8
