REMARK  11 active torsions:
REMARK  status: ('A' for Active; 'I' for Inactive)
REMARK    1  A    between atoms: O1_2  and  C2_3 
REMARK    2  A    between atoms: C2_3  and  C3_4 
REMARK    3  A    between atoms: C3_4  and  O2_5 
REMARK    4  A    between atoms: C3_4  and  C5_7 
REMARK    5  A    between atoms: C7_10  and  O4_11 
REMARK    6  A    between atoms: C9_13  and  O5_14 
REMARK    7  A    between atoms: C14_19  and  O6_20 
REMARK    8  A    between atoms: C18_26  and  O7_27 
REMARK    9  A    between atoms: C21_31  and  O8_32 
REMARK   10  A    between atoms: O8_32  and  C22_33 
REMARK   11  A    between atoms: C23_36  and  C24_37 
ROOT
HETATM    1  C5  UNL     1      -2.688  -0.287   0.121  1.00  0.00     0.179 A 
HETATM    2  O3  UNL     1      -2.475   0.858   0.895  1.00  0.00    -0.355 OA
HETATM    3  C6  UNL     1      -1.805   0.668  -0.318  1.00  0.00     0.207 A 
HETATM    4  C7  UNL     1      -0.320   0.535  -0.302  1.00  0.00     0.138 C 
HETATM    5  C9  UNL     1       0.305   1.132   0.942  1.00  0.00     0.126 C 
HETATM    6  C11 UNL     1       0.231  -0.178   1.608  1.00  0.00     0.065 C 
HETATM    7  C12 UNL     1       0.196  -0.795   0.195  1.00  0.00     0.048 C 
HETATM    8  C13 UNL     1       1.617  -0.925  -0.166  1.00  0.00     0.004 A 
HETATM    9  C14 UNL     1       2.135  -2.076  -0.701  1.00  0.00     0.098 A 
HETATM   10  C15 UNL     1       3.519  -2.147  -0.859  1.00  0.00     0.088 A 
HETATM   11  N1  UNL     1       4.045  -3.351  -1.416  1.00  0.00    -0.099 NA
HETATM   12  C16 UNL     1       4.348  -1.129  -0.508  1.00  0.00    -0.001 A 
HETATM   13  C17 UNL     1       5.836  -1.245  -0.690  1.00  0.00     0.053 C 
HETATM   14  C18 UNL     1       3.809   0.039   0.031  1.00  0.00     0.085 A 
HETATM   15  C19 UNL     1       2.451   0.165   0.205  1.00  0.00     0.019 A 
HETATM   16  C20 UNL     1       1.773   1.395   0.608  1.00  0.00     0.015 C 
HETATM   17  C21 UNL     1       2.176   2.621   0.623  1.00  0.00     0.158 C 
HETATM   18  C23 UNL     1      -0.714  -1.936   0.222  1.00  0.00     0.144 C 
HETATM   19  C26 UNL     1      -2.152  -1.567   0.549  1.00  0.00     0.179 C 
HETATM   20  O11 UNL     1      -2.883  -2.341   1.179  1.00  0.00    -0.294 OA
ENDROOT
BRANCH   1  21
HETATM   21  C3  UNL     1      -4.149  -0.300  -0.407  1.00  0.00     0.189 C 
BRANCH  21  22
HETATM   22  C2  UNL     1      -5.086  -0.110   0.739  1.00  0.00     0.202 C 
BRANCH  22  23
HETATM   23  O1  UNL     1      -6.380   0.035   0.355  1.00  0.00    -0.393 OA
HETATM   24  C1  UNL     1      -6.703   1.123  -0.399  1.00  0.00     0.201 C 
ENDBRANCH  22  23
ENDBRANCH  21  22
BRANCH  21  25
HETATM   25  O2  UNL     1      -4.354  -1.423  -1.165  1.00  0.00    -0.385 OA
HETATM   26  C4  UNL     1      -4.523  -1.241  -2.516  1.00  0.00     0.202 C 
ENDBRANCH  21  25
ENDBRANCH   1  21
BRANCH   4  27
HETATM   27  O4  UNL     1       0.248   0.811  -1.500  1.00  0.00    -0.378 OA
HETATM   28  C8  UNL     1       0.016   1.948  -2.171  1.00  0.00     0.202 C 
ENDBRANCH   4  27
BRANCH  18  29
HETATM   29  C24 UNL     1      -0.399  -2.956   1.276  1.00  0.00     0.135 C 
HETATM   30  C25 UNL     1      -1.184  -4.208   1.375  1.00  0.00     0.091 C 
HETATM   31  O10 UNL     1       0.492  -2.763   2.049  1.00  0.00    -0.297 OA
ENDBRANCH  18  29
BRANCH   5  32
HETATM   32  O5  UNL     1      -0.365   2.166   1.551  1.00  0.00    -0.377 OA
HETATM   33  C10 UNL     1       0.021   2.478   2.822  1.00  0.00     0.203 C 
ENDBRANCH   5  32
BRANCH  17  34
HETATM   34  O8  UNL     1       3.395   3.167   0.380  1.00  0.00    -0.275 OA
BRANCH  34  35
HETATM   35  C22 UNL     1       3.630   4.527   0.446  1.00  0.00     0.377 C 
HETATM   36  N2  UNL     1       4.922   5.062   0.185  1.00  0.00    -0.032 NA
HETATM   37  O9  UNL     1       2.674   5.316   0.744  1.00  0.00    -0.242 OA
ENDBRANCH  34  35
ENDBRANCH  17  34
BRANCH   9  38
HETATM   38  O6  UNL     1       1.358  -3.171  -1.098  1.00  0.00    -0.358 OA
ATOM     39  H6  UNL     1       1.717  -3.969  -1.469  1.00  0.00     0.217 HD
ENDBRANCH   9  38
BRANCH  14  40
HETATM   40  O7  UNL     1       4.669   1.039   0.379  1.00  0.00    -0.359 OA
ATOM     41  H7  UNL     1       4.302   1.835   0.746  1.00  0.00     0.217 HD
ENDBRANCH  14  40
TORSDOF 11
