REMARK  15 active torsions:
REMARK  status: ('A' for Active; 'I' for Inactive)
REMARK    1  A    between atoms: C3_3  and  C5_5 
REMARK    2  A    between atoms: C5_5  and  O2_7 
REMARK    3  A    between atoms: O2_7  and  C6_8 
REMARK    4  A    between atoms: C8_10  and  O3_11 
REMARK    5  A    between atoms: C8_10  and  C9_13 
REMARK    6  A    between atoms: C9_13  and  O4_14 
REMARK    7  A    between atoms: O4_14  and  C10_15 
REMARK    8  A    between atoms: C10_15  and  C11_17 
REMARK    9  A    between atoms: C11_17  and  N1_18 
REMARK   10  A    between atoms: C11_17  and  C14_23 
REMARK       I    between atoms: N1_18  and  C12_20 
REMARK   11  A    between atoms: C16_26  and  N2_27 
REMARK   12  A    between atoms: C18_33  and  O7_34 
REMARK   13  A    between atoms: O7_34  and  C19_35 
REMARK   14  A    between atoms: C21_38  and  O9_39 
REMARK   15  A    between atoms: O9_39  and  C22_40 
ROOT
HETATM    1  C6  UNL     1      -1.570   0.742   1.352  1.00  0.00     0.167 C 
HETATM    2  C7  UNL     1      -0.154   0.452   0.957  1.00  0.00     0.075 C 
HETATM    3  C8  UNL     1       0.046  -0.903   0.358  1.00  0.00     0.085 C 
HETATM    4  C17 UNL     1      -1.189  -1.585  -0.105  1.00  0.00     0.075 C 
HETATM    5  C18 UNL     1      -2.425  -1.414   0.691  1.00  0.00     0.166 C 
HETATM    6  C21 UNL     1      -2.179  -0.523   1.864  1.00  0.00     0.191 C 
ENDROOT
BRANCH   3   7
HETATM    7  O3  UNL     1       0.747  -1.720   1.257  1.00  0.00    -0.387 OA
ATOM      8  H3  UNL     1       0.874  -2.581   0.876  1.00  0.00     0.210 HD
ENDBRANCH   3   7
BRANCH   3   9
HETATM    9  C9  UNL     1       0.942  -0.739  -0.854  1.00  0.00     0.216 C 
BRANCH   9  10
HETATM   10  O4  UNL     1       2.177  -0.141  -0.515  1.00  0.00    -0.317 OA
BRANCH  10  11
HETATM   11  C10 UNL     1       3.163   0.117  -1.441  1.00  0.00     0.287 C 
HETATM   12  O5  UNL     1       2.915  -0.210  -2.638  1.00  0.00    -0.262 OA
BRANCH  11  13
HETATM   13  C11 UNL     1       4.464   0.744  -1.091  1.00  0.00     0.235 C 
BRANCH  13  14
HETATM   14  N1  UNL     1       5.305   0.899  -2.249  1.00  0.00    -0.343 N 
HETATM   15  C12 UNL     1       5.754   2.175  -2.711  1.00  0.00     0.214 C 
HETATM   16  C13 UNL     1       6.620   2.288  -3.911  1.00  0.00     0.117 C 
HETATM   17  O6  UNL     1       5.440   3.245  -2.130  1.00  0.00    -0.274 OA
ATOM     18  H1  UNL     1       5.592   0.065  -2.761  1.00  0.00     0.163 HD
ENDBRANCH  13  14
BRANCH  13  19
HETATM   19  C14 UNL     1       5.178  -0.098  -0.038  1.00  0.00     0.050 A 
HETATM   20  C15 UNL     1       5.167   0.263   1.283  1.00  0.00     0.081 A 
HETATM   21  S1  UNL     1       6.084  -0.978   2.004  1.00  0.00    -0.064 SA
HETATM   22  C16 UNL     1       6.428  -1.877   0.602  1.00  0.00     0.142 A 
HETATM   23  N3  UNL     1       5.826  -1.192  -0.365  1.00  0.00    -0.338 N 
ATOM     24  H3  UNL     1       5.866  -1.507  -1.334  1.00  0.00     0.168 HD
BRANCH  22  25
HETATM   25  N2  UNL     1       7.120  -2.989   0.469  1.00  0.00    -0.380 N 
ATOM     26  H22 UNL     1       7.582  -3.515   1.211  1.00  0.00     0.158 HD
ATOM     27  H21 UNL     1       7.326  -3.528  -0.372  1.00  0.00     0.158 HD
ENDBRANCH  22  25
ENDBRANCH  13  19
ENDBRANCH  11  13
ENDBRANCH  10  11
ENDBRANCH   9  10
ENDBRANCH   3   9
BRANCH   1  28
HETATM   28  O2  UNL     1      -2.237   1.176   0.154  1.00  0.00    -0.309 OA
BRANCH  28  29
HETATM   29  C5  UNL     1      -2.813   2.439   0.093  1.00  0.00     0.289 C 
HETATM   30  O1  UNL     1      -2.721   3.157   1.124  1.00  0.00    -0.260 OA
BRANCH  29  31
HETATM   31  C3  UNL     1      -3.493   2.935  -1.083  1.00  0.00     0.009 C 
HETATM   32  C2  UNL     1      -3.640   2.281  -2.201  1.00  0.00    -0.018 C 
HETATM   33  C1  UNL     1      -3.142   0.932  -2.475  1.00  0.00     0.036 C 
HETATM   34  C4  UNL     1      -4.081   4.322  -0.996  1.00  0.00     0.054 C 
ENDBRANCH  29  31
ENDBRANCH  28  29
ENDBRANCH   1  28
BRANCH   5  35
HETATM   35  O7  UNL     1      -2.984  -2.664   1.070  1.00  0.00    -0.314 OA
BRANCH  35  36
HETATM   36  C19 UNL     1      -4.250  -3.011   0.657  1.00  0.00     0.255 C 
HETATM   37  C20 UNL     1      -4.921  -4.291   0.999  1.00  0.00     0.126 C 
HETATM   38  O8  UNL     1      -4.897  -2.198  -0.062  1.00  0.00    -0.266 OA
ENDBRANCH  35  36
ENDBRANCH   5  35
BRANCH   6  39
HETATM   39  O9  UNL     1      -3.273  -0.343   2.704  1.00  0.00    -0.311 OA
BRANCH  39  40
HETATM   40  C22 UNL     1      -3.305  -0.735   4.011  1.00  0.00     0.255 C 
HETATM   41  C23 UNL     1      -4.531  -0.490   4.811  1.00  0.00     0.126 C 
HETATM   42  O10 UNL     1      -2.270  -1.291   4.457  1.00  0.00    -0.266 OA
ENDBRANCH  39  40
ENDBRANCH   6  39
TORSDOF 15
