REMARK  13 active torsions:
REMARK  status: ('A' for Active; 'I' for Inactive)
REMARK    1  A    between atoms: C2_2  and  O1_3 
REMARK    2  A    between atoms: O1_3  and  C3_4 
REMARK    3  A    between atoms: C3_4  and  C4_6 
REMARK    4  A    between atoms: C5_7  and  C6_8 
REMARK    5  A    between atoms: C7_12  and  C8_13 
REMARK    6  A    between atoms: C8_13  and  O7_15 
REMARK    7  A    between atoms: O7_15  and  C9_16 
REMARK    8  A    between atoms: C11_19  and  O9_21 
REMARK    9  A    between atoms: C16_26  and  C17_27 
REMARK   10  A    between atoms: C17_27  and  O10_30 
REMARK   11  A    between atoms: C20_32  and  O11_33 
REMARK   12  A    between atoms: C22_35  and  C23_36 
REMARK   13  A    between atoms: C25_39  and  O13_40 
ROOT
HETATM    1  C4  UNL     1       1.554  -0.488  -1.234  1.00  0.00     0.170 C 
HETATM    2  C5  UNL     1       2.080   0.936  -1.548  1.00  0.00     0.243 C 
HETATM    3  O5  UNL     1       1.226   1.796  -1.039  1.00  0.00    -0.327 OA
HETATM    4  C7  UNL     1       0.358   1.176  -0.124  1.00  0.00     0.296 C 
HETATM    5  O8  UNL     1      -0.924   1.426  -0.408  1.00  0.00    -0.308 OA
HETATM    6  C11 UNL     1      -1.345   2.167  -1.427  1.00  0.00     0.162 C 
HETATM    7  C12 UNL     1      -2.670   2.899  -1.182  1.00  0.00     0.079 C 
HETATM    8  C13 UNL     1      -1.549   1.325  -2.661  1.00  0.00     0.072 C 
HETATM    9  C14 UNL     1      -2.086  -0.023  -2.367  1.00  0.00     0.033 C 
HETATM   10  C15 UNL     1      -2.826  -0.101  -1.100  1.00  0.00    -0.014 C 
HETATM   11  C16 UNL     1      -2.560  -0.669   0.038  1.00  0.00     0.006 C 
HETATM   12  C20 UNL     1      -1.377  -1.391   0.524  1.00  0.00     0.090 C 
HETATM   13  C22 UNL     1      -0.088  -1.240   0.569  1.00  0.00     0.062 C 
HETATM   14  C25 UNL     1       0.846  -0.210   0.031  1.00  0.00     0.173 C 
ENDROOT
BRANCH   1  15
HETATM   15  C3  UNL     1       2.771  -1.300  -1.313  1.00  0.00     0.269 C 
HETATM   16  O2  UNL     1       2.747  -2.436  -1.888  1.00  0.00    -0.265 OA
BRANCH  15  17
HETATM   17  O1  UNL     1       3.977  -0.883  -0.788  1.00  0.00    -0.321 OA
BRANCH  17  18
HETATM   18  C2  UNL     1       5.190  -1.556  -0.816  1.00  0.00     0.174 C 
HETATM   19  C1  UNL     1       5.189  -2.893  -0.141  1.00  0.00     0.034 C 
ENDBRANCH  17  18
ENDBRANCH  15  17
ENDBRANCH   1  15
BRANCH   2  20
HETATM   20  C6  UNL     1       2.503   1.064  -2.955  1.00  0.00     0.204 C 
HETATM   21  O3  UNL     1       2.111   2.001  -3.674  1.00  0.00    -0.646 OA
HETATM   22  O4  UNL     1       3.355   0.117  -3.487  1.00  0.00    -0.646 OA
ENDBRANCH   2  20
BRANCH  14  23
HETATM   23  O13 UNL     1       1.941  -0.060   0.950  1.00  0.00    -0.378 OA
ATOM     24  H13 UNL     1       1.485   0.119   1.764  1.00  0.00     0.211 HD
ENDBRANCH  14  23
BRANCH   4  25
HETATM   25  C8  UNL     1       0.649   1.926   1.159  1.00  0.00     0.326 C 
HETATM   26  O6  UNL     1       0.132   1.632   2.258  1.00  0.00    -0.259 OA
BRANCH  25  27
HETATM   27  O7  UNL     1       1.528   3.014   1.201  1.00  0.00    -0.317 OA
BRANCH  27  28
HETATM   28  C9  UNL     1       1.769   3.680   2.404  1.00  0.00     0.174 C 
HETATM   29  C10 UNL     1       2.345   2.829   3.486  1.00  0.00     0.034 C 
ENDBRANCH  27  28
ENDBRANCH  25  27
ENDBRANCH   4  25
BRANCH  13  30
HETATM   30  C23 UNL     1       0.693  -2.329   1.250  1.00  0.00     0.157 C 
HETATM   31  C24 UNL     1       0.233  -3.545   1.888  1.00  0.00     0.096 C 
HETATM   32  O12 UNL     1       1.969  -2.206   1.310  1.00  0.00    -0.293 OA
ENDBRANCH  13  30
BRANCH  12  33
HETATM   33  O11 UNL     1      -1.906  -2.639   1.091  1.00  0.00    -0.355 OA
HETATM   34  C21 UNL     1      -2.410  -3.628   0.167  1.00  0.00     0.210 C 
ENDBRANCH  12  33
BRANCH   6  35
HETATM   35  O9  UNL     1      -0.478   3.182  -1.853  1.00  0.00    -0.365 OA
ATOM     36  H9  UNL     1      -0.779   3.712  -2.582  1.00  0.00     0.213 HD
ENDBRANCH   6  35
BRANCH  11  37
HETATM   37  C17 UNL     1      -3.696  -0.460   1.068  1.00  0.00     0.080 C 
HETATM   38  C18 UNL     1      -4.941   0.094   0.505  1.00  0.00     0.051 C 
HETATM   39  C19 UNL     1      -3.196   0.450   2.204  1.00  0.00     0.051 C 
BRANCH  37  40
HETATM   40  O10 UNL     1      -4.030  -1.639   1.713  1.00  0.00    -0.386 OA
ATOM     41  H10 UNL     1      -4.727  -1.511   2.345  1.00  0.00     0.211 HD
ENDBRANCH  37  40
ENDBRANCH  11  37
TORSDOF 13
