REMARK  8 active torsions:
REMARK  status: ('A' for Active; 'I' for Inactive)
REMARK    1  A    between atoms: N1_1  and  C1_4 
REMARK    2  A    between atoms: C2_7  and  N3_8 
REMARK    3  A    between atoms: C5_13  and  N5_14 
REMARK    4  A    between atoms: N6_17  and  C8_18 
REMARK    5  A    between atoms: C10_20  and  N7_21 
REMARK    6  A    between atoms: N7_21  and  C11_23 
REMARK    7  A    between atoms: C11_23  and  C12_24 
REMARK    8  A    between atoms: C12_24  and  O1_25 
ROOT
HETATM    1  N5  UNL     1      -1.493  -1.364   0.055  1.00  0.00    -0.155 N 
HETATM    2  C6  UNL     1      -1.393  -1.926   1.368  1.00  0.00     0.224 C 
HETATM    3  C7  UNL     1       0.105  -1.887   1.597  1.00  0.00     0.176 C 
HETATM    4  N6  UNL     1       0.690  -1.662   0.292  1.00  0.00    -0.325 N 
HETATM    5  C14 UNL     1      -0.370  -1.982  -0.668  1.00  0.00     0.314 C 
HETATM    6  N10 UNL     1      -0.614  -3.390  -0.763  1.00  0.00    -0.348 N 
ATOM      7  H10 UNL     1      -0.254  -3.895  -1.573  1.00  0.00     0.164 HD
HETATM    8  C15 UNL     1      -1.272  -4.049   0.136  1.00  0.00     0.176 C 
HETATM    9  N11 UNL     1      -1.769  -3.335   1.258  1.00  0.00    -0.363 N 
ATOM     10  H11 UNL     1      -2.362  -3.785   1.956  1.00  0.00     0.162 HD
ENDROOT
BRANCH   1  11
HETATM   11  C5  UNL     1      -2.376  -0.422  -0.534  1.00  0.00     0.714 A 
HETATM   12  N4  UNL     1      -3.335   0.212   0.163  1.00  0.00    -0.021 N 
HETATM   13  C2  UNL     1      -4.154   1.099  -0.422  1.00  0.00     0.709 A 
ATOM     14  H4  UNL     1      -3.442   0.014   1.158  1.00  0.00     0.203 HD
HETATM   15  N2  UNL     1      -4.055   1.395  -1.735  1.00  0.00    -0.022 N 
HETATM   16  C1  UNL     1      -3.104   0.770  -2.441  1.00  0.00     0.705 A 
ATOM     17  H2  UNL     1      -4.682   2.070  -2.174  1.00  0.00     0.203 HD
HETATM   18  N12 UNL     1      -2.289  -0.112  -1.856  1.00  0.00    -0.021 N 
ATOM     19  H12 UNL     1      -1.575  -0.570  -2.422  1.00  0.00     0.203 HD
BRANCH  13  20
HETATM   20  N3  UNL     1      -5.145   1.742   0.380  1.00  0.00    -0.214 N 
HETATM   21  C3  UNL     1      -6.289   2.725   0.388  1.00  0.00     0.161 A 
HETATM   22  C4  UNL     1      -5.859   2.051   1.592  1.00  0.00     0.161 A 
ENDBRANCH  13  20
BRANCH  16  23
HETATM   23  N1  UNL     1      -2.993   1.034  -3.691  1.00  0.00    -0.234 N 
ATOM     24  H12 UNL     1      -3.615   1.707  -4.138  1.00  0.00     0.174 HD
ATOM     25  H11 UNL     1      -2.269   0.558  -4.229  1.00  0.00     0.174 HD
ENDBRANCH  16  23
ENDBRANCH   1  11
BRANCH   4  26
HETATM   26  C8  UNL     1       1.969  -1.218  -0.086  1.00  0.00     0.110 A 
HETATM   27  C9  UNL     1       2.528  -0.107   0.506  1.00  0.00     0.096 A 
HETATM   28  C10 UNL     1       3.786   0.299   0.120  1.00  0.00     0.105 A 
HETATM   29  N8  UNL     1       4.448  -0.405  -0.834  1.00  0.00    -0.339 N 
HETATM   30  C13 UNL     1       3.888  -1.483  -1.398  1.00  0.00     0.183 A 
ATOM     31  H8  UNL     1       5.380  -0.110  -1.124  1.00  0.00     0.168 HD
HETATM   32  N9  UNL     1       2.682  -1.863  -1.020  1.00  0.00    -0.339 N 
ATOM     33  H9  UNL     1       2.273  -2.687  -1.460  1.00  0.00     0.168 HD
BRANCH  28  34
HETATM   34  N7  UNL     1       4.327   1.352   0.670  1.00  0.00    -0.374 N 
ATOM     35  H7  UNL     1       3.835   1.887   1.386  1.00  0.00     0.161 HD
BRANCH  34  36
HETATM   36  C11 UNL     1       5.660   1.735   0.223  1.00  0.00     0.147 C 
BRANCH  36  37
HETATM   37  C12 UNL     1       5.867   3.220   0.280  1.00  0.00     0.183 C 
BRANCH  37  38
HETATM   38  O1  UNL     1       7.175   3.470  -0.168  1.00  0.00    -0.399 OA
ATOM     39  H1  UNL     1       7.306   4.410  -0.132  1.00  0.00     0.209 HD
ENDBRANCH  37  38
ENDBRANCH  36  37
ENDBRANCH  34  36
ENDBRANCH  28  34
ENDBRANCH   4  26
TORSDOF 8
