REMARK  10 active torsions:
REMARK  status: ('A' for Active; 'I' for Inactive)
REMARK    1  A    between atoms: O1_2  and  C2_3 
REMARK    2  A    between atoms: C3_4  and  O2_5 
REMARK    3  A    between atoms: C4_7  and  O3_8 
REMARK    4  A    between atoms: O3_8  and  C5_9 
REMARK    5  A    between atoms: C7_12  and  O5_13 
REMARK    6  A    between atoms: C8_15  and  O6_16 
REMARK    7  A    between atoms: C9_18  and  O7_19 
REMARK    8  A    between atoms: C10_21  and  O8_22 
REMARK    9  A    between atoms: C12_24  and  O9_25 
REMARK   10  A    between atoms: C14_29  and  O10_30 
ROOT
HETATM    1  C2  UNL     1      -2.294  -1.147  -0.136  1.00  0.00     0.185 C 
HETATM    2  C3  UNL     1      -0.909  -1.012  -0.720  1.00  0.00     0.181 C 
HETATM    3  C4  UNL     1      -0.043  -0.061   0.056  1.00  0.00     0.189 C 
HETATM    4  C10 UNL     1      -0.819   1.028   0.749  1.00  0.00     0.204 C 
HETATM    5  C12 UNL     1      -2.122   1.355   0.111  1.00  0.00     0.203 C 
HETATM    6  C13 UNL     1      -1.941   2.247  -1.062  1.00  0.00     0.103 C 
HETATM    7  N1  UNL     1      -1.800   2.928  -1.983  1.00  0.00    -0.194 NA
HETATM    8  C14 UNL     1      -2.986   0.188  -0.231  1.00  0.00     0.204 C 
ENDROOT
BRANCH   5   9
HETATM    9  O9  UNL     1      -2.849   2.140   1.039  1.00  0.00    -0.371 OA
ATOM     10  H9  UNL     1      -3.681   2.349   0.631  1.00  0.00     0.212 HD
ENDBRANCH   5   9
BRANCH   4  11
HETATM   11  O8  UNL     1      -1.041   0.765   2.094  1.00  0.00    -0.384 OA
HETATM   12  C11 UNL     1      -0.446   1.714   2.921  1.00  0.00     0.202 C 
ENDBRANCH   4  11
BRANCH   8  13
HETATM   13  O10 UNL     1      -4.136   0.112   0.550  1.00  0.00    -0.384 OA
HETATM   14  C15 UNL     1      -5.293   0.201  -0.246  1.00  0.00     0.202 C 
ENDBRANCH   8  13
BRANCH   3  15
HETATM   15  O3  UNL     1       0.912   0.443  -0.821  1.00  0.00    -0.348 OA
BRANCH  15  16
HETATM   16  C5  UNL     1       2.203   0.103  -0.473  1.00  0.00     0.291 C 
HETATM   17  O4  UNL     1       2.887   1.318  -0.246  1.00  0.00    -0.356 OA
HETATM   18  C6  UNL     1       4.006   1.009   0.492  1.00  0.00     0.205 C 
HETATM   19  C7  UNL     1       4.968   0.179  -0.286  1.00  0.00     0.173 C 
HETATM   20  C8  UNL     1       4.423  -0.448  -1.513  1.00  0.00     0.182 C 
HETATM   21  C9  UNL     1       2.947  -0.620  -1.549  1.00  0.00     0.204 C 
BRANCH  19  22
HETATM   22  O5  UNL     1       5.528  -0.763   0.603  1.00  0.00    -0.391 OA
ATOM     23  H5  UNL     1       6.141  -1.292   0.107  1.00  0.00     0.210 HD
ENDBRANCH  19  22
BRANCH  20  24
HETATM   24  O6  UNL     1       4.911   0.233  -2.653  1.00  0.00    -0.390 OA
ATOM     25  H6  UNL     1       4.562  -0.169  -3.440  1.00  0.00     0.210 HD
ENDBRANCH  20  24
BRANCH  21  26
HETATM   26  O7  UNL     1       2.564  -1.980  -1.609  1.00  0.00    -0.388 OA
ATOM     27  H7  UNL     1       3.037  -2.440  -2.293  1.00  0.00     0.210 HD
ENDBRANCH  21  26
ENDBRANCH  15  16
ENDBRANCH   3  15
BRANCH   1  28
HETATM   28  O1  UNL     1      -2.268  -1.664   1.131  1.00  0.00    -0.385 OA
HETATM   29  C1  UNL     1      -2.934  -2.873   1.158  1.00  0.00     0.202 C 
ENDBRANCH   1  28
BRANCH   2  30
HETATM   30  O2  UNL     1      -1.046  -0.559  -2.032  1.00  0.00    -0.390 OA
ATOM     31  H2  UNL     1      -0.174  -0.474  -2.400  1.00  0.00     0.210 HD
ENDBRANCH   2  30
TORSDOF 10
