REMARK  9 active torsions:
REMARK  status: ('A' for Active; 'I' for Inactive)
REMARK    1  A    between atoms: N1_1  and  C1_4 
REMARK    2  A    between atoms: C4_12  and  N4_13 
REMARK    3  A    between atoms: N5_16  and  C7_17 
REMARK    4  A    between atoms: C7_17  and  O2_18 
REMARK    5  A    between atoms: C7_17  and  C8_20 
REMARK    6  A    between atoms: C8_20  and  O3_21 
REMARK    7  A    between atoms: N7_28  and  C12_29 
REMARK    8  A    between atoms: C12_29  and  C13_30 
REMARK    9  A    between atoms: C13_30  and  N8_31 
ROOT
HETATM    1  C1  UNL     1       3.729  -2.278   1.918  1.00  0.00     0.682 A 
HETATM    2  N2  UNL     1       2.907  -2.475   2.962  1.00  0.00    -0.154 N 
ATOM      3  H2  UNL     1       3.274  -2.921   3.803  1.00  0.00     0.187 HD
HETATM    4  C2  UNL     1       1.615  -2.103   2.933  1.00  0.00     0.290 A 
HETATM    5  O1  UNL     1       0.843  -2.287   3.908  1.00  0.00    -0.265 OA
HETATM    6  C3  UNL     1       1.195  -1.502   1.748  1.00  0.00     0.162 A 
HETATM    7  N3  UNL     1      -0.012  -1.029   1.386  1.00  0.00    -0.182 N 
ATOM      8  H3  UNL     1      -0.842  -1.043   1.979  1.00  0.00     0.184 HD
HETATM    9  C4  UNL     1       0.025  -0.535   0.133  1.00  0.00     0.682 A 
HETATM   10  N6  UNL     1       1.275  -0.704  -0.288  1.00  0.00    -0.173 N 
ATOM     11  H6  UNL     1       1.618  -0.427  -1.208  1.00  0.00     0.186 HD
HETATM   12  C11 UNL     1       2.032  -1.294   0.668  1.00  0.00     0.172 A 
HETATM   13  N7  UNL     1       3.307  -1.687   0.762  1.00  0.00    -0.164 N 
ENDROOT
BRANCH   9  14
HETATM   14  N4  UNL     1      -1.107   0.017  -0.519  1.00  0.00    -0.214 N 
HETATM   15  C5  UNL     1      -1.523   1.378  -0.409  1.00  0.00     0.171 C 
HETATM   16  C6  UNL     1      -3.025   1.533  -0.332  1.00  0.00     0.296 C 
HETATM   17  N5  UNL     1      -3.723   0.298  -0.220  1.00  0.00     0.122 N 
HETATM   18  C9  UNL     1      -3.348  -0.709  -1.185  1.00  0.00     0.296 C 
HETATM   19  C10 UNL     1      -1.877  -0.891  -1.356  1.00  0.00     0.171 C 
BRANCH  17  20
HETATM   20  C7  UNL     1      -5.148   0.493  -0.355  1.00  0.00     0.380 C 
BRANCH  20  21
HETATM   21  O2  UNL     1      -5.489   0.981  -1.617  1.00  0.00    -0.366 OA
ATOM     22  H2  UNL     1      -6.426   1.109  -1.706  1.00  0.00     0.212 HD
ENDBRANCH  20  21
BRANCH  20  23
HETATM   23  C8  UNL     1      -5.705   1.352   0.731  1.00  0.00     0.228 C 
BRANCH  23  24
HETATM   24  O3  UNL     1      -7.087   1.474   0.525  1.00  0.00    -0.396 OA
ATOM     25  H3  UNL     1      -7.442   2.021   1.216  1.00  0.00     0.209 HD
ENDBRANCH  23  24
ENDBRANCH  20  23
ENDBRANCH  17  20
ENDBRANCH   9  14
BRANCH  13  26
HETATM   26  C12 UNL     1       4.226  -1.530  -0.312  1.00  0.00     0.171 C 
BRANCH  26  27
HETATM   27  C13 UNL     1       5.063  -0.304  -0.310  1.00  0.00     0.169 C 
BRANCH  27  28
HETATM   28  N8  UNL     1       4.350   0.948  -0.357  1.00  0.00    -0.302 N 
HETATM   29  C14 UNL     1       3.994   1.621  -1.470  1.00  0.00     0.111 A 
HETATM   30  C15 UNL     1       3.330   2.779  -1.090  1.00  0.00     0.037 A 
HETATM   31  C16 UNL     1       3.305   2.767   0.284  1.00  0.00     0.108 A 
HETATM   32  N9  UNL     1       3.928   1.651   0.701  1.00  0.00    -0.310 N 
ATOM     33  H9  UNL     1       4.059   1.381   1.676  1.00  0.00     0.186 HD
ENDBRANCH  27  28
ENDBRANCH  26  27
ENDBRANCH  13  26
BRANCH   1  34
HETATM   34  N1  UNL     1       4.952  -2.673   2.049  1.00  0.00    -0.234 N 
ATOM     35  H12 UNL     1       5.267  -3.115   2.913  1.00  0.00     0.174 HD
ATOM     36  H11 UNL     1       5.576  -2.523   1.256  1.00  0.00     0.174 HD
ENDBRANCH   1  34
TORSDOF 9
