REMARK  0 active torsions:
REMARK  status: ('A' for Active; 'I' for Inactive)
ROOT
HETATM    1  C1  UNL     1      -1.326   1.402   0.656  1.00  0.00     0.013 C 
HETATM    2  C2  UNL     1      -0.606   0.103   0.690  1.00  0.00     0.022 C 
HETATM    3  C3  UNL     1      -1.471  -0.952  -0.021  1.00  0.00     0.136 C 
HETATM    4  N1  UNL     1      -0.851  -1.128  -1.299  1.00  0.00    -0.147 NA
HETATM    5  N2  UNL     1       0.122  -0.162  -1.459  1.00  0.00    -0.139 NA
HETATM    6  C4  UNL     1       0.632   0.044  -0.144  1.00  0.00     0.044 C 
HETATM    7  C5  UNL     1       1.551   1.196   0.009  1.00  0.00     0.035 C 
HETATM    8  C6  UNL     1       1.399  -1.219   0.252  1.00  0.00     0.035 C 
ENDROOT
TORSDOF 0
