REMARK  0 active torsions:
REMARK  status: ('A' for Active; 'I' for Inactive)
ROOT
HETATM    1  C1  UNL     1       1.177   1.547  -0.436  1.00  0.00     0.031 C 
HETATM    2  C2  UNL     1       0.887   0.250   0.238  1.00  0.00     0.117 C 
HETATM    3  N1  UNL     1       1.514  -0.890  -0.408  1.00  0.00    -0.123 NA
HETATM    4  N2  UNL     1       0.548  -1.893  -0.486  1.00  0.00    -0.039 NA
HETATM    5  N3  UNL     1      -0.427  -1.581   0.491  1.00  0.00    -0.119 NA
HETATM    6  C3  UNL     1      -0.573  -0.143   0.193  1.00  0.00     0.059 C 
HETATM    7  C4  UNL     1      -1.413   0.534   1.210  1.00  0.00     0.037 C 
HETATM    8  C5  UNL     1      -1.118  -0.051  -1.200  1.00  0.00     0.037 C 
ENDROOT
TORSDOF 0
