REMARK  1 active torsions:
REMARK  status: ('A' for Active; 'I' for Inactive)
REMARK    1  A    between atoms: C6_7  and  N1_8 
ROOT
HETATM    1  C1  UNL     1      -1.207  -1.618  -0.254  1.00  0.00     0.012 C 
HETATM    2  C2  UNL     1      -0.258  -0.645   0.457  1.00  0.00     0.016 C 
HETATM    3  C3  UNL     1      -1.086   0.460   0.996  1.00  0.00     0.032 C 
HETATM    4  C4  UNL     1      -0.913   1.729   0.186  1.00  0.00     0.168 C 
HETATM    5  O1  UNL     1       0.459   2.020   0.286  1.00  0.00    -0.389 OA
HETATM    6  C5  UNL     1       1.116   1.199  -0.591  1.00  0.00     0.200 C 
HETATM    7  C6  UNL     1       0.883  -0.260  -0.397  1.00  0.00     0.210 C 
ENDROOT
BRANCH   7   8
HETATM    8  N1  UNL     1       2.132  -0.843   0.051  1.00  0.00    -0.073 N 
ATOM      9  H13 UNL     1       2.313  -0.617   1.029  1.00  0.00     0.274 HD
ATOM     10  H12 UNL     1       2.057  -1.857   0.128  1.00  0.00     0.274 HD
ATOM     11  H11 UNL     1       2.920  -0.577  -0.539  1.00  0.00     0.274 HD
ENDBRANCH   7   8
TORSDOF 1
