REMARK  6 active torsions:
REMARK  status: ('A' for Active; 'I' for Inactive)
REMARK    1  A    between atoms: C1_2  and  C2_4 
REMARK    2  A    between atoms: C5_7  and  C6_8 
REMARK    3  A    between atoms: C6_8  and  N1_9 
REMARK    4  A    between atoms: N1_9  and  C7_12 
REMARK    5  A    between atoms: C10_15  and  C11_16 
REMARK    6  A    between atoms: C11_16  and  C12_17 
ROOT
HETATM    1  C7  UNL     1       2.672  -1.636  -0.027  1.00  0.00     0.186 C 
HETATM    2  C8  UNL     1       1.959  -1.260  -1.255  1.00  0.00     0.033 C 
HETATM    3  C9  UNL     1       0.470  -0.984  -1.104  1.00  0.00     0.007 C 
HETATM    4  C10 UNL     1       0.306  -0.197   0.147  1.00  0.00    -0.014 C 
HETATM    5  C23 UNL     1       0.547  -1.193   1.276  1.00  0.00     0.007 C 
HETATM    6  C24 UNL     1       1.897  -1.778   1.219  1.00  0.00     0.033 C 
ENDROOT
BRANCH   4   7
HETATM    7  C11 UNL     1      -0.919   0.588   0.345  1.00  0.00     0.011 C 
BRANCH   7   8
HETATM    8  C12 UNL     1      -2.236  -0.065   0.408  1.00  0.00     0.025 C 
HETATM    9  C13 UNL     1      -3.244   1.094   0.657  1.00  0.00     0.025 C 
HETATM   10  C14 UNL     1      -3.445   1.337   2.111  1.00  0.00     0.007 C 
HETATM   11  C18 UNL     1      -4.529   0.509   0.088  1.00  0.00     0.228 C 
HETATM   12  C15 UNL     1      -4.821   1.966   2.298  1.00  0.00     0.001 C 
HETATM   13  C16 UNL     1      -5.294   2.639   1.024  1.00  0.00     0.002 C 
HETATM   14  C17 UNL     1      -5.488   1.656  -0.097  1.00  0.00     0.036 C 
HETATM   15  N2  UNL     1      -4.031   0.002  -1.172  1.00  0.00     0.098 N 
HETATM   16  C19 UNL     1      -4.914  -0.985  -1.699  1.00  0.00     0.273 C 
HETATM   17  C22 UNL     1      -2.754  -0.637  -0.864  1.00  0.00     0.228 C 
HETATM   18  C20 UNL     1      -4.169  -2.291  -1.773  1.00  0.00     0.032 C 
HETATM   19  C21 UNL     1      -3.105  -2.113  -0.730  1.00  0.00     0.038 C 
ENDBRANCH   7   8
ENDBRANCH   4   7
BRANCH   1  20
HETATM   20  N1  UNL     1       3.780  -0.727   0.207  1.00  0.00    -0.065 N 
ATOM     21  H12 UNL     1       4.198  -0.897   1.122  1.00  0.00     0.278 HD
ATOM     22  H11 UNL     1       3.441   0.225   0.348  1.00  0.00     0.278 HD
BRANCH  20  23
HETATM   23  C6  UNL     1       4.782  -0.761  -0.822  1.00  0.00     0.297 C 
BRANCH  23  24
HETATM   24  C5  UNL     1       5.845   0.218  -0.426  1.00  0.00     0.079 A 
HETATM   25  C4  UNL     1       5.836   1.050   0.674  1.00  0.00     0.037 A 
HETATM   26  C3  UNL     1       6.996   1.782   0.664  1.00  0.00     0.047 A 
HETATM   27  C2  UNL     1       7.687   1.366  -0.459  1.00  0.00     0.152 A 
HETATM   28  O3  UNL     1       6.974   0.446  -1.072  1.00  0.00    -0.306 OA
BRANCH  27  29
HETATM   29  C1  UNL     1       8.977   1.889  -0.853  1.00  0.00     0.234 C 
HETATM   30  O1  UNL     1       9.561   2.774  -0.181  1.00  0.00    -0.642 OA
HETATM   31  O2  UNL     1       9.564   1.373  -2.019  1.00  0.00    -0.642 OA
ENDBRANCH  27  29
ENDBRANCH  23  24
ENDBRANCH  20  23
ENDBRANCH   1  20
TORSDOF 6
