REMARK  8 active torsions:
REMARK  status: ('A' for Active; 'I' for Inactive)
REMARK    1  A    between atoms: C5_5  and  C6_6 
REMARK    2  A    between atoms: C6_6  and  C7_7 
REMARK    3  A    between atoms: C6_6  and  N1_10 
REMARK    4  A    between atoms: N1_10  and  O1_11 
REMARK    5  A    between atoms: N1_10  and  C10_13 
REMARK    6  A    between atoms: N2_23  and  C20_24 
REMARK    7  A    between atoms: C20_24  and  C21_25 
REMARK    8  A    between atoms: C20_24  and  C22_28 
ROOT
HETATM    1  C6  UNL     1      -0.357  -0.602  -0.863  1.00  0.00     0.046 C 
ENDROOT
BRANCH   1   2
HETATM    2  C5  UNL     1      -1.501  -1.506  -0.499  1.00  0.00     0.059 A 
HETATM    3  C4  UNL     1      -1.492  -2.901  -0.747  1.00  0.00     0.033 A 
HETATM    4  C3  UNL     1      -2.669  -3.441  -0.312  1.00  0.00     0.027 A 
HETATM    5  C2  UNL     1      -3.375  -2.401   0.188  1.00  0.00     0.013 A 
HETATM    6  C1  UNL     1      -4.736  -2.568   0.779  1.00  0.00     0.068 C 
HETATM    7  N2  UNL     1      -2.666  -1.208   0.076  1.00  0.00    -0.311 N 
BRANCH   7   8
HETATM    8  C20 UNL     1      -3.218   0.027   0.510  1.00  0.00     0.098 C 
BRANCH   8   9
HETATM    9  C21 UNL     1      -3.925   0.772  -0.555  1.00  0.00     0.223 C 
HETATM   10  O2  UNL     1      -3.730   1.946  -0.855  1.00  0.00    -0.643 OA
HETATM   11  O3  UNL     1      -4.888   0.079  -1.266  1.00  0.00    -0.643 OA
ENDBRANCH   8   9
BRANCH   8  12
HETATM   12  C22 UNL     1      -2.485   0.848   1.511  1.00  0.00     0.043 A 
HETATM   13  C23 UNL     1      -3.270   2.139   1.927  1.00  0.00     0.011 A 
HETATM   14  C24 UNL     1      -1.962   2.214   1.306  1.00  0.00     0.011 A 
ENDBRANCH   8  12
ENDBRANCH   7   8
ENDBRANCH   1   2
BRANCH   1  15
HETATM   15  C7  UNL     1      -0.680   0.408  -1.896  1.00  0.00     0.035 A 
HETATM   16  C8  UNL     1      -1.156  -0.267  -3.226  1.00  0.00     0.011 A 
HETATM   17  C9  UNL     1       0.106   0.417  -3.252  1.00  0.00     0.011 A 
ENDBRANCH   1  15
BRANCH   1  18
HETATM   18  N1  UNL     1       0.411  -0.249   0.263  1.00  0.00    -0.157 NA
BRANCH  18  19
HETATM   19  O1  UNL     1       0.406  -1.347   1.067  1.00  0.00    -0.307 OA
ATOM     20  H1  UNL     1       0.924  -1.109   1.827  1.00  0.00     0.237 HD
ENDBRANCH  18  19
BRANCH  18  21
HETATM   21  C10 UNL     1       1.737   0.203   0.177  1.00  0.00     0.044 C 
HETATM   22  C11 UNL     1       2.689  -0.792  -0.452  1.00  0.00     0.032 C 
HETATM   23  C12 UNL     1       4.121  -0.394  -0.274  1.00  0.00    -0.012 C 
HETATM   24  C13 UNL     1       4.538  -0.357   1.179  1.00  0.00     0.009 C 
HETATM   25  C17 UNL     1       4.286   0.962  -0.909  1.00  0.00     0.009 C 
HETATM   26  C14 UNL     1       3.593   0.651   1.839  1.00  0.00    -0.012 C 
HETATM   27  C15 UNL     1       3.897   1.999   1.258  1.00  0.00     0.009 C 
HETATM   28  C19 UNL     1       2.207   0.166   1.672  1.00  0.00     0.032 C 
HETATM   29  C16 UNL     1       3.444   1.962  -0.190  1.00  0.00    -0.012 C 
HETATM   30  C18 UNL     1       1.971   1.627  -0.175  1.00  0.00     0.032 C 
ENDBRANCH  18  21
ENDBRANCH   1  18
TORSDOF 8
