REMARK  7 active torsions:
REMARK  status: ('A' for Active; 'I' for Inactive)
REMARK    1  A    between atoms: O1_2  and  C2_3 
REMARK    2  A    between atoms: C2_3  and  O2_4 
REMARK    3  A    between atoms: C5_7  and  O3_8 
REMARK    4  A    between atoms: O3_8  and  C6_9 
REMARK    5  A    between atoms: C15_20  and  O5_21 
REMARK    6  A    between atoms: C17_24  and  O6_26 
REMARK    7  A    between atoms: C20_29  and  O7_30 
ROOT
HETATM    1  C2  UNL     1      -2.994   1.537  -0.147  1.00  0.00     0.171 C 
HETATM    2  C4  UNL     1      -3.136   0.289  -0.951  1.00  0.00     0.102 C 
HETATM    3  C5  UNL     1      -2.176  -0.751  -0.403  1.00  0.00     0.145 C 
HETATM    4  C8  UNL     1      -0.763  -0.208  -0.666  1.00  0.00     0.065 C 
HETATM    5  C9  UNL     1       0.295  -1.250  -0.608  1.00  0.00     0.075 C 
HETATM    6 BR1  UNL     1       0.815  -1.573  -2.473  1.00  0.00    -0.090 Br
HETATM    7  C10 UNL     1       1.439  -1.056   0.317  1.00  0.00     0.042 C 
HETATM    8  C11 UNL     1       1.579   0.265   0.961  1.00  0.00     0.019 C 
HETATM    9  C12 UNL     1       2.886   0.779   1.307  1.00  0.00    -0.017 C 
HETATM   10  C13 UNL     1       4.123   0.750   0.792  1.00  0.00    -0.059 C 
HETATM   11  C14 UNL     1       5.210   1.454   1.527  1.00  0.00     0.046 C 
HETATM   12  C15 UNL     1       4.554   0.097  -0.433  1.00  0.00     0.149 C 
HETATM   13  C16 UNL     1       3.462  -0.677  -1.135  1.00  0.00     0.074 C 
HETATM   14  C17 UNL     1       2.775  -1.604  -0.221  1.00  0.00     0.062 C 
HETATM   15  C18 UNL     1       2.632  -3.018  -0.709  1.00  0.00     0.046 C 
HETATM   16  C19 UNL     1       0.812   1.380   0.221  1.00  0.00     0.048 C 
HETATM   17  C20 UNL     1      -0.611   0.932   0.286  1.00  0.00     0.074 C 
HETATM   18  C21 UNL     1      -1.553   2.037  -0.146  1.00  0.00     0.079 C 
HETATM   19  C22 UNL     1      -1.476   3.192   0.819  1.00  0.00     0.019 C 
ENDROOT
BRANCH   1  20
HETATM   20  O1  UNL     1      -3.369   1.280   1.167  1.00  0.00    -0.359 OA
HETATM   21  C1  UNL     1      -4.664   0.839   1.332  1.00  0.00     0.205 C 
ENDBRANCH   1  20
BRANCH   1  22
HETATM   22  O2  UNL     1      -3.831   2.507  -0.628  1.00  0.00    -0.359 OA
HETATM   23  C3  UNL     1      -3.629   2.910  -1.919  1.00  0.00     0.205 C 
ENDBRANCH   1  22
BRANCH   3  24
HETATM   24  O3  UNL     1      -2.398  -2.012  -0.947  1.00  0.00    -0.316 OA
BRANCH  24  25
HETATM   25  C6  UNL     1      -2.775  -3.079  -0.124  1.00  0.00     0.255 C 
HETATM   26  C7  UNL     1      -3.026  -4.445  -0.636  1.00  0.00     0.126 C 
HETATM   27  O4  UNL     1      -2.903  -2.861   1.102  1.00  0.00    -0.266 OA
ENDBRANCH  24  25
ENDBRANCH   3  24
BRANCH  17  28
HETATM   28  O7  UNL     1      -0.992   0.494   1.552  1.00  0.00    -0.389 OA
ATOM     29  H7  UNL     1      -0.895   1.219   2.158  1.00  0.00     0.210 HD
ENDBRANCH  17  28
BRANCH  14  30
HETATM   30  O6  UNL     1       3.586  -1.712   0.947  1.00  0.00    -0.390 OA
ATOM     31  H6  UNL     1       4.410  -2.050   0.615  1.00  0.00     0.210 HD
ENDBRANCH  14  30
BRANCH  12  32
HETATM   32  O5  UNL     1       5.597  -0.799  -0.105  1.00  0.00    -0.391 OA
ATOM     33  H5  UNL     1       5.879  -1.226  -0.906  1.00  0.00     0.210 HD
ENDBRANCH  12  32
TORSDOF 7
