REMARK  8 active torsions:
REMARK  status: ('A' for Active; 'I' for Inactive)
REMARK    1  A    between atoms: C2_2  and  O1_5 
REMARK    2  A    between atoms: O1_5  and  C5_6 
REMARK       I    between atoms: C5_6  and  N1_8 
REMARK    3  A    between atoms: N1_8  and  C6_10 
REMARK       I    between atoms: N2_14  and  C10_15 
REMARK    4  A    between atoms: C10_15  and  C11_17 
REMARK    5  A    between atoms: C11_17  and  O4_18 
REMARK    6  A    between atoms: O4_18  and  C12_19 
REMARK       I    between atoms: C12_19  and  N3_21 
REMARK    7  A    between atoms: C18_27  and  O6_28 
REMARK    8  A    between atoms: C22_35  and  O7_36 
ROOT
HETATM    1  O4  UNL     1       0.997  -0.192   0.761  1.00  0.00    -0.295 OA
ENDROOT
BRANCH   1   2
HETATM    2  C11 UNL     1      -0.390  -0.377   0.808  1.00  0.00     0.283 C 
BRANCH   2   3
HETATM    3  C10 UNL     1      -0.671  -1.727   0.280  1.00  0.00     0.244 C 
HETATM    4  N2  UNL     1      -1.993  -2.186   0.150  1.00  0.00    -0.348 N 
HETATM    5  C9  UNL     1      -2.302  -3.514  -0.391  1.00  0.00     0.126 C 
HETATM    6  C23 UNL     1      -3.124  -1.378   0.520  1.00  0.00     0.151 C 
HETATM    7  C8  UNL     1      -2.832  -3.240  -1.794  1.00  0.00     0.022 C 
HETATM    8  C7  UNL     1      -3.324  -1.798  -1.860  1.00  0.00     0.028 C 
HETATM    9  C6  UNL     1      -4.150  -1.586  -0.602  1.00  0.00     0.104 C 
HETATM   10  O3  UNL     1       0.255  -2.513  -0.076  1.00  0.00    -0.271 OA
BRANCH   9  11
HETATM   11  N1  UNL     1      -4.998  -0.432  -0.655  1.00  0.00    -0.331 N 
HETATM   12  C5  UNL     1      -6.412  -0.614  -0.650  1.00  0.00     0.361 C 
HETATM   13  O2  UNL     1      -6.952  -1.746  -0.610  1.00  0.00    -0.238 OA
ATOM     14  H1  UNL     1      -4.596   0.505  -0.696  1.00  0.00     0.165 HD
BRANCH  12  15
HETATM   15  O1  UNL     1      -7.226   0.499  -0.691  1.00  0.00    -0.294 OA
BRANCH  15  16
HETATM   16  C2  UNL     1      -8.649   0.350  -0.698  1.00  0.00     0.061 C 
HETATM   17  C1  UNL     1      -9.087  -0.426  -1.932  1.00  0.00     0.046 C 
HETATM   18  C3  UNL     1      -9.074  -0.419   0.531  1.00  0.00     0.046 C 
HETATM   19  C4  UNL     1      -9.256   1.727  -0.671  1.00  0.00     0.046 C 
ENDBRANCH  15  16
ENDBRANCH  12  15
ENDBRANCH   9  11
ENDBRANCH   2   3
ENDBRANCH   1   2
BRANCH   1  20
HETATM   20  C12 UNL     1       1.685   0.953   1.126  1.00  0.00     0.363 C 
HETATM   21  O5  UNL     1       1.005   1.933   1.541  1.00  0.00    -0.238 OA
HETATM   22  N3  UNL     1       3.086   0.979   1.021  1.00  0.00    -0.328 N 
HETATM   23  C13 UNL     1       3.823   2.171   1.377  1.00  0.00     0.129 C 
HETATM   24  C17 UNL     1       3.776  -0.214   0.556  1.00  0.00     0.129 C 
HETATM   25  C14 UNL     1       5.027   2.219   0.455  1.00  0.00     0.035 C 
HETATM   26  C15 UNL     1       5.940   1.035   0.593  1.00  0.00     0.020 C 
HETATM   27  C16 UNL     1       5.211  -0.218   1.053  1.00  0.00     0.035 C 
HETATM   28  C18 UNL     1       6.995   1.354   1.608  1.00  0.00     0.129 C 
HETATM   29  C22 UNL     1       6.497   0.706  -0.776  1.00  0.00     0.201 C 
HETATM   30  C19 UNL     1       8.043   2.305   1.081  1.00  0.00     0.038 C 
HETATM   31  C20 UNL     1       8.681   1.754  -0.156  1.00  0.00     0.084 C 
HETATM   32  C21 UNL     1       7.621   1.575  -1.217  1.00  0.00     0.270 C 
HETATM   33  F1  UNL     1       8.244   0.938  -2.289  1.00  0.00    -0.203 F 
HETATM   34  F2  UNL     1       7.209   2.811  -1.681  1.00  0.00    -0.203 F 
BRANCH  28  35
HETATM   35  O6  UNL     1       7.612   0.216   2.076  1.00  0.00    -0.395 OA
ATOM     36  H6  UNL     1       8.281   0.418   2.720  1.00  0.00     0.210 HD
ENDBRANCH  28  35
BRANCH  29  37
HETATM   37  O7  UNL     1       6.871  -0.629  -0.851  1.00  0.00    -0.389 OA
ATOM     38  H7  UNL     1       7.220  -0.835  -1.710  1.00  0.00     0.210 HD
ENDBRANCH  29  37
ENDBRANCH   1  20
TORSDOF 8
