REMARK  6 active torsions:
REMARK  status: ('A' for Active; 'I' for Inactive)
REMARK    1  A    between atoms: O1_2  and  C2_3 
REMARK    2  A    between atoms: C9_11  and  C10_12 
REMARK    3  A    between atoms: C13_17  and  C14_18 
REMARK    4  A    between atoms: C17_22  and  O5_23 
REMARK    5  A    between atoms: O5_23  and  C18_24 
REMARK    6  A    between atoms: C20_27  and  O7_28 
ROOT
HETATM    1  C2  UNL     1      -1.819   1.236   0.886  1.00  0.00     0.136 C 
HETATM    2  C3  UNL     1      -2.996   0.580   1.581  1.00  0.00     0.034 C 
HETATM    3  C4  UNL     1      -4.124   0.360   0.566  1.00  0.00     0.014 C 
HETATM    4  C5  UNL     1      -3.419  -0.236  -0.629  1.00  0.00    -0.020 C 
HETATM    5  C6  UNL     1      -3.745   0.462  -1.903  1.00  0.00     0.017 C 
HETATM    6  C7  UNL     1      -4.187  -1.579  -0.811  1.00  0.00     0.017 C 
HETATM    7  C8  UNL     1      -2.017  -0.665  -0.388  1.00  0.00     0.146 C 
HETATM    8  O2  UNL     1      -1.535  -1.409  -1.355  1.00  0.00    -0.367 OA
HETATM    9  C9  UNL     1      -0.327  -2.081  -1.193  1.00  0.00     0.232 C 
HETATM   10  C11 UNL     1       0.702  -1.458  -0.318  1.00  0.00     0.014 C 
HETATM   11  C12 UNL     1       1.252  -2.590   0.571  1.00  0.00     0.020 C 
HETATM   12  C13 UNL     1       1.852  -1.093  -1.186  1.00  0.00     0.004 C 
HETATM   13  C15 UNL     1       3.090  -0.591  -0.517  1.00  0.00     0.021 C 
HETATM   14  C16 UNL     1       2.645   0.811  -0.847  1.00  0.00     0.027 C 
HETATM   15  C17 UNL     1       2.150   1.351   0.451  1.00  0.00     0.166 C 
HETATM   16  C20 UNL     1       1.244   0.502   1.201  1.00  0.00     0.158 C 
HETATM   17  C21 UNL     1       0.203  -0.384   0.635  1.00  0.00     0.011 C 
HETATM   18  C22 UNL     1      -0.290  -0.988   1.958  1.00  0.00     0.020 C 
HETATM   19  C23 UNL     1      -0.985   0.365   0.040  1.00  0.00     0.041 C 
HETATM   20  C24 UNL     1      -0.484   1.231  -1.070  1.00  0.00    -0.015 C 
HETATM   21  C25 UNL     1       0.419   0.802  -2.099  1.00  0.00    -0.024 C 
HETATM   22  C26 UNL     1       1.747   0.237  -1.846  1.00  0.00     0.026 C 
ENDROOT
BRANCH  15  23
HETATM   23  O5  UNL     1       3.387   1.471   1.204  1.00  0.00    -0.313 OA
BRANCH  23  24
HETATM   24  C18 UNL     1       3.974   2.630   1.583  1.00  0.00     0.255 C 
HETATM   25  C19 UNL     1       5.239   2.735   2.352  1.00  0.00     0.126 C 
HETATM   26  O6  UNL     1       3.399   3.717   1.256  1.00  0.00    -0.266 OA
ENDBRANCH  23  24
ENDBRANCH  15  23
BRANCH  16  27
HETATM   27  O7  UNL     1       1.959  -0.065   2.294  1.00  0.00    -0.392 OA
ATOM     28  H7  UNL     1       1.366  -0.621   2.785  1.00  0.00     0.210 HD
ENDBRANCH  16  27
BRANCH  12  29
HETATM   29  C14 UNL     1       2.329  -2.152  -2.153  1.00  0.00     0.233 C 
HETATM   30  F1  UNL     1       3.429  -1.655  -2.900  1.00  0.00    -0.255 F 
ENDBRANCH  12  29
BRANCH   9  31
HETATM   31  C10 UNL     1      -0.548  -3.543  -1.086  1.00  0.00     0.204 C 
HETATM   32  O3  UNL     1      -1.707  -4.086  -1.019  1.00  0.00    -0.646 OA
HETATM   33  O4  UNL     1       0.393  -4.547  -1.046  1.00  0.00    -0.646 OA
ENDBRANCH   9  31
BRANCH   1  34
HETATM   34  O1  UNL     1      -1.306   2.283   1.569  1.00  0.00    -0.390 OA
HETATM   35  C1  UNL     1      -1.646   3.544   1.296  1.00  0.00     0.202 C 
ENDBRANCH   1  34
TORSDOF 6
