REMARK  11 active torsions:
REMARK  status: ('A' for Active; 'I' for Inactive)
REMARK       I    between atoms: C2_2  and  N1_4 
REMARK    1  A    between atoms: N1_4  and  C3_6 
REMARK    2  A    between atoms: C3_6  and  C4_7 
REMARK    3  A    between atoms: C3_6  and  C10_19 
REMARK    4  A    between atoms: C4_7  and  C5_8 
REMARK    5  A    between atoms: C5_8  and  C6_9 
REMARK    6  A    between atoms: C6_9  and  C7_10 
REMARK    7  A    between atoms: C7_10  and  C8_11 
REMARK    8  A    between atoms: C8_11  and  C9_12 
REMARK    9  A    between atoms: C9_12  and  O2_13 
REMARK   10  A    between atoms: N2_15  and  O3_17 
REMARK   11  A    between atoms: N3_26  and  C16_27 
ROOT
HETATM    1  C10 UNL     1       1.707  -0.916  -1.679  1.00  0.00     0.041 C 
HETATM    2  C11 UNL     1       0.704  -1.908  -2.234  1.00  0.00     0.011 C 
HETATM    3  C12 UNL     1      -0.517  -1.197  -2.795  1.00  0.00     0.001 C 
HETATM    4  C13 UNL     1      -1.755  -1.578  -2.024  1.00  0.00     0.009 C 
HETATM    5  C14 UNL     1      -2.729  -0.396  -1.942  1.00  0.00     0.103 C 
HETATM    6  C15 UNL     1      -3.811  -0.618  -0.958  1.00  0.00     0.220 C 
HETATM    7  O4  UNL     1      -4.563  -1.622  -1.246  1.00  0.00    -0.273 OA
HETATM    8  N3  UNL     1      -4.068   0.149   0.212  1.00  0.00    -0.346 N 
HETATM    9  C22 UNL     1      -3.043   0.477   1.209  1.00  0.00     0.142 C 
HETATM   10  C23 UNL     1      -2.546   1.877   1.159  1.00  0.00     0.080 C 
HETATM   11 BR1  UNL     1      -3.579   3.115   2.229  1.00  0.00    -0.089 Br
HETATM   12  C24 UNL     1      -1.092   1.892   1.662  1.00  0.00     0.056 C 
HETATM   13  C25 UNL     1      -0.153   1.534   0.569  1.00  0.00    -0.057 A 
HETATM   14  C26 UNL     1       0.216   2.702  -0.138  1.00  0.00     0.007 A 
HETATM   15  C27 UNL     1       1.025   2.693  -1.245  1.00  0.00     0.001 A 
HETATM   16  C28 UNL     1       1.462   1.459  -1.633  1.00  0.00     0.007 A 
HETATM   17  C29 UNL     1       1.120   0.257  -0.958  1.00  0.00    -0.051 A 
HETATM   18  C30 UNL     1       0.307   0.294   0.155  1.00  0.00     0.014 A 
ENDROOT
BRANCH   1  19
HETATM   19  C3  UNL     1       2.818  -1.633  -1.003  1.00  0.00     0.092 C 
BRANCH  19  20
HETATM   20  N1  UNL     1       2.427  -2.478   0.106  1.00  0.00    -0.356 N 
HETATM   21  C2  UNL     1       2.660  -3.875   0.128  1.00  0.00     0.213 C 
HETATM   22  C1  UNL     1       2.248  -4.691   1.268  1.00  0.00     0.117 C 
HETATM   23  O1  UNL     1       3.230  -4.416  -0.849  1.00  0.00    -0.274 OA
ATOM     24  H1  UNL     1       1.963  -2.048   0.907  1.00  0.00     0.162 HD
ENDBRANCH  19  20
BRANCH  19  25
HETATM   25  C4  UNL     1       3.874  -0.702  -0.444  1.00  0.00     0.026 C 
BRANCH  25  26
HETATM   26  C5  UNL     1       5.033  -1.526   0.070  1.00  0.00     0.002 C 
BRANCH  26  27
HETATM   27  C6  UNL     1       6.126  -0.608   0.642  1.00  0.00     0.001 C 
BRANCH  27  28
HETATM   28  C7  UNL     1       5.582   0.215   1.769  1.00  0.00     0.008 C 
BRANCH  28  29
HETATM   29  C8  UNL     1       6.580   1.114   2.424  1.00  0.00     0.086 C 
BRANCH  29  30
HETATM   30  C9  UNL     1       7.145   2.078   1.486  1.00  0.00     0.135 C 
HETATM   31  N2  UNL     1       6.812   3.328   1.557  1.00  0.00    -0.251 N 
ATOM     32  H2  UNL     1       6.153   3.642   2.270  1.00  0.00     0.196 HD
BRANCH  30  33
HETATM   33  O2  UNL     1       8.038   1.675   0.514  1.00  0.00    -0.348 OA
ATOM     34  H2  UNL     1       8.406   2.303  -0.097  1.00  0.00     0.219 HD
ENDBRANCH  30  33
BRANCH  31  35
HETATM   35  O3  UNL     1       7.342   4.220   0.681  1.00  0.00    -0.288 OA
ATOM     36  H3  UNL     1       7.098   5.137   0.733  1.00  0.00     0.244 HD
ENDBRANCH  31  35
ENDBRANCH  29  30
ENDBRANCH  28  29
ENDBRANCH  27  28
ENDBRANCH  26  27
ENDBRANCH  25  26
ENDBRANCH  19  25
ENDBRANCH   1  19
BRANCH   8  37
HETATM   37  C16 UNL     1      -5.412   0.615   0.442  1.00  0.00     0.087 C 
HETATM   38  C17 UNL     1      -6.290  -0.569   0.761  1.00  0.00     0.025 C 
HETATM   39  C18 UNL     1      -7.571   0.089   1.330  1.00  0.00     0.002 C 
HETATM   40  C19 UNL     1      -8.257   0.622   0.080  1.00  0.00     0.000 C 
HETATM   41  C20 UNL     1      -7.447   1.601  -0.681  1.00  0.00     0.002 C 
HETATM   42  C21 UNL     1      -5.979   1.535  -0.575  1.00  0.00     0.025 C 
ENDBRANCH   8  37
TORSDOF 11
