REMARK  14 active torsions:
REMARK  status: ('A' for Active; 'I' for Inactive)
REMARK    1  A    between atoms: C4_4  and  C5_5 
REMARK    2  A    between atoms: C10_10  and  C11_11 
REMARK    3  A    between atoms: C11_11  and  C12_12 
REMARK    4  A    between atoms: C12_12  and  C13_13 
REMARK    5  A    between atoms: C13_13  and  O1_14 
REMARK    6  A    between atoms: C13_13  and  C14_16 
REMARK    7  A    between atoms: C14_16  and  C15_17 
REMARK    8  A    between atoms: C15_17  and  C16_18 
REMARK    9  A    between atoms: C16_18  and  C17_19 
REMARK   10  A    between atoms: C18_20  and  C19_21 
REMARK   11  A    between atoms: C19_21  and  O2_22 
REMARK   12  A    between atoms: C19_21  and  C20_24 
REMARK   13  A    between atoms: C25_29  and  O3_30 
REMARK   14  A    between atoms: C35_41  and  C36_42 
REMARK       I    between atoms: C36_42  and  N1_44 
ROOT
HETATM    1  C14 UNL     1       0.108   0.601  -1.200  1.00  0.00     0.005 C 
ENDROOT
BRANCH   1   2
HETATM    2  C13 UNL     1      -0.401   1.010   0.085  1.00  0.00     0.151 C 
BRANCH   2   3
HETATM    3  C12 UNL     1      -1.529   0.229   0.735  1.00  0.00     0.116 C 
BRANCH   3   4
HETATM    4  C11 UNL     1      -2.076  -0.695   0.138  1.00  0.00    -0.171 C 
BRANCH   4   5
HETATM    5  C10 UNL     1      -2.717  -1.758  -0.529  1.00  0.00     0.086 C 
HETATM    6  C9  UNL     1      -3.891  -2.392   0.071  1.00  0.00    -0.052 C 
HETATM    7  C5  UNL     1      -5.025  -1.497  -0.078  1.00  0.00     0.031 C 
HETATM    8  C8  UNL     1      -4.228  -3.596   0.562  1.00  0.00    -0.021 C 
HETATM    9  C6  UNL     1      -6.158  -2.504  -0.269  1.00  0.00     0.027 C 
HETATM   10  C35 UNL     1      -4.677  -0.726  -1.412  1.00  0.00     0.006 C 
HETATM   11  C7  UNL     1      -5.699  -3.583   0.751  1.00  0.00     0.029 C 
HETATM   12  C34 UNL     1      -3.362  -1.210  -1.869  1.00  0.00     0.062 C 
BRANCH   7  13
HETATM   13  C4  UNL     1      -5.393  -0.500   0.884  1.00  0.00    -0.006 C 
HETATM   14  C2  UNL     1      -6.093  -0.181   1.909  1.00  0.00    -0.090 C 
HETATM   15  C1  UNL     1      -5.820   1.337   2.296  1.00  0.00     0.042 C 
HETATM   16  C3  UNL     1      -7.091  -0.766   2.796  1.00  0.00     0.042 C 
ENDBRANCH   7  13
BRANCH  10  17
HETATM   17  C36 UNL     1      -5.775  -0.521  -2.275  1.00  0.00     0.246 C 
HETATM   18  O4  UNL     1      -6.536  -1.290  -2.775  1.00  0.00    -0.268 OA
HETATM   19  N1  UNL     1      -6.028   0.920  -2.644  1.00  0.00    -0.357 N 
HETATM   20  C37 UNL     1      -5.149   1.957  -2.191  1.00  0.00     0.152 C 
HETATM   21  C38 UNL     1      -7.204   1.134  -3.445  1.00  0.00     0.152 C 
ENDBRANCH  10  17
ENDBRANCH   4   5
ENDBRANCH   3   4
ENDBRANCH   2   3
BRANCH   2  22
HETATM   22  O1  UNL     1      -0.841   2.372   0.032  1.00  0.00    -0.391 OA
ATOM     23  H1  UNL     1      -0.135   2.861  -0.375  1.00  0.00     0.210 HD
ENDBRANCH   2  22
ENDBRANCH   1   2
BRANCH   1  24
HETATM   24  C15 UNL     1       1.419   0.104  -1.289  1.00  0.00    -0.005 C 
BRANCH  24  25
HETATM   25  C16 UNL     1       2.216  -0.019  -0.162  1.00  0.00    -0.017 C 
BRANCH  25  26
HETATM   26  C17 UNL     1       3.352   0.491   0.490  1.00  0.00     0.045 C 
HETATM   27  C18 UNL     1       4.729   0.480   0.274  1.00  0.00    -0.033 C 
HETATM   28  C26 UNL     1       5.299  -0.512   1.336  1.00  0.00     0.027 C 
HETATM   29  C27 UNL     1       5.518   0.337   2.656  1.00  0.00     0.010 C 
HETATM   30  C30 UNL     1       4.080  -1.247   1.813  1.00  0.00    -0.025 A 
HETATM   31  C28 UNL     1       4.087   0.838   2.801  1.00  0.00     0.007 C 
HETATM   32  C29 UNL     1       3.241  -0.064   1.986  1.00  0.00     0.007 C 
HETATM   33  C31 UNL     1       4.130  -2.314   2.834  1.00  0.00     0.016 A 
HETATM   34  C32 UNL     1       3.716  -2.569   1.385  1.00  0.00    -0.008 A 
HETATM   35  C33 UNL     1       4.620  -3.409   0.582  1.00  0.00     0.011 C 
BRANCH  27  36
HETATM   36  C19 UNL     1       5.763   0.589  -0.739  1.00  0.00     0.082 C 
BRANCH  36  37
HETATM   37  O2  UNL     1       5.761  -0.258  -1.813  1.00  0.00    -0.359 OA
ATOM     38  H2  UNL     1       6.438  -0.187  -2.476  1.00  0.00     0.217 HD
ENDBRANCH  36  37
BRANCH  36  39
HETATM   39  C20 UNL     1       6.249   1.965  -1.041  1.00  0.00     0.030 A 
HETATM   40  C21 UNL     1       5.483   3.033  -1.304  1.00  0.00     0.017 A 
HETATM   41  C22 UNL     1       5.992   4.288  -1.591  1.00  0.00     0.001 A 
HETATM   42  C23 UNL     1       7.322   4.535  -1.637  1.00  0.00     0.003 A 
HETATM   43  C24 UNL     1       8.174   3.420  -1.383  1.00  0.00     0.037 A 
HETATM   44  C25 UNL     1       7.694   2.173  -1.097  1.00  0.00     0.078 A 
BRANCH  44  45
HETATM   45  O3  UNL     1       8.531   1.157  -0.846  1.00  0.00    -0.360 OA
ATOM     46  H3  UNL     1       9.471   1.292  -0.882  1.00  0.00     0.217 HD
ENDBRANCH  44  45
ENDBRANCH  36  39
ENDBRANCH  27  36
ENDBRANCH  25  26
ENDBRANCH  24  25
ENDBRANCH   1  24
TORSDOF 14
