REMARK  14 active torsions:
REMARK  status: ('A' for Active; 'I' for Inactive)
REMARK    1  A    between atoms: C2_2  and  C4_4 
REMARK    2  A    between atoms: C4_4  and  C5_5 
REMARK    3  A    between atoms: C5_5  and  C6_6 
REMARK    4  A    between atoms: C6_6  and  C7_7 
REMARK    5  A    between atoms: C7_7  and  C8_8 
REMARK    6  A    between atoms: C7_7  and  C15_17 
REMARK    7  A    between atoms: C8_8  and  C9_9 
REMARK    8  A    between atoms: C9_9  and  C10_10 
REMARK    9  A    between atoms: C10_10  and  C12_12 
REMARK   10  A    between atoms: C12_12  and  O1_15 
REMARK   11  A    between atoms: C26_29  and  O2_30 
REMARK   12  A    between atoms: C27_32  and  C29_34 
REMARK   13  A    between atoms: C30_35  and  C31_36 
REMARK   14  A    between atoms: C35_42  and  O5_43 
ROOT
HETATM    1  C15 UNL     1      -1.349   0.947   0.344  1.00  0.00     0.000 C 
HETATM    2  C16 UNL     1      -0.735   1.595   1.583  1.00  0.00     0.027 C 
HETATM    3  C17 UNL     1       0.678   1.030   1.732  1.00  0.00     0.096 C 
HETATM    4 CL1  UNL     1       1.831   2.325   1.865  1.00  0.00    -0.124 Cl
HETATM    5  C18 UNL     1       0.848   0.017   0.679  1.00  0.00     0.004 C 
HETATM    6  C19 UNL     1       0.448  -1.326   1.263  1.00  0.00     0.022 C 
HETATM    7  C20 UNL     1       2.142  -0.200   0.071  1.00  0.00    -0.064 C 
HETATM    8  C21 UNL     1       2.294  -0.400  -1.224  1.00  0.00    -0.047 C 
HETATM    9  C22 UNL     1       1.154  -0.421  -2.190  1.00  0.00     0.038 C 
HETATM   10  C23 UNL     1      -0.180  -0.441  -1.467  1.00  0.00     0.015 C 
HETATM   11  C24 UNL     1      -0.147   0.515  -0.348  1.00  0.00    -0.027 C 
HETATM   12  C25 UNL     1       0.458   1.810  -0.930  1.00  0.00     0.016 C 
HETATM   13  C26 UNL     1       3.622  -0.640  -1.834  1.00  0.00     0.159 C 
HETATM   14  C27 UNL     1       4.789  -0.139  -1.061  1.00  0.00     0.004 C 
HETATM   15  C28 UNL     1       5.528   0.869  -1.916  1.00  0.00     0.022 C 
HETATM   16  C36 UNL     1       4.414   0.572   0.216  1.00  0.00     0.020 C 
HETATM   17  C37 UNL     1       3.367  -0.224   0.912  1.00  0.00     0.036 C 
ENDROOT
BRANCH   1  18
HETATM   18  C7  UNL     1      -2.505   0.126   0.689  1.00  0.00    -0.010 C 
BRANCH  18  19
HETATM   19  C6  UNL     1      -3.565   1.018   1.357  1.00  0.00     0.005 C 
BRANCH  19  20
HETATM   20  C5  UNL     1      -4.228   1.972   0.424  1.00  0.00     0.001 C 
BRANCH  20  21
HETATM   21  C4  UNL     1      -5.227   2.791   1.246  1.00  0.00     0.004 C 
BRANCH  21  22
HETATM   22  C2  UNL     1      -5.924   3.781   0.310  1.00  0.00    -0.023 C 
HETATM   23  C1  UNL     1      -6.655   3.036  -0.788  1.00  0.00     0.009 C 
HETATM   24  C3  UNL     1      -4.962   4.780  -0.252  1.00  0.00     0.009 C 
ENDBRANCH  21  22
ENDBRANCH  20  21
ENDBRANCH  19  20
ENDBRANCH  18  19
BRANCH  18  25
HETATM   25  C8  UNL     1      -3.209  -0.623  -0.366  1.00  0.00     0.005 C 
BRANCH  25  26
HETATM   26  C9  UNL     1      -4.329  -1.476   0.174  1.00  0.00     0.007 C 
BRANCH  26  27
HETATM   27  C10 UNL     1      -5.008  -2.265  -0.938  1.00  0.00     0.015 C 
HETATM   28  C11 UNL     1      -5.603  -1.389  -1.992  1.00  0.00     0.013 C 
BRANCH  27  29
HETATM   29  C12 UNL     1      -6.150  -3.021  -0.282  1.00  0.00     0.054 C 
HETATM   30  C13 UNL     1      -7.136  -2.073   0.367  1.00  0.00     0.045 C 
HETATM   31  C14 UNL     1      -5.691  -3.984   0.768  1.00  0.00     0.045 C 
BRANCH  29  32
HETATM   32  O1  UNL     1      -6.851  -3.693  -1.301  1.00  0.00    -0.390 OA
ATOM     33  H1  UNL     1      -7.565  -4.166  -0.891  1.00  0.00     0.210 HD
ENDBRANCH  29  32
ENDBRANCH  27  29
ENDBRANCH  26  27
ENDBRANCH  25  26
ENDBRANCH  18  25
ENDBRANCH   1  18
BRANCH  13  34
HETATM   34  O2  UNL     1       3.695  -0.265  -3.176  1.00  0.00    -0.390 OA
ATOM     35  H2  UNL     1       4.547  -0.419  -3.567  1.00  0.00     0.210 HD
ENDBRANCH  13  34
BRANCH  14  36
HETATM   36  C29 UNL     1       5.742  -1.221  -0.723  1.00  0.00    -0.015 C 
HETATM   37  C30 UNL     1       6.997  -0.920  -0.469  1.00  0.00    -0.002 C 
BRANCH  37  38
HETATM   38  C31 UNL     1       7.995  -1.931  -0.129  1.00  0.00     0.016 C 
HETATM   39  C32 UNL     1       9.250  -1.623   0.124  1.00  0.00     0.048 C 
HETATM   40  C33 UNL     1      10.299  -2.560   0.468  1.00  0.00     0.292 C 
HETATM   41  C35 UNL     1       9.885  -0.269   0.117  1.00  0.00     0.181 C 
HETATM   42  O3  UNL     1      10.165  -3.820   0.596  1.00  0.00    -0.260 OA
HETATM   43  O4  UNL     1      11.492  -1.834   0.636  1.00  0.00    -0.315 OA
HETATM   44  C34 UNL     1      11.119  -0.486   0.954  1.00  0.00     0.215 C 
BRANCH  41  45
HETATM   45  O5  UNL     1      10.196   0.116  -1.178  1.00  0.00    -0.389 OA
ATOM     46  H5  UNL     1      10.599   0.976  -1.182  1.00  0.00     0.210 HD
ENDBRANCH  41  45
ENDBRANCH  37  38
ENDBRANCH  14  36
TORSDOF 14
