REMARK  13 active torsions:
REMARK  status: ('A' for Active; 'I' for Inactive)
REMARK    1  A    between atoms: C4_4  and  C5_5 
REMARK    2  A    between atoms: C5_5  and  C6_6 
REMARK    3  A    between atoms: C6_6  and  C7_7 
REMARK    4  A    between atoms: C7_7  and  C8_8 
REMARK    5  A    between atoms: C7_7  and  C36_42 
REMARK    6  A    between atoms: C8_8  and  C9_9 
REMARK    7  A    between atoms: C9_9  and  C10_10 
REMARK    8  A    between atoms: C13_13  and  C15_15 
REMARK    9  A    between atoms: C15_15  and  C16_16 
REMARK   10  A    between atoms: C16_16  and  O1_17 
REMARK   11  A    between atoms: C29_32  and  O3_33 
REMARK   12  A    between atoms: C29_32  and  C30_35 
REMARK   13  A    between atoms: C36_42  and  C37_43 
ROOT
HETATM    1  C10 UNL     1       0.354   1.747  -0.172  1.00  0.00    -0.031 C 
HETATM    2  C11 UNL     1      -0.062   1.613  -1.684  1.00  0.00     0.016 C 
HETATM    3  C12 UNL     1       0.515   3.200   0.001  1.00  0.00     0.027 C 
HETATM    4  C13 UNL     1       0.343   3.924   1.244  1.00  0.00     0.024 C 
HETATM    5  C14 UNL     1       1.573   4.743   1.557  1.00  0.00     0.024 C 
HETATM    6  C17 UNL     1       0.113   2.901   2.291  1.00  0.00     0.164 C 
HETATM    7  O2  UNL     1       0.611   3.037   3.423  1.00  0.00    -0.292 OA
HETATM    8  C18 UNL     1      -0.718   1.719   1.972  1.00  0.00    -0.006 C 
HETATM    9  C19 UNL     1      -1.563   1.289   2.887  1.00  0.00    -0.015 C 
HETATM   10  C20 UNL     1      -2.446   0.088   2.608  1.00  0.00     0.033 C 
HETATM   11  C21 UNL     1      -2.986   0.422   1.256  1.00  0.00     0.003 C 
HETATM   12  C22 UNL     1      -1.983   0.749   0.195  1.00  0.00     0.004 C 
HETATM   13  C23 UNL     1      -2.176  -0.273  -0.890  1.00  0.00     0.012 C 
HETATM   14  C24 UNL     1      -3.647  -0.705  -0.736  1.00  0.00     0.005 C 
HETATM   15  C25 UNL     1      -3.986  -0.563   0.706  1.00  0.00    -0.035 C 
HETATM   16  C26 UNL     1      -5.417   0.042   0.789  1.00  0.00     0.016 C 
HETATM   17  C27 UNL     1      -4.056  -1.847   1.446  1.00  0.00     0.013 C 
HETATM   18  C28 UNL     1      -3.396  -3.025   0.795  1.00  0.00     0.040 C 
HETATM   19  C29 UNL     1      -4.020  -3.205  -0.557  1.00  0.00     0.077 C 
HETATM   20  C31 UNL     1      -3.991  -1.966  -1.411  1.00  0.00    -0.011 C 
HETATM   21  C32 UNL     1      -5.342  -1.793  -2.137  1.00  0.00     0.018 C 
HETATM   22  C33 UNL     1      -3.013  -2.223  -2.540  1.00  0.00     0.018 C 
HETATM   23  C34 UNL     1      -0.594   0.987   0.684  1.00  0.00    -0.002 C 
HETATM   24  C35 UNL     1      -0.074  -0.429   1.002  1.00  0.00     0.021 C 
ENDROOT
BRANCH   1  25
HETATM   25  C9  UNL     1       1.748   1.181  -0.337  1.00  0.00     0.011 C 
BRANCH  25  26
HETATM   26  C8  UNL     1       2.691   1.064   0.752  1.00  0.00     0.006 C 
BRANCH  26  27
HETATM   27  C7  UNL     1       4.054   0.431   0.389  1.00  0.00    -0.004 C 
BRANCH  27  28
HETATM   28  C6  UNL     1       3.899  -0.948  -0.137  1.00  0.00     0.009 C 
BRANCH  28  29
HETATM   29  C5  UNL     1       5.251  -1.532  -0.440  1.00  0.00     0.028 C 
BRANCH  29  30
HETATM   30  C4  UNL     1       5.171  -2.899  -0.980  1.00  0.00    -0.025 C 
HETATM   31  C2  UNL     1       5.725  -3.928  -0.395  1.00  0.00    -0.091 C 
HETATM   32  C1  UNL     1       5.588  -5.293  -1.025  1.00  0.00     0.042 C 
HETATM   33  C3  UNL     1       6.487  -3.791   0.876  1.00  0.00     0.042 C 
ENDBRANCH  29  30
ENDBRANCH  28  29
ENDBRANCH  27  28
BRANCH  27  34
HETATM   34  C36 UNL     1       4.966   1.339  -0.325  1.00  0.00     0.117 C 
BRANCH  34  35
HETATM   35  C37 UNL     1       4.724   1.674  -1.708  1.00  0.00     0.172 C 
HETATM   36  O4  UNL     1       4.754   2.902  -2.088  1.00  0.00    -0.648 OA
HETATM   37  O5  UNL     1       4.447   0.793  -2.738  1.00  0.00    -0.648 OA
ENDBRANCH  34  35
ENDBRANCH  27  34
ENDBRANCH  26  27
ENDBRANCH  25  26
ENDBRANCH   1  25
BRANCH   4  38
HETATM   38  C15 UNL     1      -0.790   4.933   1.267  1.00  0.00     0.043 C 
BRANCH  38  39
HETATM   39  C16 UNL     1      -0.683   6.006   0.266  1.00  0.00     0.165 C 
BRANCH  39  40
HETATM   40  O1  UNL     1       0.417   6.818   0.316  1.00  0.00    -0.401 OA
ATOM     41  H1  UNL     1       0.486   7.511  -0.330  1.00  0.00     0.209 HD
ENDBRANCH  39  40
ENDBRANCH  38  39
ENDBRANCH   4  38
BRANCH  19  42
HETATM   42  O3  UNL     1      -5.390  -3.476  -0.313  1.00  0.00    -0.388 OA
ATOM     43  H3  UNL     1      -5.785  -3.590  -1.169  1.00  0.00     0.210 HD
ENDBRANCH  19  42
BRANCH  19  44
HETATM   44  C30 UNL     1      -3.489  -4.436  -1.262  1.00  0.00     0.153 C 
HETATM   45 CL1  UNL     1      -3.896  -5.827  -0.202  1.00  0.00    -0.127 Cl
ENDBRANCH  19  44
TORSDOF 13
