REMARK  13 active torsions:
REMARK  status: ('A' for Active; 'I' for Inactive)
REMARK    1  A    between atoms: C2_2  and  C4_4 
REMARK    2  A    between atoms: C4_4  and  C6_6 
REMARK    3  A    between atoms: C6_6  and  O1_7 
REMARK    4  A    between atoms: C6_6  and  C7_9 
REMARK    5  A    between atoms: C7_9  and  C9_12 
REMARK    6  A    between atoms: C9_12  and  C10_14 
REMARK    7  A    between atoms: C10_14  and  C12_16 
REMARK    8  A    between atoms: C12_16  and  C13_17 
REMARK    9  A    between atoms: C13_17  and  C14_18 
REMARK   10  A    between atoms: C14_18  and  C15_19 
REMARK   11  A    between atoms: C15_19  and  C17_21 
REMARK   12  A    between atoms: C26_30  and  O2_31 
REMARK   13  A    between atoms: O2_31  and  S1_32 
ROOT
HETATM    1  C7  UNL     1      -6.246   0.242  -0.685  1.00  0.00     0.156 C 
HETATM    2  C8  UNL     1      -4.964   1.026  -0.810  1.00  0.00     0.069 C 
HETATM    3  N1  UNL     1      -3.984   1.683  -0.904  1.00  0.00    -0.197 NA
ENDROOT
BRANCH   1   4
HETATM    4  C6  UNL     1      -7.058   1.161   0.196  1.00  0.00     0.142 C 
BRANCH   4   5
HETATM    5  C4  UNL     1      -8.437   0.843   0.551  1.00  0.00     0.015 C 
HETATM    6  C5  UNL     1      -8.784   1.826   1.725  1.00  0.00     0.013 C 
BRANCH   5   7
HETATM    7  C2  UNL     1      -9.501   1.089  -0.468  1.00  0.00    -0.017 C 
HETATM    8  C1  UNL     1      -9.420   0.273  -1.723  1.00  0.00     0.010 C 
HETATM    9  C3  UNL     1      -9.682   2.553  -0.808  1.00  0.00     0.010 C 
ENDBRANCH   5   7
ENDBRANCH   4   5
BRANCH   4  10
HETATM   10  O1  UNL     1      -6.856   2.505  -0.154  1.00  0.00    -0.394 OA
ATOM     11  H1  UNL     1      -5.958   2.712  -0.385  1.00  0.00     0.210 HD
ENDBRANCH   4  10
ENDBRANCH   1   4
BRANCH   1  12
HETATM   12  C9  UNL     1      -5.960  -1.085  -0.064  1.00  0.00     0.194 C 
HETATM   13  F1  UNL     1      -7.150  -1.768   0.287  1.00  0.00    -0.248 F 
BRANCH  12  14
HETATM   14  C10 UNL     1      -5.206  -2.091  -0.862  1.00  0.00     0.017 C 
HETATM   15  C11 UNL     1      -5.177  -3.416   0.018  1.00  0.00     0.012 C 
BRANCH  14  16
HETATM   16  C12 UNL     1      -3.786  -1.805  -1.177  1.00  0.00     0.007 C 
BRANCH  16  17
HETATM   17  C13 UNL     1      -2.875  -1.693   0.037  1.00  0.00     0.001 C 
BRANCH  17  18
HETATM   18  C14 UNL     1      -1.513  -1.384  -0.478  1.00  0.00     0.005 C 
BRANCH  18  19
HETATM   19  C15 UNL     1      -0.453  -1.226   0.591  1.00  0.00    -0.014 C 
HETATM   20  C16 UNL     1      -0.350  -2.513   1.343  1.00  0.00     0.010 C 
BRANCH  19  21
HETATM   21  C17 UNL     1       0.812  -0.788  -0.100  1.00  0.00    -0.002 C 
HETATM   22  C18 UNL     1       0.479   0.525  -0.792  1.00  0.00     0.006 C 
HETATM   23  C19 UNL     1       1.570   1.501  -0.531  1.00  0.00     0.006 C 
HETATM   24  C20 UNL     1       2.639   0.741   0.193  1.00  0.00    -0.001 C 
HETATM   25  C21 UNL     1       3.676   0.338  -0.864  1.00  0.00    -0.001 C 
HETATM   26  C34 UNL     1       1.944  -0.450   0.810  1.00  0.00    -0.036 C 
HETATM   27  C22 UNL     1       4.145   1.580  -1.536  1.00  0.00     0.033 C 
HETATM   28  C31 UNL     1       4.690  -0.621  -0.394  1.00  0.00     0.003 C 
HETATM   29  C23 UNL     1       5.605   1.686  -1.735  1.00  0.00    -0.023 C 
HETATM   30  C24 UNL     1       6.499   0.863  -1.256  1.00  0.00    -0.072 C 
HETATM   31  C25 UNL     1       7.978   1.043  -1.503  1.00  0.00     0.068 C 
HETATM   32  C29 UNL     1       6.122  -0.289  -0.436  1.00  0.00    -0.017 C 
HETATM   33  C26 UNL     1       8.744   0.941  -0.208  1.00  0.00     0.149 C 
HETATM   34  C27 UNL     1       8.242  -0.106   0.732  1.00  0.00     0.035 C 
HETATM   35  C28 UNL     1       6.743  -0.046   0.931  1.00  0.00     0.016 C 
HETATM   36  C30 UNL     1       6.858  -1.506  -1.034  1.00  0.00     0.020 C 
HETATM   37  C32 UNL     1       4.330  -1.156   0.993  1.00  0.00     0.007 C 
HETATM   38  C33 UNL     1       2.876  -1.634   0.904  1.00  0.00     0.010 C 
HETATM   39  C35 UNL     1       1.495  -0.023   2.189  1.00  0.00     0.016 C 
BRANCH  33  40
HETATM   40  O2  UNL     1      10.070   0.648  -0.522  1.00  0.00    -0.251 OA
BRANCH  40  41
HETATM   41  S1  UNL     1      11.121   1.829   0.039  1.00  0.00     0.251 S 
HETATM   42  O3  UNL     1      11.550   1.473   1.438  1.00  0.00    -0.572 OA
HETATM   43  O4  UNL     1      12.271   1.920  -0.908  1.00  0.00    -0.572 OA
HETATM   44  O5  UNL     1      10.273   3.277   0.125  1.00  0.00    -0.572 OA
ENDBRANCH  40  41
ENDBRANCH  33  40
ENDBRANCH  19  21
ENDBRANCH  18  19
ENDBRANCH  17  18
ENDBRANCH  16  17
ENDBRANCH  14  16
ENDBRANCH  12  14
ENDBRANCH   1  12
TORSDOF 13
