REMARK  14 active torsions:
REMARK  status: ('A' for Active; 'I' for Inactive)
REMARK    1  A    between atoms: C4_4  and  C5_5 
REMARK    2  A    between atoms: C5_5  and  C6_6 
REMARK    3  A    between atoms: C6_6  and  C7_7 
REMARK    4  A    between atoms: C9_9  and  C10_10 
REMARK    5  A    between atoms: C10_10  and  C11_11 
REMARK    6  A    between atoms: C11_11  and  C12_12 
REMARK    7  A    between atoms: C16_17  and  O2_18 
REMARK    8  A    between atoms: C17_20  and  C18_21 
REMARK    9  A    between atoms: C18_21  and  C19_23 
REMARK   10  A    between atoms: C20_24  and  C21_25 
REMARK   11  A    between atoms: C30_35  and  C31_36 
REMARK   12  A    between atoms: C31_36  and  C32_37 
REMARK   13  A    between atoms: C35_40  and  O4_41 
REMARK   14  A    between atoms: C35_40  and  C36_43 
ROOT
HETATM    1  C12 UNL     1       0.667  -0.397   0.792  1.00  0.00    -0.033 C 
HETATM    2  C13 UNL     1       1.658  -0.321   1.934  1.00  0.00     0.016 C 
HETATM    3  C14 UNL     1       0.264   0.907   0.205  1.00  0.00     0.091 C 
HETATM    4  C15 UNL     1      -1.058   1.397   0.621  1.00  0.00     0.163 C 
HETATM    5  O1  UNL     1      -1.212   2.590   0.732  1.00  0.00    -0.295 OA
HETATM    6  C16 UNL     1      -2.211   0.502   0.910  1.00  0.00     0.136 C 
HETATM    7  C17 UNL     1      -3.342   1.221   1.540  1.00  0.00     0.102 C 
HETATM    8  C24 UNL     1      -4.492   0.266   1.779  1.00  0.00     0.016 C 
HETATM    9  C25 UNL     1      -4.087  -1.156   1.802  1.00  0.00     0.006 C 
HETATM   10  C26 UNL     1      -2.703  -1.366   2.428  1.00  0.00    -0.007 C 
HETATM   11  C27 UNL     1      -3.023  -1.063   3.915  1.00  0.00     0.011 C 
HETATM   12  C28 UNL     1      -1.620  -0.568   1.838  1.00  0.00     0.003 C 
HETATM   13  C29 UNL     1      -1.002   0.211   2.993  1.00  0.00     0.019 C 
HETATM   14  C30 UNL     1      -0.514  -1.341   1.138  1.00  0.00     0.006 C 
ENDROOT
BRANCH   1  15
HETATM   15  C11 UNL     1       1.534  -0.978  -0.334  1.00  0.00     0.013 C 
BRANCH  15  16
HETATM   16  C10 UNL     1       2.670   0.022  -0.595  1.00  0.00     0.028 C 
BRANCH  16  17
HETATM   17  C9  UNL     1       3.559  -0.526  -1.670  1.00  0.00    -0.024 C 
HETATM   18  C7  UNL     1       4.820  -0.810  -1.577  1.00  0.00    -0.087 C 
HETATM   19  C8  UNL     1       5.554  -1.349  -2.751  1.00  0.00     0.043 C 
BRANCH  18  20
HETATM   20  C6  UNL     1       5.581  -0.619  -0.333  1.00  0.00     0.037 C 
BRANCH  20  21
HETATM   21  C5  UNL     1       6.729   0.361  -0.505  1.00  0.00     0.031 C 
BRANCH  21  22
HETATM   22  C4  UNL     1       6.146   1.643  -0.924  1.00  0.00    -0.024 C 
HETATM   23  C2  UNL     1       6.292   2.740  -0.192  1.00  0.00    -0.091 C 
HETATM   24  C1  UNL     1       7.066   2.649   1.078  1.00  0.00     0.042 C 
HETATM   25  C3  UNL     1       5.693   4.050  -0.623  1.00  0.00     0.042 C 
ENDBRANCH  21  22
ENDBRANCH  20  21
ENDBRANCH  18  20
ENDBRANCH  16  17
ENDBRANCH  15  16
ENDBRANCH   1  15
BRANCH  14  26
HETATM   26  C31 UNL     1      -0.772  -2.096  -0.064  1.00  0.00     0.014 C 
BRANCH  26  27
HETATM   27  C32 UNL     1      -1.735  -3.170  -0.293  1.00  0.00     0.031 C 
HETATM   28  C33 UNL     1      -1.601  -4.459   0.517  1.00  0.00     0.011 C 
HETATM   29  C34 UNL     1      -0.647  -5.013  -0.500  1.00  0.00     0.050 C 
HETATM   30  C35 UNL     1      -1.283  -4.034  -1.496  1.00  0.00     0.149 C 
BRANCH  30  31
HETATM   31  O4  UNL     1      -0.295  -3.465  -2.266  1.00  0.00    -0.378 OA
ATOM     32  H4  UNL     1      -0.018  -3.995  -3.004  1.00  0.00     0.211 HD
ENDBRANCH  30  31
BRANCH  30  33
HETATM   33  C36 UNL     1      -2.363  -4.693  -2.215  1.00  0.00     0.209 C 
HETATM   34  O5  UNL     1      -3.324  -5.247  -1.629  1.00  0.00    -0.646 OA
HETATM   35  O6  UNL     1      -2.354  -4.723  -3.601  1.00  0.00    -0.646 OA
ENDBRANCH  30  33
ENDBRANCH  26  27
ENDBRANCH  14  26
BRANCH   6  36
HETATM   36  O2  UNL     1      -2.610  -0.033  -0.290  1.00  0.00    -0.380 OA
ATOM     37  H2  UNL     1      -3.346  -0.604  -0.105  1.00  0.00     0.211 HD
ENDBRANCH   6  36
BRANCH   7  38
HETATM   38  C18 UNL     1      -3.882   2.365   0.748  1.00  0.00     0.156 C 
HETATM   39  O3  UNL     1      -3.829   3.553   1.222  1.00  0.00    -0.293 OA
BRANCH  38  40
HETATM   40  C19 UNL     1      -4.479   2.226  -0.555  1.00  0.00     0.051 C 
HETATM   41  C20 UNL     1      -4.972   3.119  -1.351  1.00  0.00     0.005 C 
BRANCH  41  42
HETATM   42  C21 UNL     1      -5.090   4.544  -1.204  1.00  0.00     0.019 C 
HETATM   43  C22 UNL     1      -5.626   5.333  -2.125  1.00  0.00     0.008 C 
HETATM   44  C23 UNL     1      -6.169   4.835  -3.419  1.00  0.00     0.062 C 
HETATM   45 CL1  UNL     1      -5.709   7.048  -1.819  1.00  0.00    -0.089 Cl
ENDBRANCH  41  42
ENDBRANCH  38  40
ENDBRANCH   7  38
TORSDOF 14
