REMARK  13 active torsions:
REMARK  status: ('A' for Active; 'I' for Inactive)
REMARK    1  A    between atoms: C2_2  and  C4_4 
REMARK    2  A    between atoms: C5_5  and  O1_6 
REMARK    3  A    between atoms: C9_11  and  C10_12 
REMARK    4  A    between atoms: C11_13  and  C12_14 
REMARK    5  A    between atoms: C12_14  and  O2_27 
REMARK    6  A    between atoms: C13_15  and  C14_16 
REMARK    7  A    between atoms: C15_17  and  C16_18 
REMARK    8  A    between atoms: C18_20  and  C19_21 
REMARK    9  A    between atoms: C19_21  and  C20_22 
REMARK   10  A    between atoms: C21_23  and  C22_24 
REMARK   11  A    between atoms: C22_24  and  C23_25 
REMARK   12  A    between atoms: C29_33  and  O3_34 
REMARK   13  A    between atoms: C31_37  and  O4_38 
ROOT
HETATM    1  C4  UNL     1      -4.192   0.377  -2.350  1.00  0.00    -0.038 C 
HETATM    2  C5  UNL     1      -4.923   1.586  -1.819  1.00  0.00     0.149 C 
HETATM    3  C6  UNL     1      -5.046   1.740  -0.339  1.00  0.00     0.042 C 
HETATM    4  C7  UNL     1      -4.114   0.961   0.439  1.00  0.00    -0.000 C 
HETATM    5  C8  UNL     1      -2.957   0.310  -0.361  1.00  0.00     0.012 C 
HETATM    6  C9  UNL     1      -2.009  -0.114   0.659  1.00  0.00     0.033 C 
HETATM    7  C26 UNL     1      -2.259   0.267   2.138  1.00  0.00     0.101 C 
HETATM    8 CL1  UNL     1      -1.287   1.663   2.639  1.00  0.00    -0.123 Cl
HETATM    9  C27 UNL     1      -3.689   0.351   2.597  1.00  0.00     0.004 C 
HETATM   10  C28 UNL     1      -4.087   1.815   2.902  1.00  0.00     0.020 C 
HETATM   11  C29 UNL     1      -4.177  -0.388   3.751  1.00  0.00     0.130 C 
HETATM   12  C30 UNL     1      -5.658  -0.344   3.794  1.00  0.00     0.065 C 
HETATM   13  C31 UNL     1      -6.438  -0.202   2.484  1.00  0.00     0.129 C 
HETATM   14  C32 UNL     1      -5.675  -0.830   1.431  1.00  0.00    -0.013 C 
HETATM   15  C33 UNL     1      -5.591  -2.313   1.892  1.00  0.00     0.018 C 
HETATM   16  C34 UNL     1      -6.046  -0.974   0.015  1.00  0.00     0.013 C 
HETATM   17  C35 UNL     1      -4.868  -1.356  -0.793  1.00  0.00     0.015 C 
HETATM   18  C36 UNL     1      -3.763  -0.569  -1.260  1.00  0.00    -0.013 C 
HETATM   19  C37 UNL     1      -2.773  -1.573  -1.844  1.00  0.00     0.021 C 
HETATM   20  C38 UNL     1      -4.390  -0.138   1.346  1.00  0.00     0.013 C 
ENDROOT
BRANCH   6  21
HETATM   21  C10 UNL     1      -0.652   0.522   0.395  1.00  0.00    -0.017 C 
HETATM   22  C11 UNL     1       0.397  -0.125   0.049  1.00  0.00     0.033 C 
BRANCH  22  23
HETATM   23  C12 UNL     1       1.667   0.540  -0.192  1.00  0.00     0.067 C 
HETATM   24  C13 UNL     1       2.751  -0.151  -0.556  1.00  0.00     0.037 C 
BRANCH  24  25
HETATM   25  C14 UNL     1       4.031   0.475  -0.808  1.00  0.00     0.003 C 
HETATM   26  C15 UNL     1       5.107  -0.186  -1.160  1.00  0.00     0.006 C 
BRANCH  26  27
HETATM   27  C16 UNL     1       6.406   0.383  -1.425  1.00  0.00    -0.066 C 
HETATM   28  C17 UNL     1       6.716   1.839  -1.332  1.00  0.00     0.048 C 
HETATM   29  C18 UNL     1       7.427  -0.393  -1.775  1.00  0.00    -0.016 C 
BRANCH  29  30
HETATM   30  C19 UNL     1       8.782   0.089  -2.065  1.00  0.00     0.054 C 
BRANCH  30  31
HETATM   31  C20 UNL     1       9.807  -0.477  -1.153  1.00  0.00    -0.027 C 
HETATM   32  C21 UNL     1      10.566   0.288  -0.375  1.00  0.00    -0.030 C 
BRANCH  32  33
HETATM   33  C22 UNL     1      11.590  -0.235   0.540  1.00  0.00     0.026 C 
BRANCH  33  34
HETATM   34  C23 UNL     1      11.625  -1.732   0.441  1.00  0.00    -0.001 C 
HETATM   35  C24 UNL     1      12.672  -2.318   1.374  1.00  0.00     0.005 C 
ENDBRANCH  33  34
ENDBRANCH  32  33
ENDBRANCH  30  31
ENDBRANCH  29  30
ENDBRANCH  26  27
ENDBRANCH  24  25
BRANCH  23  36
HETATM   36  O2  UNL     1       1.844   1.910  -0.067  1.00  0.00    -0.356 OA
HETATM   37  C25 UNL     1       2.269   2.588   1.070  1.00  0.00     0.210 C 
ENDBRANCH  23  36
ENDBRANCH  22  23
ENDBRANCH   6  21
BRANCH   1  38
HETATM   38  C2  UNL     1      -4.614  -0.056  -3.653  1.00  0.00    -0.066 C 
HETATM   39  C1  UNL     1      -4.707  -1.220  -4.198  1.00  0.00     0.019 C 
HETATM   40  C3  UNL     1      -5.081   1.032  -4.672  1.00  0.00     0.047 C 
ENDBRANCH   1  38
BRANCH  11  41
HETATM   41  O3  UNL     1      -3.554  -1.580   4.083  1.00  0.00    -0.395 OA
ATOM     42  H3  UNL     1      -3.873  -2.063   4.837  1.00  0.00     0.210 HD
ENDBRANCH  11  41
BRANCH   2  43
HETATM   43  O1  UNL     1      -6.215   1.694  -2.357  1.00  0.00    -0.391 OA
ATOM     44  H1  UNL     1      -6.675   2.455  -2.023  1.00  0.00     0.210 HD
ENDBRANCH   2  43
BRANCH  13  45
HETATM   45  O4  UNL     1      -7.609  -0.988   2.689  1.00  0.00    -0.395 OA
ATOM     46  H4  UNL     1      -8.093  -0.900   1.876  1.00  0.00     0.210 HD
ENDBRANCH  13  45
TORSDOF 13
