REMARK  3 active torsions:
REMARK  status: ('A' for Active; 'I' for Inactive)
REMARK    1  A    between atoms: C2_2  and  C3_3 
REMARK    2  A    between atoms: C3_3  and  C4_4 
REMARK    3  A    between atoms: C7_8  and  C8_9 
ROOT
HETATM    1  C8  UNL     1      -1.338  -0.657  -0.306  1.00  0.00    -0.003 C 
HETATM    2  C9  UNL     1      -1.829  -1.043  -1.706  1.00  0.00     0.021 C 
HETATM    3  C10 UNL     1      -1.996  -1.696   0.573  1.00  0.00     0.089 C 
HETATM    4  C11 UNL     1      -3.470  -1.570   0.388  1.00  0.00     0.072 C 
HETATM    5  N1  UNL     1      -4.209  -2.573   0.076  1.00  0.00    -0.389 N 
ATOM      6  H11 UNL     1      -5.217  -2.487  -0.051  1.00  0.00     0.157 HD
ATOM      7  H12 UNL     1      -3.814  -3.503  -0.062  1.00  0.00     0.157 HD
HETATM    8  N2  UNL     1      -4.016  -0.285   0.578  1.00  0.00    -0.372 N 
ATOM      9  H2  UNL     1      -4.961  -0.197   0.952  1.00  0.00     0.161 HD
HETATM   10  C12 UNL     1      -3.280   0.899   0.260  1.00  0.00     0.025 C 
HETATM   11  C13 UNL     1      -4.094   1.596  -0.847  1.00  0.00     0.038 C 
HETATM   12  C14 UNL     1      -3.450   1.841   1.464  1.00  0.00     0.038 C 
HETATM   13  C15 UNL     1      -1.875   0.745  -0.139  1.00  0.00     0.044 C 
ENDROOT
BRANCH   1  14
HETATM   14  C7  UNL     1       0.111  -0.597  -0.129  1.00  0.00     0.013 A 
HETATM   15  C6  UNL     1       0.522  -0.234   1.172  1.00  0.00     0.125 A 
HETATM   16  C5  UNL     1       1.866  -0.150   1.445  1.00  0.00     0.052 A 
HETATM   17  F1  UNL     1      -0.346   0.038   2.167  1.00  0.00    -0.205 F 
HETATM   18  C4  UNL     1       2.820  -0.409   0.488  1.00  0.00    -0.029 A 
HETATM   19  C17 UNL     1       2.390  -0.759  -0.767  1.00  0.00     0.075 A 
HETATM   20  C16 UNL     1       1.028  -0.858  -1.094  1.00  0.00     0.068 A 
HETATM   21  N3  UNL     1       3.334  -1.034  -1.786  1.00  0.00    -0.100 NA
HETATM   22 CL1  UNL     1       0.593  -1.315  -2.724  1.00  0.00    -0.082 Cl
BRANCH  18  23
HETATM   23  C3  UNL     1       4.284  -0.320   0.767  1.00  0.00     0.040 C 
BRANCH  23  24
HETATM   24  C2  UNL     1       4.859   0.954   0.180  1.00  0.00     0.000 C 
HETATM   25  C1  UNL     1       6.334   1.079   0.444  1.00  0.00     0.005 C 
ENDBRANCH  23  24
ENDBRANCH  18  23
ENDBRANCH   1  14
TORSDOF 3
