REMARK  4 active torsions:
REMARK  status: ('A' for Active; 'I' for Inactive)
REMARK    1  A    between atoms: C2_2  and  C3_3 
REMARK    2  A    between atoms: C3_3  and  N1_4 
REMARK    3  A    between atoms: C3_3  and  C4_8 
REMARK    4  A    between atoms: C6_12  and  C7_13 
ROOT
HETATM    1  C4  UNL     1       2.459   0.004   0.003  1.00  0.00     0.056 A 
HETATM    2  C5  UNL     1       2.054  -1.104   0.718  1.00  0.00     0.116 A 
HETATM    3  N2  UNL     1       0.719  -1.196   0.587  1.00  0.00    -0.353 N 
ATOM      4  H2  UNL     1       0.141  -1.922   1.011  1.00  0.00     0.166 HD
HETATM    5  C6  UNL     1       0.252  -0.191  -0.185  1.00  0.00     0.090 A 
HETATM    6  N4  UNL     1       1.339   0.525  -0.526  1.00  0.00    -0.346 N 
ATOM      7  H4  UNL     1       1.316   1.359  -1.113  1.00  0.00     0.167 HD
ENDROOT
BRANCH   5   8
HETATM    8  C7  UNL     1      -1.164   0.019  -0.562  1.00  0.00     0.090 C 
HETATM    9  C8  UNL     1      -1.782  -1.327  -0.882  1.00  0.00     0.019 C 
HETATM   10  C9  UNL     1      -3.262  -1.299  -0.997  1.00  0.00     0.033 C 
HETATM   11  C10 UNL     1      -3.867   0.065  -0.998  1.00  0.00     0.076 C 
HETATM   12  C11 UNL     1      -5.379  -0.100  -0.856  1.00  0.00     0.039 C 
HETATM   13 CL1  UNL     1      -3.595   0.945  -2.496  1.00  0.00    -0.113 Cl
HETATM   14  C12 UNL     1      -3.346   0.776   0.207  1.00  0.00     0.041 A 
HETATM   15  N3  UNL     1      -3.913   1.481   1.199  1.00  0.00    -0.365 N 
HETATM   16  C15 UNL     1      -1.970   0.753   0.429  1.00  0.00     0.001 A 
HETATM   17  C13 UNL     1      -2.952   1.901   2.034  1.00  0.00     0.112 A 
ATOM     18  H3  UNL     1      -4.911   1.667   1.301  1.00  0.00     0.165 HD
HETATM   19  C14 UNL     1      -1.720   1.463   1.581  1.00  0.00     0.058 A 
HETATM   20 CL2  UNL     1      -0.148   1.731   2.293  1.00  0.00    -0.082 Cl
ENDBRANCH   5   8
BRANCH   1  21
HETATM   21  C3  UNL     1       3.854   0.498  -0.138  1.00  0.00     0.234 C 
BRANCH  21  22
HETATM   22  C2  UNL     1       4.814  -0.584   0.300  1.00  0.00     0.035 C 
HETATM   23  C1  UNL     1       6.247  -0.134   0.141  1.00  0.00     0.007 C 
ENDBRANCH  21  22
BRANCH  21  24
HETATM   24  N1  UNL     1       4.080   0.828  -1.535  1.00  0.00    -0.070 N 
ATOM     25  H13 UNL     1       5.051   1.083  -1.715  1.00  0.00     0.275 HD
ATOM     26  H12 UNL     1       4.028   0.005  -2.135  1.00  0.00     0.275 HD
ATOM     27  H11 UNL     1       3.432   1.558  -1.831  1.00  0.00     0.275 HD
ENDBRANCH  21  24
ENDBRANCH   1  21
TORSDOF 4
