REMARK  6 active torsions:
REMARK  status: ('A' for Active; 'I' for Inactive)
REMARK    1  A    between atoms: N1_1  and  C1_5 
REMARK    2  A    between atoms: C1_5  and  C2_6 
REMARK    3  A    between atoms: C2_6  and  N2_7 
REMARK    4  A    between atoms: N2_7  and  C3_9 
REMARK    5  A    between atoms: C4_10  and  O1_11 
REMARK    6  A    between atoms: C5_13  and  C6_14 
ROOT
HETATM    1  C3  UNL     1       1.501   0.049  -0.396  1.00  0.00     0.076 A 
HETATM    2  C4  UNL     1       0.234   0.572  -0.257  1.00  0.00     0.116 A 
HETATM    3  C5  UNL     1      -0.888  -0.260  -0.151  1.00  0.00     0.049 A 
HETATM    4  N3  UNL     1      -0.712  -1.575  -0.186  1.00  0.00    -0.356 N 
ATOM      5  H3  UNL     1      -1.534  -2.173  -0.107  1.00  0.00     0.166 HD
HETATM    6  C12 UNL     1       0.488  -2.162  -0.319  1.00  0.00     0.048 A 
HETATM    7  C13 UNL     1       0.600  -3.559  -0.351  1.00  0.00     0.072 A 
HETATM    8  C14 UNL     1       1.842  -4.137  -0.490  1.00  0.00     0.118 A 
HETATM    9  F1  UNL     1       2.002  -5.492  -0.527  1.00  0.00    -0.206 F 
HETATM   10  C15 UNL     1       2.963  -3.357  -0.597  1.00  0.00     0.043 A 
HETATM   11  C16 UNL     1       2.823  -1.963  -0.563  1.00  0.00     0.019 A 
HETATM   12  C17 UNL     1       1.591  -1.370  -0.424  1.00  0.00     0.020 A 
ENDROOT
BRANCH   1  13
HETATM   13  N2  UNL     1       2.572   0.661  -0.499  1.00  0.00    -0.385 N 
ATOM     14  H2  UNL     1       3.322  -0.025  -0.587  1.00  0.00     0.159 HD
BRANCH  13  15
HETATM   15  C2  UNL     1       3.134   1.915  -0.540  1.00  0.00     0.147 C 
BRANCH  15  16
HETATM   16  C1  UNL     1       4.653   1.799  -0.728  1.00  0.00     0.249 C 
BRANCH  16  17
HETATM   17  N1  UNL     1       5.254   1.066   0.371  1.00  0.00    -0.078 N 
ATOM     18  H13 UNL     1       5.016   1.477   1.274  1.00  0.00     0.274 HD
ATOM     19  H12 UNL     1       4.819   0.152   0.498  1.00  0.00     0.274 HD
ATOM     20  H11 UNL     1       6.263   0.989   0.246  1.00  0.00     0.274 HD
ENDBRANCH  16  17
ENDBRANCH  15  16
ENDBRANCH  13  15
ENDBRANCH   1  13
BRANCH   2  21
HETATM   21  O1  UNL     1       0.061   1.933  -0.221  1.00  0.00    -0.357 OA
ATOM     22  H1  UNL     1      -0.813   2.294  -0.125  1.00  0.00     0.218 HD
ENDBRANCH   2  21
BRANCH   3  23
HETATM   23  C6  UNL     1      -2.203   0.403  -0.007  1.00  0.00     0.038 C 
HETATM   24  C7  UNL     1      -3.355  -0.557   0.008  1.00  0.00     0.011 C 
HETATM   25  C8  UNL     1      -4.627   0.247  -0.292  1.00  0.00     0.001 C 
HETATM   26  C9  UNL     1      -4.679   1.488   0.575  1.00  0.00     0.000 C 
HETATM   27  C10 UNL     1      -3.757   1.296   1.743  1.00  0.00     0.001 C 
HETATM   28  C11 UNL     1      -2.310   1.262   1.233  1.00  0.00     0.011 C 
ENDBRANCH   3  23
TORSDOF 6
