REMARK  14 active torsions:
REMARK  status: ('A' for Active; 'I' for Inactive)
REMARK       I    between atoms: C2_2  and  N1_4 
REMARK    1  A    between atoms: N1_4  and  C3_6 
REMARK    2  A    between atoms: C3_6  and  C4_7 
REMARK    3  A    between atoms: C3_6  and  C11_26 
REMARK    4  A    between atoms: C4_7  and  N2_8 
REMARK    5  A    between atoms: C5_9  and  C6_10 
REMARK    6  A    between atoms: C8_16  and  N4_17 
REMARK       I    between atoms: C11_26  and  N7_28 
REMARK    7  A    between atoms: N7_28  and  C12_30 
REMARK    8  A    between atoms: N11_37  and  C13_38 
REMARK    9  A    between atoms: C16_41  and  O5_42 
REMARK   10  A    between atoms: O5_42  and  S1_43 
REMARK   11  A    between atoms: C17_47  and  C18_48 
REMARK   12  A    between atoms: N14_53  and  C19_54 
REMARK   13  A    between atoms: C19_54  and  C20_55 
REMARK   14  A    between atoms: C20_55  and  O9_56 
ROOT
HETATM    1  C12 UNL     1      -0.264   2.849  -1.291  1.00  0.00     0.724 A 
HETATM    2  N8  UNL     1      -0.565   4.062  -1.915  1.00  0.00    -0.114 N 
ATOM      3  H8  UNL     1      -1.451   4.292  -2.366  1.00  0.00     0.207 HD
HETATM    4  N9  UNL     1       0.456   4.844  -1.830  1.00  0.00    -0.213 N 
ATOM      5  H9  UNL     1       0.501   5.792  -2.204  1.00  0.00     0.210 HD
HETATM    6  N10 UNL     1       1.420   4.244  -1.196  1.00  0.00    -0.206 N 
ATOM      7  H10 UNL     1       2.338   4.638  -0.993  1.00  0.00     0.211 HD
HETATM    8  N11 UNL     1       0.996   3.011  -0.854  1.00  0.00    -0.069 N 
ENDROOT
BRANCH   1   9
HETATM    9  N7  UNL     1      -1.072   1.926  -1.206  1.00  0.00    -0.151 N 
HETATM   10  C11 UNL     1      -1.473   0.708  -0.846  1.00  0.00     0.284 C 
HETATM   11  O4  UNL     1      -0.967  -0.304  -1.458  1.00  0.00    -0.265 OA
ATOM     12  H7  UNL     1      -1.896   2.305  -1.672  1.00  0.00     0.188 HD
BRANCH  10  13
HETATM   13  C3  UNL     1      -2.475   0.472   0.240  1.00  0.00     0.099 C 
BRANCH  13  14
HETATM   14  N1  UNL     1      -2.559  -0.888   0.704  1.00  0.00    -0.325 N 
HETATM   15  C2  UNL     1      -1.557  -1.467   1.574  1.00  0.00     0.218 C 
HETATM   16  C1  UNL     1      -1.700  -2.883   2.032  1.00  0.00     0.117 C 
HETATM   17  O1  UNL     1      -0.551  -0.841   1.977  1.00  0.00    -0.274 OA
ATOM     18  H1  UNL     1      -3.349  -1.462   0.411  1.00  0.00     0.169 HD
ENDBRANCH  13  14
BRANCH  13  19
HETATM   19  C4  UNL     1      -3.690   1.292   0.286  1.00  0.00     0.195 C 
BRANCH  19  20
HETATM   20  N2  UNL     1      -4.888   0.862  -0.346  1.00  0.00    -0.306 N 
HETATM   21  C5  UNL     1      -5.380   1.024  -1.543  1.00  0.00     0.188 A 
HETATM   22  N3  UNL     1      -6.598   0.367  -1.623  1.00  0.00    -0.331 N 
HETATM   23  C7  UNL     1      -6.825  -0.182  -0.463  1.00  0.00     0.123 A 
ATOM     24  H3  UNL     1      -7.206   0.322  -2.441  1.00  0.00     0.168 HD
HETATM   25  C8  UNL     1      -7.879  -0.951   0.064  1.00  0.00     0.131 A 
HETATM   26  C10 UNL     1      -5.796   0.095   0.365  1.00  0.00     0.141 A 
HETATM   27  N5  UNL     1      -7.843  -1.372   1.320  1.00  0.00    -0.337 N 
HETATM   28  C9  UNL     1      -6.807  -1.081   2.129  1.00  0.00     0.183 A 
ATOM     29  H5  UNL     1      -8.617  -1.929   1.682  1.00  0.00     0.168 HD
HETATM   30  N6  UNL     1      -5.801  -0.359   1.650  1.00  0.00    -0.336 N 
ATOM     31  H6  UNL     1      -5.013  -0.139   2.259  1.00  0.00     0.168 HD
BRANCH  21  32
HETATM   32  C6  UNL     1      -4.906   1.793  -2.712  1.00  0.00     0.245 C 
HETATM   33  O2  UNL     1      -5.599   1.716  -3.809  1.00  0.00    -0.642 OA
HETATM   34  O3  UNL     1      -3.819   2.592  -2.799  1.00  0.00    -0.642 OA
ENDBRANCH  21  32
BRANCH  25  35
HETATM   35  N4  UNL     1      -8.873  -1.242  -0.696  1.00  0.00    -0.383 N 
ATOM     36  H42 UNL     1      -8.901  -0.918  -1.663  1.00  0.00     0.157 HD
ATOM     37  H41 UNL     1      -9.637  -1.799  -0.314  1.00  0.00     0.157 HD
ENDBRANCH  25  35
ENDBRANCH  19  20
ENDBRANCH  13  19
ENDBRANCH  10  13
ENDBRANCH   1   9
BRANCH   8  38
HETATM   38  C13 UNL     1       1.814   2.092  -0.115  1.00  0.00     0.077 A 
HETATM   39  C14 UNL     1       1.635   1.974   1.245  1.00  0.00     0.035 A 
HETATM   40  C15 UNL     1       2.469   1.144   1.995  1.00  0.00     0.041 A 
HETATM   41  C16 UNL     1       3.459   0.460   1.326  1.00  0.00     0.106 A 
HETATM   42  C17 UNL     1       3.645   0.564  -0.015  1.00  0.00     0.048 A 
HETATM   43  C21 UNL     1       2.806   1.399  -0.768  1.00  0.00     0.050 A 
BRANCH  41  44
HETATM   44  O5  UNL     1       4.290  -0.367   2.110  1.00  0.00    -0.213 OA
BRANCH  44  45
HETATM   45  S1  UNL     1       5.685   0.336   2.832  1.00  0.00     0.257 S 
HETATM   46  O6  UNL     1       5.267   0.701   4.238  1.00  0.00    -0.572 OA
HETATM   47  O7  UNL     1       6.053   1.568   2.047  1.00  0.00    -0.572 OA
HETATM   48  O8  UNL     1       6.973  -0.711   2.923  1.00  0.00    -0.572 OA
ENDBRANCH  44  45
ENDBRANCH  41  44
BRANCH  42  49
HETATM   49  C18 UNL     1       4.702  -0.168  -0.727  1.00  0.00     0.150 A 
HETATM   50  N12 UNL     1       4.967  -0.053  -2.062  1.00  0.00    -0.268 N 
HETATM   51  N13 UNL     1       5.987  -0.870  -2.321  1.00  0.00    -0.224 N 
ATOM     52  H12 UNL     1       4.479   0.543  -2.731  1.00  0.00     0.190 HD
HETATM   53  N14 UNL     1       6.365  -1.477  -1.233  1.00  0.00    -0.216 N 
ATOM     54  H13 UNL     1       6.411  -1.001  -3.239  1.00  0.00     0.210 HD
HETATM   55  N15 UNL     1       5.572  -1.047  -0.243  1.00  0.00    -0.266 N 
ATOM     56  H15 UNL     1       5.628  -1.348   0.730  1.00  0.00     0.190 HD
BRANCH  53  57
HETATM   57  C19 UNL     1       7.437  -2.431  -1.115  1.00  0.00     0.197 C 
BRANCH  57  58
HETATM   58  C20 UNL     1       6.995  -3.864  -1.344  1.00  0.00     0.187 C 
BRANCH  58  59
HETATM   59  O9  UNL     1       6.451  -4.027  -2.612  1.00  0.00    -0.399 OA
ATOM     60  H9  UNL     1       6.174  -4.924  -2.755  1.00  0.00     0.209 HD
ENDBRANCH  58  59
ENDBRANCH  57  58
ENDBRANCH  53  57
ENDBRANCH  42  49
ENDBRANCH   8  38
TORSDOF 14
