REMARK  18 active torsions:
REMARK  status: ('A' for Active; 'I' for Inactive)
REMARK    1  A    between atoms: C2_2  and  C3_3 
REMARK    2  A    between atoms: C3_3  and  O1_4 
REMARK    3  A    between atoms: O1_4  and  C4_5 
REMARK    4  A    between atoms: C4_5  and  C5_6 
REMARK    5  A    between atoms: C5_6  and  O2_7 
REMARK    6  A    between atoms: C5_6  and  C6_9 
REMARK    7  A    between atoms: C9_14  and  O5_16 
REMARK    8  A    between atoms: C12_20  and  O7_21 
REMARK    9  A    between atoms: C13_24  and  O9_25 
REMARK   10  A    between atoms: C16_28  and  C17_29 
REMARK   11  A    between atoms: C17_29  and  N1_30 
REMARK   12  A    between atoms: C17_29  and  C18_34 
REMARK       I    between atoms: C18_34  and  N2_36 
REMARK       I    between atoms: N2_36  and  C19_38 
REMARK   13  A    between atoms: C19_38  and  O12_40 
REMARK   14  A    between atoms: O12_40  and  C20_41 
REMARK   15  A    between atoms: C26_49  and  O15_50 
REMARK   16  A    between atoms: O15_50  and  C27_51 
REMARK   17  A    between atoms: C27_51  and  C28_53 
REMARK   18  A    between atoms: C28_53  and  O17_54 
ROOT
HETATM    1  C4  UNL     1      -2.828   0.025  -0.281  1.00  0.00     0.160 C 
HETATM    2  C7  UNL     1      -1.944  -0.242   0.827  1.00  0.00     0.043 C 
HETATM    3  C8  UNL     1      -2.120  -0.363   2.291  1.00  0.00     0.048 C 
HETATM    4  C9  UNL     1      -0.653  -0.816   2.693  1.00  0.00     0.081 C 
HETATM    5  C10 UNL     1      -0.685  -2.172   3.341  1.00  0.00     0.049 C 
HETATM    6  C11 UNL     1       0.026  -0.828   1.447  1.00  0.00     0.170 C 
HETATM    7  O6  UNL     1       1.034  -1.219   0.755  1.00  0.00    -0.322 OA
HETATM    8  C12 UNL     1       0.936  -0.727  -0.519  1.00  0.00     0.313 C 
HETATM    9  O8  UNL     1       0.237  -1.713  -1.263  1.00  0.00    -0.299 OA
HETATM   10  C13 UNL     1      -0.782  -2.202  -0.504  1.00  0.00     0.272 C 
HETATM   11  C15 UNL     1      -1.151  -1.425   0.640  1.00  0.00     0.081 C 
HETATM   12  C16 UNL     1       0.515   0.598  -0.915  1.00  0.00     0.258 C 
HETATM   13  O13 UNL     1      -0.715   1.086  -0.873  1.00  0.00    -0.334 OA
HETATM   14  C24 UNL     1      -1.874   0.622  -1.359  1.00  0.00     0.229 C 
HETATM   15  O14 UNL     1      -1.763  -0.090  -2.546  1.00  0.00    -0.347 OA
HETATM   16  C25 UNL     1      -1.766   0.963  -3.442  1.00  0.00     0.209 C 
HETATM   17  C26 UNL     1      -2.565   1.620  -2.272  1.00  0.00     0.221 C 
ENDROOT
BRANCH  12  18
HETATM   18  C17 UNL     1       1.532   1.630  -0.517  1.00  0.00     0.311 C 
BRANCH  18  19
HETATM   19  N1  UNL     1       1.529   2.765  -1.440  1.00  0.00    -0.064 N 
ATOM     20  H13 UNL     1       1.661   2.463  -2.405  1.00  0.00     0.275 HD
ATOM     21  H12 UNL     1       0.598   3.172  -1.529  1.00  0.00     0.275 HD
ATOM     22  H11 UNL     1       2.219   3.466  -1.170  1.00  0.00     0.275 HD
ENDBRANCH  18  19
BRANCH  18  23
HETATM   23  C18 UNL     1       2.928   1.248  -0.367  1.00  0.00     0.259 C 
HETATM   24  O10 UNL     1       3.739   1.373  -1.362  1.00  0.00    -0.271 OA
HETATM   25  N2  UNL     1       3.524   0.730   0.835  1.00  0.00    -0.271 N 
HETATM   26  C19 UNL     1       4.900   0.407   0.872  1.00  0.00     0.368 C 
ATOM     27  H2  UNL     1       2.950   0.595   1.667  1.00  0.00     0.174 HD
HETATM   28  O11 UNL     1       5.629   0.561  -0.167  1.00  0.00    -0.238 OA
BRANCH  26  29
HETATM   29  O12 UNL     1       5.554  -0.086   1.990  1.00  0.00    -0.294 OA
BRANCH  29  30
HETATM   30  C20 UNL     1       6.957  -0.390   1.948  1.00  0.00     0.061 C 
HETATM   31  C21 UNL     1       7.374  -0.899   3.289  1.00  0.00     0.046 C 
HETATM   32  C22 UNL     1       7.762   0.851   1.639  1.00  0.00     0.046 C 
HETATM   33  C23 UNL     1       7.248  -1.428   0.890  1.00  0.00     0.046 C 
ENDBRANCH  29  30
ENDBRANCH  26  29
ENDBRANCH  18  23
ENDBRANCH  12  18
BRANCH   8  34
HETATM   34  O7  UNL     1       2.235  -1.033  -1.074  1.00  0.00    -0.341 OA
ATOM     35  H7  UNL     1       2.167  -0.692  -1.958  1.00  0.00     0.215 HD
ENDBRANCH   8  34
BRANCH  10  36
HETATM   36  O9  UNL     1      -0.218  -3.483  -0.136  1.00  0.00    -0.365 OA
HETATM   37  C14 UNL     1      -0.852  -4.508  -0.788  1.00  0.00     0.204 C 
ENDBRANCH  10  36
BRANCH   1  38
HETATM   38  O1  UNL     1      -3.475  -1.068  -0.706  1.00  0.00    -0.367 OA
BRANCH  38  39
HETATM   39  C3  UNL     1      -4.360  -1.148  -1.679  1.00  0.00     0.196 C 
BRANCH  39  40
HETATM   40  C2  UNL     1      -4.816  -2.596  -1.756  1.00  0.00    -0.011 C 
HETATM   41  C1  UNL     1      -4.661  -3.328  -2.837  1.00  0.00     0.009 C 
ENDBRANCH  39  40
ENDBRANCH  38  39
ENDBRANCH   1  38
BRANCH   1  42
HETATM   42  C5  UNL     1      -3.832   1.037   0.188  1.00  0.00     0.259 C 
BRANCH  42  43
HETATM   43  O2  UNL     1      -3.240   2.199   0.702  1.00  0.00    -0.382 OA
ATOM     44  H2  UNL     1      -3.876   2.840   0.999  1.00  0.00     0.210 HD
ENDBRANCH  42  43
BRANCH  42  45
HETATM   45  C6  UNL     1      -4.715   0.547   1.259  1.00  0.00     0.206 C 
HETATM   46  O3  UNL     1      -4.956   1.227   2.300  1.00  0.00    -0.646 OA
HETATM   47  O4  UNL     1      -5.383  -0.681   1.282  1.00  0.00    -0.646 OA
ENDBRANCH  42  45
ENDBRANCH   1  42
BRANCH  17  48
HETATM   48  O15 UNL     1      -2.251   2.974  -2.137  1.00  0.00    -0.306 OA
BRANCH  48  49
HETATM   49  C27 UNL     1      -3.120   4.008  -2.366  1.00  0.00     0.283 C 
HETATM   50  O16 UNL     1      -4.286   3.763  -2.721  1.00  0.00    -0.263 OA
BRANCH  49  51
HETATM   51  C28 UNL     1      -2.590   5.401  -2.167  1.00  0.00     0.275 C 
BRANCH  51  52
HETATM   52  O17 UNL     1      -3.544   6.355  -2.422  1.00  0.00    -0.391 OA
ATOM     53  H17 UNL     1      -3.209   7.235  -2.296  1.00  0.00     0.210 HD
ENDBRANCH  51  52
ENDBRANCH  49  51
ENDBRANCH  48  49
ENDBRANCH  17  48
BRANCH   4  54
HETATM   54  O5  UNL     1      -0.164   0.067   3.670  1.00  0.00    -0.388 OA
ATOM     55  H5  UNL     1       0.714  -0.204   3.911  1.00  0.00     0.210 HD
ENDBRANCH   4  54
TORSDOF 18
