REMARK  5 active torsions:
REMARK  status: ('A' for Active; 'I' for Inactive)
REMARK    1  A    between atoms: C5_6  and  O2_7 
REMARK    2  A    between atoms: C5_6  and  C6_9 
REMARK    3  A    between atoms: C7_10  and  C8_11 
REMARK    4  A    between atoms: C8_11  and  C9_12 
REMARK    5  A    between atoms: N1_15  and  C12_16 
ROOT
HETATM    1  C9  UNL     1       0.084   0.082  -0.166  1.00  0.00     0.027 C 
HETATM    2  C10 UNL     1      -0.004  -1.415  -0.141  1.00  0.00     0.037 C 
HETATM    3  C11 UNL     1      -1.517  -1.641  -0.444  1.00  0.00     0.273 C 
HETATM    4  N1  UNL     1      -2.109  -0.680   0.407  1.00  0.00     0.093 N 
HETATM    5  C18 UNL     1      -1.320   0.540   0.275  1.00  0.00     0.278 C 
ENDROOT
BRANCH   1   6
HETATM    6  C8  UNL     1       1.031   0.708   0.807  1.00  0.00     0.100 C 
BRANCH   6   7
HETATM    7  C7  UNL     1       2.386   0.268   0.569  1.00  0.00    -0.103 C 
HETATM    8  C6  UNL     1       3.526  -0.060   0.386  1.00  0.00    -0.060 C 
BRANCH   8   9
HETATM    9  C5  UNL     1       4.956  -0.414   0.149  1.00  0.00     0.181 C 
HETATM   10  C1  UNL     1       5.807   0.050   1.265  1.00  0.00     0.173 C 
HETATM   11  O1  UNL     1       5.500   0.035   2.430  1.00  0.00    -0.294 OA
HETATM   12  C2  UNL     1       7.079   0.535   0.719  1.00  0.00     0.083 C 
HETATM   13  C3  UNL     1       6.728   1.051  -0.643  1.00  0.00     0.012 C 
HETATM   14  C4  UNL     1       5.443   0.382  -1.043  1.00  0.00     0.060 C 
BRANCH   9  15
HETATM   15  O2  UNL     1       5.094  -1.752  -0.085  1.00  0.00    -0.371 OA
ATOM     16  H2  UNL     1       4.547  -2.050  -0.802  1.00  0.00     0.212 HD
ENDBRANCH   9  15
ENDBRANCH   8   9
ENDBRANCH   6   7
ENDBRANCH   1   6
BRANCH   4  17
HETATM   17  C12 UNL     1      -3.505  -0.451   0.315  1.00  0.00     0.223 C 
HETATM   18  C13 UNL     1      -3.798   1.039   0.125  1.00  0.00     0.036 C 
HETATM   19  C14 UNL     1      -5.217   1.335   0.622  1.00  0.00     0.002 C 
HETATM   20  C15 UNL     1      -6.096   0.219   0.102  1.00  0.00     0.000 C 
HETATM   21  C16 UNL     1      -5.488  -0.423  -1.126  1.00  0.00     0.002 C 
HETATM   22  C17 UNL     1      -4.220  -1.181  -0.791  1.00  0.00     0.036 C 
ENDBRANCH   4  17
TORSDOF 5
