REMARK  3 active torsions:
REMARK  status: ('A' for Active; 'I' for Inactive)
REMARK    1  A    between atoms: C2_2  and  N1_3 
REMARK    2  A    between atoms: N2_6  and  C5_7 
REMARK    3  A    between atoms: C12_14  and  N3_16 
ROOT
HETATM    1  C5  UNL     1      -0.118  -0.175   0.341  1.00  0.00     0.009 C 
HETATM    2  C6  UNL     1      -0.672  -1.527   0.568  1.00  0.00    -0.004 C 
HETATM    3  C7  UNL     1      -0.049  -2.669  -0.172  1.00  0.00     0.021 C 
HETATM    4  C8  UNL     1      -0.800  -1.969   2.007  1.00  0.00     0.021 C 
HETATM    5  C9  UNL     1      -2.124  -1.316   0.076  1.00  0.00     0.004 C 
HETATM    6  C10 UNL     1      -2.969  -0.578   1.044  1.00  0.00     0.008 C 
HETATM    7  C11 UNL     1      -2.856   0.885   1.086  1.00  0.00     0.040 C 
HETATM    8  C12 UNL     1      -1.933   1.540   0.116  1.00  0.00     0.133 C 
HETATM    9  C13 UNL     1      -0.993   2.470   0.906  1.00  0.00     0.047 C 
HETATM   10  C14 UNL     1      -1.001   0.577  -0.603  1.00  0.00     0.032 C 
HETATM   11  C15 UNL     1      -0.361   1.271  -1.740  1.00  0.00     0.025 C 
HETATM   12  C16 UNL     1      -1.869  -0.527  -1.161  1.00  0.00     0.003 C 
HETATM   13  C17 UNL     1      -3.092  -0.083  -1.883  1.00  0.00     0.011 C 
ENDROOT
BRANCH   1  14
HETATM   14  N2  UNL     1       1.263   0.047   0.306  1.00  0.00    -0.352 N 
HETATM   15  C4  UNL     1       2.008  -0.153   1.497  1.00  0.00     0.143 C 
HETATM   16  C3  UNL     1       3.205  -0.939   1.026  1.00  0.00     0.116 C 
HETATM   17  N1  UNL     1       3.242  -0.844  -0.391  1.00  0.00    -0.278 NA
HETATM   18  C18 UNL     1       2.029  -0.190  -0.829  1.00  0.00     0.153 C 
BRANCH  17  19
HETATM   19  C2  UNL     1       4.447  -0.351  -0.962  1.00  0.00     0.091 C 
HETATM   20  C1  UNL     1       4.748   1.096  -0.683  1.00  0.00     0.021 C 
ENDBRANCH  17  19
ENDBRANCH   1  14
BRANCH   8  21
HETATM   21  N3  UNL     1      -2.609   2.401  -0.820  1.00  0.00    -0.070 N 
ATOM     22  H33 UNL     1      -3.349   1.896  -1.308  1.00  0.00     0.275 HD
ATOM     23  H32 UNL     1      -3.174   3.096  -0.331  1.00  0.00     0.275 HD
ATOM     24  H31 UNL     1      -1.977   2.849  -1.484  1.00  0.00     0.275 HD
ENDBRANCH   8  21
TORSDOF 3
