REMARK  5 active torsions:
REMARK  status: ('A' for Active; 'I' for Inactive)
REMARK    1  A    between atoms: C2_2  and  C3_3 
REMARK    2  A    between atoms: C3_3  and  C5_5 
REMARK    3  A    between atoms: C5_5  and  C6_6 
REMARK    4  A    between atoms: C6_6  and  C7_7 
REMARK    5  A    between atoms: C18_20  and  C19_21 
ROOT
HETATM    1  C7  UNL     1       0.752  -0.871  -0.315  1.00  0.00    -0.065 C 
HETATM    2  C8  UNL     1       0.817   0.417  -0.987  1.00  0.00     0.036 C 
HETATM    3  C9  UNL     1      -0.259   0.685  -2.044  1.00  0.00     0.014 C 
HETATM    4  C10 UNL     1      -0.644   2.149  -1.989  1.00  0.00     0.074 C 
HETATM    5  S1  UNL     1      -2.443   2.351  -2.042  1.00  0.00    -0.164 SA
HETATM    6  C11 UNL     1      -3.167   2.818  -0.475  1.00  0.00     0.118 C 
HETATM    7  C12 UNL     1      -4.090   1.800   0.118  1.00  0.00     0.078 C 
HETATM    8  N1  UNL     1      -3.556   0.696   0.764  1.00  0.00    -0.353 N 
HETATM    9  C13 UNL     1      -3.396  -0.517   0.067  1.00  0.00     0.068 C 
HETATM   10  C14 UNL     1      -2.284  -1.410   0.534  1.00  0.00     0.051 C 
HETATM   11  C15 UNL     1      -1.222  -0.818   1.352  1.00  0.00     0.013 C 
HETATM   12  C16 UNL     1      -1.415   0.648   1.745  1.00  0.00     0.051 C 
HETATM   13  C17 UNL     1      -2.897   0.842   1.996  1.00  0.00     0.068 C 
HETATM   14  C18 UNL     1       0.195  -1.073   1.020  1.00  0.00     0.120 C 
ENDROOT
BRANCH   1  15
HETATM   15  C6  UNL     1       1.944  -1.705  -0.459  1.00  0.00     0.004 C 
BRANCH  15  16
HETATM   16  C5  UNL     1       3.194  -1.676  -0.581  1.00  0.00     0.007 C 
BRANCH  16  17
HETATM   17  C3  UNL     1       4.405  -0.937  -0.663  1.00  0.00    -0.063 C 
HETATM   18  C4  UNL     1       5.502  -1.805  -0.890  1.00  0.00     0.048 C 
BRANCH  17  19
HETATM   19  C2  UNL     1       4.861   0.381  -0.534  1.00  0.00    -0.004 C 
HETATM   20  C1  UNL     1       4.316   1.512  -0.299  1.00  0.00     0.012 C 
ENDBRANCH  17  19
ENDBRANCH  16  17
ENDBRANCH  15  16
ENDBRANCH   1  15
BRANCH  14  21
HETATM   21  C19 UNL     1       0.555  -2.429   1.512  1.00  0.00     0.181 C 
HETATM   22  O1  UNL     1      -0.369  -3.295   1.528  1.00  0.00    -0.647 OA
HETATM   23  O2  UNL     1       1.839  -2.733   1.935  1.00  0.00    -0.647 OA
ENDBRANCH  14  21
TORSDOF 5
