REMARK  7 active torsions:
REMARK  status: ('A' for Active; 'I' for Inactive)
REMARK    1  A    between atoms: C5_5  and  O1_6 
REMARK    2  A    between atoms: O1_6  and  C6_7 
REMARK       I    between atoms: C6_7  and  N1_9 
REMARK    3  A    between atoms: N1_9  and  C7_11 
REMARK    4  A    between atoms: C7_11  and  C9_13 
REMARK    5  A    between atoms: N2_16  and  C12_17 
REMARK    6  A    between atoms: C12_17  and  O3_18 
REMARK    7  A    between atoms: C12_17  and  C13_20 
ROOT
HETATM    1  C7  UNL     1       0.970   2.012   0.540  1.00  0.00     0.086 C 
HETATM    2  C8  UNL     1       1.041   3.198   1.460  1.00  0.00     0.032 C 
ENDROOT
BRANCH   1   3
HETATM    3  N1  UNL     1      -0.102   1.162   1.001  1.00  0.00    -0.332 N 
HETATM    4  C6  UNL     1      -1.249   0.922   0.230  1.00  0.00     0.361 C 
HETATM    5  O2  UNL     1      -1.343   1.469  -0.901  1.00  0.00    -0.238 OA
ATOM      6  H1  UNL     1      -0.023   0.721   1.918  1.00  0.00     0.165 HD
BRANCH   4   7
HETATM    7  O1  UNL     1      -2.303   0.130   0.600  1.00  0.00    -0.299 OA
BRANCH   7   8
HETATM    8  C5  UNL     1      -3.440  -0.113  -0.153  1.00  0.00     0.133 C 
HETATM    9  C4  UNL     1      -4.626   0.507   0.575  1.00  0.00     0.033 C 
HETATM   10  C3  UNL     1      -5.795   0.488  -0.354  1.00  0.00     0.007 C 
HETATM   11  C2  UNL     1      -6.102  -0.922  -0.805  1.00  0.00    -0.019 C 
HETATM   12  C1  UNL     1      -6.700  -1.761   0.308  1.00  0.00     0.010 C 
HETATM   13  C19 UNL     1      -4.903  -1.593  -1.426  1.00  0.00     0.007 C 
HETATM   14  C18 UNL     1      -3.691  -1.545  -0.503  1.00  0.00     0.033 C 
ENDBRANCH   7   8
ENDBRANCH   4   7
ENDBRANCH   1   3
BRANCH   1  15
HETATM   15  C9  UNL     1       2.268   1.243   0.491  1.00  0.00     0.011 C 
HETATM   16  C10 UNL     1       2.681   0.699   1.816  1.00  0.00     0.026 C 
HETATM   17  C11 UNL     1       4.114   0.247   1.744  1.00  0.00     0.125 C 
HETATM   18  N2  UNL     1       4.334  -0.323   0.377  1.00  0.00    -0.365 N 
HETATM   19  C16 UNL     1       3.171  -0.975  -0.151  1.00  0.00     0.125 C 
HETATM   20  C17 UNL     1       2.129   0.083  -0.468  1.00  0.00     0.026 C 
BRANCH  18  21
HETATM   21  C12 UNL     1       5.599  -0.159  -0.215  1.00  0.00     0.117 C 
BRANCH  21  22
HETATM   22  O3  UNL     1       6.426   0.527   0.538  1.00  0.00    -0.349 OA
ATOM     23  H3  UNL     1       7.281   0.638   0.138  1.00  0.00     0.219 HD
ENDBRANCH  21  22
BRANCH  21  24
HETATM   24  C13 UNL     1       6.159  -0.590  -1.470  1.00  0.00     0.060 A 
HETATM   25  C14 UNL     1       5.300  -0.591  -2.713  1.00  0.00     0.013 A 
HETATM   26  C15 UNL     1       5.877  -1.873  -2.159  1.00  0.00     0.013 A 
ENDBRANCH  21  24
ENDBRANCH  18  21
ENDBRANCH   1  15
TORSDOF 7
