REMARK  5 active torsions:
REMARK  status: ('A' for Active; 'I' for Inactive)
REMARK    1  A    between atoms: C4_4  and  C5_5 
REMARK    2  A    between atoms: C5_5  and  O1_6 
REMARK    3  A    between atoms: O1_6  and  C6_7 
REMARK    4  A    between atoms: C6_7  and  C7_9 
REMARK       I    between atoms: N1_14  and  C12_15 
REMARK       I    between atoms: C12_15  and  N2_17 
REMARK    5  A    between atoms: N2_17  and  C13_19 
ROOT
HETATM    1  C7  UNL     1       1.007  -2.619  -0.248  1.00  0.00     0.188 C 
HETATM    2  C8  UNL     1       1.201  -3.905   0.456  1.00  0.00     0.036 C 
HETATM    3  C9  UNL     1       0.616  -4.028   1.819  1.00  0.00     0.004 C 
HETATM    4  C10 UNL     1       0.665  -2.810   2.669  1.00  0.00     0.020 C 
HETATM    5  C11 UNL     1       1.092  -1.563   1.940  1.00  0.00     0.128 C 
HETATM    6  N1  UNL     1       0.494  -1.615   0.642  1.00  0.00    -0.320 N 
HETATM    7  C12 UNL     1      -0.534  -0.742   0.248  1.00  0.00     0.319 C 
HETATM    8  O3  UNL     1      -1.052  -0.810  -0.927  1.00  0.00    -0.247 OA
HETATM    9  N2  UNL     1      -1.083   0.267   1.080  1.00  0.00    -0.338 N 
ATOM     10  H2  UNL     1      -0.716   0.373   2.026  1.00  0.00     0.164 HD
ENDROOT
BRANCH   1  11
HETATM   11  C6  UNL     1       2.306  -2.108  -0.812  1.00  0.00     0.282 C 
HETATM   12  O2  UNL     1       2.942  -2.833  -1.630  1.00  0.00    -0.263 OA
BRANCH  11  13
HETATM   13  O1  UNL     1       2.805  -0.882  -0.457  1.00  0.00    -0.319 OA
BRANCH  13  14
HETATM   14  C5  UNL     1       4.010  -0.356  -0.951  1.00  0.00     0.183 C 
BRANCH  14  15
HETATM   15  C4  UNL     1       4.039  -0.194  -2.435  1.00  0.00     0.014 A 
HETATM   16  C2  UNL     1       3.075   0.669  -3.150  1.00  0.00    -0.012 A 
HETATM   17  C1  UNL     1       2.014   1.453  -2.450  1.00  0.00     0.010 C 
HETATM   18  C3  UNL     1       4.516   1.153  -2.937  1.00  0.00     0.012 A 
ENDBRANCH  14  15
ENDBRANCH  13  14
ENDBRANCH  11  13
ENDBRANCH   1  11
BRANCH   9  19
HETATM   19  C13 UNL     1      -2.141   1.152   0.646  1.00  0.00     0.086 C 
HETATM   20  C14 UNL     1      -3.309   0.961   1.586  1.00  0.00     0.025 C 
HETATM   21  C15 UNL     1      -4.548   1.606   1.060  1.00  0.00     0.002 C 
HETATM   22  C16 UNL     1      -4.573   1.712  -0.442  1.00  0.00     0.000 C 
HETATM   23  C17 UNL     1      -3.620   2.705  -1.000  1.00  0.00     0.000 C 
HETATM   24  C18 UNL     1      -2.794   3.425   0.015  1.00  0.00     0.002 C 
HETATM   25  C19 UNL     1      -1.719   2.599   0.640  1.00  0.00     0.025 C 
ENDBRANCH   9  19
TORSDOF 5
