REMARK  4 active torsions:
REMARK  status: ('A' for Active; 'I' for Inactive)
REMARK    1  A    between atoms: C2_2  and  C3_3 
REMARK       I    between atoms: C3_3  and  N1_5 
REMARK    2  A    between atoms: C8_10  and  C9_11 
REMARK    3  A    between atoms: C9_11  and  N2_12 
REMARK    4  A    between atoms: C11_14  and  O2_15 
ROOT
HETATM    1  N2  UNL     1      -0.581   0.261   0.274  1.00  0.00     0.098 N 
HETATM    2  C10 UNL     1      -1.165  -0.874   0.806  1.00  0.00     0.310 C 
HETATM    3  C11 UNL     1      -2.681  -0.906   0.925  1.00  0.00     0.085 C 
HETATM    4  C12 UNL     1      -3.300  -1.284  -0.359  1.00  0.00     0.044 C 
HETATM    5  C13 UNL     1      -3.938  -0.208  -1.151  1.00  0.00    -0.011 C 
HETATM    6  C14 UNL     1      -3.084   0.370  -2.235  1.00  0.00     0.007 C 
HETATM    7  C15 UNL     1      -1.641   0.464  -1.934  1.00  0.00     0.036 C 
HETATM    8  C16 UNL     1      -1.287   1.110  -0.626  1.00  0.00     0.223 C 
HETATM    9  C17 UNL     1      -2.316   2.009  -0.055  1.00  0.00     0.040 C 
HETATM   10  C18 UNL     1      -3.485   1.439   0.620  1.00  0.00    -0.009 C 
HETATM   11  C19 UNL     1      -4.510   0.933  -0.354  1.00  0.00     0.009 C 
HETATM   12  C20 UNL     1      -3.177   0.324   1.583  1.00  0.00     0.044 C 
ENDROOT
BRANCH   1  13
HETATM   13  C9  UNL     1       0.718   0.025  -0.255  1.00  0.00     0.298 C 
BRANCH  13  14
HETATM   14  C8  UNL     1       1.854  -0.239   0.656  1.00  0.00     0.115 C 
HETATM   15  N1  UNL     1       3.067  -0.417  -0.172  1.00  0.00    -0.346 N 
HETATM   16  C3  UNL     1       3.964   0.626  -0.460  1.00  0.00     0.219 C 
HETATM   17  C4  UNL     1       3.319  -1.740  -0.699  1.00  0.00     0.126 C 
HETATM   18  O1  UNL     1       4.970   0.396  -1.170  1.00  0.00    -0.273 OA
HETATM   19  C5  UNL     1       3.545  -2.713   0.462  1.00  0.00     0.020 C 
HETATM   20  C6  UNL     1       3.175  -2.020   1.766  1.00  0.00     0.004 C 
HETATM   21  C7  UNL     1       1.777  -1.424   1.533  1.00  0.00     0.027 C 
BRANCH  16  22
HETATM   22  C2  UNL     1       3.743   2.004   0.063  1.00  0.00     0.098 C 
HETATM   23  C1  UNL     1       4.822   2.950  -0.354  1.00  0.00     0.014 C 
ENDBRANCH  16  22
ENDBRANCH  13  14
ENDBRANCH   1  13
BRANCH   3  24
HETATM   24  O2  UNL     1      -2.938  -1.960   1.845  1.00  0.00    -0.388 OA
ATOM     25  H2  UNL     1      -3.885  -1.980   1.919  1.00  0.00     0.210 HD
ENDBRANCH   3  24
TORSDOF 4
