REMARK  4 active torsions:
REMARK  status: ('A' for Active; 'I' for Inactive)
REMARK    1  A    between atoms: N2_6  and  C5_7 
REMARK    2  A    between atoms: C10_12  and  N3_13 
REMARK       I    between atoms: N3_13  and  C11_15 
REMARK       I    between atoms: C11_15  and  N4_17 
REMARK    3  A    between atoms: N4_17  and  C12_18 
REMARK    4  A    between atoms: N4_17  and  C18_24 
ROOT
HETATM    1  N1  UNL     1       0.466   2.076  -3.091  1.00  0.00    -0.195 NA
HETATM    2  C1  UNL     1      -0.415   1.363  -2.857  1.00  0.00     0.095 C 
HETATM    3  C2  UNL     1      -1.553   0.450  -2.582  1.00  0.00     0.330 C 
HETATM    4  C3  UNL     1      -2.650   0.762  -3.587  1.00  0.00     0.081 C 
HETATM    5  C4  UNL     1      -3.369   1.375  -2.415  1.00  0.00     0.278 C 
HETATM    6  N2  UNL     1      -2.357   0.872  -1.482  1.00  0.00     0.113 N 
ENDROOT
BRANCH   6   7
HETATM    7  C5  UNL     1      -2.934  -0.092  -0.618  1.00  0.00     0.247 C 
HETATM    8  C6  UNL     1      -3.842   0.674   0.356  1.00  0.00     0.038 C 
HETATM    9  C7  UNL     1      -4.823  -0.336   0.887  1.00  0.00     0.002 C 
HETATM   10  C8  UNL     1      -4.032  -1.364   1.661  1.00  0.00     0.002 C 
HETATM   11  C9  UNL     1      -2.559  -1.144   1.594  1.00  0.00     0.027 C 
HETATM   12  C10 UNL     1      -2.030  -0.942   0.183  1.00  0.00     0.119 C 
BRANCH  12  13
HETATM   13  N3  UNL     1      -0.665  -0.456   0.310  1.00  0.00    -0.336 N 
HETATM   14  C11 UNL     1       0.461  -1.206  -0.068  1.00  0.00     0.319 C 
HETATM   15  O1  UNL     1       0.184  -2.363  -0.539  1.00  0.00    -0.247 OA
HETATM   16  N4  UNL     1       1.808  -0.835   0.013  1.00  0.00    -0.325 N 
ATOM     17  H3  UNL     1      -0.518   0.478   0.693  1.00  0.00     0.164 HD
BRANCH  16  18
HETATM   18  C12 UNL     1       2.164   0.461   0.538  1.00  0.00     0.089 C 
HETATM   19  C13 UNL     1       2.983   0.182   1.811  1.00  0.00     0.025 C 
HETATM   20  C14 UNL     1       3.184   1.516   2.500  1.00  0.00     0.002 C 
HETATM   21  C15 UNL     1       3.815   2.527   1.586  1.00  0.00     0.000 C 
HETATM   22  C16 UNL     1       4.251   1.861   0.302  1.00  0.00     0.002 C 
HETATM   23  C17 UNL     1       3.044   1.248  -0.391  1.00  0.00     0.025 C 
ENDBRANCH  16  18
BRANCH  16  24
HETATM   24  C18 UNL     1       2.915  -1.694  -0.414  1.00  0.00     0.089 A 
HETATM   25  C19 UNL     1       2.814  -2.470  -1.694  1.00  0.00     0.027 A 
HETATM   26  C20 UNL     1       2.866  -3.152  -0.366  1.00  0.00     0.027 A 
ENDBRANCH  16  24
ENDBRANCH  12  13
ENDBRANCH   6   7
TORSDOF 4
