REMARK  4 active torsions:
REMARK  status: ('A' for Active; 'I' for Inactive)
REMARK    1  A    between atoms: C4_4  and  C5_5 
REMARK    2  A    between atoms: C5_5  and  N1_6 
REMARK    3  A    between atoms: N2_13  and  C12_14 
REMARK    4  A    between atoms: C12_14  and  C13_15 
ROOT
HETATM    1  N1  UNL     1       2.166   0.167   0.194  1.00  0.00    -0.372 N 
HETATM    2  C6  UNL     1       2.077   0.129  -1.175  1.00  0.00     0.063 C 
HETATM    3  C7  UNL     1       0.749  -0.227  -1.786  1.00  0.00     0.046 C 
HETATM    4  C8  UNL     1      -0.379  -0.410  -0.846  1.00  0.00     0.022 C 
HETATM    5  C9  UNL     1      -0.272   0.553   0.280  1.00  0.00     0.010 C 
HETATM    6  C10 UNL     1      -0.396   1.954  -0.243  1.00  0.00     0.037 C 
HETATM    7  C11 UNL     1      -1.935   2.023  -0.392  1.00  0.00     0.128 C 
HETATM    8  N2  UNL     1      -2.465   1.140   0.530  1.00  0.00    -0.373 N 
HETATM    9  C18 UNL     1      -1.440   0.455   1.197  1.00  0.00     0.074 C 
HETATM   10  C19 UNL     1       1.010   0.246   1.002  1.00  0.00     0.142 C 
ENDROOT
BRANCH   8  11
HETATM   11  C12 UNL     1      -3.774   1.140   0.951  1.00  0.00     0.068 C 
BRANCH  11  12
HETATM   12  C13 UNL     1      -4.754   0.689  -0.125  1.00  0.00     0.027 C 
HETATM   13  C14 UNL     1      -4.430  -0.727  -0.569  1.00  0.00     0.037 C 
HETATM   14  C15 UNL     1      -5.278  -1.726   0.226  1.00  0.00     0.233 C 
HETATM   15  N3  UNL     1      -6.644  -1.584  -0.165  1.00  0.00    -0.075 N 
HETATM   16  C16 UNL     1      -7.054  -0.221  -0.352  1.00  0.00     0.233 C 
ATOM     17  H32 UNL     1      -6.838  -2.135  -1.001  1.00  0.00     0.277 HD
ATOM     18  H31 UNL     1      -7.259  -2.056   0.498  1.00  0.00     0.277 HD
HETATM   19  C17 UNL     1      -6.173   0.783   0.339  1.00  0.00     0.037 C 
ENDBRANCH  11  12
ENDBRANCH   8  11
BRANCH   1  20
HETATM   20  C5  UNL     1       3.225   0.839   0.806  1.00  0.00     0.067 C 
BRANCH  20  21
HETATM   21  C4  UNL     1       4.606   0.323   0.739  1.00  0.00     0.024 C 
HETATM   22  C3  UNL     1       5.254   0.202  -0.583  1.00  0.00     0.010 C 
HETATM   23  C2  UNL     1       5.726  -1.239  -0.821  1.00  0.00     0.001 C 
HETATM   24  C1  UNL     1       6.780  -1.490   0.220  1.00  0.00     0.000 C 
HETATM   25  C21 UNL     1       6.091  -1.528   1.556  1.00  0.00     0.001 C 
HETATM   26  C20 UNL     1       4.713  -0.983   1.549  1.00  0.00     0.010 C 
ENDBRANCH  20  21
ENDBRANCH   1  20
TORSDOF 4
