REMARK  2 active torsions:
REMARK  status: ('A' for Active; 'I' for Inactive)
REMARK       I    between atoms: C2_2  and  N1_4 
REMARK    1  A    between atoms: C5_7  and  N2_8 
REMARK    2  A    between atoms: N2_8  and  C6_10 
ROOT
HETATM    1  C6  UNL     1      -0.792  -0.343   0.509  1.00  0.00     0.105 C 
HETATM    2  C7  UNL     1      -1.748  -1.524   0.571  1.00  0.00     0.027 C 
HETATM    3  C8  UNL     1      -3.100  -1.232   1.103  1.00  0.00     0.002 C 
HETATM    4  C9  UNL     1      -4.076  -1.165  -0.013  1.00  0.00     0.007 C 
HETATM    5  C10 UNL     1      -4.487   0.163  -0.501  1.00  0.00     0.015 C 
HETATM    6  C11 UNL     1      -4.637   1.317   0.403  1.00  0.00     0.014 C 
HETATM    7  C12 UNL     1      -3.434   1.986  -0.200  1.00  0.00     0.018 A 
HETATM    8  C13 UNL     1      -2.119   1.822   0.512  1.00  0.00     0.041 A 
HETATM    9  C14 UNL     1      -1.411   0.797  -0.271  1.00  0.00     0.144 A 
HETATM   10  O2  UNL     1      -2.211   0.277  -1.233  1.00  0.00    -0.378 OA
HETATM   11  C15 UNL     1      -3.413   0.919  -1.263  1.00  0.00     0.130 A 
ENDROOT
BRANCH   1  12
HETATM   12  N2  UNL     1       0.289  -0.871  -0.316  1.00  0.00    -0.410 N 
ATOM     13  H2  UNL     1       0.123  -1.592  -1.018  1.00  0.00     0.154 HD
BRANCH  12  14
HETATM   14  C5  UNL     1       1.580  -0.334  -0.096  1.00  0.00     0.080 C 
HETATM   15  C4  UNL     1       2.032  -0.689   1.296  1.00  0.00     0.044 C 
HETATM   16  C3  UNL     1       3.483  -0.342   1.558  1.00  0.00     0.127 C 
HETATM   17  N1  UNL     1       4.159  -0.186   0.302  1.00  0.00    -0.352 N 
HETATM   18  C2  UNL     1       5.039   0.881   0.071  1.00  0.00     0.215 C 
HETATM   19  C17 UNL     1       3.894  -1.154  -0.724  1.00  0.00     0.127 C 
HETATM   20  C1  UNL     1       5.735   1.012  -1.231  1.00  0.00     0.117 C 
HETATM   21  O1  UNL     1       5.271   1.769   0.966  1.00  0.00    -0.274 OA
HETATM   22  C16 UNL     1       2.484  -0.945  -1.166  1.00  0.00     0.044 C 
ENDBRANCH  12  14
ENDBRANCH   1  12
TORSDOF 2
