REMARK  7 active torsions:
REMARK  status: ('A' for Active; 'I' for Inactive)
REMARK    1  A    between atoms: C2_2  and  N1_3 
REMARK    2  A    between atoms: C10_11  and  C11_12 
REMARK    3  A    between atoms: C11_12  and  C12_13 
REMARK    4  A    between atoms: C12_13  and  O1_14 
REMARK    5  A    between atoms: C12_13  and  C13_16 
REMARK    6  A    between atoms: C13_16  and  O2_17 
REMARK    7  A    between atoms: C13_16  and  N2_19 
ROOT
HETATM    1  N1  UNL     1       4.737  -0.717   0.330  1.00  0.00     0.088 N 
HETATM    2  C3  UNL     1       4.023  -1.757   1.035  1.00  0.00     0.272 C 
HETATM    3  C4  UNL     1       2.830  -1.093   1.691  1.00  0.00     0.031 C 
HETATM    4  C5  UNL     1       2.603   0.303   1.146  1.00  0.00     0.013 C 
HETATM    5  C6  UNL     1       2.722   0.362  -0.355  1.00  0.00    -0.010 C 
HETATM    6  C7  UNL     1       2.787   1.784  -0.818  1.00  0.00     0.015 C 
HETATM    7  C8  UNL     1       1.613   2.605  -0.413  1.00  0.00     0.028 C 
HETATM    8  C9  UNL     1       0.342   1.812  -0.566  1.00  0.00    -0.024 C 
HETATM    9  C10 UNL     1       0.302   0.532  -0.817  1.00  0.00    -0.080 C 
HETATM   10  C19 UNL     1       1.546  -0.298  -0.987  1.00  0.00     0.045 C 
HETATM   11  C20 UNL     1       4.022  -0.303  -0.826  1.00  0.00     0.282 C 
ENDROOT
BRANCH   9  12
HETATM   12  C11 UNL     1      -0.969  -0.210  -0.958  1.00  0.00     0.074 C 
BRANCH  12  13
HETATM   13  C12 UNL     1      -2.211   0.617  -0.751  1.00  0.00     0.196 C 
BRANCH  13  14
HETATM   14  O1  UNL     1      -2.308   1.165   0.490  1.00  0.00    -0.387 OA
ATOM     15  H1  UNL     1      -3.091   1.687   0.621  1.00  0.00     0.210 HD
ENDBRANCH  13  14
BRANCH  13  16
HETATM   16  C13 UNL     1      -3.361  -0.263  -1.056  1.00  0.00     0.143 C 
BRANCH  16  17
HETATM   17  O2  UNL     1      -3.311  -0.722  -2.287  1.00  0.00    -0.347 OA
ATOM     18  H2  UNL     1      -4.049  -1.287  -2.483  1.00  0.00     0.219 HD
ENDBRANCH  16  17
BRANCH  16  19
HETATM   19  N2  UNL     1      -4.422  -0.635  -0.242  1.00  0.00    -0.363 N 
HETATM   20  C14 UNL     1      -4.684  -0.300   1.115  1.00  0.00     0.124 C 
HETATM   21  C15 UNL     1      -5.873   0.673   1.094  1.00  0.00     0.020 C 
HETATM   22  C16 UNL     1      -7.045   0.006   0.400  1.00  0.00     0.003 C 
HETATM   23  C17 UNL     1      -6.698  -0.610  -0.918  1.00  0.00     0.020 C 
HETATM   24  C18 UNL     1      -5.469  -1.499  -0.865  1.00  0.00     0.124 C 
ENDBRANCH  16  19
ENDBRANCH  13  16
ENDBRANCH  12  13
ENDBRANCH   9  12
BRANCH   1  25
HETATM   25  C2  UNL     1       6.121  -1.032   0.108  1.00  0.00     0.268 C 
HETATM   26  C1  UNL     1       6.747   0.134  -0.624  1.00  0.00     0.037 C 
ENDBRANCH   1  25
TORSDOF 7
