REMARK  5 active torsions:
REMARK  status: ('A' for Active; 'I' for Inactive)
REMARK    1  A    between atoms: C8_8  and  O1_9 
REMARK    2  A    between atoms: O1_9  and  C9_10 
REMARK    3  A    between atoms: C9_10  and  C10_12 
REMARK    4  A    between atoms: C12_15  and  O4_16 
REMARK    5  A    between atoms: C21_27  and  O6_28 
ROOT
HETATM    1  C1  UNL     1      -3.963   0.769   0.348  1.00  0.00     0.021 C 
HETATM    2  C2  UNL     1      -3.083  -0.358  -0.114  1.00  0.00     0.014 C 
HETATM    3  C3  UNL     1      -2.419  -0.972   1.056  1.00  0.00    -0.000 C 
HETATM    4  C4  UNL     1      -1.395  -2.017   0.701  1.00  0.00     0.006 C 
HETATM    5  C5  UNL     1       0.022  -1.557   0.845  1.00  0.00     0.013 C 
HETATM    6  C6  UNL     1       0.310  -0.253   0.130  1.00  0.00    -0.009 C 
HETATM    7  C7  UNL     1       0.720  -0.595  -1.270  1.00  0.00     0.018 C 
HETATM    8  C8  UNL     1       1.311   0.589   0.857  1.00  0.00     0.141 C 
HETATM    9  C14 UNL     1       0.736   1.957   1.049  1.00  0.00     0.034 C 
HETATM   10  C15 UNL     1      -0.522   2.018   0.175  1.00  0.00     0.013 C 
HETATM   11  C16 UNL     1      -0.959   0.610   0.161  1.00  0.00    -0.026 C 
HETATM   12  C17 UNL     1      -1.611   0.261   1.511  1.00  0.00     0.016 C 
HETATM   13  C18 UNL     1      -1.856   0.164  -0.883  1.00  0.00     0.010 C 
HETATM   14  C19 UNL     1      -2.372   1.092  -1.895  1.00  0.00     0.033 C 
HETATM   15  C20 UNL     1      -3.336   0.273  -2.770  1.00  0.00     0.171 C 
HETATM   16  O5  UNL     1      -4.318  -0.353  -2.059  1.00  0.00    -0.361 OA
HETATM   17  C21 UNL     1      -3.821  -1.214  -1.051  1.00  0.00     0.265 C 
ENDROOT
BRANCH   8  18
HETATM   18  O1  UNL     1       2.590   0.584   0.277  1.00  0.00    -0.311 OA
BRANCH  18  19
HETATM   19  C9  UNL     1       3.725   0.093   0.909  1.00  0.00     0.295 C 
HETATM   20  O2  UNL     1       3.520  -0.358   2.068  1.00  0.00    -0.259 OA
BRANCH  19  21
HETATM   21  C10 UNL     1       5.038   0.096   0.292  1.00  0.00     0.066 A 
HETATM   22  C11 UNL     1       5.442   0.542  -0.946  1.00  0.00     0.162 A 
HETATM   23  O3  UNL     1       6.743   0.344  -1.082  1.00  0.00    -0.299 OA
HETATM   24  C12 UNL     1       7.252  -0.209  -0.013  1.00  0.00     0.183 A 
HETATM   25  C13 UNL     1       6.191  -0.380   0.882  1.00  0.00     0.083 A 
BRANCH  24  26
HETATM   26  O4  UNL     1       8.590  -0.533   0.131  1.00  0.00    -0.341 OA
ATOM     27  H4  UNL     1       8.960  -0.935   0.908  1.00  0.00     0.220 HD
ENDBRANCH  24  26
ENDBRANCH  19  21
ENDBRANCH  18  19
ENDBRANCH   8  18
BRANCH  17  28
HETATM   28  O6  UNL     1      -4.929  -1.853  -0.516  1.00  0.00    -0.370 OA
ATOM     29  H6  UNL     1      -5.407  -2.407  -1.122  1.00  0.00     0.212 HD
ENDBRANCH  17  28
TORSDOF 5
