REMARK  6 active torsions:
REMARK  status: ('A' for Active; 'I' for Inactive)
REMARK    1  A    between atoms: C2_2  and  C5_5 
REMARK    2  A    between atoms: C5_5  and  O2_7 
REMARK    3  A    between atoms: O2_7  and  N1_8 
REMARK    4  A    between atoms: C8_12  and  O3_13 
REMARK    5  A    between atoms: C16_22  and  O4_23 
REMARK    6  A    between atoms: O4_23  and  C17_24 
ROOT
HETATM    1  N1  UNL     1       2.167  -1.035   1.409  1.00  0.00    -0.265 N 
ATOM      2  H1  UNL     1       2.547  -1.449   2.260  1.00  0.00     0.194 HD
HETATM    3  C6  UNL     1       0.942  -1.305   1.132  1.00  0.00     0.022 C 
HETATM    4  C7  UNL     1       0.035  -2.147   1.915  1.00  0.00     0.087 C 
HETATM    5  C8  UNL     1      -1.302  -2.144   1.219  1.00  0.00     0.129 C 
HETATM    6  C9  UNL     1      -1.062  -1.536  -0.122  1.00  0.00     0.037 C 
HETATM    7  C10 UNL     1       0.229  -0.791  -0.069  1.00  0.00     0.003 C 
HETATM    8  C11 UNL     1       1.136  -1.143  -1.256  1.00  0.00     0.022 C 
HETATM    9  C12 UNL     1       0.111   0.685   0.063  1.00  0.00     0.016 C 
HETATM   10  C13 UNL     1      -1.149   1.045   0.769  1.00  0.00     0.013 C 
HETATM   11  C14 UNL     1      -2.317   0.642  -0.107  1.00  0.00    -0.009 C 
HETATM   12  C15 UNL     1      -2.453   1.715  -1.165  1.00  0.00     0.018 C 
HETATM   13  C16 UNL     1      -3.622   0.660   0.681  1.00  0.00     0.142 C 
HETATM   14  C18 UNL     1      -4.481  -0.246  -0.181  1.00  0.00     0.034 C 
HETATM   15  C19 UNL     1      -3.529  -1.431  -0.353  1.00  0.00     0.013 C 
HETATM   16  C20 UNL     1      -2.219  -0.734  -0.647  1.00  0.00    -0.027 C 
HETATM   17  C21 UNL     1      -2.084  -0.749  -2.177  1.00  0.00     0.016 C 
ENDROOT
BRANCH   1  18
HETATM   18  O2  UNL     1       3.004  -0.257   0.685  1.00  0.00    -0.199 OA
BRANCH  18  19
HETATM   19  C5  UNL     1       4.345  -0.617   0.536  1.00  0.00     0.288 C 
HETATM   20  O1  UNL     1       4.718  -1.661   1.090  1.00  0.00    -0.262 OA
BRANCH  19  21
HETATM   21  C2  UNL     1       5.300   0.190  -0.240  1.00  0.00     0.039 C 
HETATM   22  C1  UNL     1       4.852   0.308  -1.683  1.00  0.00     0.025 C 
HETATM   23  C3  UNL     1       5.428   1.602   0.325  1.00  0.00     0.025 C 
HETATM   24  C4  UNL     1       6.662  -0.428  -0.198  1.00  0.00     0.025 C 
ENDBRANCH  19  21
ENDBRANCH  18  19
ENDBRANCH   1  18
BRANCH   5  25
HETATM   25  O3  UNL     1      -1.686  -3.502   1.116  1.00  0.00    -0.395 OA
ATOM     26  H3  UNL     1      -2.529  -3.500   0.677  1.00  0.00     0.210 HD
ENDBRANCH   5  25
BRANCH  13  27
HETATM   27  O4  UNL     1      -4.226   1.939   0.635  1.00  0.00    -0.300 OA
BRANCH  27  28
HETATM   28  C17 UNL     1      -4.637   2.661   1.715  1.00  0.00     0.373 C 
HETATM   29  N2  UNL     1      -5.235   3.941   1.565  1.00  0.00    -0.032 NA
HETATM   30  O5  UNL     1      -4.479   2.172   2.862  1.00  0.00    -0.242 OA
ENDBRANCH  27  28
ENDBRANCH  13  27
TORSDOF 6
