REMARK  6 active torsions:
REMARK  status: ('A' for Active; 'I' for Inactive)
REMARK    1  A    between atoms: C3_3  and  N1_4 
REMARK    2  A    between atoms: N1_4  and  O1_6 
REMARK    3  A    between atoms: C7_11  and  O2_12 
REMARK    4  A    between atoms: C7_11  and  C10_16 
REMARK    5  A    between atoms: O2_12  and  C8_13 
REMARK    6  A    between atoms: C21_28  and  O5_29 
ROOT
HETATM    1  C1  UNL     1      -3.720  -1.840  -1.135  1.00  0.00     0.021 C 
HETATM    2  C2  UNL     1      -2.725  -1.010  -0.833  1.00  0.00    -0.033 C 
HETATM    3  C3  UNL     1      -1.452  -1.220  -1.475  1.00  0.00     0.048 C 
HETATM    4  C4  UNL     1      -0.125  -0.769  -1.178  1.00  0.00     0.095 C 
HETATM    5  C5  UNL     1       0.742  -1.894  -0.587  1.00  0.00     0.021 C 
HETATM    6  C6  UNL     1       2.167  -1.501  -0.865  1.00  0.00     0.045 C 
HETATM    7  C7  UNL     1       2.575  -0.198  -0.201  1.00  0.00     0.102 C 
HETATM    8  C13 UNL     1       1.382   0.403   0.415  1.00  0.00    -0.002 C 
HETATM    9  C14 UNL     1       1.388   0.975   1.598  1.00  0.00     0.024 C 
HETATM   10  C15 UNL     1       0.058   0.414  -0.279  1.00  0.00     0.066 C 
HETATM   11  O4  UNL     1      -0.950   0.912   0.389  1.00  0.00    -0.343 OA
HETATM   12  C16 UNL     1      -1.947   0.445   1.058  1.00  0.00     0.074 C 
HETATM   13  C17 UNL     1      -1.805  -0.615   2.095  1.00  0.00     0.047 C 
HETATM   14  C18 UNL     1      -2.546   1.651   1.831  1.00  0.00     0.039 C 
HETATM   15  C19 UNL     1      -4.029   1.559   1.965  1.00  0.00     0.006 C 
HETATM   16  C20 UNL     1      -4.701   1.769   0.614  1.00  0.00     0.032 C 
HETATM   17  C21 UNL     1      -3.736   1.240  -0.438  1.00  0.00     0.129 C 
HETATM   18  C22 UNL     1      -3.082   0.023   0.133  1.00  0.00     0.083 C 
ENDROOT
BRANCH   7  19
HETATM   19  O2  UNL     1       3.059   0.588  -1.297  1.00  0.00    -0.305 OA
BRANCH  19  20
HETATM   20  C8  UNL     1       3.542   1.851  -1.236  1.00  0.00     0.255 C 
HETATM   21  C9  UNL     1       4.018   2.560  -2.457  1.00  0.00     0.126 C 
HETATM   22  O3  UNL     1       3.559   2.365  -0.110  1.00  0.00    -0.266 OA
ENDBRANCH  19  20
ENDBRANCH   7  19
BRANCH   7  23
HETATM   23  C10 UNL     1       3.679  -0.486   0.784  1.00  0.00     0.017 C 
HETATM   24  C11 UNL     1       3.298  -1.448   1.860  1.00  0.00     0.013 C 
HETATM   25  C12 UNL     1       4.916  -1.055   0.105  1.00  0.00     0.013 C 
ENDBRANCH   7  23
BRANCH   3  26
HETATM   26  N1  UNL     1      -1.543  -1.973  -2.536  1.00  0.00    -0.272 N 
ATOM     27  H1  UNL     1      -2.463  -2.326  -2.800  1.00  0.00     0.194 HD
BRANCH  26  28
HETATM   28  O1  UNL     1      -0.475  -2.314  -3.312  1.00  0.00    -0.290 OA
ATOM     29  H1  UNL     1      -0.541  -2.862  -4.085  1.00  0.00     0.244 HD
ENDBRANCH  26  28
ENDBRANCH   3  26
BRANCH  17  30
HETATM   30  O5  UNL     1      -4.438   1.002  -1.600  1.00  0.00    -0.395 OA
ATOM     31  H5  UNL     1      -3.836   0.672  -2.256  1.00  0.00     0.210 HD
ENDBRANCH  17  30
TORSDOF 6
