REMARK  13 active torsions:
REMARK  status: ('A' for Active; 'I' for Inactive)
REMARK    1  A    between atoms: N1_2  and  C2_3 
REMARK       I    between atoms: N1_2  and  C4_11 
REMARK    2  A    between atoms: C2_3  and  C3_4 
REMARK    3  A    between atoms: C3_4  and  O1_5 
REMARK    4  A    between atoms: N2_7  and  O2_9 
REMARK    5  A    between atoms: C4_11  and  C5_13 
REMARK    6  A    between atoms: C5_13  and  C6_14 
REMARK    7  A    between atoms: C5_13  and  C13_21 
REMARK    8  A    between atoms: C6_14  and  C7_15 
REMARK       I    between atoms: C13_21  and  N3_23 
REMARK    9  A    between atoms: N4_26  and  C16_27 
REMARK   10  A    between atoms: C16_27  and  C17_28 
REMARK   11  A    between atoms: C20_31  and  O5_32 
REMARK   12  A    between atoms: C21_34  and  C22_35 
REMARK   13  A    between atoms: C22_35  and  C23_36 
ROOT
HETATM    1  C13 UNL     1      -2.341  -0.041  -0.569  1.00  0.00     0.241 C 
HETATM    2  O4  UNL     1      -3.167  -0.018  -1.555  1.00  0.00    -0.272 OA
HETATM    3  N3  UNL     1      -1.037  -0.459  -0.814  1.00  0.00    -0.268 N 
HETATM    4  C14 UNL     1      -0.518  -0.912  -2.115  1.00  0.00     0.157 C 
HETATM    5  C15 UNL     1       0.418  -2.028  -1.668  1.00  0.00     0.148 C 
HETATM    6  N4  UNL     1       1.140  -1.320  -0.597  1.00  0.00    -0.332 N 
HETATM    7  C25 UNL     1       0.121  -0.547   0.029  1.00  0.00     0.327 C 
HETATM    8  O6  UNL     1       0.195  -0.005   1.159  1.00  0.00    -0.247 OA
ENDROOT
BRANCH   1   9
HETATM    9  C5  UNL     1      -2.941   0.400   0.710  1.00  0.00     0.171 C 
BRANCH   9  10
HETATM   10  C4  UNL     1      -3.657   1.690   0.348  1.00  0.00     0.233 C 
HETATM   11  N1  UNL     1      -3.047   2.919   0.113  1.00  0.00    -0.348 N 
HETATM   12  C1  UNL     1      -3.904   4.051  -0.288  1.00  0.00     0.153 C 
HETATM   13  O3  UNL     1      -4.938   1.656   0.241  1.00  0.00    -0.272 OA
BRANCH  11  14
HETATM   14  C2  UNL     1      -1.656   3.246   0.254  1.00  0.00     0.210 C 
BRANCH  14  15
HETATM   15  C3  UNL     1      -1.299   3.790   1.589  1.00  0.00     0.153 C 
HETATM   16  N2  UNL     1      -0.776   4.961   1.676  1.00  0.00    -0.250 N 
ATOM     17  H2  UNL     1      -0.536   5.322   2.599  1.00  0.00     0.196 HD
BRANCH  15  18
HETATM   18  O1  UNL     1      -1.517   3.066   2.734  1.00  0.00    -0.347 OA
ATOM     19  H1  UNL     1      -1.289   3.414   3.588  1.00  0.00     0.219 HD
ENDBRANCH  15  18
BRANCH  16  20
HETATM   20  O2  UNL     1      -0.526   5.750   0.572  1.00  0.00    -0.288 OA
ATOM     21  H2  UNL     1      -0.139   6.615   0.636  1.00  0.00     0.244 HD
ENDBRANCH  16  20
ENDBRANCH  14  15
ENDBRANCH  11  14
ENDBRANCH   9  10
BRANCH   9  22
HETATM   22  C6  UNL     1      -4.037  -0.499   1.201  1.00  0.00     0.028 C 
BRANCH  22  23
HETATM   23  C7  UNL     1      -3.733  -1.858   1.697  1.00  0.00    -0.013 C 
HETATM   24  C8  UNL     1      -5.000  -2.560   2.180  1.00  0.00     0.005 C 
HETATM   25  C9  UNL     1      -5.639  -3.433   1.176  1.00  0.00     0.000 C 
HETATM   26  C10 UNL     1      -4.737  -4.278   0.357  1.00  0.00     0.000 C 
HETATM   27  C11 UNL     1      -3.346  -4.200   0.950  1.00  0.00     0.000 C 
HETATM   28  C12 UNL     1      -2.962  -2.697   0.759  1.00  0.00     0.005 C 
ENDBRANCH  22  23
ENDBRANCH   9  22
ENDBRANCH   1   9
BRANCH   6  29
HETATM   29  C16 UNL     1       2.536  -1.402  -0.277  1.00  0.00     0.132 C 
BRANCH  29  30
HETATM   30  C17 UNL     1       3.388  -0.379  -1.023  1.00  0.00     0.004 C 
HETATM   31  C18 UNL     1       2.898   0.988  -0.651  1.00  0.00     0.009 C 
HETATM   32  C19 UNL     1       3.782   2.080  -1.222  1.00  0.00     0.032 C 
HETATM   33  C20 UNL     1       5.107   1.550  -1.666  1.00  0.00     0.122 C 
HETATM   34  C21 UNL     1       5.613   0.610  -0.553  1.00  0.00     0.023 C 
HETATM   35  C24 UNL     1       4.828  -0.643  -0.625  1.00  0.00     0.013 C 
BRANCH  33  36
HETATM   36  O5  UNL     1       5.096   0.958  -2.898  1.00  0.00    -0.395 OA
ATOM     37  H5  UNL     1       5.938   0.621  -3.180  1.00  0.00     0.210 HD
ENDBRANCH  33  36
BRANCH  34  38
HETATM   38  C22 UNL     1       7.089   0.467  -0.674  1.00  0.00     0.124 C 
BRANCH  38  39
HETATM   39  C23 UNL     1       7.652  -0.430   0.388  1.00  0.00     0.388 C 
HETATM   40  F1  UNL     1       9.039  -0.484   0.213  1.00  0.00    -0.171 F 
HETATM   41  F2  UNL     1       7.332   0.012   1.641  1.00  0.00    -0.171 F 
HETATM   42  F3  UNL     1       7.177  -1.717   0.175  1.00  0.00    -0.171 F 
ENDBRANCH  38  39
ENDBRANCH  34  38
ENDBRANCH  29  30
ENDBRANCH   6  29
TORSDOF 13
