REMARK  12 active torsions:
REMARK  status: ('A' for Active; 'I' for Inactive)
REMARK    1  A    between atoms: C2_2  and  N1_3 
REMARK    2  A    between atoms: C2_2  and  C7_14 
REMARK       I    between atoms: N1_3  and  C3_5 
REMARK    3  A    between atoms: C3_5  and  C4_7 
REMARK    4  A    between atoms: C4_7  and  N2_10 
REMARK       I    between atoms: C7_14  and  N3_16 
REMARK    5  A    between atoms: C12_21  and  C13_22 
REMARK       I    between atoms: C13_22  and  N4_24 
REMARK    6  A    between atoms: N4_24  and  C14_26 
REMARK    7  A    between atoms: C14_26  and  C15_27 
REMARK    8  A    between atoms: C14_26  and  C22_34 
REMARK    9  A    between atoms: C15_27  and  C16_28 
REMARK   10  A    between atoms: C22_34  and  O5_36 
REMARK   11  A    between atoms: O5_36  and  C23_37 
REMARK   12  A    between atoms: C23_37  and  C24_38 
ROOT
HETATM    1  C7  UNL     1       2.253  -0.740  -0.897  1.00  0.00     0.243 C 
HETATM    2  O2  UNL     1       1.537  -0.052  -0.115  1.00  0.00    -0.271 OA
HETATM    3  N3  UNL     1       1.863  -1.984  -1.400  1.00  0.00    -0.337 N 
HETATM    4  C8  UNL     1       2.813  -2.780  -2.234  1.00  0.00     0.127 C 
HETATM    5  C9  UNL     1       3.186  -3.929  -1.278  1.00  0.00     0.020 C 
HETATM    6  C10 UNL     1       1.959  -4.756  -1.042  1.00  0.00     0.004 C 
HETATM    7  C11 UNL     1       0.841  -3.943  -0.393  1.00  0.00     0.035 C 
HETATM    8  C12 UNL     1       0.621  -2.679  -1.200  1.00  0.00     0.179 C 
ENDROOT
BRANCH   8   9
HETATM    9  C13 UNL     1      -0.555  -1.957  -0.770  1.00  0.00     0.241 C 
HETATM   10  O3  UNL     1      -1.219  -2.491   0.198  1.00  0.00    -0.271 OA
HETATM   11  N4  UNL     1      -1.011  -0.750  -1.329  1.00  0.00    -0.345 N 
ATOM     12  H4  UNL     1      -0.471  -0.347  -2.095  1.00  0.00     0.163 HD
BRANCH  11  13
HETATM   13  C14 UNL     1      -2.219  -0.025  -0.884  1.00  0.00     0.184 C 
BRANCH  13  14
HETATM   14  C15 UNL     1      -1.998   0.497   0.453  1.00  0.00     0.040 C 
BRANCH  14  15
HETATM   15  C16 UNL     1      -2.922   1.309   1.220  1.00  0.00    -0.012 C 
HETATM   16  C17 UNL     1      -4.263   0.840   1.604  1.00  0.00     0.005 C 
HETATM   17  C18 UNL     1      -4.659   1.553   2.913  1.00  0.00     0.000 C 
HETATM   18  C19 UNL     1      -4.175   2.986   2.876  1.00  0.00     0.000 C 
HETATM   19  C20 UNL     1      -4.045   3.502   1.464  1.00  0.00     0.000 C 
HETATM   20  C21 UNL     1      -2.995   2.742   0.668  1.00  0.00     0.005 C 
ENDBRANCH  14  15
ENDBRANCH  13  14
BRANCH  13  21
HETATM   21  C22 UNL     1      -3.377  -0.876  -1.206  1.00  0.00     0.281 C 
HETATM   22  O4  UNL     1      -3.078  -2.008  -1.766  1.00  0.00    -0.263 OA
BRANCH  21  23
HETATM   23  O5  UNL     1      -4.659  -0.648  -1.009  1.00  0.00    -0.317 OA
BRANCH  23  24
HETATM   24  C23 UNL     1      -5.804  -1.334  -1.238  1.00  0.00     0.214 C 
BRANCH  24  25
HETATM   25  C24 UNL     1      -6.139  -2.567  -0.491  1.00  0.00     0.202 C 
HETATM   26 CL1  UNL     1      -4.986  -3.864  -0.710  1.00  0.00    -0.106 Cl
HETATM   27 CL2  UNL     1      -7.786  -3.074  -1.031  1.00  0.00    -0.106 Cl
ENDBRANCH  24  25
ENDBRANCH  23  24
ENDBRANCH  21  23
ENDBRANCH  13  21
ENDBRANCH  11  13
ENDBRANCH   8   9
BRANCH   1  28
HETATM   28  C2  UNL     1       3.566  -0.133  -1.257  1.00  0.00     0.172 C 
HETATM   29  C1  UNL     1       3.528   0.335  -2.709  1.00  0.00     0.042 C 
BRANCH  28  30
HETATM   30  N1  UNL     1       3.757   1.080  -0.463  1.00  0.00    -0.346 N 
HETATM   31  C3  UNL     1       4.923   1.216   0.340  1.00  0.00     0.253 C 
HETATM   32  O1  UNL     1       5.786   0.305   0.372  1.00  0.00    -0.271 OA
ATOM     33  H1  UNL     1       3.059   1.823  -0.485  1.00  0.00     0.163 HD
BRANCH  31  34
HETATM   34  C4  UNL     1       5.160   2.433   1.168  1.00  0.00     0.196 C 
HETATM   35  C5  UNL     1       5.152   3.624   0.267  1.00  0.00     0.056 C 
HETATM   36  C6  UNL     1       4.087   2.580   2.229  1.00  0.00     0.056 C 
BRANCH  34  37
HETATM   37  N2  UNL     1       6.422   2.296   1.834  1.00  0.00    -0.062 N 
ATOM     38  H23 UNL     1       6.485   1.435   2.378  1.00  0.00     0.275 HD
ATOM     39  H22 UNL     1       7.187   2.109   1.186  1.00  0.00     0.275 HD
ATOM     40  H21 UNL     1       6.584   3.129   2.400  1.00  0.00     0.275 HD
ENDBRANCH  34  37
ENDBRANCH  31  34
ENDBRANCH  28  30
ENDBRANCH   1  28
TORSDOF 12
