REMARK  10 active torsions:
REMARK  status: ('A' for Active; 'I' for Inactive)
REMARK    1  A    between atoms: C2_2  and  C3_3 
REMARK    2  A    between atoms: C3_3  and  C4_4 
REMARK    3  A    between atoms: C4_4  and  C5_5 
REMARK    4  A    between atoms: C5_5  and  C6_6 
REMARK    5  A    between atoms: C6_6  and  N2_10 
REMARK    6  A    between atoms: N2_10  and  C7_12 
REMARK    7  A    between atoms: C11_17  and  C13_19 
REMARK    8  A    between atoms: C14_21  and  O2_22 
REMARK    9  A    between atoms: C18_27  and  O4_28 
REMARK   10  A    between atoms: C23_36  and  O7_37 
ROOT
HETATM    1  C7  UNL     1       0.962   1.255   1.168  1.00  0.00     0.185 C 
HETATM    2  C8  UNL     1      -0.195   0.404   1.506  1.00  0.00     0.160 C 
HETATM    3  O1  UNL     1      -0.111  -0.050   2.660  1.00  0.00    -0.295 OA
HETATM    4  C9  UNL     1      -1.424  -0.048   0.833  1.00  0.00     0.092 C 
HETATM    5  C10 UNL     1      -1.153  -1.397   0.244  1.00  0.00     0.032 C 
HETATM    6  C11 UNL     1      -2.308  -2.275  -0.017  1.00  0.00     0.020 C 
HETATM    7  C12 UNL     1      -1.995  -3.048  -1.311  1.00  0.00     0.021 C 
HETATM    8  C14 UNL     1      -3.625  -1.634  -0.230  1.00  0.00     0.273 C 
HETATM    9  O3  UNL     1      -3.512  -0.649  -1.284  1.00  0.00    -0.331 OA
HETATM   10  C16 UNL     1      -2.866   0.579  -1.080  1.00  0.00     0.144 C 
HETATM   11  C17 UNL     1      -1.948   0.913  -0.178  1.00  0.00    -0.009 C 
HETATM   12  C18 UNL     1      -1.700   2.308  -0.498  1.00  0.00     0.126 C 
HETATM   13  C19 UNL     1      -2.876   3.237  -0.325  1.00  0.00     0.157 C 
HETATM   14  C20 UNL     1      -2.159   4.553  -0.148  1.00  0.00     0.263 C 
HETATM   15  O5  UNL     1      -2.742   5.659  -0.087  1.00  0.00    -0.265 OA
HETATM   16  O6  UNL     1      -0.772   4.312  -0.067  1.00  0.00    -0.304 OA
HETATM   17  C21 UNL     1      -0.695   2.967   0.432  1.00  0.00     0.130 C 
HETATM   18  C22 UNL     1      -1.151   3.015   1.848  1.00  0.00     0.053 C 
HETATM   19  C23 UNL     1       0.647   2.353   0.210  1.00  0.00     0.186 C 
ENDROOT
BRANCH   1  20
HETATM   20  N2  UNL     1       2.059   0.434   0.610  1.00  0.00    -0.366 N 
ATOM     21  H2  UNL     1       1.921  -0.569   0.486  1.00  0.00     0.161 HD
BRANCH  20  22
HETATM   22  C6  UNL     1       3.292   1.014   0.247  1.00  0.00     0.071 C 
HETATM   23  N1  UNL     1       3.921   1.634   1.220  1.00  0.00    -0.389 N 
ATOM     24  H12 UNL     1       4.813   2.054   0.957  1.00  0.00     0.157 HD
ATOM     25  H11 UNL     1       3.509   1.627   2.153  1.00  0.00     0.157 HD
BRANCH  22  26
HETATM   26  C5  UNL     1       3.877   1.024  -1.079  1.00  0.00     0.075 C 
BRANCH  26  27
HETATM   27  C4  UNL     1       4.039  -0.285  -1.748  1.00  0.00     0.007 C 
BRANCH  27  28
HETATM   28  C3  UNL     1       4.946  -1.292  -1.162  1.00  0.00     0.000 C 
BRANCH  28  29
HETATM   29  C2  UNL     1       4.674  -1.852   0.177  1.00  0.00    -0.005 C 
HETATM   30  C1  UNL     1       5.780  -2.892   0.463  1.00  0.00     0.005 C 
ENDBRANCH  28  29
ENDBRANCH  27  28
ENDBRANCH  26  27
ENDBRANCH  22  26
ENDBRANCH  20  22
ENDBRANCH   1  20
BRANCH  19  31
HETATM   31  O7  UNL     1       1.648   3.305   0.211  1.00  0.00    -0.390 OA
ATOM     32  H7  UNL     1       1.447   4.005  -0.399  1.00  0.00     0.210 HD
ENDBRANCH  19  31
BRANCH  12  33
HETATM   33  O4  UNL     1      -1.255   2.439  -1.804  1.00  0.00    -0.381 OA
ATOM     34  H4  UNL     1      -1.093   3.351  -2.013  1.00  0.00     0.211 HD
ENDBRANCH  12  33
BRANCH   6  35
HETATM   35  C13 UNL     1      -2.462  -3.359   1.039  1.00  0.00     0.128 C 
HETATM   36 CL1  UNL     1      -2.697  -2.649   2.656  1.00  0.00    -0.130 Cl
ENDBRANCH   6  35
BRANCH   8  37
HETATM   37  O2  UNL     1      -4.512  -2.576  -0.748  1.00  0.00    -0.365 OA
HETATM   38  C15 UNL     1      -5.665  -2.593  -0.006  1.00  0.00     0.204 C 
ENDBRANCH   8  37
TORSDOF 10
