REMARK  11 active torsions:
REMARK  status: ('A' for Active; 'I' for Inactive)
REMARK    1  A    between atoms: N1_2  and  C2_3 
REMARK    2  A    between atoms: N1_2  and  C22_34 
REMARK    3  A    between atoms: C2_3  and  C3_4 
REMARK    4  A    between atoms: C6_8  and  O1_9 
REMARK    5  A    between atoms: O1_9  and  C7_10 
REMARK    6  A    between atoms: C8_12  and  C9_13 
REMARK    7  A    between atoms: C9_13  and  O3_14 
REMARK    8  A    between atoms: C10_16  and  O4_17 
REMARK    9  A    between atoms: C11_19  and  O5_20 
REMARK   10  A    between atoms: C12_22  and  O6_23 
REMARK   11  A    between atoms: C13_25  and  C14_26 
ROOT
HETATM    1  C3  UNL     1       2.534  -0.628  -0.552  1.00  0.00    -0.028 A 
HETATM    2  C4  UNL     1       1.697  -1.679  -0.803  1.00  0.00     0.035 A 
HETATM    3  C5  UNL     1       0.350  -1.476  -0.858  1.00  0.00     0.069 A 
HETATM    4 CL1  UNL     1      -0.671  -2.838  -1.325  1.00  0.00    -0.081 Cl
HETATM    5  C6  UNL     1      -0.187  -0.192  -0.659  1.00  0.00     0.104 A 
HETATM    6  C13 UNL     1       0.619   0.914  -0.413  1.00  0.00     0.002 A 
HETATM    7  C21 UNL     1       2.007   0.623  -0.369  1.00  0.00     0.023 A 
ENDROOT
BRANCH   5   8
HETATM    8  O1  UNL     1      -1.535  -0.128  -0.730  1.00  0.00    -0.315 OA
BRANCH   8   9
HETATM    9  C7  UNL     1      -2.515  -0.318   0.263  1.00  0.00     0.298 C 
HETATM   10  O2  UNL     1      -2.541  -1.668   0.568  1.00  0.00    -0.348 OA
HETATM   11  C8  UNL     1      -3.712  -2.318   0.722  1.00  0.00     0.179 C 
HETATM   12  C10 UNL     1      -4.739  -2.053  -0.322  1.00  0.00     0.180 C 
HETATM   13  C11 UNL     1      -4.679  -0.688  -0.908  1.00  0.00     0.183 C 
HETATM   14  C12 UNL     1      -3.794   0.269  -0.134  1.00  0.00     0.205 C 
BRANCH  11  15
HETATM   15  C9  UNL     1      -4.235  -2.461   2.125  1.00  0.00     0.198 C 
BRANCH  15  16
HETATM   16  O3  UNL     1      -4.469  -1.265   2.791  1.00  0.00    -0.398 OA
ATOM     17  H3  UNL     1      -4.799  -1.355   3.677  1.00  0.00     0.209 HD
ENDBRANCH  15  16
ENDBRANCH  11  15
BRANCH  12  18
HETATM   18  O4  UNL     1      -4.572  -2.942  -1.425  1.00  0.00    -0.390 OA
ATOM     19  H4  UNL     1      -5.228  -2.773  -2.091  1.00  0.00     0.210 HD
ENDBRANCH  12  18
BRANCH  13  20
HETATM   20  O5  UNL     1      -4.202  -0.664  -2.232  1.00  0.00    -0.390 OA
ATOM     21  H5  UNL     1      -4.164   0.208  -2.606  1.00  0.00     0.210 HD
ENDBRANCH  13  20
BRANCH  14  22
HETATM   22  O6  UNL     1      -3.597   1.349  -1.031  1.00  0.00    -0.388 OA
ATOM     23  H6  UNL     1      -4.428   1.730  -1.289  1.00  0.00     0.210 HD
ENDBRANCH  14  22
ENDBRANCH   8   9
ENDBRANCH   5   8
BRANCH   6  24
HETATM   24  C14 UNL     1       0.124   2.282  -0.191  1.00  0.00    -0.067 C 
HETATM   25  C15 UNL     1      -0.104   3.015  -1.505  1.00  0.00     0.035 C 
HETATM   26  C16 UNL     1       0.384   4.405  -1.506  1.00  0.00     0.004 C 
HETATM   27  C17 UNL     1       0.335   5.131  -0.196  1.00  0.00     0.000 C 
HETATM   28  C18 UNL     1      -1.003   5.151   0.461  1.00  0.00     0.000 C 
HETATM   29  C19 UNL     1      -1.550   3.829   0.880  1.00  0.00     0.004 C 
HETATM   30  C20 UNL     1      -0.524   2.728   1.016  1.00  0.00     0.035 C 
ENDBRANCH   6  24
BRANCH   1  31
HETATM   31  C2  UNL     1       3.976  -0.890  -0.389  1.00  0.00     0.311 C 
BRANCH  31  32
HETATM   32  N1  UNL     1       4.213  -2.289  -0.122  1.00  0.00     0.097 N 
HETATM   33  C1  UNL     1       3.656  -2.827   1.056  1.00  0.00     0.310 C 
BRANCH  32  34
HETATM   34  C22 UNL     1       5.589  -2.570  -0.371  1.00  0.00     0.270 C 
HETATM   35  C23 UNL     1       5.951  -4.032  -0.583  1.00  0.00     0.205 C 
HETATM   36  O7  UNL     1       6.610  -4.034   0.650  1.00  0.00    -0.387 OA
HETATM   37  C24 UNL     1       6.456  -2.652   0.856  1.00  0.00     0.205 C 
ENDBRANCH  32  34
ENDBRANCH  31  32
ENDBRANCH   1  31
TORSDOF 11
