REMARK  11 active torsions:
REMARK  status: ('A' for Active; 'I' for Inactive)
REMARK    1  A    between atoms: C2_2  and  C5_5 
REMARK    2  A    between atoms: C5_5  and  N1_6 
REMARK    3  A    between atoms: C8_10  and  C9_11 
REMARK    4  A    between atoms: C9_11  and  O2_12 
REMARK    5  A    between atoms: C11_15  and  O3_16 
REMARK    6  A    between atoms: C13_19  and  C14_20 
REMARK    7  A    between atoms: C14_20  and  O4_21 
REMARK    8  A    between atoms: C15_23  and  C16_24 
REMARK    9  A    between atoms: C16_24  and  C17_25 
REMARK   10  A    between atoms: N2_30  and  C22_31 
REMARK   11  A    between atoms: C22_31  and  C23_32 
ROOT
HETATM    1  N1  UNL     1      -3.303   0.190   0.029  1.00  0.00     0.107 N 
HETATM    2  C6  UNL     1      -3.999  -1.031   0.160  1.00  0.00     0.301 C 
HETATM    3  C7  UNL     1      -4.308  -1.328  -1.289  1.00  0.00     0.174 C 
HETATM    4  O1  UNL     1      -5.228  -1.385  -2.047  1.00  0.00    -0.295 OA
HETATM    5  C8  UNL     1      -2.826  -1.533  -1.343  1.00  0.00     0.084 C 
HETATM    6  C10 UNL     1      -2.964  -2.147  -0.004  1.00  0.00     0.076 C 
HETATM    7  C11 UNL     1      -1.789  -2.046   0.921  1.00  0.00     0.134 C 
HETATM    8  C12 UNL     1      -1.189  -0.695   0.956  1.00  0.00     0.052 C 
HETATM    9  C13 UNL     1       0.272  -0.665   1.346  1.00  0.00    -0.047 C 
HETATM   10  C15 UNL     1       0.911   0.218   0.587  1.00  0.00    -0.072 C 
HETATM   11  C26 UNL     1      -0.138   0.864  -0.306  1.00  0.00     0.042 C 
HETATM   12  C27 UNL     1      -0.978  -0.318  -0.531  1.00  0.00     0.035 C 
HETATM   13  C28 UNL     1      -2.355  -0.120  -1.059  1.00  0.00     0.247 C 
ENDROOT
BRANCH  10  14
HETATM   14  C16 UNL     1       2.323   0.581   0.606  1.00  0.00     0.075 C 
BRANCH  14  15
HETATM   15  C17 UNL     1       3.174   0.190  -0.559  1.00  0.00     0.160 C 
HETATM   16  C18 UNL     1       3.273  -1.262  -0.827  1.00  0.00     0.049 C 
HETATM   17  C19 UNL     1       2.901   0.936  -1.814  1.00  0.00     0.043 C 
HETATM   18  C20 UNL     1       4.175   0.640  -2.610  1.00  0.00     0.033 C 
HETATM   19  C21 UNL     1       5.212   0.574  -1.543  1.00  0.00     0.273 C 
HETATM   20  N2  UNL     1       4.539   0.657  -0.234  1.00  0.00     0.098 N 
BRANCH  20  21
HETATM   21  C22 UNL     1       5.160  -0.292   0.684  1.00  0.00     0.278 C 
BRANCH  21  22
HETATM   22  C23 UNL     1       6.445   0.200   1.253  1.00  0.00     0.014 A 
HETATM   23  C24 UNL     1       7.642   0.560   0.484  1.00  0.00     0.007 A 
HETATM   24  C25 UNL     1       6.795   1.656   1.109  1.00  0.00     0.007 A 
ENDBRANCH  21  22
ENDBRANCH  20  21
ENDBRANCH  14  15
ENDBRANCH  10  14
BRANCH   9  25
HETATM   25  C14 UNL     1       0.757  -1.527   2.410  1.00  0.00     0.199 C 
BRANCH  25  26
HETATM   26  O4  UNL     1       2.071  -1.484   2.745  1.00  0.00    -0.397 OA
ATOM     27  H4  UNL     1       2.388  -2.048   3.441  1.00  0.00     0.209 HD
ENDBRANCH  25  26
ENDBRANCH   9  25
BRANCH   7  28
HETATM   28  O3  UNL     1      -2.289  -2.320   2.216  1.00  0.00    -0.394 OA
ATOM     29  H3  UNL     1      -1.544  -2.256   2.802  1.00  0.00     0.210 HD
ENDBRANCH   7  28
BRANCH   1  30
HETATM   30  C5  UNL     1      -4.141   1.259  -0.397  1.00  0.00     0.282 C 
BRANCH  30  31
HETATM   31  C2  UNL     1      -5.142   1.779   0.559  1.00  0.00    -0.025 C 
HETATM   32  C1  UNL     1      -4.515   2.310   1.841  1.00  0.00     0.016 C 
HETATM   33  C3  UNL     1      -6.307   0.932   0.897  1.00  0.00     0.016 C 
HETATM   34  C4  UNL     1      -5.733   3.047  -0.112  1.00  0.00     0.016 C 
ENDBRANCH  30  31
ENDBRANCH   1  30
BRANCH   5  35
HETATM   35  C9  UNL     1      -2.270  -2.243  -2.483  1.00  0.00     0.184 C 
BRANCH  35  36
HETATM   36  O2  UNL     1      -2.734  -3.527  -2.646  1.00  0.00    -0.400 OA
ATOM     37  H2  UNL     1      -2.371  -3.991  -3.391  1.00  0.00     0.209 HD
ENDBRANCH  35  36
ENDBRANCH   5  35
TORSDOF 11
