REMARK  7 active torsions:
REMARK  status: ('A' for Active; 'I' for Inactive)
REMARK    1  A    between atoms: C4_4  and  C5_5 
REMARK    2  A    between atoms: C5_5  and  N1_6 
REMARK    3  A    between atoms: C14_18  and  C15_19 
REMARK    4  A    between atoms: C15_19  and  C16_20 
REMARK    5  A    between atoms: C15_19  and  C23_27 
REMARK    6  A    between atoms: C16_20  and  C17_21 
REMARK    7  A    between atoms: S1_30  and  N4_31 
ROOT
HETATM    1  N1  UNL     1      -4.108  -0.679   0.427  1.00  0.00    -0.272 N 
HETATM    2  C6  UNL     1      -4.268   0.702   0.442  1.00  0.00     0.162 C 
HETATM    3  C7  UNL     1      -2.853   1.204   0.019  1.00  0.00     0.042 C 
HETATM    4  C8  UNL     1      -2.831   1.548  -1.445  1.00  0.00    -0.009 C 
HETATM    5  C9  UNL     1      -3.689   0.649  -2.297  1.00  0.00     0.010 C 
HETATM    6  C10 UNL     1      -1.451   1.565  -2.016  1.00  0.00     0.024 C 
HETATM    7  C11 UNL     1      -0.572   0.406  -1.649  1.00  0.00     0.105 C 
HETATM    8  C12 UNL     1      -0.696  -0.099  -0.261  1.00  0.00     0.126 C 
HETATM    9  C13 UNL     1       0.273   0.577   0.624  1.00  0.00     0.226 C 
HETATM   10  O1  UNL     1      -0.155   1.378   1.540  1.00  0.00    -0.273 OA
HETATM   11  N2  UNL     1       1.656   0.357   0.479  1.00  0.00    -0.343 N 
ATOM     12  H2  UNL     1       2.228   0.170   1.303  1.00  0.00     0.163 HD
HETATM   13  C14 UNL     1       2.286   0.395  -0.858  1.00  0.00     0.198 C 
HETATM   14  S1  UNL     1       1.095   0.883  -2.073  1.00  0.00     0.046 S 
HETATM   15  O3  UNL     1       1.395   0.410  -3.456  1.00  0.00    -0.248 OA
HETATM   16  C24 UNL     1      -2.049   0.011   0.368  1.00  0.00     0.172 C 
HETATM   17  O4  UNL     1      -2.877  -1.049   0.096  1.00  0.00    -0.272 OA
ENDROOT
BRANCH  13  18
HETATM   18  C15 UNL     1       3.081  -0.807  -1.139  1.00  0.00     0.111 C 
BRANCH  18  19
HETATM   19  C16 UNL     1       4.232  -1.183  -0.306  1.00  0.00     0.021 C 
BRANCH  19  20
HETATM   20  C17 UNL     1       5.474  -0.389  -0.159  1.00  0.00    -0.014 C 
HETATM   21  C18 UNL     1       6.372  -1.173   0.790  1.00  0.00     0.005 C 
HETATM   22  C19 UNL     1       7.390  -0.443   1.535  1.00  0.00     0.000 C 
HETATM   23  C20 UNL     1       6.902   0.889   2.087  1.00  0.00     0.000 C 
HETATM   24  C21 UNL     1       6.527   1.688   0.862  1.00  0.00     0.000 C 
HETATM   25  C22 UNL     1       5.294   1.013   0.254  1.00  0.00     0.005 C 
ENDBRANCH  19  20
ENDBRANCH  18  19
BRANCH  18  26
HETATM   26  C23 UNL     1       2.279  -2.059  -1.318  1.00  0.00     0.238 C 
HETATM   27  N3  UNL     1       1.461  -2.328  -2.422  1.00  0.00    -0.062 NA
HETATM   28  O2  UNL     1       2.351  -2.919  -0.409  1.00  0.00    -0.276 OA
ENDBRANCH  18  26
ENDBRANCH  13  18
BRANCH  14  29
HETATM   29  N4  UNL     1       1.142   2.467  -2.240  1.00  0.00    -0.358 N 
ATOM     30  H42 UNL     1       0.344   3.091  -2.121  1.00  0.00     0.165 HD
ATOM     31  H41 UNL     1       2.095   2.740  -2.482  1.00  0.00     0.165 HD
ENDBRANCH  14  29
BRANCH   1  32
HETATM   32  C5  UNL     1      -4.777  -1.469   1.358  1.00  0.00     0.095 C 
BRANCH  32  33
HETATM   33  C4  UNL     1      -6.230  -1.690   1.299  1.00  0.00     0.030 A 
HETATM   34  C2  UNL     1      -7.346  -0.780   1.398  1.00  0.00    -0.009 A 
HETATM   35  C1  UNL     1      -7.377   0.676   1.670  1.00  0.00     0.011 C 
HETATM   36  C3  UNL     1      -7.008  -1.614   2.610  1.00  0.00     0.015 A 
ENDBRANCH  32  33
ENDBRANCH   1  32
TORSDOF 7
