REMARK  6 active torsions:
REMARK  status: ('A' for Active; 'I' for Inactive)
REMARK    1  A    between atoms: C2_2  and  C3_3 
REMARK    2  A    between atoms: C3_3  and  N1_4 
REMARK    3  A    between atoms: C6_11  and  C7_12 
REMARK    4  A    between atoms: C16_26  and  C17_27 
REMARK    5  A    between atoms: C17_27  and  C18_28 
REMARK    6  A    between atoms: C21_33  and  O5_34 
ROOT
HETATM    1  N1  UNL     1       2.193  -2.248   0.800  1.00  0.00    -0.363 N 
ATOM      2  H1  UNL     1       1.688  -2.603   1.612  1.00  0.00     0.165 HD
HETATM    3  C4  UNL     1       1.970  -1.032   0.590  1.00  0.00     0.132 C 
HETATM    4  C5  UNL     1       2.603  -0.370  -0.524  1.00  0.00     0.271 C 
HETATM    5  O1  UNL     1       2.631  -1.084  -1.571  1.00  0.00    -0.266 OA
HETATM    6  N2  UNL     1       3.195   0.946  -0.629  1.00  0.00    -0.342 N 
ATOM      7  H2  UNL     1       3.496   1.264  -1.550  1.00  0.00     0.163 HD
HETATM    8  C6  UNL     1       3.389   1.851   0.509  1.00  0.00     0.187 C 
HETATM    9  C8  UNL     1       2.199   1.896   1.385  1.00  0.00     0.248 C 
HETATM   10  O2  UNL     1       2.193   2.957   2.129  1.00  0.00    -0.271 OA
HETATM   11  N3  UNL     1       1.068   1.036   1.588  1.00  0.00    -0.310 N 
HETATM   12  C9  UNL     1      -0.067   1.918   1.825  1.00  0.00     0.132 C 
HETATM   13  C10 UNL     1      -0.315   2.698   0.569  1.00  0.00     0.023 C 
HETATM   14  C11 UNL     1      -1.463   3.650   0.640  1.00  0.00     0.039 C 
HETATM   15  C12 UNL     1      -2.809   3.000   0.290  1.00  0.00     0.063 C 
HETATM   16  C13 UNL     1      -2.831   2.854  -1.215  1.00  0.00     0.046 C 
HETATM   17  C14 UNL     1      -3.862   4.036   0.617  1.00  0.00     0.046 C 
HETATM   18  O3  UNL     1      -2.984   1.784   0.871  1.00  0.00    -0.309 OA
HETATM   19  C15 UNL     1      -3.330   0.537   0.577  1.00  0.00     0.282 C 
HETATM   20  O4  UNL     1      -4.458  -0.011   0.587  1.00  0.00    -0.263 OA
HETATM   21  C16 UNL     1      -2.203  -0.406   0.157  1.00  0.00     0.184 C 
HETATM   22  N4  UNL     1      -1.526  -0.845   1.341  1.00  0.00    -0.355 N 
ATOM     23  H4  UNL     1      -2.176  -1.033   2.105  1.00  0.00     0.162 HD
HETATM   24  C21 UNL     1      -0.222  -1.077   1.707  1.00  0.00     0.166 C 
HETATM   25  C22 UNL     1       1.046  -0.377   1.586  1.00  0.00     0.120 C 
ENDROOT
BRANCH   1  26
HETATM   26  C3  UNL     1       2.972  -3.231   0.181  1.00  0.00     0.061 C 
BRANCH  26  27
HETATM   27  C2  UNL     1       2.169  -4.261  -0.570  1.00  0.00     0.040 C 
HETATM   28  C1  UNL     1       3.061  -5.304  -1.213  1.00  0.00     0.010 C 
ENDBRANCH  26  27
ENDBRANCH   1  26
BRANCH  24  29
HETATM   29  O5  UNL     1      -0.100  -2.237   2.329  1.00  0.00    -0.345 OA
ATOM     30  H5  UNL     1       0.802  -2.397   2.582  1.00  0.00     0.219 HD
ENDBRANCH  24  29
BRANCH   8  31
HETATM   31  C7  UNL     1       3.701   3.199  -0.085  1.00  0.00     0.120 C 
HETATM   32  S1  UNL     1       3.988   4.487   1.136  1.00  0.00    -0.095 SA
ENDBRANCH   8  31
BRANCH  21  33
HETATM   33  C17 UNL     1      -2.832  -1.616  -0.530  1.00  0.00     0.039 C 
BRANCH  33  34
HETATM   34  C18 UNL     1      -1.822  -2.592  -1.019  1.00  0.00    -0.020 C 
HETATM   35  C19 UNL     1      -0.876  -1.972  -2.034  1.00  0.00     0.009 C 
HETATM   36  C20 UNL     1      -2.462  -3.803  -1.669  1.00  0.00     0.009 C 
ENDBRANCH  33  34
ENDBRANCH  21  33
TORSDOF 6
