REMARK  8 active torsions:
REMARK  status: ('A' for Active; 'I' for Inactive)
REMARK    1  A    between atoms: C2_2  and  C3_5 
REMARK    2  A    between atoms: C6_10  and  C7_11 
REMARK    3  A    between atoms: C8_12  and  S1_13 
REMARK    4  A    between atoms: S1_13  and  C9_14 
REMARK    5  A    between atoms: C14_20  and  N1_21 
REMARK    6  A    between atoms: N2_24  and  C15_25 
REMARK    7  A    between atoms: C15_25  and  C16_26 
REMARK    8  A    between atoms: C16_26  and  C17_27 
ROOT
HETATM    1  C7  UNL     1      -0.763  -0.282   0.558  1.00  0.00     0.067 A 
HETATM    2  C8  UNL     1      -1.882  -1.086   0.333  1.00  0.00     0.070 A 
HETATM    3  S2  UNL     1      -1.218  -2.604  -0.052  1.00  0.00    -0.045 SA
HETATM    4  C14 UNL     1       0.390  -2.202   0.075  1.00  0.00     0.146 A 
HETATM    5  N2  UNL     1       0.405  -0.860   0.424  1.00  0.00    -0.327 N 
ENDROOT
BRANCH   5   6
HETATM    6  C15 UNL     1       1.793  -0.358   0.589  1.00  0.00     0.136 C 
BRANCH   6   7
HETATM    7  C16 UNL     1       2.448   0.061  -0.652  1.00  0.00     0.059 C 
BRANCH   7   8
HETATM    8  C17 UNL     1       3.878   0.457  -0.447  1.00  0.00    -0.054 A 
HETATM    9  C18 UNL     1       4.344   1.728  -0.290  1.00  0.00     0.009 A 
HETATM   10  C19 UNL     1       5.662   2.054  -0.069  1.00  0.00     0.032 A 
HETATM   11  C20 UNL     1       6.608   1.053   0.006  1.00  0.00     0.060 A 
HETATM   12  N3  UNL     1       7.922   1.112   0.213  1.00  0.00    -0.351 N 
HETATM   13  C22 UNL     1       6.181  -0.241  -0.146  1.00  0.00     0.060 A 
HETATM   14  C21 UNL     1       8.357  -0.181   0.193  1.00  0.00     0.181 A 
ATOM     15  H3  UNL     1       8.486   1.950   0.357  1.00  0.00     0.166 HD
HETATM   16  N4  UNL     1       7.305  -1.009  -0.024  1.00  0.00    -0.350 N 
ATOM     17  H4  UNL     1       7.346  -2.026  -0.085  1.00  0.00     0.166 HD
HETATM   18  C23 UNL     1       4.859  -0.547  -0.367  1.00  0.00     0.039 A 
ENDBRANCH   7   8
ENDBRANCH   6   7
ENDBRANCH   5   6
BRANCH   1  19
HETATM   19  C6  UNL     1      -1.076   1.135   1.082  1.00  0.00     0.185 C 
HETATM   20  C3  UNL     1      -1.591   2.061   0.065  1.00  0.00     0.083 C 
HETATM   21  C4  UNL     1      -0.572   2.750  -0.806  1.00  0.00     0.181 C 
HETATM   22  O1  UNL     1       0.163   3.528   0.086  1.00  0.00    -0.366 OA
HETATM   23  C5  UNL     1       0.569   2.860   1.168  1.00  0.00     0.338 C 
HETATM   24  O2  UNL     1       0.029   1.735   1.641  1.00  0.00    -0.355 OA
BRANCH  20  25
HETATM   25  C2  UNL     1      -2.694   2.987   0.477  1.00  0.00     0.118 C 
HETATM   26  C1  UNL     1      -3.564   3.419  -0.722  1.00  0.00     0.051 C 
HETATM   27 CL1  UNL     1      -3.687   2.597   1.832  1.00  0.00    -0.102 Cl
HETATM   28 CL2  UNL     1      -1.992   4.651   0.911  1.00  0.00    -0.102 Cl
ENDBRANCH  20  25
ENDBRANCH   1  19
BRANCH   4  29
HETATM   29  N1  UNL     1       1.354  -3.027  -0.130  1.00  0.00    -0.379 N 
ATOM     30  H12 UNL     1       1.343  -4.014  -0.387  1.00  0.00     0.158 HD
ATOM     31  H11 UNL     1       2.341  -2.780  -0.052  1.00  0.00     0.158 HD
ENDBRANCH   4  29
BRANCH   2  32
HETATM   32  S1  UNL     1      -3.636  -0.658   0.379  1.00  0.00    -0.116 SA
BRANCH  32  33
HETATM   33  C9  UNL     1      -4.652  -2.022  -0.033  1.00  0.00     0.053 C 
HETATM   34  C10 UNL     1      -4.556  -3.158   0.975  1.00  0.00     0.015 C 
HETATM   35  C11 UNL     1      -5.220  -4.337   0.279  1.00  0.00     0.001 C 
HETATM   36  C12 UNL     1      -5.263  -4.019  -1.196  1.00  0.00     0.001 C 
HETATM   37  C13 UNL     1      -4.414  -2.754  -1.312  1.00  0.00     0.015 C 
ENDBRANCH  32  33
ENDBRANCH   2  32
TORSDOF 8
