REMARK  5 active torsions:
REMARK  status: ('A' for Active; 'I' for Inactive)
REMARK    1  A    between atoms: C7_10  and  S1_11 
REMARK    2  A    between atoms: S1_11  and  C8_12 
REMARK    3  A    between atoms: C8_12  and  C9_13 
REMARK    4  A    between atoms: C12_19  and  N3_20 
REMARK    5  A    between atoms: C16_28  and  C17_29 
ROOT
HETATM    1  C1  UNL     1       4.510   0.376  -3.590  1.00  0.00     0.229 C 
HETATM    2  N1  UNL     1       4.877   0.721  -2.548  1.00  0.00    -0.428 NA
HETATM    3  C2  UNL     1       5.324   1.143  -1.315  1.00  0.00     0.123 A 
HETATM    4  C3  UNL     1       6.455   1.939  -1.264  1.00  0.00     0.071 A 
HETATM    5  C4  UNL     1       6.940   2.385  -0.059  1.00  0.00     0.059 A 
HETATM    6 CL1  UNL     1       8.356   3.387   0.057  1.00  0.00    -0.082 Cl
HETATM    7  C5  UNL     1       6.281   2.026   1.099  1.00  0.00     0.057 A 
HETATM    8 CL2  UNL     1       6.881   2.582   2.640  1.00  0.00    -0.083 Cl
HETATM    9  C6  UNL     1       5.160   1.239   1.082  1.00  0.00     0.047 A 
HETATM   10  C7  UNL     1       4.688   0.802  -0.133  1.00  0.00     0.043 A 
ENDROOT
BRANCH  10  11
HETATM   11  S1  UNL     1       3.233  -0.229  -0.270  1.00  0.00    -0.120 SA
BRANCH  11  12
HETATM   12  C8  UNL     1       2.543  -0.567   1.381  1.00  0.00     0.137 C 
BRANCH  12  13
HETATM   13  C9  UNL     1       1.344  -1.424   1.174  1.00  0.00     0.041 A 
HETATM   14  C10 UNL     1       1.506  -2.794   1.170  1.00  0.00     0.101 A 
HETATM   15  C11 UNL     1       0.442  -3.650   0.985  1.00  0.00     0.261 A 
HETATM   16  O1  UNL     1       0.613  -4.884   0.984  1.00  0.00    -0.268 OA
HETATM   17  N2  UNL     1      -0.777  -3.073   0.806  1.00  0.00    -0.156 N 
HETATM   18  C12 UNL     1      -0.969  -1.751   0.806  1.00  0.00     0.690 A 
ATOM     19  H2  UNL     1      -1.584  -3.680   0.665  1.00  0.00     0.187 HD
HETATM   20  N7  UNL     1       0.121  -0.944   0.993  1.00  0.00    -0.194 N 
ATOM     21  H7  UNL     1      -0.013   0.067   0.993  1.00  0.00     0.184 HD
BRANCH  18  22
HETATM   22  N3  UNL     1      -2.252  -1.156   0.640  1.00  0.00    -0.152 N 
HETATM   23  C13 UNL     1      -3.499  -1.836   0.609  1.00  0.00     0.114 C 
HETATM   24  N4  UNL     1      -3.919  -2.846   1.218  1.00  0.00    -0.387 N 
HETATM   25  C14 UNL     1      -4.328  -1.019  -0.369  1.00  0.00     0.174 C 
ATOM     26  H42 UNL     1      -3.363  -3.394   1.874  1.00  0.00     0.157 HD
ATOM     27  H41 UNL     1      -4.814  -3.334   1.196  1.00  0.00     0.157 HD
HETATM   28  C15 UNL     1      -5.737  -1.299  -0.228  1.00  0.00     0.072 C 
HETATM   29  C16 UNL     1      -3.952   0.368   0.108  1.00  0.00     0.106 C 
HETATM   30  N5  UNL     1      -6.854  -1.514  -0.130  1.00  0.00    -0.196 NA
HETATM   31  C21 UNL     1      -2.507   0.267   0.446  1.00  0.00     0.228 C 
HETATM   32  C22 UNL     1      -2.148   1.018   1.646  1.00  0.00     0.086 C 
HETATM   33  N6  UNL     1      -1.875   1.621   2.576  1.00  0.00    -0.195 NA
BRANCH  29  34
HETATM   34  C17 UNL     1      -4.201   1.286  -1.048  1.00  0.00     0.061 A 
HETATM   35  C18 UNL     1      -3.615   1.256  -2.285  1.00  0.00     0.035 A 
HETATM   36  C19 UNL     1      -4.177   2.309  -3.002  1.00  0.00     0.027 A 
HETATM   37  C20 UNL     1      -5.068   2.916  -2.169  1.00  0.00     0.142 A 
HETATM   38  O2  UNL     1      -5.041   2.268  -1.023  1.00  0.00    -0.327 OA
ENDBRANCH  29  34
ENDBRANCH  18  22
ENDBRANCH  12  13
ENDBRANCH  11  12
ENDBRANCH  10  11
TORSDOF 5
