REMARK  8 active torsions:
REMARK  status: ('A' for Active; 'I' for Inactive)
REMARK    1  A    between atoms: O1_2  and  N1_3 
REMARK    2  A    between atoms: C2_5  and  C3_6 
REMARK    3  A    between atoms: C4_7  and  S1_8 
REMARK    4  A    between atoms: S1_8  and  C5_9 
REMARK    5  A    between atoms: C9_16  and  C10_17 
REMARK    6  A    between atoms: C10_17  and  O2_18 
REMARK    7  A    between atoms: C16_30  and  C17_31 
REMARK    8  A    between atoms: C17_31  and  O3_34 
ROOT
HETATM    1  C5  UNL     1       1.006  -0.298   0.181  1.00  0.00     0.052 A 
HETATM    2  C6  UNL     1       0.742   0.456   1.290  1.00  0.00     0.025 A 
HETATM    3  C7  UNL     1      -0.597   0.599   1.864  1.00  0.00     0.070 C 
HETATM    4  N2  UNL     1       1.751   1.099   1.900  1.00  0.00    -0.352 N 
ATOM      5  H2  UNL     1       1.557   1.662   2.728  1.00  0.00     0.166 HD
HETATM    6  C8  UNL     1       3.035   1.013   1.432  1.00  0.00     0.089 A 
HETATM    7  S2  UNL     1       4.494   1.679   1.951  1.00  0.00    -0.066 SA
HETATM    8  C9  UNL     1       5.580   0.994   0.716  1.00  0.00     0.080 A 
HETATM    9  C13 UNL     1       4.699   0.289  -0.018  1.00  0.00     0.070 A 
HETATM   10 CL1  UNL     1       5.209  -0.602  -1.495  1.00  0.00    -0.082 Cl
HETATM   11  C14 UNL     1       3.386   0.288   0.339  1.00  0.00     0.044 A 
HETATM   12  C15 UNL     1       2.315  -0.375  -0.280  1.00  0.00     0.068 A 
HETATM   13 CL2  UNL     1       2.548  -1.377  -1.716  1.00  0.00    -0.082 Cl
ENDROOT
BRANCH   1  14
HETATM   14  S1  UNL     1      -0.194  -1.192  -0.741  1.00  0.00    -0.068 SA
BRANCH  14  15
HETATM   15  C4  UNL     1      -1.835  -1.173  -0.327  1.00  0.00     0.087 A 
HETATM   16  C3  UNL     1      -2.818  -0.314  -0.850  1.00  0.00     0.023 A 
HETATM   17  C20 UNL     1      -4.018  -0.676  -0.285  1.00  0.00    -0.022 A 
HETATM   18  C16 UNL     1      -3.792  -1.719   0.557  1.00  0.00     0.051 A 
HETATM   19  C21 UNL     1      -5.347  -0.042  -0.543  1.00  0.00     0.051 C 
HETATM   20  N4  UNL     1      -2.483  -1.998   0.516  1.00  0.00    -0.350 N 
ATOM     21  H4  UNL     1      -2.035  -2.740   1.054  1.00  0.00     0.166 HD
BRANCH  16  22
HETATM   22  C2  UNL     1      -2.595   0.761  -1.807  1.00  0.00     0.128 C 
HETATM   23  N1  UNL     1      -3.595   1.468  -2.203  1.00  0.00    -0.278 N 
ATOM     24  H1  UNL     1      -4.517   1.245  -1.827  1.00  0.00     0.193 HD
BRANCH  23  25
HETATM   25  O1  UNL     1      -3.500   2.494  -3.091  1.00  0.00    -0.286 OA
HETATM   26  C1  UNL     1      -3.926   3.821  -2.793  1.00  0.00     0.237 C 
ENDBRANCH  23  25
ENDBRANCH  16  22
BRANCH  18  27
HETATM   27  C17 UNL     1      -4.809  -2.446   1.395  1.00  0.00     0.093 C 
HETATM   28  C18 UNL     1      -5.464  -1.527   2.395  1.00  0.00     0.052 C 
HETATM   29  C19 UNL     1      -5.820  -3.147   0.518  1.00  0.00     0.052 C 
BRANCH  27  30
HETATM   30  O3  UNL     1      -4.149  -3.451   2.112  1.00  0.00    -0.384 OA
ATOM     31  H3  UNL     1      -4.791  -3.910   2.641  1.00  0.00     0.211 HD
ENDBRANCH  27  30
ENDBRANCH  18  27
ENDBRANCH  14  15
ENDBRANCH   1  14
BRANCH   8  32
HETATM   32  C10 UNL     1       6.977   1.294   0.691  1.00  0.00     0.156 C 
HETATM   33  N3  UNL     1       8.090   0.915   0.024  1.00  0.00    -0.370 N 
HETATM   34  C11 UNL     1       9.384   1.653   0.386  1.00  0.00     0.151 C 
HETATM   35  C12 UNL     1       8.310  -0.112  -0.951  1.00  0.00     0.151 C 
BRANCH  32  36
HETATM   36  O2  UNL     1       7.268   2.240   1.614  1.00  0.00    -0.345 OA
ATOM     37  H2  UNL     1       8.197   2.439   1.597  1.00  0.00     0.219 HD
ENDBRANCH  32  36
ENDBRANCH   8  32
TORSDOF 8
