REMARK  9 active torsions:
REMARK  status: ('A' for Active; 'I' for Inactive)
REMARK    1  A    between atoms: C2_2  and  O2_4 
REMARK    2  A    between atoms: O2_4  and  C3_5 
REMARK    3  A    between atoms: C7_9  and  C8_10 
REMARK    4  A    between atoms: C9_13  and  C10_14 
REMARK    5  A    between atoms: C10_14  and  C11_15 
REMARK    6  A    between atoms: C10_14  and  C20_28 
REMARK    7  A    between atoms: C13_17  and  C14_18 
REMARK    8  A    between atoms: C20_28  and  O4_29 
REMARK    9  A    between atoms: C20_28  and  C21_31 
ROOT
HETATM    1  C10 UNL     1       1.176  -1.803   1.366  1.00  0.00     0.091 C 
ENDROOT
BRANCH   1   2
HETATM    2  C9  UNL     1      -0.212  -1.210   1.392  1.00  0.00     0.099 C 
HETATM    3  N1  UNL     1      -0.924  -1.235   0.212  1.00  0.00    -0.399 N 
HETATM    4  C8  UNL     1      -1.164  -0.042  -0.461  1.00  0.00     0.173 C 
ATOM      5  H1  UNL     1      -1.271  -2.118  -0.163  1.00  0.00     0.155 HD
HETATM    6  S1  UNL     1      -0.444   1.230   0.624  1.00  0.00    -0.137 SA
HETATM    7  C23 UNL     1      -0.233   0.137   2.079  1.00  0.00     0.102 C 
BRANCH   4   8
HETATM    8  C7  UNL     1      -2.633   0.276  -0.539  1.00  0.00    -0.025 A 
HETATM    9  C6  UNL     1      -3.452   0.138   0.558  1.00  0.00     0.019 A 
HETATM   10  C4  UNL     1      -4.800   0.422   0.515  1.00  0.00    -0.027 A 
HETATM   11  C3  UNL     1      -5.362   0.868  -0.688  1.00  0.00     0.091 A 
HETATM   12  C5  UNL     1      -5.654   0.265   1.705  1.00  0.00     0.051 C 
HETATM   13  C25 UNL     1      -4.558   1.013  -1.799  1.00  0.00    -0.027 A 
HETATM   14  C24 UNL     1      -3.193   0.714  -1.717  1.00  0.00     0.019 A 
HETATM   15  C26 UNL     1      -5.172   1.486  -3.064  1.00  0.00     0.051 C 
BRANCH  11  16
HETATM   16  O2  UNL     1      -6.711   1.171  -0.801  1.00  0.00    -0.278 OA
BRANCH  16  17
HETATM   17  C2  UNL     1      -7.212   2.429  -0.544  1.00  0.00     0.260 C 
HETATM   18  C1  UNL     1      -8.643   2.796  -0.652  1.00  0.00     0.126 C 
HETATM   19  O1  UNL     1      -6.413   3.333  -0.196  1.00  0.00    -0.265 OA
ENDBRANCH  16  17
ENDBRANCH  11  16
ENDBRANCH   4   8
ENDBRANCH   1   2
BRANCH   1  20
HETATM   20  C11 UNL     1       2.090  -1.131   0.406  1.00  0.00     0.044 A 
HETATM   21  C12 UNL     1       3.236  -0.402   0.679  1.00  0.00     0.067 A 
HETATM   22  C13 UNL     1       3.760   0.025  -0.506  1.00  0.00     0.109 A 
HETATM   23  O3  UNL     1       2.958  -0.433  -1.430  1.00  0.00    -0.237 OA
HETATM   24  N2  UNL     1       1.978  -1.109  -0.931  1.00  0.00    -0.264 N 
ATOM     25  H2  UNL     1       1.235  -1.556  -1.468  1.00  0.00     0.194 HD
BRANCH  22  26
HETATM   26  C14 UNL     1       4.971   0.828  -0.665  1.00  0.00     0.008 C 
HETATM   27  C15 UNL     1       5.639   1.189   0.409  1.00  0.00    -0.014 C 
HETATM   28  C16 UNL     1       6.877   2.003   0.328  1.00  0.00     0.028 C 
HETATM   29  C17 UNL     1       6.727   2.953  -0.824  1.00  0.00     0.007 C 
HETATM   30  C18 UNL     1       6.424   2.254  -2.121  1.00  0.00     0.042 C 
HETATM   31  C19 UNL     1       5.385   1.194  -2.025  1.00  0.00     0.205 C 
HETATM   32  F1  UNL     1       5.723   0.045  -2.715  1.00  0.00    -0.244 F 
ENDBRANCH  22  26
ENDBRANCH   1  20
BRANCH   1  33
HETATM   33  C20 UNL     1       1.199  -3.269   1.106  1.00  0.00     0.148 C 
BRANCH  33  34
HETATM   34  O4  UNL     1       0.515  -4.018   2.045  1.00  0.00    -0.393 OA
ATOM     35  H4  UNL     1       0.530  -4.953   1.879  1.00  0.00     0.210 HD
ENDBRANCH  33  34
BRANCH  33  36
HETATM   36  C21 UNL     1       2.631  -3.760   1.087  1.00  0.00     0.107 C 
HETATM   37  C22 UNL     1       2.729  -5.241   0.827  1.00  0.00     0.029 C 
HETATM   38 CL1  UNL     1       3.502  -3.354   2.565  1.00  0.00    -0.123 Cl
ENDBRANCH  33  36
ENDBRANCH   1  33
TORSDOF 9
