REMARK  6 active torsions:
REMARK  status: ('A' for Active; 'I' for Inactive)
REMARK    1  A    between atoms: C6_6  and  S1_7 
REMARK    2  A    between atoms: S1_7  and  C7_8 
REMARK    3  A    between atoms: C11_14  and  C12_15 
REMARK    4  A    between atoms: C12_15  and  C13_16 
REMARK    5  A    between atoms: C16_20  and  O2_21 
REMARK    6  A    between atoms: C21_29  and  O4_30 
ROOT
HETATM    1  C7  UNL     1       0.454  -0.327  -0.449  1.00  0.00     0.077 A 
HETATM    2  C8  UNL     1       0.593   0.806   0.198  1.00  0.00     0.104 A 
HETATM    3 CL1  UNL     1      -0.735   1.777   0.773  1.00  0.00    -0.078 Cl
HETATM    4  C9  UNL     1       1.947   1.339   0.478  1.00  0.00     0.195 A 
HETATM    5  O1  UNL     1       2.036   2.419   1.096  1.00  0.00    -0.287 OA
HETATM    6  C10 UNL     1       3.144   0.661   0.067  1.00  0.00     0.068 A 
HETATM    7  C11 UNL     1       3.031  -0.467  -0.579  1.00  0.00     0.002 A 
HETATM    8  C19 UNL     1       1.733  -1.003  -0.862  1.00  0.00     0.197 A 
HETATM    9  O3  UNL     1       1.609  -2.083  -1.480  1.00  0.00    -0.286 OA
ENDROOT
BRANCH   1  10
HETATM   10  S1  UNL     1      -1.017  -1.092  -0.865  1.00  0.00    -0.119 SA
BRANCH  10  11
HETATM   11  C6  UNL     1      -2.616  -0.702  -0.485  1.00  0.00     0.055 C 
HETATM   12  C5  UNL     1      -3.263   0.558  -1.021  1.00  0.00     0.016 C 
HETATM   13  C4  UNL     1      -4.728   0.161  -1.354  1.00  0.00     0.012 C 
HETATM   14  C2  UNL     1      -5.361  -0.149  -0.031  1.00  0.00    -0.022 C 
HETATM   15  C1  UNL     1      -6.378   0.967   0.250  1.00  0.00     0.017 C 
HETATM   16  C3  UNL     1      -6.180  -1.412  -0.178  1.00  0.00     0.017 C 
HETATM   17  C21 UNL     1      -4.441  -0.185   1.140  1.00  0.00     0.127 C 
HETATM   18  C20 UNL     1      -3.151  -0.922   0.923  1.00  0.00     0.048 C 
BRANCH  17  19
HETATM   19  O4  UNL     1      -5.113  -0.890   2.171  1.00  0.00    -0.395 OA
ATOM     20  H4  UNL     1      -4.526  -0.913   2.918  1.00  0.00     0.210 HD
ENDBRANCH  17  19
ENDBRANCH  10  11
ENDBRANCH   1  10
BRANCH   7  21
HETATM   21  C12 UNL     1       4.269  -1.183  -1.012  1.00  0.00     0.081 C 
BRANCH  21  22
HETATM   22  C13 UNL     1       5.478  -0.460  -0.587  1.00  0.00    -0.050 A 
HETATM   23  C14 UNL     1       6.091   0.480  -1.396  1.00  0.00     0.034 A 
HETATM   24  C15 UNL     1       7.227   1.154  -0.998  1.00  0.00     0.069 A 
HETATM   25 CL2  UNL     1       7.962   2.334  -2.063  1.00  0.00    -0.081 Cl
HETATM   26  C16 UNL     1       7.806   0.917   0.238  1.00  0.00     0.109 A 
HETATM   27  C17 UNL     1       7.208  -0.014   1.054  1.00  0.00     0.069 A 
HETATM   28 CL3  UNL     1       7.925  -0.325   2.617  1.00  0.00    -0.081 Cl
HETATM   29  C18 UNL     1       6.072  -0.688   0.655  1.00  0.00     0.034 A 
BRANCH  26  30
HETATM   30  O2  UNL     1       8.954   1.607   0.625  1.00  0.00    -0.357 OA
ATOM     31  H2  UNL     1       9.351   1.444   1.473  1.00  0.00     0.217 HD
ENDBRANCH  26  30
ENDBRANCH  21  22
ENDBRANCH   7  21
TORSDOF 6
