REMARK  6 active torsions:
REMARK  status: ('A' for Active; 'I' for Inactive)
REMARK    1  A    between atoms: C2_2  and  O1_3 
REMARK    2  A    between atoms: O1_3  and  C3_4 
REMARK    3  A    between atoms: C3_4  and  C4_6 
REMARK    4  A    between atoms: C5_7  and  C6_8 
REMARK       I    between atoms: C6_8  and  N1_10 
REMARK       I    between atoms: N1_10  and  C7_12 
REMARK       I    between atoms: C7_12  and  N2_14 
REMARK    5  A    between atoms: N2_14  and  C8_16 
REMARK    6  A    between atoms: C14_22  and  C15_23 
ROOT
HETATM    1  C6  UNL     1       0.371   0.818  -0.035  1.00  0.00     0.267 C 
HETATM    2  O3  UNL     1       1.026   1.913  -0.074  1.00  0.00    -0.267 OA
HETATM    3  N1  UNL     1       1.059  -0.367  -0.072  1.00  0.00    -0.274 N 
ATOM      4  H1  UNL     1       0.498  -1.218  -0.041  1.00  0.00     0.173 HD
HETATM    5  C7  UNL     1       2.454  -0.540  -0.148  1.00  0.00     0.327 C 
HETATM    6  O4  UNL     1       2.829  -1.772  -0.167  1.00  0.00    -0.247 OA
HETATM    7  N2  UNL     1       3.411   0.453  -0.199  1.00  0.00    -0.308 N 
ATOM      8  H2  UNL     1       3.057   1.409  -0.172  1.00  0.00     0.170 HD
ENDROOT
BRANCH   1   9
HETATM    9  C5  UNL     1      -1.101   0.998   0.047  1.00  0.00     0.090 A 
HETATM   10  C4  UNL     1      -2.153   0.171   0.115  1.00  0.00     0.069 A 
HETATM   11  C17 UNL     1      -3.403   0.725   0.182  1.00  0.00    -0.023 A 
HETATM   12  C16 UNL     1      -3.485   2.079   0.175  1.00  0.00    -0.005 A 
HETATM   13  C18 UNL     1      -4.785   0.081   0.266  1.00  0.00     0.021 C 
HETATM   14  S1  UNL     1      -1.876   2.573   0.079  1.00  0.00    -0.087 SA
HETATM   15  C21 UNL     1      -4.870   2.664   0.249  1.00  0.00     0.026 C 
HETATM   16  C20 UNL     1      -5.462   2.116   1.532  1.00  0.00     0.010 C 
HETATM   17  C22 UNL     1      -5.722   2.090  -0.888  1.00  0.00     0.010 C 
HETATM   18  C19 UNL     1      -5.417   0.616   1.528  1.00  0.00     0.010 C 
HETATM   19  C23 UNL     1      -5.540   0.607  -0.936  1.00  0.00     0.010 C 
BRANCH  10  20
HETATM   20  C3  UNL     1      -2.034  -1.328   0.127  1.00  0.00     0.295 C 
HETATM   21  O2  UNL     1      -1.929  -1.937   1.222  1.00  0.00    -0.259 OA
BRANCH  20  22
HETATM   22  O1  UNL     1      -2.039  -2.062  -1.041  1.00  0.00    -0.318 OA
BRANCH  22  23
HETATM   23  C2  UNL     1      -1.927  -3.480  -0.976  1.00  0.00     0.174 C 
HETATM   24  C1  UNL     1      -3.085  -4.036  -0.175  1.00  0.00     0.034 C 
ENDBRANCH  22  23
ENDBRANCH  20  22
ENDBRANCH  10  20
ENDBRANCH   1   9
BRANCH   7  25
HETATM   25  C8  UNL     1       4.836   0.320  -0.285  1.00  0.00     0.051 A 
HETATM   26  C9  UNL     1       5.462  -0.891  -0.465  1.00  0.00     0.037 A 
HETATM   27  C10 UNL     1       6.854  -1.028  -0.578  1.00  0.00    -0.060 A 
HETATM   28  C11 UNL     1       7.492  -2.365  -0.773  1.00  0.00     0.048 C 
HETATM   29  C12 UNL     1       7.611   0.111  -0.503  1.00  0.00     0.007 A 
HETATM   30  C13 UNL     1       7.018   1.332  -0.325  1.00  0.00     0.019 A 
HETATM   31  C14 UNL     1       5.618   1.452  -0.213  1.00  0.00     0.074 A 
BRANCH  31  32
HETATM   32  C15 UNL     1       5.025   2.784  -0.005  1.00  0.00     0.419 C 
HETATM   33  F1  UNL     1       4.325   2.894   1.179  1.00  0.00    -0.166 F 
HETATM   34  F2  UNL     1       4.319   3.258  -1.104  1.00  0.00    -0.166 F 
HETATM   35  F3  UNL     1       6.102   3.692   0.160  1.00  0.00    -0.166 F 
ENDBRANCH  31  32
ENDBRANCH   7  25
TORSDOF 6
