REMARK  6 active torsions:
REMARK  status: ('A' for Active; 'I' for Inactive)
REMARK    1  A    between atoms: O1_2  and  C2_3 
REMARK    2  A    between atoms: C4_5  and  O2_6 
REMARK    3  A    between atoms: C6_9  and  C7_10 
REMARK    4  A    between atoms: C12_16  and  C13_17 
REMARK    5  A    between atoms: C18_25  and  C19_26 
REMARK    6  A    between atoms: C18_25  and  C22_29 
ROOT
HETATM    1  C7  UNL     1       2.382   0.753   1.781  1.00  0.00     0.033 C 
HETATM    2  C8  UNL     1       1.403  -0.154   1.633  1.00  0.00     0.048 C 
HETATM    3  S1  UNL     1       1.557  -1.730   0.823  1.00  0.00    -0.116 SA
HETATM    4  C9  UNL     1      -0.257  -1.846   0.409  1.00  0.00     0.020 C 
HETATM    5  C10 UNL     1      -0.272  -1.735  -1.065  1.00  0.00     0.028 C 
HETATM    6  C11 UNL     1      -0.590  -3.291   0.802  1.00  0.00     0.028 C 
HETATM    7  C12 UNL     1      -0.959  -0.834   1.224  1.00  0.00     0.111 C 
HETATM    8  C23 UNL     1       0.060  -0.130   2.057  1.00  0.00     0.175 C 
HETATM    9  O3  UNL     1      -0.334   0.471   3.126  1.00  0.00    -0.291 OA
ENDROOT
BRANCH   7  10
HETATM   10  C13 UNL     1      -1.821   0.163   0.510  1.00  0.00    -0.023 C 
HETATM   11  C14 UNL     1      -1.355   1.459   0.506  1.00  0.00     0.017 C 
HETATM   12  C15 UNL     1      -2.249   2.380  -0.215  1.00  0.00     0.138 C 
HETATM   13  C16 UNL     1      -1.557   2.862  -1.478  1.00  0.00     0.050 C 
HETATM   14  C17 UNL     1      -2.576   3.596   0.622  1.00  0.00     0.050 C 
HETATM   15  N1  UNL     1      -3.412   1.631  -0.452  1.00  0.00    -0.042 N 
HETATM   16  C18 UNL     1      -3.150   0.261  -0.077  1.00  0.00     0.249 C 
ATOM     17  H12 UNL     1      -4.231   2.017   0.017  1.00  0.00     0.280 HD
ATOM     18  H11 UNL     1      -3.748   1.719  -1.411  1.00  0.00     0.280 HD
BRANCH  16  19
HETATM   19  C19 UNL     1      -3.628  -0.578  -1.177  1.00  0.00     0.027 C 
HETATM   20  C20 UNL     1      -4.996  -0.119  -1.721  1.00  0.00     0.012 C 
HETATM   21  C21 UNL     1      -3.981  -2.028  -0.807  1.00  0.00     0.012 C 
ENDBRANCH  16  19
BRANCH  16  22
HETATM   22  C22 UNL     1      -4.152   0.069   1.126  1.00  0.00     0.425 C 
HETATM   23  F1  UNL     1      -4.022  -1.126   1.718  1.00  0.00    -0.168 F 
HETATM   24  F2  UNL     1      -5.389   0.318   0.704  1.00  0.00    -0.168 F 
HETATM   25  F3  UNL     1      -3.810   1.114   2.008  1.00  0.00    -0.168 F 
ENDBRANCH  16  22
ENDBRANCH   7  10
BRANCH   1  26
HETATM   26  C6  UNL     1       3.697   0.467   1.252  1.00  0.00    -0.029 A 
HETATM   27  C5  UNL     1       4.798   0.718   2.072  1.00  0.00     0.048 A 
HETATM   28  C4  UNL     1       6.080   0.488   1.634  1.00  0.00     0.069 A 
HETATM   29  C3  UNL     1       6.314  -0.004   0.354  1.00  0.00     0.073 A 
HETATM   30  C2  UNL     1       5.248  -0.254  -0.459  1.00  0.00     0.071 A 
HETATM   31  C24 UNL     1       3.958  -0.020  -0.011  1.00  0.00     0.048 A 
BRANCH  28  32
HETATM   32  O2  UNL     1       7.153   0.751   2.484  1.00  0.00    -0.361 OA
ATOM     33  H2  UNL     1       6.993   1.087   3.358  1.00  0.00     0.217 HD
ENDBRANCH  28  32
BRANCH  30  34
HETATM   34  O1  UNL     1       5.446  -0.752  -1.762  1.00  0.00    -0.356 OA
HETATM   35  C1  UNL     1       6.763  -0.998  -2.238  1.00  0.00     0.210 C 
ENDBRANCH  30  34
ENDBRANCH   1  26
TORSDOF 6
