REMARK  6 active torsions:
REMARK  status: ('A' for Active; 'I' for Inactive)
REMARK    1  A    between atoms: O1_2  and  N1_3 
REMARK    2  A    between atoms: C3_6  and  O2_7 
REMARK    3  A    between atoms: C16_23  and  C17_24 
REMARK    4  A    between atoms: C16_23  and  C18_27 
REMARK    5  A    between atoms: C17_24  and  O5_25 
REMARK    6  A    between atoms: C18_27  and  O7_29 
ROOT
HETATM    1  N1  UNL     1       2.556   1.961   0.497  1.00  0.00    -0.272 N 
ATOM      2  H1  UNL     1       2.825   1.455   1.341  1.00  0.00     0.193 HD
HETATM    3  C2  UNL     1       1.494   1.555  -0.141  1.00  0.00     0.045 C 
HETATM    4  C3  UNL     1       1.153   2.325  -1.358  1.00  0.00     0.170 C 
HETATM    5  C4  UNL     1      -0.251   2.120  -1.803  1.00  0.00     0.072 C 
HETATM    6  C5  UNL     1      -0.936   0.927  -1.269  1.00  0.00    -0.071 C 
HETATM    7  C6  UNL     1      -1.647   0.391  -2.282  1.00  0.00    -0.021 C 
HETATM    8  C7  UNL     1      -2.499  -0.801  -2.265  1.00  0.00     0.061 C 
HETATM    9  C8  UNL     1      -3.417  -0.699  -1.106  1.00  0.00     0.154 C 
HETATM   10  O3  UNL     1      -3.810   0.671  -0.937  1.00  0.00    -0.314 OA
HETATM   11  C9  UNL     1      -3.861   0.388   0.421  1.00  0.00     0.271 C 
HETATM   12  O4  UNL     1      -4.492   0.967   1.349  1.00  0.00    -0.264 OA
HETATM   13  C10 UNL     1      -2.936  -0.763   0.235  1.00  0.00     0.079 C 
HETATM   14  C11 UNL     1      -3.574  -1.926   1.019  1.00  0.00     0.029 C 
HETATM   15  C12 UNL     1      -1.524  -0.628   0.607  1.00  0.00    -0.013 C 
HETATM   16  C13 UNL     1      -1.610  -0.493   2.150  1.00  0.00     0.018 C 
HETATM   17  C14 UNL     1      -0.878  -1.973   0.376  1.00  0.00     0.013 C 
HETATM   18  C15 UNL     1       0.402  -1.976  -0.356  1.00  0.00     0.024 C 
HETATM   19  C16 UNL     1       1.357  -0.880  -0.013  1.00  0.00     0.079 C 
HETATM   20  C20 UNL     1       0.729   0.402   0.375  1.00  0.00     0.069 C 
HETATM   21  C21 UNL     1      -0.765   0.542   0.149  1.00  0.00    -0.002 C 
HETATM   22  C22 UNL     1      -1.087   1.792   0.996  1.00  0.00     0.021 C 
ENDROOT
BRANCH  19  23
HETATM   23  C17 UNL     1       2.290  -0.755  -1.226  1.00  0.00     0.184 C 
BRANCH  23  24
HETATM   24  O5  UNL     1       2.927  -2.013  -1.381  1.00  0.00    -0.400 OA
ATOM     25  H5  UNL     1       3.504  -1.936  -2.132  1.00  0.00     0.209 HD
ENDBRANCH  23  24
ENDBRANCH  19  23
BRANCH  19  26
HETATM   26  C18 UNL     1       2.255  -1.391   1.064  1.00  0.00     0.270 C 
HETATM   27  O6  UNL     1       2.307  -0.806   2.176  1.00  0.00    -0.264 OA
BRANCH  26  28
HETATM   28  O7  UNL     1       3.069  -2.504   0.929  1.00  0.00    -0.326 OA
HETATM   29  C19 UNL     1       3.914  -2.971   1.967  1.00  0.00     0.213 C 
ENDBRANCH  26  28
ENDBRANCH  19  26
BRANCH   1  30
HETATM   30  O1  UNL     1       3.328   3.008   0.117  1.00  0.00    -0.285 OA
HETATM   31  C1  UNL     1       3.285   4.291   0.702  1.00  0.00     0.237 C 
ENDBRANCH   1  30
BRANCH   4  32
HETATM   32  O2  UNL     1       2.093   2.258  -2.371  1.00  0.00    -0.389 OA
ATOM     33  H2  UNL     1       1.874   2.752  -3.152  1.00  0.00     0.210 HD
ENDBRANCH   4  32
TORSDOF 6
