REMARK  4 active torsions:
REMARK  status: ('A' for Active; 'I' for Inactive)
REMARK    1  A    between atoms: N1_1  and  C1_4 
REMARK    2  A    between atoms: N3_7  and  C2_8 
REMARK    3  A    between atoms: N4_11  and  C5_12 
REMARK    4  A    between atoms: C5_12  and  C6_13 
ROOT
HETATM    1  C2  UNL     1      -4.129   0.535  -0.392  1.00  0.00     0.113 C 
HETATM    2  C3  UNL     1      -3.872  -0.743  -1.154  1.00  0.00     0.057 C 
HETATM    3  C4  UNL     1      -2.473  -0.662  -1.661  1.00  0.00     0.274 C 
HETATM    4  N4  UNL     1      -1.439  -0.383  -0.675  1.00  0.00     0.088 N 
HETATM    5  C18 UNL     1      -1.799   0.668   0.204  1.00  0.00     0.274 C 
HETATM    6  C19 UNL     1      -3.202   0.452   0.803  1.00  0.00     0.057 C 
ENDROOT
BRANCH   4   7
HETATM    7  C5  UNL     1      -0.886  -1.562  -0.127  1.00  0.00     0.277 C 
BRANCH   7   8
HETATM    8  C6  UNL     1       0.429  -1.597   0.492  1.00  0.00     0.017 C 
HETATM    9  C7  UNL     1       0.815  -0.782   1.656  1.00  0.00     0.009 C 
HETATM   10  C8  UNL     1       2.301  -1.265   1.784  1.00  0.00     0.038 C 
HETATM   11  C9  UNL     1       2.734  -0.815   0.374  1.00  0.00     0.065 C 
HETATM   12  C10 UNL     1       1.565  -1.261  -0.508  1.00  0.00     0.044 C 
HETATM   13  C11 UNL     1       4.044  -1.378  -0.035  1.00  0.00     0.048 C 
HETATM   14  O2  UNL     1       2.816   0.552   0.384  1.00  0.00    -0.350 OA
HETATM   15  C12 UNL     1       4.785  -0.182  -0.631  1.00  0.00     0.050 C 
HETATM   16  C13 UNL     1       4.088   0.958   0.074  1.00  0.00     0.266 C 
HETATM   17  C17 UNL     1       6.181  -0.130  -0.097  1.00  0.00     0.024 C 
HETATM   18  O1  UNL     1       4.845   1.279   1.194  1.00  0.00    -0.355 OA
HETATM   19  C14 UNL     1       6.159   0.982   0.934  1.00  0.00     0.129 C 
HETATM   20  C15 UNL     1       6.842   1.885  -0.068  1.00  0.00     0.033 C 
HETATM   21  C16 UNL     1       7.165   0.676  -0.900  1.00  0.00     0.010 C 
ENDBRANCH   7   8
ENDBRANCH   4   7
BRANCH   1  22
HETATM   22  N3  UNL     1      -5.486   0.781  -0.056  1.00  0.00    -0.267 N 
HETATM   23  N2  UNL     1      -5.942   1.982   0.248  1.00  0.00    -0.279 N 
HETATM   24  C1  UNL     1      -7.236   1.951   0.514  1.00  0.00     0.154 A 
ATOM     25  H2  UNL     1      -5.369   2.826   0.274  1.00  0.00     0.189 HD
HETATM   26  C21 UNL     1      -7.658   0.648   0.376  1.00  0.00     0.187 A 
HETATM   27  C20 UNL     1      -6.529  -0.056   0.018  1.00  0.00     0.176 A 
HETATM   28  O3  UNL     1      -8.654  -0.186   0.440  1.00  0.00    -0.216 OA
HETATM   29  N5  UNL     1      -6.920  -1.337  -0.123  1.00  0.00    -0.259 N 
HETATM   30  N6  UNL     1      -8.224  -1.375   0.143  1.00  0.00     0.029 NA
ATOM     31  H5  UNL     1      -6.330  -2.127  -0.384  1.00  0.00     0.186 HD
BRANCH  24  32
HETATM   32  N1  UNL     1      -8.006   2.960   0.851  1.00  0.00    -0.382 N 
ATOM     33  H12 UNL     1      -7.693   3.925   0.953  1.00  0.00     0.157 HD
ATOM     34  H11 UNL     1      -9.005   2.936   1.056  1.00  0.00     0.157 HD
ENDBRANCH  24  32
ENDBRANCH   1  22
TORSDOF 4
