REMARK  5 active torsions:
REMARK  status: ('A' for Active; 'I' for Inactive)
REMARK    1  A    between atoms: S1_2  and  C2_3 
REMARK    2  A    between atoms: N2_5  and  C3_7 
REMARK    3  A    between atoms: C3_7  and  C4_8 
REMARK    4  A    between atoms: C5_9  and  O1_10 
REMARK    5  A    between atoms: C6_12  and  C7_13 
ROOT
HETATM    1  C4  UNL     1       1.932   1.108  -0.144  1.00  0.00     0.029 A 
HETATM    2  C5  UNL     1       0.791   0.319  -0.069  1.00  0.00     0.083 A 
HETATM    3  C6  UNL     1      -0.411   0.668  -0.703  1.00  0.00    -0.010 A 
HETATM    4  C16 UNL     1      -0.433   1.859  -1.427  1.00  0.00     0.050 A 
HETATM    5  C17 UNL     1       0.707   2.626  -1.480  1.00  0.00     0.106 A 
HETATM    6  C18 UNL     1       1.904   2.256  -0.843  1.00  0.00     0.115 A 
HETATM    7  O6  UNL     1       2.828   3.245  -1.097  1.00  0.00    -0.322 OA
HETATM    8  C19 UNL     1       2.070   4.451  -1.384  1.00  0.00     0.352 C 
HETATM    9  O7  UNL     1       1.004   3.848  -2.094  1.00  0.00    -0.323 OA
ENDROOT
BRANCH   3  10
HETATM   10  C7  UNL     1      -1.553  -0.295  -0.612  1.00  0.00     0.114 C 
HETATM   11  C8  UNL     1      -2.542  -0.176  -1.724  1.00  0.00     0.274 C 
HETATM   12  O2  UNL     1      -3.594   0.658  -1.579  1.00  0.00    -0.359 OA
HETATM   13  O5  UNL     1      -2.932  -1.513  -2.015  1.00  0.00    -0.327 OA
HETATM   14  C9  UNL     1      -4.733  -0.186  -1.419  1.00  0.00     0.185 C 
HETATM   15  C10 UNL     1      -4.304  -1.016  -0.201  1.00  0.00     0.033 C 
HETATM   16  C11 UNL     1      -5.456  -1.749   0.428  1.00  0.00     0.022 C 
HETATM   17  C12 UNL     1      -3.664  -0.043   0.720  1.00  0.00     0.058 C 
HETATM   18  C15 UNL     1      -3.332  -2.028  -0.775  1.00  0.00     0.310 C 
HETATM   19  C13 UNL     1      -2.169  -0.372   0.749  1.00  0.00     0.106 C 
HETATM   20  C14 UNL     1      -1.592   0.545   1.792  1.00  0.00     0.050 C 
HETATM   21  O3  UNL     1      -2.178  -1.729   1.164  1.00  0.00    -0.227 OA
HETATM   22  O4  UNL     1      -2.366  -2.432   0.069  1.00  0.00    -0.206 OA
ENDBRANCH   3  10
BRANCH   2  23
HETATM   23  O1  UNL     1       0.806  -0.845   0.616  1.00  0.00    -0.359 OA
ATOM     24  H1  UNL     1       0.026  -1.385   0.667  1.00  0.00     0.217 HD
ENDBRANCH   2  23
BRANCH   1  25
HETATM   25  C3  UNL     1       3.070   0.609   0.742  1.00  0.00     0.166 C 
BRANCH  25  26
HETATM   26  N2  UNL     1       3.734  -0.466   0.097  1.00  0.00    -0.369 N 
HETATM   27  C2  UNL     1       4.898  -0.940  -0.010  1.00  0.00     0.149 C 
HETATM   28  N1  UNL     1       5.105  -2.154  -0.739  1.00  0.00    -0.075 NA
ATOM     29  H2  UNL     1       3.071  -1.023  -0.442  1.00  0.00     0.161 HD
BRANCH  27  30
HETATM   30  S1  UNL     1       6.309  -0.224   0.807  1.00  0.00    -0.102 SA
HETATM   31  C1  UNL     1       7.687  -1.423   0.503  1.00  0.00     0.098 C 
ENDBRANCH  27  30
ENDBRANCH  25  26
ENDBRANCH   1  25
TORSDOF 5
