REMARK  5 active torsions:
REMARK  status: ('A' for Active; 'I' for Inactive)
REMARK    1  A    between atoms: C7_8  and  N1_9 
REMARK       I    between atoms: N1_9  and  C8_11 
REMARK    2  A    between atoms: C8_11  and  O2_13 
REMARK    3  A    between atoms: O2_13  and  C9_14 
REMARK    4  A    between atoms: C9_14  and  C10_15 
REMARK    5  A    between atoms: C12_20  and  C13_21 
ROOT
HETATM    1  C1  UNL     1      -7.953   0.024  -0.300  1.00  0.00     0.010 C 
HETATM    2  C2  UNL     1      -6.461   0.129  -0.167  1.00  0.00    -0.014 C 
HETATM    3  C3  UNL     1      -5.755   0.279  -1.472  1.00  0.00     0.009 C 
HETATM    4  C4  UNL     1      -4.568  -0.633  -1.627  1.00  0.00     0.042 C 
HETATM    5  C5  UNL     1      -3.694  -0.550  -0.376  1.00  0.00    -0.021 A 
HETATM    6  C6  UNL     1      -4.403  -0.764   0.757  1.00  0.00    -0.007 A 
HETATM    7  S1  UNL     1      -3.255  -0.621   1.969  1.00  0.00    -0.075 SA
HETATM    8  C7  UNL     1      -1.817  -0.274   0.981  1.00  0.00     0.100 A 
HETATM    9  C19 UNL     1      -2.359  -0.297  -0.257  1.00  0.00     0.086 A 
HETATM   10  C20 UNL     1      -1.540  -0.057  -1.470  1.00  0.00     0.103 C 
HETATM   11  N3  UNL     1      -0.932   0.126  -2.449  1.00  0.00    -0.191 NA
HETATM   12  C21 UNL     1      -5.879  -1.042   0.601  1.00  0.00     0.051 C 
ENDROOT
BRANCH   8  13
HETATM   13  N1  UNL     1      -0.547  -0.064   1.555  1.00  0.00    -0.295 N 
HETATM   14  C8  UNL     1       0.726   0.217   1.075  1.00  0.00     0.365 C 
HETATM   15  O1  UNL     1       1.103   0.368  -0.085  1.00  0.00    -0.238 OA
ATOM     16  H1  UNL     1      -0.568  -0.136   2.572  1.00  0.00     0.172 HD
BRANCH  14  17
HETATM   17  O2  UNL     1       1.797   0.363   2.020  1.00  0.00    -0.299 OA
BRANCH  17  18
HETATM   18  C9  UNL     1       3.082   0.622   1.517  1.00  0.00     0.229 C 
BRANCH  18  19
HETATM   19  C10 UNL     1       3.533  -0.554   0.721  1.00  0.00     0.035 A 
HETATM   20  S2  UNL     1       2.731  -2.073   0.506  1.00  0.00    -0.085 SA
HETATM   21  C11 UNL     1       3.906  -2.859  -0.444  1.00  0.00     0.139 A 
HETATM   22  N2  UNL     1       4.840  -1.937  -0.549  1.00  0.00    -0.358 N 
HETATM   23  C12 UNL     1       4.692  -0.774   0.017  1.00  0.00     0.058 A 
ATOM     24  H2  UNL     1       5.688  -2.136  -1.079  1.00  0.00     0.166 HD
BRANCH  23  25
HETATM   25  C13 UNL     1       5.775   0.251  -0.088  1.00  0.00    -0.003 A 
HETATM   26  C14 UNL     1       5.530   1.531  -0.477  1.00  0.00     0.056 A 
HETATM   27  C15 UNL     1       6.555   2.462  -0.546  1.00  0.00     0.120 A 
HETATM   28  F1  UNL     1       6.294   3.732  -0.934  1.00  0.00    -0.206 F 
HETATM   29  C16 UNL     1       7.856   2.103  -0.220  1.00  0.00     0.084 A 
HETATM   30  C17 UNL     1       8.115   0.812   0.173  1.00  0.00     0.120 A 
HETATM   31  F2  UNL     1       9.382   0.459   0.491  1.00  0.00    -0.206 F 
HETATM   32  C18 UNL     1       7.078  -0.096   0.235  1.00  0.00     0.056 A 
ENDBRANCH  23  25
ENDBRANCH  18  19
ENDBRANCH  17  18
ENDBRANCH  14  17
ENDBRANCH   8  13
TORSDOF 5
