REMARK  4 active torsions:
REMARK  status: ('A' for Active; 'I' for Inactive)
REMARK    1  A    between atoms: C7_9  and  C8_10 
REMARK    2  A    between atoms: C10_14  and  C11_15 
REMARK    3  A    between atoms: C11_15  and  N3_16 
REMARK    4  A    between atoms: C17_30  and  C18_31 
ROOT
HETATM    1  C1  UNL     1      -5.887   5.405   0.376  1.00  0.00     0.069 C 
HETATM    2  C2  UNL     1      -5.243   4.072   0.303  1.00  0.00     0.020 A 
HETATM    3  C3  UNL     1      -4.039   3.952  -0.371  1.00  0.00     0.113 A 
HETATM    4  N1  UNL     1      -3.430   2.775  -0.461  1.00  0.00    -0.362 N 
ATOM      5  H1  UNL     1      -2.544   2.724  -0.963  1.00  0.00     0.165 HD
HETATM    6  C4  UNL     1      -3.931   1.637   0.084  1.00  0.00     0.058 A 
HETATM    7  C5  UNL     1      -3.174   0.405   0.046  1.00  0.00    -0.004 A 
HETATM    8  C6  UNL     1      -1.783   0.507  -0.078  1.00  0.00     0.044 A 
HETATM    9  C7  UNL     1      -0.960  -0.581  -0.177  1.00  0.00     0.052 A 
HETATM   10  N4  UNL     1      -1.512  -1.793  -0.161  1.00  0.00    -0.358 N 
ATOM     11  H4  UNL     1      -0.904  -2.608  -0.238  1.00  0.00     0.166 HD
HETATM   12  C17 UNL     1      -2.840  -1.987  -0.048  1.00  0.00     0.019 A 
HETATM   13  C22 UNL     1      -3.662  -0.867   0.058  1.00  0.00     0.039 A 
HETATM   14  C23 UNL     1      -5.142   1.737   0.763  1.00  0.00     0.118 A 
HETATM   15  N5  UNL     1      -5.763   2.947   0.855  1.00  0.00    -0.366 N 
ATOM     16  H5  UNL     1      -6.649   3.009   1.356  1.00  0.00     0.165 HD
ENDROOT
BRANCH   9  17
HETATM   17  C8  UNL     1       0.484  -0.325  -0.200  1.00  0.00     0.049 A 
HETATM   18  C9  UNL     1       1.099   0.914   0.056  1.00  0.00     0.110 A 
HETATM   19  N2  UNL     1       2.386   0.911   0.060  1.00  0.00    -0.360 N 
HETATM   20  C10 UNL     1       3.089  -0.169  -0.164  1.00  0.00     0.088 A 
ATOM     21  H2  UNL     1       2.877   1.786   0.245  1.00  0.00     0.165 HD
HETATM   22  S1  UNL     1       1.856  -1.325  -0.410  1.00  0.00    -0.071 SA
BRANCH  20  23
HETATM   23  C11 UNL     1       4.599  -0.267  -0.143  1.00  0.00     0.177 C 
HETATM   24  C12 UNL     1       5.104   1.038   0.369  1.00  0.00     0.046 C 
HETATM   25  C13 UNL     1       6.581   1.180   0.390  1.00  0.00     0.009 C 
HETATM   26  C14 UNL     1       7.246   0.698  -0.869  1.00  0.00     0.079 C 
HETATM   27  C15 UNL     1       6.650  -0.565  -1.399  1.00  0.00     0.246 C 
HETATM   28  F1  UNL     1       7.101  -0.723  -2.712  1.00  0.00    -0.206 F 
HETATM   29  F2  UNL     1       7.113  -1.634  -0.679  1.00  0.00    -0.206 F 
HETATM   30  C16 UNL     1       5.142  -0.520  -1.507  1.00  0.00     0.124 C 
BRANCH  23  31
HETATM   31  N3  UNL     1       4.923  -1.373   0.740  1.00  0.00    -0.064 N 
ATOM     32  H33 UNL     1       4.510  -1.285   1.668  1.00  0.00     0.275 HD
ATOM     33  H32 UNL     1       4.464  -2.246   0.481  1.00  0.00     0.275 HD
ATOM     34  H31 UNL     1       5.941  -1.439   0.754  1.00  0.00     0.275 HD
ENDBRANCH  23  31
ENDBRANCH  20  23
ENDBRANCH   9  17
BRANCH  12  35
HETATM   35  C18 UNL     1      -3.445  -3.345  -0.073  1.00  0.00    -0.001 A 
HETATM   36  C19 UNL     1      -4.950  -3.363   0.015  1.00  0.00     0.022 C 
HETATM   37  C20 UNL     1      -2.799  -4.445  -0.848  1.00  0.00     0.016 A 
HETATM   38  C21 UNL     1      -2.757  -4.483   0.644  1.00  0.00     0.016 A 
ENDBRANCH  12  35
TORSDOF 4
