REMARK  5 active torsions:
REMARK  status: ('A' for Active; 'I' for Inactive)
REMARK    1  A    between atoms: C2_2  and  C4_4 
REMARK       I    between atoms: C4_4  and  N1_6 
REMARK    2  A    between atoms: N1_6  and  C5_8 
REMARK    3  A    between atoms: C7_10  and  C8_11 
REMARK    4  A    between atoms: C9_15  and  C10_16 
REMARK    5  A    between atoms: C15_21  and  C16_22 
ROOT
HETATM    1  C8  UNL     1       0.827  -0.518  -0.246  1.00  0.00     0.106 A 
HETATM    2  N2  UNL     1      -0.476  -0.528  -0.412  1.00  0.00    -0.283 N 
ATOM      3  H2  UNL     1      -0.869  -0.314  -1.329  1.00  0.00     0.188 HD
HETATM    4  N3  UNL     1      -1.255  -0.802   0.560  1.00  0.00    -0.217 N 
HETATM    5  C9  UNL     1      -2.605  -0.910   0.778  1.00  0.00     0.125 A 
HETATM    6  N4  UNL     1      -2.825  -1.241   2.062  1.00  0.00    -0.285 N 
ATOM      7  H4  UNL     1      -3.742  -1.384   2.484  1.00  0.00     0.188 HD
HETATM    8  N5  UNL     1      -1.693  -1.351   2.680  1.00  0.00    -0.277 N 
ATOM      9  H5  UNL     1      -1.551  -1.592   3.661  1.00  0.00     0.189 HD
HETATM   10  C19 UNL     1      -0.724  -1.079   1.751  1.00  0.00     0.188 A 
HETATM   11  S1  UNL     1       0.961  -0.926   1.406  1.00  0.00    -0.031 SA
ENDROOT
BRANCH   1  12
HETATM   12  C7  UNL     1       1.922  -0.244  -1.166  1.00  0.00     0.040 A 
HETATM   13  C6  UNL     1       3.237  -0.300  -0.700  1.00  0.00     0.050 A 
HETATM   14  C5  UNL     1       4.335  -0.058  -1.494  1.00  0.00     0.074 A 
HETATM   15  C22 UNL     1       4.129   0.262  -2.840  1.00  0.00     0.146 A 
HETATM   16  C21 UNL     1       2.846   0.321  -3.312  1.00  0.00     0.088 A 
HETATM   17  F2  UNL     1       5.178   0.516  -3.691  1.00  0.00    -0.204 F 
HETATM   18  C20 UNL     1       1.746   0.072  -2.489  1.00  0.00     0.132 A 
HETATM   19  F1  UNL     1       0.475   0.130  -2.956  1.00  0.00    -0.205 F 
BRANCH  14  20
HETATM   20  N1  UNL     1       5.666  -0.108  -1.046  1.00  0.00    -0.324 N 
HETATM   21  C4  UNL     1       6.157  -0.399   0.241  1.00  0.00     0.225 C 
HETATM   22  O1  UNL     1       5.463  -0.674   1.244  1.00  0.00    -0.273 OA
ATOM     23  H1  UNL     1       6.375   0.095  -1.751  1.00  0.00     0.169 HD
BRANCH  21  24
HETATM   24  C2  UNL     1       7.649  -0.400   0.511  1.00  0.00     0.070 C 
HETATM   25  C1  UNL     1       8.134   1.014   0.161  1.00  0.00     0.019 C 
HETATM   26  C3  UNL     1       7.908  -0.575   1.987  1.00  0.00     0.019 C 
ENDBRANCH  21  24
ENDBRANCH  14  20
ENDBRANCH   1  12
BRANCH   5  27
HETATM   27  C10 UNL     1      -3.698  -0.703  -0.206  1.00  0.00     0.061 C 
HETATM   28  C11 UNL     1      -4.437  -1.991  -0.500  1.00  0.00     0.013 C 
HETATM   29  C12 UNL     1      -5.937  -1.814  -0.498  1.00  0.00     0.001 C 
HETATM   30  C13 UNL     1      -6.450  -1.313   0.827  1.00  0.00     0.000 C 
HETATM   31  C14 UNL     1      -5.663  -0.118   1.253  1.00  0.00     0.006 C 
HETATM   32  C15 UNL     1      -4.677   0.337   0.209  1.00  0.00     0.000 C 
BRANCH  32  33
HETATM   33  C16 UNL     1      -4.014   1.616   0.635  1.00  0.00    -0.018 C 
HETATM   34  C17 UNL     1      -3.218   2.138  -0.543  1.00  0.00     0.010 C 
HETATM   35  C18 UNL     1      -4.995   2.673   1.027  1.00  0.00     0.010 C 
ENDBRANCH  32  33
ENDBRANCH   5  27
TORSDOF 5
