REMARK  5 active torsions:
REMARK  status: ('A' for Active; 'I' for Inactive)
REMARK    1  A    between atoms: C2_2  and  C3_3 
REMARK       I    between atoms: C3_3  and  N1_5 
REMARK    2  A    between atoms: N1_5  and  C4_7 
REMARK    3  A    between atoms: C10_15  and  C11_16 
REMARK    4  A    between atoms: C17_24  and  C18_25 
REMARK    5  A    between atoms: N3_26  and  C19_28 
ROOT
HETATM    1  C4  UNL     1       2.282  -0.720  -0.117  1.00  0.00     0.098 A 
HETATM    2  S1  UNL     1       0.832  -1.281  -0.969  1.00  0.00    -0.074 SA
HETATM    3  C5  UNL     1      -0.297  -0.192  -0.372  1.00  0.00     0.009 A 
HETATM    4  C6  UNL     1       0.436   0.584   0.466  1.00  0.00    -0.019 A 
HETATM    5  C7  UNL     1       1.761   0.311   0.595  1.00  0.00     0.086 A 
HETATM    6  C8  UNL     1       2.607   1.129   1.499  1.00  0.00     0.103 C 
HETATM    7  N2  UNL     1       3.238   1.797   2.221  1.00  0.00    -0.191 NA
HETATM    8  C9  UNL     1      -0.226   1.728   1.229  1.00  0.00     0.053 C 
HETATM    9  C10 UNL     1      -1.150   2.503   0.334  1.00  0.00     0.054 C 
HETATM   10  C15 UNL     1      -2.560   1.974   0.563  1.00  0.00     0.091 C 
HETATM   11  C16 UNL     1      -2.584   0.546   0.151  1.00  0.00     0.141 C 
HETATM   12  O3  UNL     1      -3.473  -0.096   0.675  1.00  0.00    -0.297 OA
HETATM   13  C17 UNL     1      -1.730  -0.207  -0.767  1.00  0.00     0.134 C 
ENDROOT
BRANCH   1  14
HETATM   14  N1  UNL     1       3.551  -1.325  -0.278  1.00  0.00    -0.320 N 
HETATM   15  C3  UNL     1       4.819  -1.124   0.229  1.00  0.00     0.222 C 
HETATM   16  O1  UNL     1       5.273  -0.303   1.033  1.00  0.00    -0.273 OA
ATOM     17  H1  UNL     1       3.521  -2.106  -0.933  1.00  0.00     0.169 HD
BRANCH  15  18
HETATM   18  C2  UNL     1       5.893  -2.093  -0.286  1.00  0.00     0.098 C 
HETATM   19  C1  UNL     1       7.203  -1.770   0.336  1.00  0.00     0.014 C 
ENDBRANCH  15  18
ENDBRANCH   1  14
BRANCH  13  20
HETATM   20  C18 UNL     1      -2.184  -1.625  -0.859  1.00  0.00     0.075 C 
HETATM   21  N3  UNL     1      -3.416  -1.818  -1.114  1.00  0.00    -0.380 N 
ATOM     22  H3  UNL     1      -3.995  -0.987  -1.235  1.00  0.00     0.160 HD
BRANCH  21  23
HETATM   23  C19 UNL     1      -4.061  -3.065  -1.246  1.00  0.00     0.100 C 
HETATM   24  C20 UNL     1      -4.585  -3.616   0.059  1.00  0.00     0.056 C 
HETATM   25  C21 UNL     1      -3.093  -4.059  -1.843  1.00  0.00     0.056 C 
HETATM   26 CL1  UNL     1      -5.413  -2.845  -2.410  1.00  0.00    -0.097 Cl
ENDBRANCH  21  23
ENDBRANCH  13  20
BRANCH   9  27
HETATM   27  C11 UNL     1      -1.073   3.957   0.565  1.00  0.00     0.057 A 
HETATM   28  C12 UNL     1      -0.735   4.887  -0.387  1.00  0.00     0.035 A 
HETATM   29  C13 UNL     1      -0.786   6.130   0.252  1.00  0.00     0.027 A 
HETATM   30  C14 UNL     1      -1.153   5.847   1.548  1.00  0.00     0.142 A 
HETATM   31  O2  UNL     1      -1.316   4.547   1.701  1.00  0.00    -0.327 OA
ENDBRANCH   9  27
TORSDOF 5
