REMARK  14 active torsions:
REMARK  status: ('A' for Active; 'I' for Inactive)
REMARK    1  A    between atoms: C4_4  and  C5_5 
REMARK    2  A    between atoms: C5_5  and  C6_6 
REMARK    3  A    between atoms: C5_5  and  N2_14 
REMARK       I    between atoms: C6_6  and  N1_8 
REMARK    4  A    between atoms: N1_8  and  C7_10 
REMARK    5  A    between atoms: N2_14  and  C11_15 
REMARK       I    between atoms: N2_14  and  C15_19 
REMARK    6  A    between atoms: C11_15  and  C12_16 
REMARK    7  A    between atoms: C15_19  and  C16_21 
REMARK    8  A    between atoms: N3_22  and  C17_23 
REMARK    9  A    between atoms: N3_22  and  C23_32 
REMARK   10  A    between atoms: C17_23  and  C18_24 
REMARK       I    between atoms: C18_24  and  N4_26 
REMARK   11  A    between atoms: N4_26  and  C19_28 
REMARK   12  A    between atoms: C23_32  and  C24_33 
REMARK   13  A    between atoms: C26_38  and  C27_39 
REMARK   14  A    between atoms: C27_39  and  O4_40 
ROOT
HETATM    1  N2  UNL     1      -0.940  -0.791  -0.890  1.00  0.00    -0.330 N 
HETATM    2  C15 UNL     1       0.474  -0.631  -0.676  1.00  0.00     0.260 C 
HETATM    3  O2  UNL     1       1.244  -1.192  -1.512  1.00  0.00    -0.267 OA
ENDROOT
BRANCH   2   4
HETATM    4  C16 UNL     1       0.952   0.142   0.459  1.00  0.00     0.165 C 
HETATM    5  N3  UNL     1       2.243   0.342   0.846  1.00  0.00    -0.349 N 
BRANCH   5   6
HETATM    6  C17 UNL     1       3.108  -0.515   1.474  1.00  0.00     0.165 C 
BRANCH   6   7
HETATM    7  C18 UNL     1       3.798  -1.648   0.950  1.00  0.00     0.257 C 
HETATM    8  O3  UNL     1       3.793  -2.080  -0.196  1.00  0.00    -0.267 OA
HETATM    9  N4  UNL     1       4.625  -2.411   1.876  1.00  0.00    -0.348 N 
ATOM     10  H4  UNL     1       4.681  -2.114   2.850  1.00  0.00     0.163 HD
BRANCH   9  11
HETATM   11  C19 UNL     1       5.361  -3.566   1.456  1.00  0.00     0.022 C 
HETATM   12  C20 UNL     1       6.340  -3.177   0.372  1.00  0.00     0.037 C 
HETATM   13  C21 UNL     1       4.454  -4.670   0.935  1.00  0.00     0.037 C 
HETATM   14  C22 UNL     1       6.107  -4.114   2.644  1.00  0.00     0.037 C 
ENDBRANCH   9  11
ENDBRANCH   6   7
ENDBRANCH   5   6
BRANCH   5  15
HETATM   15  C23 UNL     1       2.567   1.731   1.057  1.00  0.00     0.204 C 
BRANCH  15  16
HETATM   16  C24 UNL     1       2.418   2.548  -0.161  1.00  0.00     0.103 A 
HETATM   17  N5  UNL     1       2.001   2.238  -1.388  1.00  0.00    -0.333 N 
HETATM   18  C25 UNL     1       2.031   3.304  -2.202  1.00  0.00     0.130 A 
ATOM     19  H5  UNL     1       1.697   1.307  -1.673  1.00  0.00     0.168 HD
HETATM   20 CL1  UNL     1       1.583   3.382  -3.877  1.00  0.00    -0.062 Cl
HETATM   21  C26 UNL     1       2.506   4.341  -1.393  1.00  0.00     0.075 A 
HETATM   22  N6  UNL     1       2.737   3.872  -0.160  1.00  0.00    -0.339 N 
HETATM   23  C28 UNL     1       3.233   4.660   0.941  1.00  0.00     0.157 C 
BRANCH  21  24
HETATM   24  C27 UNL     1       2.686   5.708  -1.931  1.00  0.00     0.224 C 
BRANCH  24  25
HETATM   25  O4  UNL     1       3.164   6.553  -0.950  1.00  0.00    -0.395 OA
ATOM     26  H4  UNL     1       3.280   7.430  -1.295  1.00  0.00     0.209 HD
ENDBRANCH  24  25
ENDBRANCH  21  24
ENDBRANCH  15  16
ENDBRANCH   5  15
ENDBRANCH   2   4
BRANCH   1  27
HETATM   27  C5  UNL     1      -1.849  -0.194   0.013  1.00  0.00     0.213 C 
BRANCH  27  28
HETATM   28  C4  UNL     1      -2.729   0.866  -0.597  1.00  0.00    -0.026 A 
HETATM   29  C3  UNL     1      -4.097   0.766  -0.667  1.00  0.00     0.018 A 
HETATM   30  C2  UNL     1      -4.905   1.764  -1.200  1.00  0.00    -0.040 A 
HETATM   31  C1  UNL     1      -6.378   1.632  -1.260  1.00  0.00     0.050 C 
HETATM   32  C31 UNL     1      -4.329   2.911  -1.687  1.00  0.00     0.040 A 
HETATM   33  C30 UNL     1      -2.974   3.059  -1.641  1.00  0.00     0.025 A 
HETATM   34 CL2  UNL     1      -5.307   4.201  -2.372  1.00  0.00    -0.084 Cl
HETATM   35  C29 UNL     1      -2.203   2.047  -1.103  1.00  0.00     0.011 A 
ENDBRANCH  27  28
BRANCH  27  36
HETATM   36  C6  UNL     1      -2.654  -1.131   0.805  1.00  0.00     0.245 C 
HETATM   37  O1  UNL     1      -2.647  -2.356   0.606  1.00  0.00    -0.271 OA
HETATM   38  N1  UNL     1      -3.467  -0.624   1.835  1.00  0.00    -0.351 N 
ATOM     39  H1  UNL     1      -3.472   0.383   1.995  1.00  0.00     0.163 HD
BRANCH  38  40
HETATM   40  C7  UNL     1      -4.297  -1.456   2.680  1.00  0.00     0.022 C 
HETATM   41  C8  UNL     1      -5.322  -2.237   1.886  1.00  0.00     0.037 C 
HETATM   42  C9  UNL     1      -5.002  -0.553   3.664  1.00  0.00     0.037 C 
HETATM   43  C10 UNL     1      -3.445  -2.421   3.474  1.00  0.00     0.037 C 
ENDBRANCH  38  40
ENDBRANCH  27  36
ENDBRANCH   1  27
BRANCH   1  44
HETATM   44  C11 UNL     1      -1.333  -1.577  -2.044  1.00  0.00     0.131 C 
BRANCH  44  45
HETATM   45  C12 UNL     1      -1.568  -0.842  -3.308  1.00  0.00    -0.005 C 
HETATM   46  C13 UNL     1      -1.952  -1.912  -4.354  1.00  0.00     0.011 C 
HETATM   47  C14 UNL     1      -0.377  -0.128  -3.882  1.00  0.00     0.011 C 
ENDBRANCH  44  45
ENDBRANCH   1  44
TORSDOF 14
