REMARK  14 active torsions:
REMARK  status: ('A' for Active; 'I' for Inactive)
REMARK    1  A    between atoms: C2_2  and  C4_4 
REMARK    2  A    between atoms: C4_4  and  N1_5 
REMARK       I    between atoms: N1_5  and  C5_7 
REMARK    3  A    between atoms: C5_7  and  C6_9 
REMARK    4  A    between atoms: C6_9  and  C7_10 
REMARK    5  A    between atoms: C6_9  and  N2_14 
REMARK    6  A    between atoms: C7_10  and  C8_11 
REMARK       I    between atoms: N2_14  and  C9_16 
REMARK    7  A    between atoms: C9_16  and  C10_18 
REMARK    8  A    between atoms: N3_21  and  C13_22 
REMARK    9  A    between atoms: C13_22  and  C14_23 
REMARK   10  A    between atoms: C14_23  and  C15_25 
REMARK   11  A    between atoms: C20_31  and  C21_32 
REMARK   12  A    between atoms: C26_38  and  O6_39 
REMARK   13  A    between atoms: C26_38  and  O7_41 
REMARK   14  A    between atoms: O7_41  and  C27_42 
ROOT
HETATM    1  N2  UNL     1       0.582  -0.082   0.192  1.00  0.00    -0.322 N 
ATOM      2  H2  UNL     1       0.269  -0.100  -0.779  1.00  0.00     0.169 HD
HETATM    3  C9  UNL     1      -0.467  -0.109   1.127  1.00  0.00     0.248 C 
HETATM    4  O4  UNL     1      -0.179   0.123   2.338  1.00  0.00    -0.268 OA
ENDROOT
BRANCH   1   5
HETATM    5  C6  UNL     1       1.942  -0.036   0.334  1.00  0.00     0.090 C 
BRANCH   5   6
HETATM    6  C5  UNL     1       3.273   0.011   0.472  1.00  0.00     0.269 C 
HETATM    7  N1  UNL     1       4.146   1.189  -0.149  1.00  0.00    -0.321 N 
ATOM      8  H1  UNL     1       3.800   2.059  -0.553  1.00  0.00     0.169 HD
HETATM    9  O1  UNL     1       4.069  -0.747   1.021  1.00  0.00    -0.266 OA
BRANCH   7  10
HETATM   10  C4  UNL     1       5.489   0.791  -0.029  1.00  0.00     0.074 C 
HETATM   11  C26 UNL     1       6.750   1.180   0.032  1.00  0.00     0.202 C 
BRANCH  10  12
HETATM   12  C2  UNL     1       5.397  -0.326  -1.268  1.00  0.00     0.032 C 
HETATM   13  C1  UNL     1       6.639  -1.034  -1.341  1.00  0.00     0.016 C 
HETATM   14  C3  UNL     1       5.070   0.608  -2.410  1.00  0.00     0.016 C 
ENDBRANCH  10  12
BRANCH  11  15
HETATM   15  O6  UNL     1       6.955   2.646  -0.143  1.00  0.00    -0.339 OA
ATOM     16  H6  UNL     1       7.862   2.926  -0.099  1.00  0.00     0.220 HD
ENDBRANCH  11  15
BRANCH  11  17
HETATM   17  O7  UNL     1       7.950   0.795   0.180  1.00  0.00    -0.319 OA
BRANCH  17  18
HETATM   18  C27 UNL     1       9.244   0.781   0.289  1.00  0.00     0.059 C 
HETATM   19  C28 UNL     1       9.970   1.265  -0.998  1.00  0.00     0.045 C 
HETATM   20  C29 UNL     1       9.841   1.739   1.370  1.00  0.00     0.045 C 
HETATM   21  C30 UNL     1       9.823  -0.643   0.545  1.00  0.00     0.045 C 
ENDBRANCH  17  18
ENDBRANCH  11  17
ENDBRANCH   7  10
ENDBRANCH   5   6
BRANCH   5  22
HETATM   22  C7  UNL     1       1.832  -1.463   1.445  1.00  0.00     0.176 C 
BRANCH  22  23
HETATM   23  C8  UNL     1       2.505  -2.511   0.801  1.00  0.00     0.178 C 
HETATM   24  O2  UNL     1       2.912  -2.968  -0.222  1.00  0.00    -0.648 OA
HETATM   25  O3  UNL     1       2.936  -3.553   1.875  1.00  0.00    -0.648 OA
ENDBRANCH  22  23
ENDBRANCH   5  22
ENDBRANCH   1   5
BRANCH   3  26
HETATM   26  C10 UNL     1      -1.793  -0.433   0.693  1.00  0.00    -0.009 C 
HETATM   27  C11 UNL     1      -2.386   0.302  -0.473  1.00  0.00     0.070 C 
HETATM   28  C12 UNL     1      -3.367  -0.729  -1.081  1.00  0.00     0.277 C 
HETATM   29  N3  UNL     1      -4.385  -1.153  -0.183  1.00  0.00     0.096 N 
HETATM   30  C24 UNL     1      -3.837  -1.638   1.041  1.00  0.00     0.277 C 
HETATM   31  C25 UNL     1      -2.851  -0.664   1.710  1.00  0.00     0.070 C 
BRANCH  29  32
HETATM   32  C13 UNL     1      -5.341  -0.109  -0.103  1.00  0.00     0.356 C 
BRANCH  32  33
HETATM   33  C14 UNL     1      -6.584  -0.428   0.654  1.00  0.00     0.188 C 
HETATM   34  O5  UNL     1      -6.834  -1.444   1.179  1.00  0.00    -0.290 OA
BRANCH  33  35
HETATM   35  C15 UNL     1      -7.518   0.755   0.646  1.00  0.00     0.020 A 
HETATM   36  C16 UNL     1      -6.951   1.924   1.194  1.00  0.00     0.017 A 
HETATM   37  C17 UNL     1      -7.744   3.065   1.137  1.00  0.00     0.025 A 
HETATM   38  C18 UNL     1      -8.978   3.091   0.590  1.00  0.00     0.034 A 
HETATM   39 CL1  UNL     1      -9.946   4.533   0.455  1.00  0.00    -0.084 Cl
HETATM   40  C19 UNL     1      -9.459   1.912   0.075  1.00  0.00     0.033 A 
HETATM   41  C20 UNL     1      -8.736   0.782   0.116  1.00  0.00    -0.020 A 
BRANCH  41  42
HETATM   42  C21 UNL     1      -9.327  -0.500  -0.406  1.00  0.00     0.058 C 
HETATM   43  C22 UNL     1     -10.727  -0.145  -0.954  1.00  0.00     0.037 C 
HETATM   44  C23 UNL     1      -8.560  -1.140  -1.498  1.00  0.00     0.037 C 
HETATM   45 CL2  UNL     1      -9.738  -1.639   0.950  1.00  0.00    -0.115 Cl
ENDBRANCH  41  42
ENDBRANCH  33  35
ENDBRANCH  32  33
ENDBRANCH  29  32
ENDBRANCH   3  26
TORSDOF 14
