REMARK  16 active torsions:
REMARK  status: ('A' for Active; 'I' for Inactive)
REMARK    1  A    between atoms: C2_2  and  C3_3 
REMARK    2  A    between atoms: C3_3  and  C4_4 
REMARK    3  A    between atoms: C4_4  and  N1_5 
REMARK    4  A    between atoms: C4_4  and  C19_26 
REMARK    5  A    between atoms: N1_5  and  C5_7 
REMARK    6  A    between atoms: C5_7  and  O1_8 
REMARK    7  A    between atoms: C5_7  and  C6_10 
REMARK    8  A    between atoms: C15_20  and  O3_22 
REMARK    9  A    between atoms: C19_26  and  O4_27 
REMARK   10  A    between atoms: C19_26  and  N3_29 
REMARK   11  A    between atoms: N3_29  and  C20_31 
REMARK   12  A    between atoms: C20_31  and  C21_32 
REMARK   13  A    between atoms: C20_31  and  C23_36 
REMARK   14  A    between atoms: C21_32  and  C22_33 
REMARK   15  A    between atoms: C23_36  and  C24_37 
REMARK       I    between atoms: N4_41  and  C28_42 
REMARK   16  A    between atoms: C28_42  and  C29_44 
ROOT
HETATM    1  O3  UNL     1      -6.424   0.384  -0.244  1.00  0.00    -0.272 OA
HETATM    2  C17 UNL     1      -7.111   0.826   0.874  1.00  0.00     0.229 C 
HETATM    3  N2  UNL     1      -7.708   1.203   1.808  1.00  0.00    -0.164 NA
ENDROOT
BRANCH   1   4
HETATM    4  C15 UNL     1      -6.955  -0.663  -1.042  1.00  0.00     0.086 C 
HETATM    5  C14 UNL     1      -7.101  -1.906  -0.206  1.00  0.00     0.118 C 
HETATM    6  C13 UNL     1      -5.850  -2.259   0.505  1.00  0.00     0.138 C 
HETATM    7  C12 UNL     1      -4.466  -2.511   0.164  1.00  0.00     0.093 C 
HETATM    8  O2  UNL     1      -6.040  -2.367   1.713  1.00  0.00    -0.297 OA
HETATM    9  C6  UNL     1      -3.774  -1.182  -0.116  1.00  0.00     0.010 C 
HETATM   10  C11 UNL     1      -4.243  -3.412  -0.982  1.00  0.00     0.021 C 
HETATM   11  C7  UNL     1      -4.009  -0.668  -1.296  1.00  0.00    -0.048 C 
HETATM   12  C8  UNL     1      -3.401   0.652  -1.695  1.00  0.00     0.049 C 
HETATM   13  C9  UNL     1      -4.874  -1.376  -2.278  1.00  0.00    -0.070 C 
HETATM   14  C10 UNL     1      -4.717  -2.863  -2.293  1.00  0.00     0.036 C 
HETATM   15  C18 UNL     1      -6.279  -0.879  -2.333  1.00  0.00     0.074 C 
HETATM   16  C16 UNL     1      -8.387  -0.191  -1.361  1.00  0.00     0.048 C 
BRANCH   9  17
HETATM   17  C5  UNL     1      -2.968  -0.668   0.957  1.00  0.00     0.144 C 
BRANCH  17  18
HETATM   18  N1  UNL     1      -2.203   0.462   1.141  1.00  0.00    -0.358 N 
ATOM     19  H1  UNL     1      -2.151   1.135   0.377  1.00  0.00     0.162 HD
BRANCH  18  20
HETATM   20  C4  UNL     1      -1.445   0.761   2.392  1.00  0.00     0.158 C 
BRANCH  20  21
HETATM   21  C3  UNL     1      -1.712   2.057   2.994  1.00  0.00     0.033 C 
BRANCH  21  22
HETATM   22  C2  UNL     1      -1.034   2.220   4.338  1.00  0.00    -0.002 C 
HETATM   23  C1  UNL     1      -1.551   1.145   5.305  1.00  0.00     0.005 C 
ENDBRANCH  21  22
ENDBRANCH  20  21
BRANCH  20  24
HETATM   24  C19 UNL     1      -0.039   0.602   1.939  1.00  0.00     0.139 C 
BRANCH  24  25
HETATM   25  O4  UNL     1       0.262  -0.542   1.389  1.00  0.00    -0.348 OA
ATOM     26  H4  UNL     1       1.161  -0.644   1.099  1.00  0.00     0.219 HD
ENDBRANCH  24  25
BRANCH  24  27
HETATM   27  N3  UNL     1       1.005   1.529   2.015  1.00  0.00    -0.346 N 
ATOM     28  H3  UNL     1       0.805   2.451   2.403  1.00  0.00     0.167 HD
BRANCH  27  29
HETATM   29  C20 UNL     1       2.372   1.246   1.567  1.00  0.00    -0.006 C 
BRANCH  29  30
HETATM   30  C21 UNL     1       3.420   1.723   2.448  1.00  0.00     0.123 C 
BRANCH  30  31
HETATM   31  C22 UNL     1       3.540   3.162   2.791  1.00  0.00     0.358 C 
HETATM   32  F1  UNL     1       4.677   3.251   3.634  1.00  0.00    -0.214 F 
HETATM   33  F2  UNL     1       2.480   3.591   3.602  1.00  0.00    -0.214 F 
ENDBRANCH  30  31
ENDBRANCH  29  30
BRANCH  29  34
HETATM   34  C23 UNL     1       2.501   1.158   0.099  1.00  0.00     0.059 C 
BRANCH  34  35
HETATM   35  C24 UNL     1       3.845   0.908  -0.450  1.00  0.00     0.009 C 
HETATM   36  C25 UNL     1       4.893   1.950  -0.322  1.00  0.00     0.008 C 
HETATM   37  C26 UNL     1       5.509   2.265  -1.707  1.00  0.00     0.020 C 
HETATM   38  C27 UNL     1       6.225   0.995  -2.173  1.00  0.00     0.126 C 
HETATM   39  N4  UNL     1       5.312  -0.119  -2.036  1.00  0.00    -0.350 N 
HETATM   40  C28 UNL     1       5.684  -1.476  -2.057  1.00  0.00     0.238 C 
HETATM   41  C32 UNL     1       3.893   0.296  -1.840  1.00  0.00     0.130 C 
HETATM   42  O5  UNL     1       4.732  -2.325  -1.932  1.00  0.00    -0.272 OA
BRANCH  40  43
HETATM   43  C29 UNL     1       7.050  -2.008  -2.206  1.00  0.00     0.092 C 
HETATM   44  C30 UNL     1       7.579  -1.547  -3.569  1.00  0.00     0.038 C 
HETATM   45  C31 UNL     1       8.009  -1.524  -1.139  1.00  0.00     0.038 C 
HETATM   46  S1  UNL     1       7.007  -3.838  -2.166  1.00  0.00    -0.077 SA
ENDBRANCH  40  43
ENDBRANCH  34  35
ENDBRANCH  29  34
ENDBRANCH  27  29
ENDBRANCH  24  27
ENDBRANCH  20  24
ENDBRANCH  18  20
ENDBRANCH  17  18
BRANCH  17  47
HETATM   47  O1  UNL     1      -2.951  -1.463   2.025  1.00  0.00    -0.346 OA
ATOM     48  H1  UNL     1      -3.479  -2.243   1.898  1.00  0.00     0.219 HD
ENDBRANCH  17  47
ENDBRANCH   9  17
ENDBRANCH   1   4
TORSDOF 16
