REMARK  13 active torsions:
REMARK  status: ('A' for Active; 'I' for Inactive)
REMARK    1  A    between atoms: C2_2  and  C4_4 
REMARK       I    between atoms: C4_4  and  N1_6 
REMARK    2  A    between atoms: N1_6  and  C5_8 
REMARK    3  A    between atoms: C8_12  and  C9_13 
REMARK    4  A    between atoms: C9_13  and  O3_15 
REMARK    5  A    between atoms: O3_15  and  C10_16 
REMARK    6  A    between atoms: C10_16  and  C11_17 
REMARK    7  A    between atoms: C11_17  and  C12_18 
REMARK    8  A    between atoms: C12_18  and  N2_21 
REMARK       I    between atoms: N2_21  and  C13_23 
REMARK    9  A    between atoms: C13_23  and  C14_25 
REMARK   10  A    between atoms: C14_25  and  C15_26 
REMARK   11  A    between atoms: C14_25  and  N3_33 
REMARK   12  A    between atoms: C15_26  and  C16_27 
REMARK       I    between atoms: N3_33  and  C22_35 
REMARK   13  A    between atoms: C22_35  and  C23_37 
REMARK       I    between atoms: N4_41  and  C27_42 
ROOT
HETATM    1  N2  UNL     1       0.219  -1.514   1.905  1.00  0.00    -0.324 N 
ATOM      2  H2  UNL     1       0.235  -0.824   2.656  1.00  0.00     0.165 HD
HETATM    3  C13 UNL     1      -0.870  -1.516   1.002  1.00  0.00     0.242 C 
HETATM    4  O4  UNL     1      -0.942  -2.356   0.085  1.00  0.00    -0.271 OA
ENDROOT
BRANCH   1   5
HETATM    5  C12 UNL     1       1.307  -2.454   1.801  1.00  0.00     0.190 C 
HETATM    6 CL1  UNL     1       0.557  -4.086   1.719  1.00  0.00    -0.078 Cl
HETATM    7 CL2  UNL     1       2.284  -2.399   3.277  1.00  0.00    -0.078 Cl
BRANCH   5   8
HETATM    8  C11 UNL     1       2.139  -2.205   0.550  1.00  0.00     0.092 C 
BRANCH   8   9
HETATM    9  C10 UNL     1       3.216  -3.257   0.470  1.00  0.00     0.184 C 
BRANCH   9  10
HETATM   10  O3  UNL     1       4.067  -3.050  -0.652  1.00  0.00    -0.317 OA
BRANCH  10  11
HETATM   11  C9  UNL     1       4.882  -1.934  -0.783  1.00  0.00     0.296 C 
HETATM   12  O2  UNL     1       4.839  -1.117   0.150  1.00  0.00    -0.259 OA
BRANCH  11  13
HETATM   13  C8  UNL     1       5.760  -1.731  -1.983  1.00  0.00     0.073 A 
HETATM   14  C5  UNL     1       6.562  -0.636  -2.099  1.00  0.00     0.093 A 
HETATM   15  S1  UNL     1       7.315  -0.881  -3.643  1.00  0.00    -0.083 SA
HETATM   16  C6  UNL     1       6.580  -2.356  -4.065  1.00  0.00     0.053 A 
HETATM   17  C7  UNL     1       5.773  -2.613  -2.998  1.00  0.00     0.028 A 
BRANCH  14  18
HETATM   18  N1  UNL     1       6.785   0.494  -1.225  1.00  0.00    -0.317 N 
HETATM   19  C4  UNL     1       7.678   1.508  -1.680  1.00  0.00     0.251 C 
HETATM   20  O1  UNL     1       8.226   1.398  -2.785  1.00  0.00    -0.268 OA
ATOM     21  H1  UNL     1       6.322   0.563  -0.319  1.00  0.00     0.169 HD
BRANCH  19  22
HETATM   22  C2  UNL     1       7.951   2.673  -0.854  1.00  0.00    -0.003 C 
HETATM   23  C1  UNL     1       8.778   3.603  -1.286  1.00  0.00     0.024 C 
HETATM   24  C3  UNL     1       7.285   2.802   0.492  1.00  0.00     0.053 C 
ENDBRANCH  19  22
ENDBRANCH  14  18
ENDBRANCH  11  13
ENDBRANCH  10  11
ENDBRANCH   9  10
ENDBRANCH   8   9
ENDBRANCH   5   8
ENDBRANCH   1   5
BRANCH   3  25
HETATM   25  C14 UNL     1      -1.976  -0.521   1.103  1.00  0.00     0.177 C 
BRANCH  25  26
HETATM   26  C15 UNL     1      -1.416   0.718   0.375  1.00  0.00     0.039 C 
BRANCH  26  27
HETATM   27  C16 UNL     1      -2.395   1.832   0.423  1.00  0.00    -0.012 C 
HETATM   28  C17 UNL     1      -1.809   3.029  -0.347  1.00  0.00     0.005 C 
HETATM   29  C18 UNL     1      -2.897   4.045  -0.512  1.00  0.00     0.000 C 
HETATM   30  C19 UNL     1      -3.428   4.378   0.863  1.00  0.00     0.000 C 
HETATM   31  C20 UNL     1      -2.562   3.808   1.952  1.00  0.00     0.000 C 
HETATM   32  C21 UNL     1      -2.373   2.332   1.897  1.00  0.00     0.005 C 
ENDBRANCH  26  27
ENDBRANCH  25  26
BRANCH  25  33
HETATM   33  N3  UNL     1      -3.195  -0.995   0.503  1.00  0.00    -0.346 N 
HETATM   34  C22 UNL     1      -3.629  -0.889  -0.818  1.00  0.00     0.241 C 
HETATM   35  O5  UNL     1      -2.972  -0.345  -1.728  1.00  0.00    -0.271 OA
ATOM     36  H3  UNL     1      -3.834  -1.478   1.135  1.00  0.00     0.163 HD
BRANCH  34  37
HETATM   37  C23 UNL     1      -4.961  -1.435  -1.272  1.00  0.00     0.179 C 
HETATM   38  C24 UNL     1      -5.804  -0.294  -1.800  1.00  0.00     0.037 C 
HETATM   39  C25 UNL     1      -6.405   0.261  -0.530  1.00  0.00     0.022 C 
HETATM   40  C26 UNL     1      -6.490  -0.915   0.393  1.00  0.00     0.127 C 
HETATM   41  N4  UNL     1      -5.680  -1.982  -0.177  1.00  0.00    -0.339 N 
HETATM   42  C27 UNL     1      -5.653  -3.299   0.306  1.00  0.00     0.216 C 
HETATM   43  C28 UNL     1      -4.805  -4.362  -0.302  1.00  0.00     0.117 C 
HETATM   44  O6  UNL     1      -6.361  -3.658   1.305  1.00  0.00    -0.274 OA
ENDBRANCH  34  37
ENDBRANCH  25  33
ENDBRANCH   3  25
TORSDOF 13
