REMARK  7 active torsions:
REMARK  status: ('A' for Active; 'I' for Inactive)
REMARK    1  A    between atoms: C3_5  and  C4_6 
REMARK    2  A    between atoms: C4_6  and  C6_8 
REMARK    3  A    between atoms: C6_8  and  C7_9 
REMARK    4  A    between atoms: C7_9  and  C8_10 
REMARK    5  A    between atoms: C9_11  and  C10_12 
REMARK    6  A    between atoms: C10_12  and  O1_13 
REMARK    7  A    between atoms: C21_25  and  O2_26 
ROOT
HETATM    1  C1  UNL     1       0.905   1.842   2.036  1.00  0.00     0.145 C 
HETATM    2  N1  UNL     1       0.831   1.089   0.875  1.00  0.00    -0.400 N 
ATOM      3  H1  UNL     1      -0.125   1.023   0.526  1.00  0.00     0.158 HD
HETATM    4  C2  UNL     1       1.628   0.475   0.152  1.00  0.00    -0.005 C 
HETATM    5  C3  UNL     1       1.059  -0.218  -1.044  1.00  0.00     0.035 C 
HETATM    6  C17 UNL     1       2.054  -0.627  -2.071  1.00  0.00     0.011 C 
HETATM    7  C18 UNL     1       3.365   0.078  -1.875  1.00  0.00     0.006 C 
HETATM    8  C19 UNL     1       3.863  -0.359  -0.510  1.00  0.00     0.002 C 
HETATM    9  C20 UNL     1       5.324  -0.230  -0.311  1.00  0.00     0.037 C 
HETATM   10  C21 UNL     1       5.659  -0.605   1.111  1.00  0.00     0.118 C 
HETATM   11  C22 UNL     1       4.465  -1.130   1.860  1.00  0.00     0.033 C 
HETATM   12  C23 UNL     1       3.309  -0.151   1.836  1.00  0.00     0.018 C 
HETATM   13  C24 UNL     1       3.090   0.472   0.492  1.00  0.00    -0.002 C 
HETATM   14  C25 UNL     1       3.527   1.909   0.515  1.00  0.00     0.022 C 
ENDROOT
BRANCH   5  15
HETATM   15  C4  UNL     1       0.082  -1.303  -0.729  1.00  0.00    -0.009 C 
HETATM   16  C5  UNL     1       0.639  -2.410   0.143  1.00  0.00     0.011 C 
BRANCH  15  17
HETATM   17  C6  UNL     1      -1.304  -0.900  -0.330  1.00  0.00     0.005 C 
BRANCH  17  18
HETATM   18  C7  UNL     1      -2.045  -0.126  -1.353  1.00  0.00     0.010 C 
BRANCH  18  19
HETATM   19  C8  UNL     1      -3.450   0.276  -1.032  1.00  0.00     0.024 C 
HETATM   20  C9  UNL     1      -4.343  -0.864  -0.769  1.00  0.00    -0.056 C 
HETATM   21  C11 UNL     1      -5.146  -0.896   0.260  1.00  0.00    -0.021 C 
HETATM   22  C12 UNL     1      -5.270   0.173   1.276  1.00  0.00     0.028 C 
HETATM   23  C13 UNL     1      -3.952   0.909   1.352  1.00  0.00     0.013 C 
HETATM   24  C14 UNL     1      -3.653   1.376  -0.072  1.00  0.00    -0.040 C 
HETATM   25  C15 UNL     1      -2.599   2.433  -0.020  1.00  0.00     0.015 C 
HETATM   26  C16 UNL     1      -4.951   2.131  -0.453  1.00  0.00     0.015 C 
BRANCH  20  27
HETATM   27  C10 UNL     1      -4.363  -2.044  -1.698  1.00  0.00     0.198 C 
BRANCH  27  28
HETATM   28  O1  UNL     1      -5.262  -3.004  -1.294  1.00  0.00    -0.397 OA
ATOM     29  H1  UNL     1      -5.275  -3.750  -1.882  1.00  0.00     0.209 HD
ENDBRANCH  27  28
ENDBRANCH  20  27
ENDBRANCH  18  19
ENDBRANCH  17  18
ENDBRANCH  15  17
ENDBRANCH   5  15
BRANCH  10  30
HETATM   30  O2  UNL     1       6.611  -1.625   1.084  1.00  0.00    -0.396 OA
ATOM     31  H2  UNL     1       6.822  -1.861   1.980  1.00  0.00     0.210 HD
ENDBRANCH  10  30
TORSDOF 7
