REMARK  8 active torsions:
REMARK  status: ('A' for Active; 'I' for Inactive)
REMARK    1  A    between atoms: C2_2  and  C3_3 
REMARK    2  A    between atoms: C2_2  and  C5_5 
REMARK    3  A    between atoms: C5_5  and  C6_7 
REMARK    4  A    between atoms: C6_7  and  C7_8 
REMARK    5  A    between atoms: C7_8  and  C8_9 
REMARK    6  A    between atoms: C8_9  and  C10_11 
REMARK    7  A    between atoms: C11_12  and  O2_13 
REMARK    8  A    between atoms: C21_24  and  O3_25 
ROOT
HETATM    1  C10 UNL     1       0.610   1.099   0.725  1.00  0.00     0.027 C 
HETATM    2  C11 UNL     1      -0.558   1.412   1.648  1.00  0.00     0.129 C 
HETATM    3  C12 UNL     1      -1.388   1.382   0.388  1.00  0.00     0.032 C 
HETATM    4  C13 UNL     1      -0.402   0.381  -0.147  1.00  0.00    -0.031 C 
HETATM    5  C14 UNL     1      -0.015   0.626  -1.607  1.00  0.00     0.016 C 
HETATM    6  C15 UNL     1      -0.678  -1.032   0.151  1.00  0.00     0.010 C 
HETATM    7  C16 UNL     1      -2.108  -1.418   0.319  1.00  0.00     0.007 C 
HETATM    8  C17 UNL     1      -2.994  -0.329  -0.262  1.00  0.00     0.004 C 
HETATM    9  C18 UNL     1      -4.397  -0.774  -0.460  1.00  0.00    -0.017 C 
HETATM   10  C19 UNL     1      -4.349  -1.925  -1.482  1.00  0.00     0.018 C 
HETATM   11  C20 UNL     1      -5.082  -1.308   0.752  1.00  0.00     0.018 C 
HETATM   12  C21 UNL     1      -5.172   0.332  -1.129  1.00  0.00     0.126 C 
HETATM   13  C22 UNL     1      -4.274   1.470  -1.527  1.00  0.00     0.033 C 
HETATM   14  C23 UNL     1      -3.641   2.021  -0.288  1.00  0.00     0.012 C 
HETATM   15  C24 UNL     1      -2.795   0.974   0.443  1.00  0.00    -0.033 C 
HETATM   16  C25 UNL     1      -3.277   0.970   1.867  1.00  0.00     0.016 C 
ENDROOT
BRANCH   1  17
HETATM   17  C8  UNL     1       1.747   0.359   1.272  1.00  0.00    -0.011 C 
HETATM   18  C9  UNL     1       2.427   1.265   2.310  1.00  0.00     0.010 C 
BRANCH  17  19
HETATM   19  C7  UNL     1       2.776   0.167   0.163  1.00  0.00     0.012 C 
BRANCH  19  20
HETATM   20  C6  UNL     1       4.030  -0.473   0.666  1.00  0.00     0.084 C 
BRANCH  20  21
HETATM   21  C5  UNL     1       5.010  -0.648  -0.428  1.00  0.00     0.154 C 
HETATM   22  O1  UNL     1       4.696  -0.264  -1.578  1.00  0.00    -0.293 OA
BRANCH  21  23
HETATM   23  C2  UNL     1       6.315  -1.246  -0.218  1.00  0.00    -0.022 C 
HETATM   24  C1  UNL     1       6.693  -1.666   0.977  1.00  0.00     0.022 C 
BRANCH  23  25
HETATM   25  C3  UNL     1       7.292  -1.414  -1.338  1.00  0.00     0.037 C 
HETATM   26  C4  UNL     1       7.616  -0.038  -1.917  1.00  0.00     0.010 C 
ENDBRANCH  23  25
ENDBRANCH  21  23
ENDBRANCH  20  21
ENDBRANCH  19  20
ENDBRANCH  17  19
ENDBRANCH   1  17
BRANCH   2  27
HETATM   27  O2  UNL     1      -0.737   0.404   2.543  1.00  0.00    -0.395 OA
ATOM     28  H2  UNL     1      -1.466   0.599   3.119  1.00  0.00     0.210 HD
ENDBRANCH   2  27
BRANCH  12  29
HETATM   29  O3  UNL     1      -5.839  -0.092  -2.277  1.00  0.00    -0.395 OA
ATOM     30  H3  UNL     1      -6.328   0.605  -2.699  1.00  0.00     0.210 HD
ENDBRANCH  12  29
TORSDOF 8
