REMARK  6 active torsions:
REMARK  status: ('A' for Active; 'I' for Inactive)
REMARK    1  A    between atoms: O1_2  and  C2_3 
REMARK    2  A    between atoms: C2_3  and  C3_4 
REMARK    3  A    between atoms: C3_4  and  C4_5 
REMARK    4  A    between atoms: C5_6  and  C6_7 
REMARK    5  A    between atoms: C6_7  and  C7_8 
REMARK    6  A    between atoms: C7_8  and  O2_9 
ROOT
HETATM    1  C7  UNL     1       1.791   0.606   0.333  1.00  0.00     0.069 C 
HETATM    2  C8  UNL     1       2.177   1.016  -1.075  1.00  0.00     0.039 C 
HETATM    3  C9  UNL     1       0.772   1.234  -1.662  1.00  0.00     0.009 C 
HETATM    4  C10 UNL     1      -0.087   0.154  -1.019  1.00  0.00     0.001 C 
HETATM    5  C11 UNL     1      -1.376   0.778  -0.560  1.00  0.00    -0.000 C 
HETATM    6  C12 UNL     1      -2.115   1.213  -1.815  1.00  0.00     0.033 C 
HETATM    7  C13 UNL     1      -3.515   1.637  -1.445  1.00  0.00    -0.016 C 
HETATM    8  C14 UNL     1      -4.131   0.857  -0.643  1.00  0.00    -0.027 C 
HETATM    9  C15 UNL     1      -5.549   1.300  -0.275  1.00  0.00     0.091 C 
HETATM   10  N1  UNL     1      -5.879   1.239   1.067  1.00  0.00    -0.397 N 
ATOM     11  H1  UNL     1      -5.677   2.061   1.636  1.00  0.00     0.158 HD
HETATM   12  C16 UNL     1      -6.475   0.129   1.717  1.00  0.00     0.130 C 
HETATM   13  C17 UNL     1      -5.462  -1.060   1.898  1.00  0.00     0.100 C 
HETATM   14  C18 UNL     1      -4.420  -0.893   0.965  1.00  0.00    -0.167 C 
HETATM   15  C19 UNL     1      -3.554  -0.430  -0.081  1.00  0.00     0.040 C 
HETATM   16  C20 UNL     1      -3.394  -1.421  -1.249  1.00  0.00     0.034 C 
HETATM   17  C21 UNL     1      -2.142  -0.078   0.346  1.00  0.00     0.014 C 
HETATM   18  C22 UNL     1      -1.382  -1.299   0.832  1.00  0.00     0.008 C 
HETATM   19  C23 UNL     1      -0.041  -0.783   1.315  1.00  0.00     0.013 C 
HETATM   20  C24 UNL     1       0.769  -0.424   0.088  1.00  0.00    -0.009 C 
HETATM   21  C25 UNL     1       1.311  -1.719  -0.456  1.00  0.00     0.019 C 
ENDROOT
BRANCH   1  22
HETATM   22  C6  UNL     1       2.907   0.372   1.258  1.00  0.00     0.065 C 
BRANCH  22  23
HETATM   23  C5  UNL     1       3.810  -0.762   1.037  1.00  0.00    -0.028 C 
HETATM   24  C4  UNL     1       5.094  -0.713   0.800  1.00  0.00    -0.028 C 
BRANCH  24  25
HETATM   25  C3  UNL     1       5.960   0.483   0.693  1.00  0.00     0.053 C 
BRANCH  25  26
HETATM   26  C2  UNL     1       6.560   0.460  -0.710  1.00  0.00     0.170 C 
BRANCH  26  27
HETATM   27  O1  UNL     1       7.305  -0.675  -0.959  1.00  0.00    -0.396 OA
HETATM   28  C1  UNL     1       8.389  -0.850  -0.109  1.00  0.00     0.201 C 
ENDBRANCH  26  27
ENDBRANCH  25  26
ENDBRANCH  24  25
ENDBRANCH  22  23
ENDBRANCH   1  22
BRANCH   1  29
HETATM   29  O2  UNL     1       1.137   1.776   0.844  1.00  0.00    -0.389 OA
ATOM     30  H2  UNL     1       0.415   1.927   0.246  1.00  0.00     0.210 HD
ENDBRANCH   1  29
TORSDOF 6
