REMARK  0 active torsions:
REMARK  status: ('A' for Active; 'I' for Inactive)
ROOT
HETATM    1  N1  UNL     1       2.131   0.041  -0.278  1.00  0.00    -0.387 N 
ATOM      2  H11 UNL     1       2.840   0.768  -0.378  1.00  0.00     0.157 HD
ATOM      3  H12 UNL     1       2.654  -0.833  -0.222  1.00  0.00     0.157 HD
HETATM    4  C1  UNL     1       0.872   0.176  -0.232  1.00  0.00     0.097 C 
HETATM    5  C2  UNL     1      -0.153  -0.875  -0.088  1.00  0.00     0.106 C 
HETATM    6  C3  UNL     1      -1.317  -0.016   0.437  1.00  0.00     0.209 C 
HETATM    7  O1  UNL     1      -1.196   1.094  -0.400  1.00  0.00    -0.279 OA
HETATM    8  N2  UNL     1       0.147   1.388  -0.309  1.00  0.00    -0.255 N 
ATOM      9  H2  UNL     1       0.551   2.324  -0.299  1.00  0.00     0.195 HD
ENDROOT
TORSDOF 0
