REMARK  0 active torsions:
REMARK  status: ('A' for Active; 'I' for Inactive)
ROOT
HETATM    1  N1  UNL     1       1.743  -0.784  -1.349  1.00  0.00    -0.388 N 
ATOM      2  H11 UNL     1       1.700  -1.270  -2.245  1.00  0.00     0.157 HD
ATOM      3  H12 UNL     1       2.735  -0.685  -1.135  1.00  0.00     0.157 HD
HETATM    4  C1  UNL     1       0.733  -0.389  -0.653  1.00  0.00     0.098 C 
HETATM    5  C2  UNL     1       0.795   0.316   0.646  1.00  0.00     0.309 C 
HETATM    6  N2  UNL     1      -0.472   1.042   0.660  1.00  0.00    -0.053 N 
ATOM      7  H21 UNL     1      -0.441   1.942   0.181  1.00  0.00     0.279 HD
ATOM      8  H22 UNL     1      -0.731   1.409   1.576  1.00  0.00     0.279 HD
HETATM    9  C3  UNL     1      -1.448   0.095   0.096  1.00  0.00     0.356 C 
HETATM   10  N3  UNL     1      -0.645  -0.527  -0.950  1.00  0.00    -0.356 N 
ATOM     11  H3  UNL     1      -1.021  -0.994  -1.775  1.00  0.00     0.162 HD
ENDROOT
TORSDOF 0
