REMARK  1 active torsions:
REMARK  status: ('A' for Active; 'I' for Inactive)
REMARK    1  A    between atoms: C3_7  and  N3_8 
ROOT
HETATM    1  C1  UNL     1       1.680   0.507   0.000  1.00  0.00     0.317 C 
HETATM    2  N1  UNL     1       0.522  -0.257  -0.335  1.00  0.00     0.168 N 
HETATM    3  C2  UNL     1       0.193  -1.337   0.604  1.00  0.00     0.512 C 
HETATM    4  N2  UNL     1      -1.214  -1.060   0.254  1.00  0.00     0.007 N 
ATOM      5  H21 UNL     1      -1.987  -1.295   0.877  1.00  0.00     0.283 HD
ATOM      6  H22 UNL     1      -1.706  -1.578  -0.474  1.00  0.00     0.283 HD
HETATM    7  C3  UNL     1      -0.757   0.319   0.060  1.00  0.00     0.617 C 
ENDROOT
BRANCH   7   8
HETATM    8  N3  UNL     1      -1.404   1.055  -0.961  1.00  0.00    -0.023 N 
ATOM      9  H33 UNL     1      -0.785   1.779  -1.326  1.00  0.00     0.279 HD
ATOM     10  H32 UNL     1      -1.514   0.482  -1.798  1.00  0.00     0.279 HD
ATOM     11  H31 UNL     1      -2.299   1.458  -0.685  1.00  0.00     0.279 HD
ENDBRANCH   7   8
TORSDOF 1
