REMARK  1 active torsions:
REMARK  status: ('A' for Active; 'I' for Inactive)
REMARK    1  A    between atoms: N1_1  and  C1_5 
ROOT
HETATM    1  C1  UNL     1       0.859   0.033  -0.391  1.00  0.00     0.380 C 
HETATM    2  C2  UNL     1      -0.275   1.067  -0.381  1.00  0.00     0.064 C 
HETATM    3  C3  UNL     1      -1.463   0.096  -0.323  1.00  0.00     0.031 C 
HETATM    4  C4  UNL     1      -0.955  -0.843   0.773  1.00  0.00     0.235 C 
HETATM    5  N2  UNL     1       0.427  -1.053   0.431  1.00  0.00    -0.046 N 
ATOM      6  H21 UNL     1       1.019  -1.183   1.252  1.00  0.00     0.279 HD
ATOM      7  H22 UNL     1       0.590  -1.962  -0.003  1.00  0.00     0.279 HD
ENDROOT
BRANCH   1   8
HETATM    8  N1  UNL     1       2.092   0.632  -0.005  1.00  0.00    -0.050 N 
ATOM      9  H13 UNL     1       2.315   1.443  -0.582  1.00  0.00     0.276 HD
ATOM     10  H12 UNL     1       2.017   1.102   0.897  1.00  0.00     0.276 HD
ATOM     11  H11 UNL     1       2.846  -0.055  -0.012  1.00  0.00     0.276 HD
ENDBRANCH   1   8
TORSDOF 1
