REMARK  0 active torsions:
REMARK  status: ('A' for Active; 'I' for Inactive)
ROOT
HETATM    1  C1  UNL     1       0.777  -1.065   0.149  1.00  0.00     0.251 C 
HETATM    2  C2  UNL     1       1.169   0.393   0.083  1.00  0.00     0.158 C 
HETATM    3  N1  UNL     1       0.131   1.209   0.672  1.00  0.00    -0.145 NA
HETATM    4  N2  UNL     1      -1.067   1.103  -0.071  1.00  0.00    -0.121 NA
HETATM    5  C3  UNL     1      -1.481  -0.297   0.120  1.00  0.00     0.361 C 
HETATM    6  N3  UNL     1      -0.514  -1.186  -0.520  1.00  0.00    -0.060 N 
ATOM      7  H31 UNL     1      -0.842  -2.151  -0.553  1.00  0.00     0.278 HD
ATOM      8  H32 UNL     1      -0.444  -1.021  -1.524  1.00  0.00     0.278 HD
ENDROOT
TORSDOF 0
