REMARK  6 active torsions:
REMARK  status: ('A' for Active; 'I' for Inactive)
REMARK    1  A    between atoms: C2_2  and  C3_7 
REMARK    2  A    between atoms: N1_3  and  O1_5 
REMARK    3  A    between atoms: C4_8  and  N2_9 
REMARK    4  A    between atoms: C12_18  and  N3_19 
REMARK    5  A    between atoms: C18_28  and  N5_29 
REMARK    6  A    between atoms: N5_29  and  C19_31 
ROOT
HETATM    1  C3  UNL     1      -1.028   1.286  -0.011  1.00  0.00     0.058 A 
HETATM    2  C4  UNL     1      -0.817  -0.093   0.047  1.00  0.00     0.050 A 
HETATM    3  C11 UNL     1       0.513  -0.550   0.056  1.00  0.00     0.078 A 
HETATM    4  C12 UNL     1       1.570   0.316   0.012  1.00  0.00     0.106 A 
HETATM    5  N4  UNL     1       1.303   1.614  -0.043  1.00  0.00    -0.328 N 
ATOM      6  H4  UNL     1       2.094   2.257  -0.074  1.00  0.00     0.169 HD
HETATM    7  C18 UNL     1       0.038   2.158  -0.061  1.00  0.00     0.117 A 
ENDROOT
BRANCH   2   8
HETATM    8  N2  UNL     1      -1.786  -1.118   0.182  1.00  0.00    -0.375 N 
HETATM    9  C5  UNL     1      -2.251  -1.463   1.496  1.00  0.00     0.154 C 
HETATM   10  C6  UNL     1      -3.272  -2.551   1.554  1.00  0.00     0.136 C 
HETATM   11  C7  UNL     1      -4.679  -2.116   1.772  1.00  0.00     0.041 C 
HETATM   12  O2  UNL     1      -3.205  -3.402   0.451  1.00  0.00    -0.378 OA
HETATM   13  C8  UNL     1      -3.371  -2.707  -0.731  1.00  0.00     0.136 C 
HETATM   14  C9  UNL     1      -3.591  -3.747  -1.815  1.00  0.00     0.041 C 
HETATM   15  C10 UNL     1      -2.195  -1.843  -0.985  1.00  0.00     0.154 C 
ENDBRANCH   2   8
BRANCH   1  16
HETATM   16  C2  UNL     1      -2.385   1.787  -0.045  1.00  0.00     0.044 C 
HETATM   17  C1  UNL     1      -2.917   3.153   0.070  1.00  0.00     0.071 C 
HETATM   18  N1  UNL     1      -3.353   0.893  -0.086  1.00  0.00    -0.273 N 
ATOM     19  H1  UNL     1      -3.091  -0.089  -0.166  1.00  0.00     0.194 HD
BRANCH  18  20
HETATM   20  O1  UNL     1      -4.664   1.190  -0.029  1.00  0.00    -0.290 OA
ATOM     21  H1  UNL     1      -5.362   0.546  -0.059  1.00  0.00     0.244 HD
ENDBRANCH  18  20
ENDBRANCH   1  16
BRANCH   7  22
HETATM   22  N5  UNL     1      -0.019   3.554  -0.309  1.00  0.00    -0.371 N 
ATOM     23  H5  UNL     1      -0.923   3.937  -0.587  1.00  0.00     0.161 HD
BRANCH  22  24
HETATM   24  C19 UNL     1       1.076   4.478  -0.206  1.00  0.00     0.083 A 
HETATM   25  C20 UNL     1       2.359   4.222  -1.015  1.00  0.00     0.027 A 
HETATM   26  C21 UNL     1       2.368   4.238   0.460  1.00  0.00     0.027 A 
ENDBRANCH  22  24
ENDBRANCH   7  22
BRANCH   4  27
HETATM   27  N3  UNL     1       2.908  -0.214   0.042  1.00  0.00    -0.365 N 
HETATM   28  C13 UNL     1       3.010  -1.619   0.356  1.00  0.00     0.126 C 
HETATM   29  C14 UNL     1       4.425  -1.965   0.835  1.00  0.00     0.046 C 
HETATM   30  C15 UNL     1       5.271  -2.242  -0.364  1.00  0.00     0.169 C 
HETATM   31  O3  UNL     1       5.074  -1.165  -1.250  1.00  0.00    -0.389 OA
HETATM   32  C16 UNL     1       5.265   0.050  -0.629  1.00  0.00     0.187 C 
HETATM   33  C17 UNL     1       3.961   0.739  -0.252  1.00  0.00     0.150 C 
ENDBRANCH   4  27
TORSDOF 6
