REMARK  6 active torsions:
REMARK  status: ('A' for Active; 'I' for Inactive)
REMARK    1  A    between atoms: C2_2  and  S1_4 
REMARK    2  A    between atoms: S1_4  and  C4_5 
REMARK    3  A    between atoms: C4_5  and  C5_6 
REMARK    4  A    between atoms: C8_13  and  O1_14 
REMARK    5  A    between atoms: O1_14  and  C9_15 
REMARK    6  A    between atoms: C14_23  and  N4_24 
ROOT
HETATM    1  C5  UNL     1       3.083  -1.818  -1.041  1.00  0.00     0.083 C 
HETATM    2  S2  UNL     1       2.728  -2.955   0.351  1.00  0.00    -0.141 SA
HETATM    3  C6  UNL     1       0.931  -2.630   0.347  1.00  0.00     0.199 C 
HETATM    4  N1  UNL     1       0.847  -1.362  -0.296  1.00  0.00    -0.348 N 
HETATM    5  C7  UNL     1      -0.303  -0.486  -0.310  1.00  0.00     0.145 A 
HETATM    6  N2  UNL     1      -1.559  -0.955  -0.090  1.00  0.00    -0.306 N 
ATOM      7  H2  UNL     1      -1.686  -1.951   0.089  1.00  0.00     0.171 HD
HETATM    8  C8  UNL     1      -2.640  -0.157  -0.099  1.00  0.00     0.227 A 
HETATM    9  N3  UNL     1      -2.444   1.155  -0.338  1.00  0.00    -0.306 N 
ATOM     10  H3  UNL     1      -3.258   1.770  -0.348  1.00  0.00     0.171 HD
HETATM   11  C14 UNL     1      -1.237   1.696  -0.564  1.00  0.00     0.140 A 
HETATM   12  C15 UNL     1      -0.141   0.860  -0.551  1.00  0.00     0.157 A 
HETATM   13  O3  UNL     1       1.144   1.334  -0.774  1.00  0.00    -0.342 OA
HETATM   14  C16 UNL     1       2.288   0.514  -0.474  1.00  0.00     0.202 C 
HETATM   15  C17 UNL     1       1.977  -0.888  -0.996  1.00  0.00     0.125 C 
ENDROOT
BRANCH   8  16
HETATM   16  O1  UNL     1      -3.914  -0.680   0.131  1.00  0.00    -0.316 OA
BRANCH  16  17
HETATM   17  C9  UNL     1      -5.004   0.195   0.111  1.00  0.00     0.136 C 
HETATM   18  C10 UNL     1      -5.966  -0.134  -1.036  1.00  0.00     0.059 C 
HETATM   19  C11 UNL     1      -6.920   1.015  -1.142  1.00  0.00     0.170 C 
HETATM   20  O2  UNL     1      -7.341   1.489   0.090  1.00  0.00    -0.391 OA
HETATM   21  C12 UNL     1      -7.261   0.549   1.098  1.00  0.00     0.170 C 
HETATM   22  C13 UNL     1      -5.832   0.113   1.380  1.00  0.00     0.059 C 
ENDBRANCH  16  17
ENDBRANCH   8  16
BRANCH  11  23
HETATM   23  N4  UNL     1      -1.133   2.952  -0.783  1.00  0.00    -0.383 N 
ATOM     24  H42 UNL     1      -1.944   3.571  -0.793  1.00  0.00     0.157 HD
ATOM     25  H41 UNL     1      -0.216   3.363  -0.955  1.00  0.00     0.157 HD
ENDBRANCH  11  23
BRANCH   1  26
HETATM   26  C4  UNL     1       4.476  -1.324  -1.002  1.00  0.00     0.091 C 
BRANCH  26  27
HETATM   27  S1  UNL     1       4.874  -0.433   0.495  1.00  0.00    -0.164 SA
BRANCH  27  28
HETATM   28  C2  UNL     1       6.578   0.169   0.518  1.00  0.00     0.039 C 
HETATM   29  C1  UNL     1       6.824   1.219  -0.525  1.00  0.00     0.021 C 
HETATM   30  C3  UNL     1       6.973   0.621   1.905  1.00  0.00     0.021 C 
ENDBRANCH  27  28
ENDBRANCH  26  27
ENDBRANCH   1  26
TORSDOF 6
