REMARK  6 active torsions:
REMARK  status: ('A' for Active; 'I' for Inactive)
REMARK    1  A    between atoms: N1_2  and  C2_5 
REMARK    2  A    between atoms: C2_5  and  O1_6 
REMARK    3  A    between atoms: C2_5  and  C3_8 
REMARK    4  A    between atoms: C3_8  and  C4_9 
REMARK    5  A    between atoms: C5_12  and  C6_13 
REMARK    6  A    between atoms: N3_15  and  C8_16 
ROOT
HETATM    1  C6  UNL     1       0.702   0.522  -0.579  1.00  0.00     0.090 A 
HETATM    2  C7  UNL     1      -0.535   1.178  -0.497  1.00  0.00     0.141 A 
HETATM    3  N3  UNL     1      -1.519   0.392  -0.993  1.00  0.00    -0.279 N 
HETATM    4  N4  UNL     1      -0.914  -0.717  -1.379  1.00  0.00    -0.020 NA
HETATM    5  N5  UNL     1       0.386  -0.650  -1.138  1.00  0.00    -0.281 N 
ATOM      6  H5  UNL     1       1.054  -1.391  -1.350  1.00  0.00     0.184 HD
ENDROOT
BRANCH   1   7
HETATM    7  C5  UNL     1       2.005   1.023  -0.097  1.00  0.00     0.069 A 
HETATM    8  N2  UNL     1       3.092   0.312  -0.159  1.00  0.00    -0.351 N 
HETATM    9  C4  UNL     1       4.225   0.780   0.300  1.00  0.00     0.064 A 
ATOM     10  H2  UNL     1       3.061  -0.621  -0.570  1.00  0.00     0.166 HD
HETATM   11  S1  UNL     1       3.767   2.337   0.864  1.00  0.00    -0.085 SA
HETATM   12  C18 UNL     1       2.099   2.279   0.463  1.00  0.00     0.083 A 
BRANCH   9  13
HETATM   13  C3  UNL     1       5.612   0.228   0.424  1.00  0.00     0.060 A 
HETATM   14  C19 UNL     1       6.672   0.891  -0.363  1.00  0.00     0.022 A 
HETATM   15  C20 UNL     1       6.633   1.209   1.088  1.00  0.00     0.022 A 
BRANCH  13  16
HETATM   16  C2  UNL     1       5.781  -1.194   0.861  1.00  0.00     0.333 C 
BRANCH  16  17
HETATM   17  N1  UNL     1       5.162  -2.079  -0.110  1.00  0.00    -0.052 N 
HETATM   18  C1  UNL     1       5.861  -2.006  -1.394  1.00  0.00     0.270 C 
ATOM     19  H12 UNL     1       4.165  -1.891  -0.211  1.00  0.00     0.279 HD
ATOM     20  H11 UNL     1       5.103  -3.037   0.235  1.00  0.00     0.279 HD
ENDBRANCH  16  17
BRANCH  16  21
HETATM   21  O1  UNL     1       5.119  -1.311   2.105  1.00  0.00    -0.369 OA
ATOM     22  H1  UNL     1       5.524  -0.732   2.740  1.00  0.00     0.212 HD
ENDBRANCH  16  21
ENDBRANCH  13  16
ENDBRANCH   9  13
ENDBRANCH   1   7
BRANCH   3  23
HETATM   23  C8  UNL     1      -2.936   0.735  -1.028  1.00  0.00     0.118 C 
HETATM   24  C9  UNL     1      -3.148   2.224  -1.102  1.00  0.00     0.054 C 
HETATM   25  C10 UNL     1      -3.194   2.919   0.213  1.00  0.00     0.169 C 
HETATM   26  O2  UNL     1      -3.149   2.088   1.297  1.00  0.00    -0.390 OA
HETATM   27  C11 UNL     1      -4.008   1.010   1.238  1.00  0.00     0.179 C 
HETATM   28  C12 UNL     1      -3.750   0.105   0.053  1.00  0.00     0.004 C 
HETATM   29  C13 UNL     1      -5.169  -0.194  -0.470  1.00  0.00     0.014 C 
HETATM   30  C17 UNL     1      -3.300  -1.260   0.471  1.00  0.00     0.018 C 
HETATM   31  C14 UNL     1      -5.681  -1.026   0.717  1.00  0.00     0.005 C 
HETATM   32  C15 UNL     1      -4.573  -2.049   0.780  1.00  0.00    -0.018 C 
HETATM   33  C16 UNL     1      -4.827  -3.054  -0.349  1.00  0.00     0.010 C 
ENDBRANCH   3  23
TORSDOF 6
