REMARK  7 active torsions:
REMARK  status: ('A' for Active; 'I' for Inactive)
REMARK    1  A    between atoms: C5_9  and  N3_10 
REMARK    2  A    between atoms: N3_10  and  C6_12 
REMARK    3  A    between atoms: C6_12  and  C7_13 
REMARK    4  A    between atoms: C7_13  and  N4_14 
REMARK    5  A    between atoms: C16_25  and  O2_26 
REMARK    6  A    between atoms: N5_28  and  C17_29 
REMARK    7  A    between atoms: C17_29  and  C18_30 
ROOT
HETATM    1  C18 UNL     1      -7.331  -1.029  -1.467  1.00  0.00     0.144 C 
HETATM    2  C19 UNL     1      -6.466  -2.176  -1.398  1.00  0.00     0.060 C 
HETATM    3  N6  UNL     1      -5.795  -3.113  -1.334  1.00  0.00    -0.197 NA
ENDROOT
BRANCH   1   4
HETATM    4  C17 UNL     1      -6.666   0.274  -1.815  1.00  0.00     0.146 C 
BRANCH   4   5
HETATM    5  N5  UNL     1      -5.665   0.633  -0.852  1.00  0.00    -0.320 N 
HETATM    6  C12 UNL     1      -4.341   0.309  -1.002  1.00  0.00     0.093 A 
HETATM    7  S1  UNL     1      -3.208  -0.456  -2.026  1.00  0.00    -0.051 SA
HETATM    8  C13 UNL     1      -3.584   0.741   0.028  1.00  0.00     0.038 A 
HETATM    9  C4  UNL     1      -1.784  -0.205  -1.107  1.00  0.00     0.105 A 
HETATM   10  C3  UNL     1      -2.245   0.477  -0.016  1.00  0.00     0.080 A 
HETATM   11  N2  UNL     1      -0.478  -0.522  -1.254  1.00  0.00    -0.334 N 
HETATM   12  N1  UNL     1      -1.284   0.810   0.906  1.00  0.00    -0.354 N 
HETATM   13  C2  UNL     1       0.012   0.507   0.781  1.00  0.00     0.050 A 
ATOM     14  H1  UNL     1      -1.577   1.321   1.739  1.00  0.00     0.166 HD
HETATM   15  C1  UNL     1       0.975   0.935   1.859  1.00  0.00     0.072 C 
HETATM   16  C5  UNL     1       0.467  -0.175  -0.311  1.00  0.00     0.124 A 
ATOM     17  H2  UNL     1      -0.183  -1.033  -2.086  1.00  0.00     0.168 HD
HETATM   18  C14 UNL     1      -4.507   1.379   0.878  1.00  0.00     0.004 A 
HETATM   19  C15 UNL     1      -4.224   2.050   2.187  1.00  0.00     0.054 C 
HETATM   20  C16 UNL     1      -5.756   1.287   0.298  1.00  0.00     0.150 A 
BRANCH  16  21
HETATM   21  N3  UNL     1       1.646  -0.522  -0.524  1.00  0.00    -0.373 N 
ATOM     22  H3  UNL     1       1.702  -1.017  -1.414  1.00  0.00     0.161 HD
BRANCH  21  23
HETATM   23  C6  UNL     1       2.896  -0.455   0.049  1.00  0.00     0.151 C 
BRANCH  23  24
HETATM   24  C7  UNL     1       3.916  -0.999  -0.995  1.00  0.00     0.292 C 
BRANCH  24  25
HETATM   25  N4  UNL     1       5.235  -0.953  -0.423  1.00  0.00     0.094 N 
HETATM   26  C8  UNL     1       5.768   0.351  -0.216  1.00  0.00     0.298 C 
HETATM   27  C9  UNL     1       7.218   0.229   0.264  1.00  0.00     0.198 C 
HETATM   28  O1  UNL     1       8.002  -0.419  -0.655  1.00  0.00    -0.388 OA
HETATM   29  C10 UNL     1       7.283  -1.008  -1.689  1.00  0.00     0.198 C 
HETATM   30  C11 UNL     1       6.170  -1.815  -1.101  1.00  0.00     0.298 C 
ENDBRANCH  24  25
ENDBRANCH  23  24
ENDBRANCH  21  23
ENDBRANCH  16  21
BRANCH  20  31
HETATM   31  O2  UNL     1      -6.938   1.795   0.828  1.00  0.00    -0.345 OA
ATOM     32  H2  UNL     1      -7.798   1.732   0.429  1.00  0.00     0.219 HD
ENDBRANCH  20  31
ENDBRANCH   4   5
ENDBRANCH   1   4
TORSDOF 7
