REMARK  5 active torsions:
REMARK  status: ('A' for Active; 'I' for Inactive)
REMARK       I    between atoms: N1_4  and  C4_5 
REMARK    1  A    between atoms: C4_5  and  C5_7 
REMARK    2  A    between atoms: C5_7  and  N2_8 
REMARK    3  A    between atoms: C5_7  and  C11_18 
REMARK    4  A    between atoms: C11_18  and  N4_20 
REMARK    5  A    between atoms: N4_20  and  C13_22 
ROOT
HETATM    1  C5  UNL     1       0.966   0.594  -0.220  1.00  0.00     0.196 C 
ENDROOT
BRANCH   1   2
HETATM    2  C4  UNL     1       1.103   1.548   0.900  1.00  0.00     0.253 C 
HETATM    3  N1  UNL     1       1.937   2.668   0.962  1.00  0.00    -0.285 N 
HETATM    4  C3  UNL     1       2.796   3.120   0.053  1.00  0.00     0.125 A 
HETATM    5  C22 UNL     1       2.027   3.551   2.016  1.00  0.00     0.191 A 
HETATM    6  C2  UNL     1       3.429   4.260   0.493  1.00  0.00     0.022 A 
HETATM    7  C1  UNL     1       4.464   5.101  -0.206  1.00  0.00     0.069 C 
HETATM    8  N6  UNL     1       2.925   4.493   1.709  1.00  0.00    -0.354 N 
ATOM      9  H6  UNL     1       3.186   5.273   2.312  1.00  0.00     0.166 HD
HETATM   10  O1  UNL     1       0.384   1.334   1.945  1.00  0.00    -0.270 OA
ENDBRANCH   1   2
BRANCH   1  11
HETATM   11  N2  UNL     1       1.071  -0.735   0.245  1.00  0.00    -0.380 N 
HETATM   12  C6  UNL     1       2.140  -1.437   0.359  1.00  0.00     0.008 C 
HETATM   13  C7  UNL     1       1.957  -2.809   0.877  1.00  0.00     0.055 C 
HETATM   14  C10 UNL     1       3.408  -0.812  -0.029  1.00  0.00     0.284 C 
HETATM   15  C8  UNL     1       3.223  -3.583   0.894  1.00  0.00     0.033 C 
HETATM   16  C9  UNL     1       4.264  -3.050  -0.034  1.00  0.00     0.233 C 
HETATM   17  N3  UNL     1       4.564  -1.651   0.215  1.00  0.00    -0.070 N 
ATOM     18  H32 UNL     1       4.937  -1.510   1.154  1.00  0.00     0.277 HD
ATOM     19  H31 UNL     1       5.372  -1.340  -0.324  1.00  0.00     0.277 HD
ATOM     20  H2  UNL     1       0.200  -1.188   0.521  1.00  0.00     0.160 HD
ENDBRANCH   1  11
BRANCH   1  21
HETATM   21  C11 UNL     1      -0.199   0.863  -1.132  1.00  0.00     0.105 C 
HETATM   22  C12 UNL     1       0.020   2.263  -1.761  1.00  0.00     0.034 C 
BRANCH  21  23
HETATM   23  N4  UNL     1      -1.446   0.818  -0.618  1.00  0.00    -0.406 N 
ATOM     24  H4  UNL     1      -1.829   1.757  -0.509  1.00  0.00     0.154 HD
BRANCH  23  25
HETATM   25  C13 UNL     1      -2.345  -0.130  -0.200  1.00  0.00     0.030 C 
HETATM   26  C14 UNL     1      -2.848  -1.013  -1.370  1.00  0.00     0.035 C 
HETATM   27  C15 UNL     1      -4.084  -1.745  -0.955  1.00  0.00    -0.008 C 
HETATM   28  C16 UNL     1      -5.195  -0.810  -0.540  1.00  0.00     0.037 C 
HETATM   29  C20 UNL     1      -3.812  -2.708   0.162  1.00  0.00     0.037 C 
HETATM   30  C17 UNL     1      -4.722  -0.118   0.706  1.00  0.00     0.189 C 
HETATM   31  C18 UNL     1      -3.543   0.691   0.352  1.00  0.00     0.063 C 
HETATM   32  N5  UNL     1      -4.326  -1.023   1.769  1.00  0.00    -0.067 N 
HETATM   33  C19 UNL     1      -3.278  -1.863   1.322  1.00  0.00     0.189 C 
ATOM     34  H52 UNL     1      -4.079  -0.524   2.624  1.00  0.00     0.278 HD
ATOM     35  H51 UNL     1      -5.116  -1.557   2.132  1.00  0.00     0.278 HD
HETATM   36  C21 UNL     1      -2.013  -1.129   0.869  1.00  0.00     0.063 C 
ENDBRANCH  23  25
ENDBRANCH  21  23
ENDBRANCH   1  21
TORSDOF 5
