REMARK  8 active torsions:
REMARK  status: ('A' for Active; 'I' for Inactive)
REMARK    1  A    between atoms: C1_2  and  O2_3 
REMARK    2  A    between atoms: C1_2  and  C19_28 
REMARK    3  A    between atoms: O2_3  and  C2_4 
REMARK    4  A    between atoms: C2_4  and  C3_5 
REMARK    5  A    between atoms: C4_6  and  O3_7 
REMARK    6  A    between atoms: C5_9  and  O4_10 
REMARK    7  A    between atoms: C6_12  and  O5_13 
REMARK    8  A    between atoms: C7_15  and  C8_16 
ROOT
HETATM    1  C3  UNL     1       0.225   0.300  -0.031  1.00  0.00     0.140 C 
HETATM    2  C4  UNL     1       0.501   0.821   1.345  1.00  0.00     0.174 C 
HETATM    3  C5  UNL     1      -0.536   1.659   1.983  1.00  0.00     0.180 C 
HETATM    4  C6  UNL     1      -1.801   1.910   1.229  1.00  0.00     0.176 C 
HETATM    5  C7  UNL     1      -1.701   1.509  -0.223  1.00  0.00     0.149 C 
HETATM    6  N1  UNL     1      -1.135   0.187  -0.286  1.00  0.00    -0.367 N 
HETATM    7  C14 UNL     1      -1.931  -0.917  -0.262  1.00  0.00    -0.014 C 
HETATM    8  C15 UNL     1      -2.115  -1.697   0.997  1.00  0.00     0.052 C 
HETATM    9  C16 UNL     1      -1.773  -3.129   0.781  1.00  0.00     0.006 C 
HETATM   10  C17 UNL     1      -1.653  -3.294  -0.685  1.00  0.00     0.006 C 
HETATM   11  C18 UNL     1      -1.777  -1.962  -1.336  1.00  0.00     0.052 C 
ENDROOT
BRANCH   1  12
HETATM   12  C2  UNL     1       1.130  -0.818  -0.380  1.00  0.00     0.207 C 
BRANCH  12  13
HETATM   13  O2  UNL     1       2.475  -0.427  -0.010  1.00  0.00    -0.315 OA
BRANCH  13  14
HETATM   14  C1  UNL     1       3.466  -1.391  -0.277  1.00  0.00     0.293 C 
HETATM   15  O1  UNL     1       3.156  -2.499  -0.798  1.00  0.00    -0.259 OA
BRANCH  14  16
HETATM   16  C19 UNL     1       4.833  -1.083   0.057  1.00  0.00     0.039 A 
HETATM   17  C20 UNL     1       5.160   0.123   0.617  1.00  0.00     0.017 A 
HETATM   18  C21 UNL     1       6.467   0.437   0.946  1.00  0.00     0.001 A 
HETATM   19  C22 UNL     1       7.450  -0.493   0.701  1.00  0.00     0.000 A 
HETATM   20  C23 UNL     1       7.150  -1.719   0.137  1.00  0.00     0.001 A 
HETATM   21  C24 UNL     1       5.827  -2.010  -0.185  1.00  0.00     0.017 A 
ENDBRANCH  14  16
ENDBRANCH  13  14
ENDBRANCH  12  13
ENDBRANCH   1  12
BRANCH   2  22
HETATM   22  O3  UNL     1       1.682   1.602   1.258  1.00  0.00    -0.391 OA
ATOM     23  H3  UNL     1       1.857   1.933   2.131  1.00  0.00     0.210 HD
ENDBRANCH   2  22
BRANCH   3  24
HETATM   24  O4  UNL     1      -0.004   2.876   2.471  1.00  0.00    -0.390 OA
ATOM     25  H4  UNL     1      -0.671   3.415   2.881  1.00  0.00     0.210 HD
ENDBRANCH   3  24
BRANCH   5  26
HETATM   26  C8  UNL     1      -2.862   1.786  -1.029  1.00  0.00    -0.033 A 
HETATM   27  C9  UNL     1      -2.903   1.358  -2.341  1.00  0.00     0.009 A 
HETATM   28  C10 UNL     1      -3.973   1.592  -3.171  1.00  0.00     0.001 A 
HETATM   29  C11 UNL     1      -5.071   2.283  -2.707  1.00  0.00     0.000 A 
HETATM   30  C12 UNL     1      -5.048   2.719  -1.398  1.00  0.00     0.001 A 
HETATM   31  C13 UNL     1      -3.958   2.475  -0.567  1.00  0.00     0.009 A 
ENDBRANCH   5  26
BRANCH   4  32
HETATM   32  O5  UNL     1      -2.883   1.228   1.782  1.00  0.00    -0.390 OA
ATOM     33  H5  UNL     1      -3.687   1.388   1.303  1.00  0.00     0.210 HD
ENDBRANCH   4  32
TORSDOF 8
