REMARK  7 active torsions:
REMARK  status: ('A' for Active; 'I' for Inactive)
REMARK    1  A    between atoms: C4_4  and  C5_5 
REMARK    2  A    between atoms: C5_5  and  C6_6 
REMARK    3  A    between atoms: C8_8  and  O1_9 
REMARK    4  A    between atoms: O1_9  and  C9_10 
REMARK    5  A    between atoms: C16_18  and  C17_19 
REMARK    6  A    between atoms: C17_19  and  C18_20 
REMARK    7  A    between atoms: C21_25  and  O4_26 
ROOT
HETATM    1  C6  UNL     1       0.962   0.148  -0.440  1.00  0.00     0.026 C 
HETATM    2  C7  UNL     1       1.513   1.588  -0.288  1.00  0.00     0.040 C 
HETATM    3  C8  UNL     1       0.316   2.460  -0.413  1.00  0.00     0.133 C 
HETATM    4  C11 UNL     1      -0.671   2.157   0.643  1.00  0.00     0.045 C 
HETATM    5  C12 UNL     1      -1.038   0.749   0.922  1.00  0.00    -0.007 C 
HETATM    6  C13 UNL     1      -1.290   0.687   2.450  1.00  0.00     0.019 C 
HETATM    7  C14 UNL     1      -2.326   0.365   0.304  1.00  0.00    -0.003 C 
HETATM    8  C15 UNL     1      -2.631   0.847  -1.063  1.00  0.00     0.011 C 
HETATM    9  C16 UNL     1      -2.664  -1.119   0.388  1.00  0.00    -0.002 C 
HETATM   10  C19 UNL     1      -1.515  -1.804  -0.315  1.00  0.00     0.008 C 
HETATM   11  C20 UNL     1      -0.334  -1.624   0.622  1.00  0.00     0.039 C 
HETATM   12  C21 UNL     1       0.123  -0.222   0.715  1.00  0.00     0.069 C 
ENDROOT
BRANCH   1  13
HETATM   13  C5  UNL     1       2.024  -0.790  -0.802  1.00  0.00     0.040 C 
BRANCH  13  14
HETATM   14  C4  UNL     1       3.203  -1.016   0.038  1.00  0.00     0.137 C 
HETATM   15  C3  UNL     1       4.076  -2.050  -0.743  1.00  0.00     0.076 C 
HETATM   16  C2  UNL     1       4.871  -2.712   0.310  1.00  0.00     0.010 C 
HETATM   17  C1  UNL     1       5.990  -3.364   0.179  1.00  0.00     0.025 C 
HETATM   18  C22 UNL     1       4.143  -2.484   1.537  1.00  0.00     0.289 C 
HETATM   19  O5  UNL     1       3.044  -1.687   1.249  1.00  0.00    -0.312 OA
HETATM   20  O6  UNL     1       4.460  -2.933   2.659  1.00  0.00    -0.260 OA
ENDBRANCH  13  14
ENDBRANCH   1  13
BRANCH  12  21
HETATM   21  O4  UNL     1       0.930  -0.110   1.848  1.00  0.00    -0.389 OA
ATOM     22  H4  UNL     1       0.390  -0.348   2.592  1.00  0.00     0.210 HD
ENDBRANCH  12  21
BRANCH   3  23
HETATM   23  O1  UNL     1       0.587   3.840  -0.378  1.00  0.00    -0.316 OA
BRANCH  23  24
HETATM   24  C9  UNL     1       0.442   4.721  -1.402  1.00  0.00     0.255 C 
HETATM   25  C10 UNL     1       0.785   6.155  -1.163  1.00  0.00     0.126 C 
HETATM   26  O2  UNL     1       0.027   4.284  -2.499  1.00  0.00    -0.266 OA
ENDBRANCH  23  24
ENDBRANCH   3  23
BRANCH   9  27
HETATM   27  C17 UNL     1      -3.987  -1.337  -0.254  1.00  0.00     0.104 C 
BRANCH  27  28
HETATM   28  C18 UNL     1      -4.397  -2.759  -0.155  1.00  0.00     0.231 C 
HETATM   29  N1  UNL     1      -5.600  -3.220  -0.817  1.00  0.00    -0.062 NA
HETATM   30  O3  UNL     1      -3.757  -3.622   0.482  1.00  0.00    -0.277 OA
ENDBRANCH  27  28
ENDBRANCH   9  27
TORSDOF 7
