REMARK  5 active torsions:
REMARK  status: ('A' for Active; 'I' for Inactive)
REMARK    1  A    between atoms: C2_2  and  N1_4 
REMARK    2  A    between atoms: N1_4  and  C4_6 
REMARK    3  A    between atoms: N3_10  and  C6_12 
REMARK    4  A    between atoms: C9_15  and  N4_16 
REMARK    5  A    between atoms: N6_28  and  C18_29 
ROOT
HETATM    1  C4  UNL     1      -2.574  -1.691   0.781  1.00  0.00     0.681 A 
HETATM    2  N2  UNL     1      -1.229  -1.577   0.604  1.00  0.00    -0.175 N 
ATOM      3  H2  UNL     1      -0.619  -2.286   1.012  1.00  0.00     0.186 HD
HETATM    4  C5  UNL     1      -0.673  -0.568  -0.087  1.00  0.00     0.148 A 
HETATM    5  N3  UNL     1       0.583  -0.561  -0.187  1.00  0.00    -0.369 N 
ATOM      6  H3  UNL     1       1.047  -1.340   0.280  1.00  0.00     0.161 HD
HETATM    7  C16 UNL     1      -1.544   0.358  -0.614  1.00  0.00     0.123 A 
HETATM    8  N5  UNL     1      -1.323   1.460  -1.339  1.00  0.00    -0.346 N 
ATOM      9  H5  UNL     1      -0.409   1.806  -1.632  1.00  0.00     0.167 HD
HETATM   10  C17 UNL     1      -2.512   2.040  -1.620  1.00  0.00     0.185 A 
HETATM   11  N6  UNL     1      -3.515   1.309  -1.073  1.00  0.00    -0.323 N 
HETATM   12  C21 UNL     1      -2.907   0.279  -0.458  1.00  0.00     0.155 A 
HETATM   13  N7  UNL     1      -3.394  -0.773   0.255  1.00  0.00    -0.174 N 
ATOM     14  H7  UNL     1      -4.401  -0.863   0.391  1.00  0.00     0.186 HD
ENDROOT
BRANCH   5  15
HETATM   15  C6  UNL     1       1.463   0.340  -0.834  1.00  0.00     0.083 C 
HETATM   16  C7  UNL     1       1.721   1.503   0.096  1.00  0.00     0.027 C 
HETATM   17  C8  UNL     1       2.915   1.096   0.975  1.00  0.00     0.027 C 
HETATM   18  C9  UNL     1       4.136   1.222   0.128  1.00  0.00     0.083 C 
HETATM   19  C14 UNL     1       3.951   0.467  -1.151  1.00  0.00     0.027 C 
HETATM   20  C15 UNL     1       2.731  -0.415  -1.156  1.00  0.00     0.027 C 
BRANCH  18  21
HETATM   21  N4  UNL     1       5.359   0.946   0.801  1.00  0.00    -0.385 N 
HETATM   22  C10 UNL     1       6.536   1.055   0.028  1.00  0.00     0.148 C 
HETATM   23  C11 UNL     1       7.538  -0.046   0.232  1.00  0.00     0.187 C 
HETATM   24  O1  UNL     1       7.002  -1.305   0.244  1.00  0.00    -0.385 OA
HETATM   25  C12 UNL     1       5.870  -1.455   0.993  1.00  0.00     0.212 C 
HETATM   26  C13 UNL     1       5.399  -0.177   1.651  1.00  0.00     0.084 C 
ENDBRANCH  18  21
ENDBRANCH   5  15
BRANCH   1  27
HETATM   27  N1  UNL     1      -3.055  -2.666   1.445  1.00  0.00    -0.222 N 
ATOM     28  H1  UNL     1      -2.360  -3.317   1.810  1.00  0.00     0.178 HD
BRANCH  27  29
HETATM   29  C2  UNL     1      -4.392  -2.994   1.759  1.00  0.00     0.091 C 
HETATM   30  C1  UNL     1      -5.081  -1.945   2.617  1.00  0.00     0.032 C 
HETATM   31  C3  UNL     1      -5.154  -3.316   0.500  1.00  0.00     0.032 C 
ENDBRANCH  27  29
ENDBRANCH   1  27
BRANCH  11  32
HETATM   32  C18 UNL     1      -4.918   1.613  -1.161  1.00  0.00     0.084 C 
HETATM   33  C19 UNL     1      -5.077   3.113  -1.296  1.00  0.00     0.032 C 
HETATM   34  C20 UNL     1      -5.560   0.986  -2.387  1.00  0.00     0.032 C 
ENDBRANCH  11  32
TORSDOF 5
