REMARK  5 active torsions:
REMARK  status: ('A' for Active; 'I' for Inactive)
REMARK    1  A    between atoms: C4_4  and  N1_5 
REMARK    2  A    between atoms: N1_5  and  C5_7 
REMARK    3  A    between atoms: C14_21  and  N5_22 
REMARK    4  A    between atoms: N5_22  and  S1_24 
REMARK    5  A    between atoms: S1_24  and  C15_27 
ROOT
HETATM    1  C5  UNL     1      -2.740  -0.478   0.205  1.00  0.00     0.100 C 
HETATM    2  C6  UNL     1      -2.980   0.340  -1.037  1.00  0.00     0.053 C 
HETATM    3  C7  UNL     1      -3.997   1.436  -0.795  1.00  0.00     0.161 C 
HETATM    4  C8  UNL     1      -4.597   1.793  -2.080  1.00  0.00     0.071 C 
HETATM    5  N2  UNL     1      -5.080   2.072  -3.093  1.00  0.00    -0.196 NA
HETATM    6  C9  UNL     1      -4.997   0.980   0.198  1.00  0.00     0.090 C 
HETATM    7  N3  UNL     1      -5.687   1.860   0.827  1.00  0.00    -0.388 N 
ATOM      8  H31 UNL     1      -6.376   1.546   1.511  1.00  0.00     0.157 HD
ATOM      9  H32 UNL     1      -5.555   2.858   0.665  1.00  0.00     0.157 HD
HETATM   10  N4  UNL     1      -5.179  -0.392   0.420  1.00  0.00    -0.372 N 
HETATM   11  C10 UNL     1      -6.492  -0.962   0.680  1.00  0.00     0.150 C 
HETATM   12  C11 UNL     1      -4.038  -1.298   0.392  1.00  0.00     0.148 C 
ENDROOT
BRANCH   1  13
HETATM   13  N1  UNL     1      -1.713  -1.407   0.164  1.00  0.00    -0.390 N 
ATOM     14  H1  UNL     1      -1.984  -2.387   0.245  1.00  0.00     0.159 HD
BRANCH  13  15
HETATM   15  C4  UNL     1      -0.365  -1.154   0.026  1.00  0.00    -0.017 C 
HETATM   16  C3  UNL     1       0.347  -0.362   1.084  1.00  0.00     0.058 C 
HETATM   17  C2  UNL     1       1.632   0.246   0.629  1.00  0.00     0.010 C 
HETATM   18  C1  UNL     1       1.459   1.731   0.417  1.00  0.00     0.012 C 
HETATM   19  C14 UNL     1       2.356  -0.369  -0.497  1.00  0.00     0.097 C 
HETATM   20  C13 UNL     1       1.503  -1.153  -1.490  1.00  0.00     0.032 C 
HETATM   21  C12 UNL     1       0.079  -0.680  -1.338  1.00  0.00     0.054 C 
BRANCH  19  22
HETATM   22  N5  UNL     1       3.334  -1.342  -0.058  1.00  0.00    -0.313 N 
ATOM     23  H5  UNL     1       3.095  -2.078   0.606  1.00  0.00     0.172 HD
BRANCH  22  24
HETATM   24  S1  UNL     1       4.876  -1.200  -0.694  1.00  0.00     0.240 S 
HETATM   25  O1  UNL     1       4.853  -1.386  -2.222  1.00  0.00    -0.205 OA
HETATM   26  O2  UNL     1       5.725  -2.396  -0.231  1.00  0.00    -0.205 OA
BRANCH  24  27
HETATM   27  C15 UNL     1       5.786   0.251  -0.365  1.00  0.00     0.191 C 
HETATM   28  C16 UNL     1       5.892   0.718   1.049  1.00  0.00     0.043 C 
HETATM   29  C17 UNL     1       6.278   2.103   0.519  1.00  0.00     0.077 C 
HETATM   30  S2  UNL     1       5.079   1.832  -0.831  1.00  0.00    -0.147 SA
ENDBRANCH  24  27
ENDBRANCH  22  24
ENDBRANCH  19  22
ENDBRANCH  13  15
ENDBRANCH   1  13
TORSDOF 5
