REMARK  8 active torsions:
REMARK  status: ('A' for Active; 'I' for Inactive)
REMARK    1  A    between atoms: C2_2  and  C3_3 
REMARK    2  A    between atoms: C5_5  and  C6_6 
REMARK       I    between atoms: C6_6  and  N1_8 
REMARK    3  A    between atoms: N1_8  and  C7_10 
REMARK    4  A    between atoms: C7_10  and  C8_11 
REMARK    5  A    between atoms: C7_10  and  C12_21 
REMARK    6  A    between atoms: C11_18  and  O3_19 
REMARK       I    between atoms: N3_25  and  C16_26 
REMARK    7  A    between atoms: C16_26  and  O5_28 
REMARK    8  A    between atoms: O5_28  and  C17_29 
ROOT
HETATM    1  C6  UNL     1       0.105   0.064   0.040  1.00  0.00     0.241 C 
HETATM    2  O1  UNL     1       0.432  -0.390   1.180  1.00  0.00    -0.271 OA
HETATM    3  N1  UNL     1      -1.246   0.329  -0.298  1.00  0.00    -0.351 N 
ATOM      4  H1  UNL     1      -1.447   0.694  -1.229  1.00  0.00     0.163 HD
ENDROOT
BRANCH   3   5
HETATM    5  C7  UNL     1      -2.356   0.110   0.605  1.00  0.00     0.125 C 
BRANCH   5   6
HETATM    6  C8  UNL     1      -3.186  -0.996   0.097  1.00  0.00     0.201 C 
HETATM    7  O2  UNL     1      -4.276  -1.222   0.962  1.00  0.00    -0.378 OA
HETATM    8  C9  UNL     1      -4.596  -2.573   0.907  1.00  0.00     0.196 C 
HETATM    9  C10 UNL     1      -4.513  -3.076  -0.514  1.00  0.00     0.261 C 
HETATM   10  N2  UNL     1      -4.638  -2.030  -1.488  1.00  0.00    -0.044 N 
HETATM   11  C11 UNL     1      -3.668  -0.950  -1.289  1.00  0.00     0.350 C 
ATOM     12  H22 UNL     1      -4.579  -2.404  -2.435  1.00  0.00     0.280 HD
ATOM     13  H21 UNL     1      -5.590  -1.666  -1.513  1.00  0.00     0.280 HD
BRANCH  11  14
HETATM   14  O3  UNL     1      -2.666  -1.187  -2.238  1.00  0.00    -0.368 OA
ATOM     15  H3  UNL     1      -2.978  -1.157  -3.135  1.00  0.00     0.212 HD
ENDBRANCH  11  14
ENDBRANCH   5   6
BRANCH   5  16
HETATM   16  C12 UNL     1      -2.995   1.389   0.950  1.00  0.00    -0.028 C 
HETATM   17  C13 UNL     1      -3.549   2.159  -0.236  1.00  0.00     0.016 C 
HETATM   18  C14 UNL     1      -4.110   1.298   1.963  1.00  0.00     0.016 C 
HETATM   19  C15 UNL     1      -1.954   2.293   1.589  1.00  0.00     0.016 C 
ENDBRANCH   5  16
ENDBRANCH   3   5
BRANCH   1  20
HETATM   20  C5  UNL     1       1.189   0.312  -0.942  1.00  0.00     0.182 C 
HETATM   21  C4  UNL     1       1.232   1.830  -1.165  1.00  0.00     0.041 C 
HETATM   22  C3  UNL     1       2.388   2.270  -0.274  1.00  0.00     0.006 C 
HETATM   23  C20 UNL     1       3.327   1.132  -0.458  1.00  0.00     0.134 C 
HETATM   24  N3  UNL     1       2.483  -0.038  -0.481  1.00  0.00    -0.314 N 
HETATM   25  C16 UNL     1       2.883  -1.352  -0.111  1.00  0.00     0.363 C 
HETATM   26  O4  UNL     1       2.071  -2.292  -0.190  1.00  0.00    -0.238 OA
BRANCH  22  27
HETATM   27  C2  UNL     1       2.949   3.602  -0.653  1.00  0.00     0.002 C 
HETATM   28  C1  UNL     1       3.489   3.664  -2.044  1.00  0.00     0.005 C 
ENDBRANCH  22  27
BRANCH  25  29
HETATM   29  O5  UNL     1       4.169  -1.578   0.334  1.00  0.00    -0.299 OA
BRANCH  29  30
HETATM   30  C17 UNL     1       4.644  -2.861   0.721  1.00  0.00     0.125 C 
HETATM   31  C18 UNL     1       5.114  -2.805   2.159  1.00  0.00     0.040 C 
HETATM   32  C19 UNL     1       5.783  -3.209  -0.216  1.00  0.00     0.040 C 
ENDBRANCH  29  30
ENDBRANCH  25  29
ENDBRANCH   1  20
TORSDOF 8
