REMARK  6 active torsions:
REMARK  status: ('A' for Active; 'I' for Inactive)
REMARK    1  A    between atoms: C2_2  and  C3_3 
REMARK    2  A    between atoms: C3_3  and  N1_4 
REMARK    3  A    between atoms: C12_20  and  C13_21 
REMARK       I    between atoms: C13_21  and  N5_23 
REMARK    4  A    between atoms: N5_23  and  C14_25 
REMARK    5  A    between atoms: C14_25  and  C15_26 
REMARK    6  A    between atoms: C18_31  and  O6_33 
ROOT
HETATM    1  N1  UNL     1      -2.106  -1.034   0.227  1.00  0.00    -0.308 N 
HETATM    2  C4  UNL     1      -1.001  -1.819   0.810  1.00  0.00     0.328 C 
HETATM    3  O1  UNL     1      -0.487  -2.855   0.331  1.00  0.00    -0.247 OA
HETATM    4  N2  UNL     1      -0.629  -1.165   2.034  1.00  0.00    -0.272 N 
HETATM    5  C5  UNL     1       0.409  -1.555   2.984  1.00  0.00     0.164 C 
HETATM    6  C6  UNL     1      -1.505  -0.049   2.119  1.00  0.00     0.264 C 
HETATM    7  O2  UNL     1      -1.976   0.540   3.082  1.00  0.00    -0.270 OA
HETATM    8  C7  UNL     1      -1.746   0.274   0.641  1.00  0.00     0.186 A 
HETATM    9  C8  UNL     1      -0.467   0.798   0.072  1.00  0.00     0.038 A 
HETATM   10  C9  UNL     1      -1.100   1.980  -0.167  1.00  0.00     0.059 A 
HETATM   11  N3  UNL     1      -0.217   2.857  -0.732  1.00  0.00    -0.355 N 
ATOM     12  H3  UNL     1      -0.404   3.818  -1.019  1.00  0.00     0.166 HD
HETATM   13  C10 UNL     1       0.956   2.190  -0.833  1.00  0.00     0.060 A 
HETATM   14  C11 UNL     1       0.834   0.904  -0.342  1.00  0.00     0.071 A 
HETATM   15  N4  UNL     1       1.957   0.018  -0.351  1.00  0.00    -0.349 N 
ATOM     16  H4  UNL     1       1.829  -0.924   0.020  1.00  0.00     0.166 HD
HETATM   17  C12 UNL     1       3.132   0.344  -0.805  1.00  0.00     0.101 A 
HETATM   18  C16 UNL     1       3.281   1.690  -1.326  1.00  0.00     0.037 A 
HETATM   19  C17 UNL     1       2.265   2.571  -1.346  1.00  0.00     0.034 A 
HETATM   20  C18 UNL     1      -2.424   1.502   0.366  1.00  0.00     0.138 A 
HETATM   21  C19 UNL     1      -3.411   1.667  -0.757  1.00  0.00     0.057 C 
ENDROOT
BRANCH   1  22
HETATM   22  C3  UNL     1      -3.103  -1.707  -0.524  1.00  0.00     0.129 C 
BRANCH  22  23
HETATM   23  C2  UNL     1      -4.250  -2.309   0.212  1.00  0.00     0.015 C 
HETATM   24  C1  UNL     1      -5.030  -1.312   0.973  1.00  0.00     0.006 C 
ENDBRANCH  22  23
ENDBRANCH   1  22
BRANCH  20  25
HETATM   25  O6  UNL     1      -2.790   2.173   1.548  1.00  0.00    -0.376 OA
HETATM   26  C20 UNL     1      -3.449   3.354   1.322  1.00  0.00     0.203 C 
ENDBRANCH  20  25
BRANCH  17  27
HETATM   27  C13 UNL     1       4.230  -0.632  -0.775  1.00  0.00     0.268 C 
HETATM   28  O3  UNL     1       4.063  -1.790  -0.316  1.00  0.00    -0.266 OA
HETATM   29  N5  UNL     1       5.497  -0.275  -1.267  1.00  0.00    -0.346 N 
ATOM     30  H5  UNL     1       5.649   0.662  -1.639  1.00  0.00     0.163 HD
BRANCH  29  31
HETATM   31  C14 UNL     1       6.588  -1.225  -1.250  1.00  0.00     0.236 C 
BRANCH  31  32
HETATM   32  C15 UNL     1       6.351  -2.437  -2.047  1.00  0.00     0.191 C 
HETATM   33  O4  UNL     1       5.312  -2.646  -2.719  1.00  0.00    -0.647 OA
HETATM   34  O5  UNL     1       7.315  -3.446  -2.089  1.00  0.00    -0.647 OA
ENDBRANCH  31  32
ENDBRANCH  29  31
ENDBRANCH  17  27
TORSDOF 6
