REMARK  5 active torsions:
REMARK  status: ('A' for Active; 'I' for Inactive)
REMARK    1  A    between atoms: C2_2  and  C3_3 
REMARK    2  A    between atoms: C3_3  and  N1_4 
REMARK       I    between atoms: N1_4  and  C4_6 
REMARK    3  A    between atoms: C4_6  and  C5_8 
REMARK    4  A    between atoms: C10_13  and  N2_14 
REMARK       I    between atoms: N2_14  and  C11_16 
REMARK    5  A    between atoms: C11_16  and  C12_18 
REMARK       I    between atoms: N3_25  and  C19_26 
ROOT
HETATM    1  C5  UNL     1       2.337   0.301   1.018  1.00  0.00     0.104 C 
HETATM    2  C6  UNL     1       0.869   0.354   1.291  1.00  0.00     0.025 C 
HETATM    3  C7  UNL     1       0.976   1.347   2.488  1.00  0.00     0.015 C 
HETATM    4  C8  UNL     1       1.606   2.453   1.644  1.00  0.00     0.033 C 
HETATM    5  C9  UNL     1       0.437   2.684   0.701  1.00  0.00     0.133 C 
HETATM    6  C10 UNL     1       0.063   1.231   0.374  1.00  0.00     0.113 C 
HETATM    7  N3  UNL     1       0.987   3.351  -0.445  1.00  0.00    -0.238 N 
HETATM    8  C19 UNL     1       0.499   4.457  -1.115  1.00  0.00     0.229 C 
HETATM    9  C20 UNL     1       1.224   5.019  -2.310  1.00  0.00     0.118 C 
HETATM   10  O3  UNL     1      -0.556   5.055  -0.782  1.00  0.00    -0.273 OA
HETATM   11  S1  UNL     1       2.408   2.424  -0.772  1.00  0.00     0.240 S 
HETATM   12  O4  UNL     1       3.566   3.322  -1.135  1.00  0.00    -0.205 OA
HETATM   13  O5  UNL     1       2.188   1.510  -1.905  1.00  0.00    -0.205 OA
HETATM   14  C21 UNL     1       2.671   1.717   0.801  1.00  0.00     0.149 C 
ENDROOT
BRANCH   6  15
HETATM   15  N2  UNL     1      -1.344   1.025   0.712  1.00  0.00    -0.354 N 
HETATM   16  C11 UNL     1      -2.320   0.596  -0.225  1.00  0.00     0.223 C 
HETATM   17  O2  UNL     1      -1.934   0.386  -1.412  1.00  0.00    -0.273 OA
ATOM     18  H2  UNL     1      -1.640   1.199   1.672  1.00  0.00     0.163 HD
BRANCH  16  19
HETATM   19  C12 UNL     1      -3.720   0.394   0.121  1.00  0.00     0.086 C 
HETATM   20  C13 UNL     1      -4.011  -0.573   1.268  1.00  0.00    -0.000 C 
HETATM   21  C14 UNL     1      -3.344  -1.832   0.862  1.00  0.00     0.010 C 
HETATM   22  C18 UNL     1      -5.380  -0.704   0.581  1.00  0.00     0.011 C 
HETATM   23  C15 UNL     1      -3.746  -1.856  -0.627  1.00  0.00    -0.013 C 
HETATM   24  C16 UNL     1      -4.588  -3.092  -0.860  1.00  0.00     0.010 C 
HETATM   25  C17 UNL     1      -4.517  -0.596  -0.692  1.00  0.00     0.003 C 
ENDBRANCH  16  19
ENDBRANCH   6  15
BRANCH   1  26
HETATM   26  C4  UNL     1       2.821  -0.710   0.103  1.00  0.00     0.223 C 
HETATM   27  N1  UNL     1       2.293  -1.997   0.107  1.00  0.00    -0.361 N 
ATOM     28  H1  UNL     1       1.545  -2.138   0.786  1.00  0.00     0.162 HD
HETATM   29  O1  UNL     1       3.727  -0.388  -0.682  1.00  0.00    -0.273 OA
BRANCH  27  30
HETATM   30  C3  UNL     1       2.604  -3.145  -0.658  1.00  0.00     0.122 C 
BRANCH  30  31
HETATM   31  C2  UNL     1       3.914  -3.802  -0.545  1.00  0.00     0.015 C 
HETATM   32  C1  UNL     1       5.153  -3.052  -0.918  1.00  0.00     0.006 C 
ENDBRANCH  30  31
ENDBRANCH  27  30
ENDBRANCH   1  26
TORSDOF 5
