REMARK  8 active torsions:
REMARK  status: ('A' for Active; 'I' for Inactive)
REMARK       I    between atoms: C2_2  and  N1_4 
REMARK    1  A    between atoms: N1_4  and  C3_6 
REMARK    2  A    between atoms: C3_6  and  C4_7 
REMARK    3  A    between atoms: C3_6  and  C21_33 
REMARK       I    between atoms: C4_7  and  N2_9 
REMARK    4  A    between atoms: C7_12  and  N3_13 
REMARK    5  A    between atoms: C10_16  and  C11_17 
REMARK    6  A    between atoms: C11_17  and  C12_18 
REMARK       I    between atoms: C12_18  and  N4_20 
REMARK    7  A    between atoms: N4_20  and  C13_22 
REMARK    8  A    between atoms: C15_24  and  C16_25 
ROOT
HETATM    1  C4  UNL     1      -3.072   0.715  -0.293  1.00  0.00     0.243 C 
HETATM    2  O2  UNL     1      -2.764   1.295  -1.354  1.00  0.00    -0.271 OA
HETATM    3  N2  UNL     1      -2.416  -0.441   0.122  1.00  0.00    -0.343 N 
HETATM    4  C5  UNL     1      -2.580  -1.204   1.344  1.00  0.00     0.128 C 
HETATM    5  C6  UNL     1      -1.483  -2.287   1.299  1.00  0.00     0.058 C 
HETATM    6  C7  UNL     1      -1.440  -2.484  -0.200  1.00  0.00     0.246 C 
HETATM    7  C10 UNL     1      -1.364  -1.112  -0.724  1.00  0.00     0.129 C 
ENDROOT
BRANCH   7   8
HETATM    8  C11 UNL     1      -0.166  -0.300  -0.507  1.00  0.00     0.130 C 
BRANCH   8   9
HETATM    9  C12 UNL     1       1.085  -0.641  -1.211  1.00  0.00     0.225 C 
HETATM   10  O3  UNL     1       1.150  -1.618  -1.965  1.00  0.00    -0.273 OA
HETATM   11  N4  UNL     1       2.196   0.161  -1.015  1.00  0.00    -0.312 N 
ATOM     12  H4  UNL     1       2.013   1.131  -1.272  1.00  0.00     0.170 HD
BRANCH  11  13
HETATM   13  C13 UNL     1       3.361   0.004  -0.606  1.00  0.00     0.126 A 
HETATM   14  C14 UNL     1       4.228   1.121  -0.550  1.00  0.00     0.077 A 
HETATM   15  C15 UNL     1       5.424   0.683  -0.051  1.00  0.00     0.037 A 
HETATM   16  N5  UNL     1       5.289  -0.621   0.181  1.00  0.00    -0.301 N 
HETATM   17  N6  UNL     1       4.073  -1.032  -0.145  1.00  0.00    -0.281 N 
ATOM     18  H5  UNL     1       6.022  -1.222   0.558  1.00  0.00     0.187 HD
HETATM   19  C20 UNL     1       3.542  -2.396  -0.029  1.00  0.00     0.179 C 
BRANCH  15  20
HETATM   20  C16 UNL     1       6.578   1.611   0.150  1.00  0.00    -0.007 C 
HETATM   21  C17 UNL     1       6.145   2.789   1.040  1.00  0.00     0.021 C 
HETATM   22  C18 UNL     1       7.723   0.913   0.803  1.00  0.00     0.021 C 
HETATM   23  C19 UNL     1       7.019   2.223  -1.157  1.00  0.00     0.021 C 
ENDBRANCH  15  20
ENDBRANCH  11  13
ENDBRANCH   8   9
ENDBRANCH   7   8
BRANCH   6  24
HETATM   24  N3  UNL     1      -0.570  -3.481  -0.665  1.00  0.00     0.086 N 
HETATM   25  C8  UNL     1      -1.335  -4.409  -1.526  1.00  0.00     0.310 C 
HETATM   26  C9  UNL     1      -0.227  -4.349   0.489  1.00  0.00     0.310 C 
ENDBRANCH   6  24
BRANCH   1  27
HETATM   27  C3  UNL     1      -4.183   1.334   0.507  1.00  0.00     0.180 C 
BRANCH  27  28
HETATM   28  N1  UNL     1      -4.297   2.705   0.171  1.00  0.00    -0.348 N 
HETATM   29  C2  UNL     1      -4.576   3.463  -0.925  1.00  0.00     0.214 C 
HETATM   30  C1  UNL     1      -4.605   4.980  -0.806  1.00  0.00     0.117 C 
HETATM   31  O1  UNL     1      -4.826   3.070  -2.075  1.00  0.00    -0.274 OA
ATOM     32  H1  UNL     1      -4.119   3.294   0.984  1.00  0.00     0.163 HD
ENDBRANCH  27  28
BRANCH  27  33
HETATM   33  C21 UNL     1      -5.416   0.490   0.303  1.00  0.00     0.009 C 
HETATM   34  C22 UNL     1      -5.875   0.361  -1.114  1.00  0.00     0.012 C 
HETATM   35  C23 UNL     1      -6.554   1.068   1.168  1.00  0.00     0.012 C 
ENDBRANCH  27  33
ENDBRANCH   1  27
TORSDOF 8
