REMARK  2 active torsions:
REMARK  status: ('A' for Active; 'I' for Inactive)
REMARK    1  A    between atoms: C2_2  and  N1_3 
REMARK    2  A    between atoms: N1_3  and  O1_5 
ROOT
HETATM    1  C1  UNL     1      -3.549   1.265   0.427  1.00  0.00     0.070 C 
HETATM    2  C2  UNL     1      -2.055   1.112   0.217  1.00  0.00     0.030 C 
HETATM    3  C3  UNL     1      -1.644   0.203  -0.600  1.00  0.00    -0.051 C 
HETATM    4  C4  UNL     1      -2.725  -0.628  -1.277  1.00  0.00     0.037 C 
HETATM    5  C5  UNL     1      -2.801  -1.989  -0.656  1.00  0.00     0.005 C 
HETATM    6  C6  UNL     1      -1.360  -2.339  -0.258  1.00  0.00     0.005 C 
HETATM    7  C7  UNL     1      -0.393  -1.711  -1.246  1.00  0.00    -0.003 C 
HETATM    8  C8  UNL     1       0.954  -2.296  -0.942  1.00  0.00     0.040 C 
HETATM    9  C9  UNL     1       1.501  -1.437   0.125  1.00  0.00     0.161 C 
HETATM   10  O2  UNL     1       1.511  -1.927   1.404  1.00  0.00    -0.273 OA
HETATM   11  N2  UNL     1       2.338  -1.162   2.198  1.00  0.00    -0.248 N 
ATOM     12  H2  UNL     1       2.377  -1.443   3.178  1.00  0.00     0.196 HD
HETATM   13  C10 UNL     1       3.147  -0.039   1.859  1.00  0.00     0.151 A 
HETATM   14  N3  UNL     1       4.237   0.368   2.402  1.00  0.00    -0.284 N 
ATOM     15  H3  UNL     1       4.692  -0.086   3.194  1.00  0.00     0.188 HD
HETATM   16  N4  UNL     1       4.721   1.521   1.761  1.00  0.00    -0.309 N 
ATOM     17  H4  UNL     1       5.573   2.015   2.026  1.00  0.00     0.186 HD
HETATM   18  C11 UNL     1       3.935   1.874   0.783  1.00  0.00     0.122 A 
HETATM   19  C12 UNL     1       2.853   0.907   0.757  1.00  0.00     0.030 A 
HETATM   20  C13 UNL     1       1.805   0.920  -0.088  1.00  0.00    -0.061 C 
HETATM   21  C14 UNL     1       1.842   1.991  -1.054  1.00  0.00     0.045 C 
HETATM   22  C15 UNL     1       0.729  -0.095   0.018  1.00  0.00     0.055 C 
HETATM   23  C16 UNL     1      -0.268  -0.182  -0.999  1.00  0.00     0.031 C 
ENDROOT
BRANCH   2  24
HETATM   24  N1  UNL     1      -1.278   2.028   0.951  1.00  0.00    -0.274 N 
ATOM     25  H1  UNL     1      -0.827   1.768   1.828  1.00  0.00     0.193 HD
BRANCH  24  26
HETATM   26  O1  UNL     1      -1.159   3.300   0.419  1.00  0.00    -0.290 OA
ATOM     27  H1  UNL     1      -0.635   3.918   0.914  1.00  0.00     0.244 HD
ENDBRANCH  24  26
ENDBRANCH   2  24
TORSDOF 2
