REMARK  4 active torsions:
REMARK  status: ('A' for Active; 'I' for Inactive)
REMARK    1  A    between atoms: C2_2  and  C14_23 
REMARK    2  A    between atoms: N1_3  and  N2_5 
REMARK    3  A    between atoms: C14_23  and  O2_24 
REMARK    4  A    between atoms: N5_26  and  O3_28 
ROOT
HETATM    1  N2  UNL     1       1.460   0.806   0.866  1.00  0.00    -0.307 N 
ATOM      2  H2  UNL     1       1.325   1.244   1.777  1.00  0.00     0.186 HD
HETATM    3  C3  UNL     1       0.503   0.125   0.348  1.00  0.00     0.032 C 
HETATM    4  C4  UNL     1      -0.768  -0.001   1.095  1.00  0.00     0.094 C 
HETATM    5  C5  UNL     1      -1.974  -0.182   0.201  1.00  0.00     0.074 C 
HETATM    6  C6  UNL     1      -2.979  -1.004   0.966  1.00  0.00     0.039 C 
HETATM    7  C7  UNL     1      -4.345  -0.991   0.371  1.00  0.00     0.003 C 
HETATM    8  C8  UNL     1      -4.843   0.369  -0.009  1.00  0.00     0.000 C 
HETATM    9  C9  UNL     1      -3.840   1.163  -0.803  1.00  0.00     0.003 C 
HETATM   10  C10 UNL     1      -2.496   1.200  -0.125  1.00  0.00     0.039 C 
HETATM   11  O1  UNL     1      -1.699  -0.837  -0.999  1.00  0.00    -0.326 OA
HETATM   12  C11 UNL     1      -0.448  -1.294  -1.374  1.00  0.00     0.136 C 
HETATM   13  N3  UNL     1      -0.365  -2.406  -2.063  1.00  0.00    -0.382 N 
ATOM     14  H31 UNL     1       0.557  -2.743  -2.339  1.00  0.00     0.158 HD
ATOM     15  H32 UNL     1      -1.180  -2.955  -2.338  1.00  0.00     0.158 HD
HETATM   16  C12 UNL     1       0.724  -0.504  -0.979  1.00  0.00     0.213 C 
HETATM   17  C13 UNL     1       0.981   0.601  -1.932  1.00  0.00     0.078 C 
HETATM   18  N4  UNL     1       1.193   1.459  -2.658  1.00  0.00    -0.196 NA
ENDROOT
BRANCH   1  19
HETATM   19  N1  UNL     1       2.671   0.958   0.213  1.00  0.00    -0.301 N 
HETATM   20  C2  UNL     1       3.722   0.285   0.528  1.00  0.00     0.074 C 
HETATM   21  C1  UNL     1       3.649  -0.697   1.634  1.00  0.00     0.074 C 
ATOM     22  H1  UNL     1       2.733   1.632  -0.550  1.00  0.00     0.186 HD
BRANCH  20  23
HETATM   23  C14 UNL     1       4.959   0.496  -0.201  1.00  0.00     0.184 C 
HETATM   24  N5  UNL     1       5.019   1.348  -1.160  1.00  0.00    -0.246 N 
ATOM     25  H5  UNL     1       4.180   1.875  -1.402  1.00  0.00     0.196 HD
BRANCH  23  26
HETATM   26  O2  UNL     1       6.098  -0.243   0.151  1.00  0.00    -0.343 OA
ATOM     27  H2  UNL     1       6.908  -0.105  -0.326  1.00  0.00     0.219 HD
ENDBRANCH  23  26
BRANCH  24  28
HETATM   28  O3  UNL     1       6.163   1.574  -1.867  1.00  0.00    -0.288 OA
ATOM     29  H3  UNL     1       6.207   2.204  -2.576  1.00  0.00     0.244 HD
ENDBRANCH  24  28
ENDBRANCH  20  23
ENDBRANCH   1  19
TORSDOF 4
