REMARK  5 active torsions:
REMARK  status: ('A' for Active; 'I' for Inactive)
REMARK    1  A    between atoms: C4_6  and  C5_7 
REMARK    2  A    between atoms: C5_7  and  O1_8 
REMARK    3  A    between atoms: C5_7  and  N2_10 
REMARK    4  A    between atoms: N2_10  and  O2_12 
REMARK    5  A    between atoms: C7_15  and  N3_16 
ROOT
HETATM    1  N1  UNL     1      -4.404  -2.607   0.000  1.00  0.00    -0.093 NA
HETATM    2  C1  UNL     1      -3.231  -1.883  -0.395  1.00  0.00     0.102 A 
HETATM    3  S1  UNL     1      -2.596  -1.775  -1.964  1.00  0.00    -0.078 SA
HETATM    4  C2  UNL     1      -1.248  -0.783  -1.640  1.00  0.00    -0.008 A 
HETATM    5  C3  UNL     1      -1.329  -0.562  -0.312  1.00  0.00    -0.026 A 
HETATM    6  C4  UNL     1      -2.364  -1.131   0.362  1.00  0.00     0.055 A 
HETATM    7  C6  UNL     1      -0.249   0.299   0.327  1.00  0.00     0.065 C 
HETATM    8  C7  UNL     1       0.848   0.577  -0.615  1.00  0.00     0.088 C 
HETATM    9  C11 UNL     1       0.380   0.991  -2.010  1.00  0.00     0.030 C 
HETATM   10  C12 UNL     1      -0.219  -0.272  -2.586  1.00  0.00     0.049 C 
ENDROOT
BRANCH   8  11
HETATM   11  N3  UNL     1       1.598   1.708  -0.104  1.00  0.00    -0.366 N 
HETATM   12  C8  UNL     1       2.866   1.762  -0.079  1.00  0.00     0.140 C 
HETATM   13  N4  UNL     1       3.787   0.804  -0.511  1.00  0.00    -0.350 N 
HETATM   14  S2  UNL     1       3.889   3.101   0.525  1.00  0.00    -0.089 SA
HETATM   15  C9  UNL     1       4.998   0.975  -0.326  1.00  0.00     0.073 C 
ATOM     16  H4  UNL     1       3.459  -0.040  -0.981  1.00  0.00     0.167 HD
HETATM   17  C10 UNL     1       5.457   2.198   0.354  1.00  0.00     0.127 C 
ATOM     18  H3  UNL     1       1.076   2.507   0.256  1.00  0.00     0.162 HD
ENDBRANCH   8  11
BRANCH   6  19
HETATM   19  C5  UNL     1      -2.646  -1.013   1.812  1.00  0.00     0.173 C 
BRANCH  19  20
HETATM   20  O1  UNL     1      -1.797  -0.265   2.585  1.00  0.00    -0.344 OA
ATOM     21  H1  UNL     1      -1.978  -0.189   3.515  1.00  0.00     0.219 HD
ENDBRANCH  19  20
BRANCH  19  22
HETATM   22  N2  UNL     1      -3.637  -1.570   2.376  1.00  0.00    -0.247 N 
ATOM     23  H2  UNL     1      -4.260  -2.122   1.786  1.00  0.00     0.196 HD
BRANCH  22  24
HETATM   24  O2  UNL     1      -3.936  -1.494   3.689  1.00  0.00    -0.288 OA
ATOM     25  H2  UNL     1      -4.678  -1.911   4.111  1.00  0.00     0.244 HD
ENDBRANCH  22  24
ENDBRANCH  19  22
ENDBRANCH   6  19
TORSDOF 5
