REMARK  3 active torsions:
REMARK  status: ('A' for Active; 'I' for Inactive)
REMARK    1  A    between atoms: C4_4  and  N1_5 
REMARK    2  A    between atoms: N3_14  and  C8_15 
REMARK    3  A    between atoms: C8_15  and  C9_16 
ROOT
HETATM    1  C1  UNL     1       5.652   0.327   0.982  1.00  0.00     0.032 C 
HETATM    2  C2  UNL     1       4.607  -0.560   0.291  1.00  0.00     0.081 C 
HETATM    3  C3  UNL     1       4.220   0.161  -0.978  1.00  0.00     0.062 C 
HETATM    4  C4  UNL     1       2.856  -0.193  -1.472  1.00  0.00     0.225 C 
HETATM    5  C5  UNL     1       1.864   0.099  -0.413  1.00  0.00     0.054 A 
HETATM    6  C6  UNL     1       2.223  -0.174   0.889  1.00  0.00     0.113 A 
HETATM    7  N2  UNL     1       1.335   0.085   1.857  1.00  0.00    -0.338 N 
ATOM      8  H2  UNL     1       1.576  -0.109   2.829  1.00  0.00     0.168 HD
HETATM    9  C7  UNL     1       0.125   0.600   1.559  1.00  0.00     0.185 A 
HETATM   10  N3  UNL     1      -0.255   0.877   0.301  1.00  0.00    -0.333 N 
HETATM   11  C15 UNL     1       0.623   0.624  -0.686  1.00  0.00     0.116 A 
HETATM   12  S1  UNL     1       0.230   0.938  -2.264  1.00  0.00    -0.059 SA
HETATM   13  N4  UNL     1       3.519  -0.724   1.199  1.00  0.00    -0.371 N 
ATOM     14  H4  UNL     1       3.659  -1.233   2.072  1.00  0.00     0.161 HD
ENDROOT
BRANCH  10  15
HETATM   15  C8  UNL     1      -1.539   1.426  -0.013  1.00  0.00     0.135 C 
BRANCH  15  16
HETATM   16  C9  UNL     1      -2.607   0.392  -0.289  1.00  0.00     0.004 C 
HETATM   17  C10 UNL     1      -3.876   1.146  -0.600  1.00  0.00     0.006 C 
HETATM   18  C11 UNL     1      -5.029   0.668   0.267  1.00  0.00     0.000 C 
HETATM   19  C12 UNL     1      -5.114  -0.821  -0.017  1.00  0.00     0.000 C 
HETATM   20  C13 UNL     1      -3.986  -1.443   0.774  1.00  0.00     0.000 C 
HETATM   21  C14 UNL     1      -2.734  -0.631   0.776  1.00  0.00     0.006 C 
ENDBRANCH  15  16
ENDBRANCH  10  15
BRANCH   4  22
HETATM   22  N1  UNL     1       2.766  -1.619  -1.770  1.00  0.00    -0.071 N 
ATOM     23  H13 UNL     1       3.492  -1.915  -2.423  1.00  0.00     0.275 HD
ATOM     24  H12 UNL     1       3.037  -2.190  -0.969  1.00  0.00     0.275 HD
ATOM     25  H11 UNL     1       1.834  -1.861  -2.107  1.00  0.00     0.275 HD
ENDBRANCH   4  22
TORSDOF 3
