REMARK  4 active torsions:
REMARK  status: ('A' for Active; 'I' for Inactive)
REMARK    1  A    between atoms: N2_6  and  C3_7 
REMARK    2  A    between atoms: C3_7  and  C4_8 
REMARK    3  A    between atoms: C4_8  and  C5_9 
REMARK    4  A    between atoms: C5_9  and  C6_10 
ROOT
HETATM    1  N1  UNL     1      -2.953   1.290   1.971  1.00  0.00    -0.384 N 
ATOM      2  H11 UNL     1      -3.351   2.180   2.270  1.00  0.00     0.157 HD
ATOM      3  H12 UNL     1      -2.944   0.507   2.624  1.00  0.00     0.157 HD
HETATM    4  C1  UNL     1      -2.454   1.103   0.796  1.00  0.00     0.117 A 
HETATM    5  C2  UNL     1      -1.886  -0.167   0.369  1.00  0.00     0.163 A 
HETATM    6  N2  UNL     1      -1.384  -0.324  -0.837  1.00  0.00    -0.275 N 
HETATM    7  N5  UNL     1      -1.435   0.792  -1.667  1.00  0.00    -0.290 N 
ATOM      8  H5  UNL     1      -1.047   0.673  -2.603  1.00  0.00     0.188 HD
HETATM    9  C9  UNL     1      -1.905   1.938  -1.400  1.00  0.00     0.199 A 
HETATM   10  N6  UNL     1      -2.467   2.198  -0.117  1.00  0.00    -0.337 N 
ATOM     11  H6  UNL     1      -2.854   3.108   0.132  1.00  0.00     0.168 HD
ENDROOT
BRANCH   6  12
HETATM   12  C3  UNL     1      -0.843  -1.586  -1.207  1.00  0.00     0.112 C 
BRANCH  12  13
HETATM   13  C4  UNL     1       0.579  -1.821  -1.440  1.00  0.00    -0.002 C 
BRANCH  13  14
HETATM   14  C5  UNL     1       1.581  -1.692  -0.373  1.00  0.00     0.087 C 
BRANCH  14  15
HETATM   15  C6  UNL     1       1.888  -0.404   0.238  1.00  0.00     0.029 A 
HETATM   16  C7  UNL     1       2.701  -0.322   1.386  1.00  0.00     0.114 A 
HETATM   17  N3  UNL     1       2.853   0.967   1.692  1.00  0.00    -0.360 N 
HETATM   18  C8  UNL     1       2.175   1.735   0.794  1.00  0.00     0.180 A 
ATOM     19  H3  UNL     1       3.395   1.324   2.479  1.00  0.00     0.166 HD
HETATM   20  N4  UNL     1       1.628   0.867  -0.035  1.00  0.00    -0.354 N 
ATOM     21  H4  UNL     1       1.049   1.152  -0.825  1.00  0.00     0.166 HD
ENDBRANCH  14  15
ENDBRANCH  13  14
ENDBRANCH  12  13
ENDBRANCH   6  12
TORSDOF 4
