REMARK  5 active torsions:
REMARK  status: ('A' for Active; 'I' for Inactive)
REMARK       I    between atoms: N2_3  and  C2_5 
REMARK    1  A    between atoms: N4_7  and  C3_9 
REMARK    2  A    between atoms: C3_9  and  C4_10 
REMARK    3  A    between atoms: C4_10  and  N5_11 
REMARK    4  A    between atoms: C4_10  and  C5_15 
REMARK    5  A    between atoms: C5_15  and  C6_16 
ROOT
HETATM    1  C4  UNL     1      -0.351   0.019   0.009  1.00  0.00     0.205 C 
ENDROOT
BRANCH   1   2
HETATM    2  C3  UNL     1       0.971  -0.310   0.714  1.00  0.00     0.155 C 
BRANCH   2   3
HETATM    3  N4  UNL     1       2.044   0.209  -0.096  1.00  0.00    -0.362 N 
HETATM    4  C2  UNL     1       3.265   0.170   0.247  1.00  0.00     0.188 C 
HETATM    5  N2  UNL     1       4.258   0.705  -0.613  1.00  0.00    -0.329 N 
HETATM    6  N3  UNL     1       3.635  -0.408   1.490  1.00  0.00    -0.064 NA
HETATM    7  C1  UNL     1       5.359   0.024  -0.746  1.00  0.00     0.192 C 
ATOM      8  H2  UNL     1       4.115   1.586  -1.106  1.00  0.00     0.168 HD
HETATM    9  N1  UNL     1       6.340   0.567  -1.606  1.00  0.00    -0.097 NA
ATOM     10  H4  UNL     1       1.809   0.631  -0.994  1.00  0.00     0.162 HD
ENDBRANCH   2   3
ENDBRANCH   1   2
BRANCH   1  11
HETATM   11  N5  UNL     1      -0.519   1.428  -0.153  1.00  0.00    -0.073 N 
ATOM     12  H53 UNL     1      -0.438   1.919   0.737  1.00  0.00     0.274 HD
ATOM     13  H52 UNL     1       0.276   1.846  -0.636  1.00  0.00     0.274 HD
ATOM     14  H51 UNL     1      -1.398   1.647  -0.622  1.00  0.00     0.274 HD
ENDBRANCH   1  11
BRANCH   1  15
HETATM   15  C5  UNL     1      -1.447  -0.618   0.832  1.00  0.00     0.072 C 
BRANCH  15  16
HETATM   16  C6  UNL     1      -2.790  -0.380   0.263  1.00  0.00    -0.056 A 
HETATM   17  C7  UNL     1      -3.356  -1.237  -0.649  1.00  0.00     0.007 A 
HETATM   18  C8  UNL     1      -4.614  -1.024  -1.188  1.00  0.00     0.001 A 
HETATM   19  C9  UNL     1      -5.318   0.094  -0.789  1.00  0.00     0.000 A 
HETATM   20  C10 UNL     1      -4.764   0.961   0.123  1.00  0.00     0.001 A 
HETATM   21  C11 UNL     1      -3.500   0.728   0.652  1.00  0.00     0.007 A 
ENDBRANCH  15  16
ENDBRANCH   1  15
TORSDOF 5
