REMARK  2 active torsions:
REMARK  status: ('A' for Active; 'I' for Inactive)
REMARK       I    between atoms: N1_1  and  C1_5 
REMARK       I    between atoms: C1_5  and  N2_6 
REMARK       I    between atoms: C1_5  and  N3_10 
REMARK    1  A    between atoms: C5_14  and  C6_15 
REMARK    2  A    between atoms: C6_15  and  N4_16 
ROOT
HETATM    1  N1  UNL     1      -4.209  -0.168   0.515  1.00  0.00    -0.032 N 
ATOM      2  H11 UNL     1      -4.164  -0.921   1.201  1.00  0.00     0.279 HD
ATOM      3  H12 UNL     1      -4.452  -0.495  -0.420  1.00  0.00     0.279 HD
ATOM      4  H13 UNL     1      -5.010   0.448   0.652  1.00  0.00     0.279 HD
HETATM    5  C1  UNL     1      -2.934   0.538   0.558  1.00  0.00     0.486 C 
HETATM    6  N2  UNL     1      -2.998   1.601  -0.410  1.00  0.00    -0.032 N 
ATOM      7  H21 UNL     1      -2.106   2.095  -0.380  1.00  0.00     0.279 HD
ATOM      8  H22 UNL     1      -3.799   2.217  -0.273  1.00  0.00     0.279 HD
ATOM      9  H23 UNL     1      -3.241   1.274  -1.345  1.00  0.00     0.279 HD
HETATM   10  N3  UNL     1      -1.829  -0.331   0.290  1.00  0.00    -0.316 N 
HETATM   11  C2  UNL     1      -1.851  -1.626   0.685  1.00  0.00     0.094 A 
HETATM   12  C3  UNL     1      -0.793  -2.467   0.430  1.00  0.00     0.018 A 
HETATM   13  C4  UNL     1       0.335  -2.039  -0.234  1.00  0.00     0.011 A 
HETATM   14  C5  UNL     1       0.349  -0.715  -0.634  1.00  0.00    -0.024 A 
HETATM   15  C10 UNL     1      -0.734   0.098  -0.360  1.00  0.00     0.103 A 
ENDROOT
BRANCH  14  16
HETATM   16  C6  UNL     1       1.536  -0.217  -1.348  1.00  0.00     0.169 C 
BRANCH  16  17
HETATM   17  N4  UNL     1       2.544   0.316  -0.487  1.00  0.00    -0.347 N 
HETATM   18  C7  UNL     1       3.568  -0.348   0.076  1.00  0.00     0.109 A 
HETATM   19  C8  UNL     1       4.310   0.543   0.838  1.00  0.00     0.106 A 
HETATM   20  N5  UNL     1       3.698   1.748   0.710  1.00  0.00    -0.361 N 
HETATM   21  C9  UNL     1       2.636   1.597  -0.091  1.00  0.00     0.182 A 
ATOM     22  H5  UNL     1       3.996   2.619   1.149  1.00  0.00     0.166 HD
ENDBRANCH  16  17
ENDBRANCH  14  16
TORSDOF 2
