REMARK  5 active torsions:
REMARK  status: ('A' for Active; 'I' for Inactive)
REMARK    1  A    between atoms: N1_1  and  C1_4 
REMARK    2  A    between atoms: C4_7  and  C5_8 
REMARK    3  A    between atoms: C6_9  and  C7_10 
REMARK    4  A    between atoms: C7_10  and  N2_11 
REMARK    5  A    between atoms: C10_14  and  O1_15 
ROOT
HETATM    1  C5  UNL     1       0.365  -0.262  -1.096  1.00  0.00     0.010 C 
HETATM    2  C6  UNL     1      -0.534  -0.911  -0.406  1.00  0.00    -0.004 C 
ENDROOT
BRANCH   1   3
HETATM    3  C4  UNL     1       1.655   0.047  -0.554  1.00  0.00    -0.021 A 
HETATM    4  C3  UNL     1       1.985  -0.335   0.720  1.00  0.00     0.016 A 
HETATM    5  C2  UNL     1       3.243  -0.028   1.233  1.00  0.00     0.049 A 
HETATM    6  C1  UNL     1       4.110   0.658   0.418  1.00  0.00     0.098 A 
HETATM    7  N4  UNL     1       3.784   1.032  -0.831  1.00  0.00    -0.352 N 
HETATM    8  C11 UNL     1       2.580   0.746  -1.342  1.00  0.00     0.101 A 
ATOM      9  H4  UNL     1       4.463   1.541  -1.397  1.00  0.00     0.166 HD
BRANCH   6  10
HETATM   10  N1  UNL     1       5.282   0.929   0.935  1.00  0.00    -0.385 N 
ATOM     11  H12 UNL     1       5.529   0.645   1.883  1.00  0.00     0.157 HD
ATOM     12  H11 UNL     1       5.926   1.438   0.330  1.00  0.00     0.157 HD
ENDBRANCH   6  10
ENDBRANCH   1   3
BRANCH   2  13
HETATM   13  C7  UNL     1      -1.894  -1.232  -0.988  1.00  0.00     0.175 C 
BRANCH  13  14
HETATM   14  N2  UNL     1      -2.856  -0.582  -0.116  1.00  0.00    -0.298 N 
HETATM   15  C8  UNL     1      -3.429  -1.117   0.965  1.00  0.00     0.114 A 
HETATM   16  C9  UNL     1      -4.264  -0.149   1.476  1.00  0.00     0.076 A 
HETATM   17  C10 UNL     1      -4.152   0.967   0.650  1.00  0.00     0.156 A 
HETATM   18  N3  UNL     1      -3.279   0.654  -0.310  1.00  0.00    -0.278 N 
ATOM     19  H3  UNL     1      -2.986   1.269  -1.069  1.00  0.00     0.189 HD
BRANCH  17  20
HETATM   20  O1  UNL     1      -4.814   2.180   0.785  1.00  0.00    -0.345 OA
ATOM     21  H1  UNL     1      -4.738   2.941   0.222  1.00  0.00     0.219 HD
ENDBRANCH  17  20
ENDBRANCH  13  14
ENDBRANCH   2  13
TORSDOF 5
