REMARK  7 active torsions:
REMARK  status: ('A' for Active; 'I' for Inactive)
REMARK    1  A    between atoms: N1_1  and  C1_5 
REMARK    2  A    between atoms: C1_5  and  N2_6 
REMARK    3  A    between atoms: C1_5  and  C2_10 
REMARK    4  A    between atoms: N3_13  and  C5_14 
REMARK    5  A    between atoms: C5_14  and  C6_15 
REMARK    6  A    between atoms: C6_15  and  C7_16 
REMARK    7  A    between atoms: C7_16  and  N4_17 
ROOT
HETATM    1  C2  UNL     1      -3.113   0.472  -0.272  1.00  0.00     0.001 A 
HETATM    2  C3  UNL     1      -2.801  -0.792  -0.739  1.00  0.00     0.028 A 
HETATM    3  C4  UNL     1      -1.476  -1.162  -0.884  1.00  0.00     0.091 A 
HETATM    4  N3  UNL     1      -0.461  -0.338  -0.587  1.00  0.00    -0.366 N 
HETATM    5  C11 UNL     1      -0.753   0.891  -0.133  1.00  0.00     0.091 A 
HETATM    6  C12 UNL     1      -2.052   1.321   0.034  1.00  0.00     0.028 A 
ENDROOT
BRANCH   1   7
HETATM    7  C1  UNL     1      -4.518   0.918  -0.098  1.00  0.00     0.411 C 
BRANCH   7   8
HETATM    8  N1  UNL     1      -5.293  -0.122   0.551  1.00  0.00    -0.046 N 
ATOM      9  H13 UNL     1      -4.982  -0.305   1.505  1.00  0.00     0.277 HD
ATOM     10  H12 UNL     1      -6.244   0.176   0.769  1.00  0.00     0.277 HD
ATOM     11  H11 UNL     1      -5.269  -0.956  -0.036  1.00  0.00     0.277 HD
ENDBRANCH   7   8
BRANCH   7  12
HETATM   12  N2  UNL     1      -4.552   2.105   0.737  1.00  0.00    -0.046 N 
ATOM     13  H23 UNL     1      -5.503   2.403   0.955  1.00  0.00     0.277 HD
ATOM     14  H22 UNL     1      -4.241   1.922   1.691  1.00  0.00     0.277 HD
ATOM     15  H21 UNL     1      -4.007   2.836   0.281  1.00  0.00     0.277 HD
ENDBRANCH   7  12
ENDBRANCH   1   7
BRANCH   4  16
HETATM   16  C5  UNL     1       0.925  -0.729  -0.740  1.00  0.00     0.129 C 
BRANCH  16  17
HETATM   17  C6  UNL     1       1.369  -1.347   0.556  1.00  0.00     0.040 C 
BRANCH  17  18
HETATM   18  C7  UNL     1       2.814  -1.799   0.516  1.00  0.00     0.131 C 
BRANCH  18  19
HETATM   19  N4  UNL     1       3.704  -0.690   0.250  1.00  0.00    -0.352 N 
HETATM   20  C8  UNL     1       4.273   0.095   1.169  1.00  0.00     0.108 A 
HETATM   21  C9  UNL     1       5.050   1.034   0.534  1.00  0.00     0.106 A 
HETATM   22  N5  UNL     1       4.944   0.808  -0.773  1.00  0.00    -0.361 N 
HETATM   23  C10 UNL     1       4.129  -0.236  -0.941  1.00  0.00     0.182 A 
ATOM     24  H5  UNL     1       5.403   1.338  -1.514  1.00  0.00     0.166 HD
ENDBRANCH  18  19
ENDBRANCH  17  18
ENDBRANCH  16  17
ENDBRANCH   4  16
TORSDOF 7
