REMARK  3 active torsions:
REMARK  status: ('A' for Active; 'I' for Inactive)
REMARK    1  A    between atoms: C4_4  and  C5_5 
REMARK    2  A    between atoms: C8_8  and  N1_9 
REMARK    3  A    between atoms: N1_9  and  C9_11 
ROOT
HETATM    1  N1  UNL     1      -1.461   0.685  -0.901  1.00  0.00    -0.355 N 
ATOM      2  H1  UNL     1      -1.775   1.251  -1.689  1.00  0.00     0.166 HD
ENDROOT
BRANCH   1   3
HETATM    3  C8  UNL     1      -0.077   0.436  -0.692  1.00  0.00     0.032 A 
HETATM    4  C7  UNL     1       0.602   1.280   0.166  1.00  0.00     0.030 A 
HETATM    5  C6  UNL     1       1.941   1.051   0.377  1.00  0.00     0.014 A 
HETATM    6  C5  UNL     1       2.608   0.015  -0.238  1.00  0.00    -0.026 A 
HETATM    7  C19 UNL     1       1.877  -0.802  -1.089  1.00  0.00     0.014 A 
HETATM    8  C18 UNL     1       0.539  -0.612  -1.331  1.00  0.00     0.030 A 
BRANCH   6   9
HETATM    9  C4  UNL     1       4.031  -0.237  -0.019  1.00  0.00    -0.026 A 
HETATM   10  C3  UNL     1       4.615   0.048   1.182  1.00  0.00     0.012 A 
HETATM   11  C2  UNL     1       5.958  -0.206   1.342  1.00  0.00     0.001 A 
HETATM   12  C1  UNL     1       6.714  -0.735   0.324  1.00  0.00     0.000 A 
HETATM   13  C21 UNL     1       6.115  -1.019  -0.885  1.00  0.00     0.001 A 
HETATM   14  C20 UNL     1       4.769  -0.768  -1.054  1.00  0.00     0.012 A 
ENDBRANCH   6   9
ENDBRANCH   1   3
BRANCH   1  15
HETATM   15  C9  UNL     1      -2.299   0.187  -0.084  1.00  0.00     0.046 A 
HETATM   16  C10 UNL     1      -1.928  -0.588   1.001  1.00  0.00     0.047 A 
HETATM   17  C11 UNL     1      -2.877  -1.104   1.857  1.00  0.00     0.090 A 
HETATM   18  N2  UNL     1      -4.171  -0.834   1.607  1.00  0.00    -0.365 N 
HETATM   19  C12 UNL     1      -4.559  -0.081   0.555  1.00  0.00     0.044 A 
ATOM     20  H2  UNL     1      -4.883  -1.211   2.233  1.00  0.00     0.165 HD
HETATM   21  C13 UNL     1      -5.894   0.175   0.332  1.00  0.00     0.030 A 
HETATM   22  C17 UNL     1      -3.648   0.458  -0.329  1.00  0.00     0.017 A 
HETATM   23  C14 UNL     1      -6.273   0.949  -0.752  1.00  0.00     0.002 A 
HETATM   24  C15 UNL     1      -5.368   1.492  -1.641  1.00  0.00     0.001 A 
HETATM   25  C16 UNL     1      -4.016   1.230  -1.411  1.00  0.00     0.016 A 
ENDBRANCH   1  15
TORSDOF 3
