REMARK  3 active torsions:
REMARK  status: ('A' for Active; 'I' for Inactive)
REMARK    1  A    between atoms: C4_4  and  N1_5 
REMARK    2  A    between atoms: N1_5  and  C5_7 
REMARK    3  A    between atoms: C7_9  and  C8_10 
ROOT
HETATM    1  C5  UNL     1       0.896  -0.766  -0.763  1.00  0.00     0.047 A 
HETATM    2  C6  UNL     1       0.021   0.021  -0.008  1.00  0.00     0.060 A 
HETATM    3  C7  UNL     1      -1.322  -0.272   0.123  1.00  0.00     0.045 A 
HETATM    4  N2  UNL     1      -1.770  -1.366  -0.515  1.00  0.00    -0.355 N 
ATOM      5  H2  UNL     1      -2.756  -1.615  -0.441  1.00  0.00     0.166 HD
HETATM    6  C14 UNL     1      -0.940  -2.154  -1.260  1.00  0.00     0.045 A 
HETATM    7  C15 UNL     1      -1.446  -3.265  -1.896  1.00  0.00     0.030 A 
HETATM    8  C16 UNL     1      -0.629  -4.099  -2.670  1.00  0.00     0.002 A 
HETATM    9  C17 UNL     1       0.710  -3.821  -2.810  1.00  0.00     0.001 A 
HETATM   10  C18 UNL     1       1.203  -2.704  -2.167  1.00  0.00     0.016 A 
HETATM   11  C19 UNL     1       0.407  -1.877  -1.403  1.00  0.00     0.017 A 
ENDROOT
BRANCH   1  12
HETATM   12  N1  UNL     1       2.110  -0.452  -0.848  1.00  0.00    -0.355 N 
ATOM     13  H1  UNL     1       2.695  -1.067  -1.414  1.00  0.00     0.166 HD
BRANCH  12  14
HETATM   14  C4  UNL     1       2.754   0.641  -0.259  1.00  0.00     0.032 A 
HETATM   15  C3  UNL     1       2.588   1.923  -0.740  1.00  0.00     0.029 A 
HETATM   16  C2  UNL     1       3.240   2.976  -0.132  1.00  0.00     0.002 A 
HETATM   17  C1  UNL     1       4.064   2.749   0.963  1.00  0.00     0.000 A 
HETATM   18  C21 UNL     1       4.241   1.471   1.456  1.00  0.00     0.002 A 
HETATM   19  C20 UNL     1       3.586   0.419   0.845  1.00  0.00     0.029 A 
ENDBRANCH  12  14
ENDBRANCH   1  12
BRANCH   3  20
HETATM   20  C8  UNL     1      -2.246   0.560   0.922  1.00  0.00    -0.009 A 
HETATM   21  C9  UNL     1      -1.755   1.672   1.562  1.00  0.00     0.013 A 
HETATM   22  C10 UNL     1      -2.601   2.466   2.315  1.00  0.00     0.001 A 
HETATM   23  C11 UNL     1      -3.917   2.153   2.426  1.00  0.00     0.000 A 
HETATM   24  C12 UNL     1      -4.424   1.043   1.791  1.00  0.00     0.001 A 
HETATM   25  C13 UNL     1      -3.575   0.249   1.037  1.00  0.00     0.013 A 
ENDBRANCH   3  20
TORSDOF 3
