REMARK  7 active torsions:
REMARK  status: ('A' for Active; 'I' for Inactive)
REMARK    1  A    between atoms: C2_2  and  N1_4 
REMARK       I    between atoms: N1_4  and  C4_6 
REMARK    2  A    between atoms: C4_6  and  C5_8 
REMARK    3  A    between atoms: N4_14  and  C8_15 
REMARK    4  A    between atoms: C8_15  and  C10_17 
REMARK    5  A    between atoms: C10_17  and  O2_18 
REMARK    6  A    between atoms: N5_24  and  C14_25 
REMARK    7  A    between atoms: C14_25  and  C16_27 
ROOT
HETATM    1  C5  UNL     1      -1.887   1.166   1.177  1.00  0.00     0.096 A 
HETATM    2  C6  UNL     1      -0.824   1.893   1.784  1.00  0.00     0.130 A 
HETATM    3  N2  UNL     1       0.270   1.212   1.457  1.00  0.00    -0.288 N 
ATOM      4  H2  UNL     1       1.212   1.477   1.743  1.00  0.00     0.188 HD
HETATM    5  N3  UNL     1      -0.004   0.154   0.720  1.00  0.00    -0.181 N 
HETATM    6  C7  UNL     1      -1.371   0.108   0.537  1.00  0.00     0.161 A 
HETATM    7  N4  UNL     1      -2.111  -0.922  -0.122  1.00  0.00    -0.354 N 
HETATM    8  C11 UNL     1      -1.635  -1.593  -1.344  1.00  0.00     0.164 C 
HETATM    9  C12 UNL     1      -0.342  -1.045  -1.837  1.00  0.00     0.207 C 
HETATM   10  F1  UNL     1      -0.398   0.334  -2.027  1.00  0.00    -0.246 F 
HETATM   11  C13 UNL     1       0.878  -1.443  -1.048  1.00  0.00     0.184 C 
HETATM   12  N5  UNL     1       0.964  -0.738   0.209  1.00  0.00    -0.298 N 
ENDROOT
BRANCH  12  13
HETATM   13  C14 UNL     1       2.121  -0.918   1.044  1.00  0.00     0.106 C 
HETATM   14  C15 UNL     1       2.407  -2.394   1.155  1.00  0.00     0.034 C 
BRANCH  13  15
HETATM   15  C16 UNL     1       3.304  -0.101   0.754  1.00  0.00     0.039 C 
HETATM   16  C17 UNL     1       4.477  -0.365   1.676  1.00  0.00     0.178 C 
HETATM   17  O3  UNL     1       5.584   0.209   1.057  1.00  0.00    -0.355 OA
HETATM   18  C18 UNL     1       5.336   0.274  -0.299  1.00  0.00     0.164 C 
HETATM   19  C19 UNL     1       5.480   1.682  -0.837  1.00  0.00     0.071 C 
HETATM   20  O4  UNL     1       6.347  -0.385  -0.959  1.00  0.00    -0.355 OA
HETATM   21  C22 UNL     1       3.967  -0.282  -0.582  1.00  0.00     0.077 C 
HETATM   22  C20 UNL     1       6.981   1.858  -0.813  1.00  0.00     0.032 C 
HETATM   23  C21 UNL     1       7.468   0.422  -0.650  1.00  0.00     0.171 C 
ENDBRANCH  13  15
ENDBRANCH  12  13
BRANCH   1  24
HETATM   24  C4  UNL     1      -3.253   1.612   1.165  1.00  0.00     0.257 C 
HETATM   25  N1  UNL     1      -3.919   1.861  -0.050  1.00  0.00    -0.353 N 
ATOM     26  H1  UNL     1      -3.422   1.695  -0.925  1.00  0.00     0.163 HD
HETATM   27  O1  UNL     1      -3.833   1.790   2.240  1.00  0.00    -0.267 OA
BRANCH  25  28
HETATM   28  C2  UNL     1      -5.302   2.351  -0.104  1.00  0.00     0.076 C 
HETATM   29  C1  UNL     1      -6.208   1.545  -0.959  1.00  0.00     0.032 C 
HETATM   30  C3  UNL     1      -5.308   3.828  -0.483  1.00  0.00     0.032 C 
ENDBRANCH  25  28
ENDBRANCH   1  24
BRANCH   7  31
HETATM   31  C8  UNL     1      -3.290  -1.325   0.535  1.00  0.00     0.105 C 
HETATM   32  C9  UNL     1      -3.043  -2.613   1.360  1.00  0.00     0.034 C 
BRANCH  31  33
HETATM   33  C10 UNL     1      -4.099  -1.973  -0.659  1.00  0.00     0.189 C 
BRANCH  33  34
HETATM   34  O2  UNL     1      -5.317  -2.437  -0.182  1.00  0.00    -0.399 OA
ATOM     35  H2  UNL     1      -5.803  -2.826  -0.899  1.00  0.00     0.209 HD
ENDBRANCH  33  34
ENDBRANCH  31  33
ENDBRANCH   7  31
TORSDOF 7
