REMARK  8 active torsions:
REMARK  status: ('A' for Active; 'I' for Inactive)
REMARK    1  A    between atoms: N1_1  and  N2_4 
REMARK       I    between atoms: N2_4  and  C1_6 
REMARK    2  A    between atoms: C1_6  and  C2_8 
REMARK       I    between atoms: N4_11  and  C3_12 
REMARK    3  A    between atoms: C3_12  and  C4_14 
REMARK    4  A    between atoms: C4_14  and  C5_15 
REMARK    5  A    between atoms: C5_15  and  N5_16 
REMARK    6  A    between atoms: C11_26  and  N7_27 
REMARK    7  A    between atoms: N8_29  and  C12_31 
REMARK    8  A    between atoms: C13_32  and  O4_33 
ROOT
HETATM    1  C2  UNL     1      -1.493  -1.576  -0.094  1.00  0.00     0.152 A 
HETATM    2  N3  UNL     1      -0.193  -1.519   0.205  1.00  0.00    -0.281 N 
ATOM      3  H3  UNL     1       0.457  -2.304   0.259  1.00  0.00     0.188 HD
HETATM    4  N4  UNL     1       0.088  -0.232   0.419  1.00  0.00    -0.184 N 
HETATM    5  C3  UNL     1       1.373   0.290   0.769  1.00  0.00     0.247 C 
HETATM    6  O2  UNL     1       1.482   1.525   0.939  1.00  0.00    -0.271 OA
HETATM    7  C10 UNL     1      -1.000   0.532   0.264  1.00  0.00     0.300 A 
HETATM    8  O3  UNL     1      -1.113   1.783   0.386  1.00  0.00    -0.263 OA
HETATM    9  C11 UNL     1      -2.033  -0.312  -0.067  1.00  0.00     0.152 A 
ENDROOT
BRANCH   9  10
HETATM   10  N7  UNL     1      -3.371   0.101  -0.319  1.00  0.00    -0.293 N 
HETATM   11  N8  UNL     1      -3.889   1.066   0.349  1.00  0.00    -0.291 N 
ATOM     12  H8  UNL     1      -3.328   1.532   1.062  1.00  0.00     0.187 HD
ATOM     13  H7  UNL     1      -3.922  -0.373  -1.035  1.00  0.00     0.187 HD
BRANCH  11  14
HETATM   14  C12 UNL     1      -5.205   1.498   0.126  1.00  0.00     0.168 A 
HETATM   15  C13 UNL     1      -6.308   0.816   0.602  1.00  0.00     0.178 A 
HETATM   16  N9  UNL     1      -7.566   1.254   0.373  1.00  0.00    -0.287 N 
HETATM   17  C14 UNL     1      -7.777   2.379  -0.333  1.00  0.00     0.329 A 
ATOM     18  H9  UNL     1      -8.360   0.728   0.738  1.00  0.00     0.172 HD
HETATM   19  O5  UNL     1      -8.946   2.799  -0.555  1.00  0.00    -0.247 OA
HETATM   20  N10 UNL     1      -6.722   3.043  -0.797  1.00  0.00    -0.273 N 
HETATM   21  C15 UNL     1      -5.449   2.661  -0.603  1.00  0.00     0.281 A 
ATOM     22  H10 UNL     1      -6.890   3.894  -1.333  1.00  0.00     0.173 HD
HETATM   23  O6  UNL     1      -4.461   3.289  -1.041  1.00  0.00    -0.265 OA
BRANCH  15  24
HETATM   24  O4  UNL     1      -6.068  -0.347   1.332  1.00  0.00    -0.344 OA
ATOM     25  H4  UNL     1      -6.827  -0.816   1.659  1.00  0.00     0.219 HD
ENDBRANCH  15  24
ENDBRANCH  11  14
ENDBRANCH   9  10
BRANCH   1  26
HETATM   26  C1  UNL     1      -2.214  -2.809  -0.401  1.00  0.00     0.290 C 
HETATM   27  N2  UNL     1      -1.568  -4.072  -0.405  1.00  0.00    -0.271 N 
ATOM     28  H2  UNL     1      -0.572  -4.098  -0.184  1.00  0.00     0.189 HD
HETATM   29  O1  UNL     1      -3.436  -2.722  -0.666  1.00  0.00    -0.264 OA
BRANCH  27  30
HETATM   30  N1  UNL     1      -2.196  -5.266  -0.687  1.00  0.00    -0.342 N 
ATOM     31  H12 UNL     1      -3.191  -5.221  -0.905  1.00  0.00     0.176 HD
ATOM     32  H11 UNL     1      -1.732  -6.174  -0.690  1.00  0.00     0.176 HD
ENDBRANCH  27  30
ENDBRANCH   1  26
BRANCH   5  33
HETATM   33  C4  UNL     1       2.522  -0.640   0.918  1.00  0.00     0.135 C 
BRANCH  33  34
HETATM   34  C5  UNL     1       3.786   0.067   1.285  1.00  0.00     0.282 C 
BRANCH  34  35
HETATM   35  N5  UNL     1       4.197   1.045   0.311  1.00  0.00     0.092 N 
HETATM   36  C6  UNL     1       5.430   1.654   0.787  1.00  0.00     0.300 C 
HETATM   37  C7  UNL     1       6.631   0.801   0.399  1.00  0.00     0.262 C 
HETATM   38  N6  UNL     1       6.790   0.756  -1.036  1.00  0.00    -0.072 N 
HETATM   39  C8  UNL     1       5.558   1.066  -1.735  1.00  0.00     0.262 C 
ATOM     40  H62 UNL     1       7.550   1.363  -1.342  1.00  0.00     0.277 HD
ATOM     41  H61 UNL     1       7.169  -0.142  -1.337  1.00  0.00     0.277 HD
HETATM   42  C9  UNL     1       4.373   0.465  -1.005  1.00  0.00     0.300 C 
ENDBRANCH  34  35
ENDBRANCH  33  34
ENDBRANCH   5  33
TORSDOF 8
