REMARK  9 active torsions:
REMARK  status: ('A' for Active; 'I' for Inactive)
REMARK    1  A    between atoms: C3_6  and  C4_7 
REMARK    2  A    between atoms: C5_8  and  O2_9 
REMARK    3  A    between atoms: C6_13  and  N3_14 
REMARK    4  A    between atoms: C7_19  and  C8_20 
REMARK       I    between atoms: C8_20  and  N5_22 
REMARK    5  A    between atoms: N5_22  and  N6_23 
REMARK    6  A    between atoms: N5_22  and  N9_30 
REMARK    7  A    between atoms: N6_23  and  N7_25 
REMARK    8  A    between atoms: N7_25  and  N8_27 
REMARK    9  A    between atoms: C10_32  and  C11_33 
ROOT
HETATM    1  C8  UNL     1      -0.425   0.910   0.177  1.00  0.00     0.291 C 
HETATM    2  O3  UNL     1      -0.442   0.430   1.308  1.00  0.00    -0.269 OA
HETATM    3  N5  UNL     1       0.918   1.254  -0.257  1.00  0.00    -0.025 NA
ENDROOT
BRANCH   1   4
HETATM    4  C7  UNL     1      -1.553   1.142  -0.695  1.00  0.00     0.133 A 
HETATM    5  C4  UNL     1      -2.742   0.500  -0.546  1.00  0.00     0.101 A 
HETATM    6  C5  UNL     1      -3.788   0.889  -1.416  1.00  0.00     0.172 A 
HETATM    7  N2  UNL     1      -3.606   1.845  -2.342  1.00  0.00    -0.170 N 
HETATM    8  C6  UNL     1      -2.421   2.465  -2.473  1.00  0.00     0.678 A 
ATOM      9  H2  UNL     1      -4.379   2.104  -2.955  1.00  0.00     0.186 HD
HETATM   10  N4  UNL     1      -1.411   2.127  -1.671  1.00  0.00    -0.186 N 
ATOM     11  H4  UNL     1      -0.513   2.600  -1.774  1.00  0.00     0.184 HD
BRANCH   5  12
HETATM   12  C3  UNL     1      -3.002  -0.565   0.406  1.00  0.00     0.188 A 
HETATM   13  O1  UNL     1      -2.268  -1.196   1.242  1.00  0.00    -0.217 OA
HETATM   14  N1  UNL     1      -2.891  -2.095   1.924  1.00  0.00    -0.247 N 
HETATM   15  C2  UNL     1      -4.196  -2.092   1.522  1.00  0.00     0.100 A 
ATOM     16  H1  UNL     1      -2.482  -2.700   2.636  1.00  0.00     0.196 HD
HETATM   17  C1  UNL     1      -5.283  -2.964   2.036  1.00  0.00     0.091 C 
HETATM   18  N13 UNL     1      -4.242  -1.140   0.585  1.00  0.00    -0.323 N 
ATOM     19  H13 UNL     1      -5.082  -0.874   0.071  1.00  0.00     0.169 HD
ENDBRANCH   5  12
BRANCH   6  20
HETATM   20  O2  UNL     1      -5.002   0.236  -1.263  1.00  0.00    -0.345 OA
ATOM     21  H2  UNL     1      -5.704   0.497  -1.847  1.00  0.00     0.219 HD
ENDBRANCH   6  20
BRANCH   8  22
HETATM   22  N3  UNL     1      -2.275   3.376  -3.369  1.00  0.00    -0.234 N 
ATOM     23  H32 UNL     1      -3.048   3.635  -3.983  1.00  0.00     0.174 HD
ATOM     24  H31 UNL     1      -1.376   3.847  -3.468  1.00  0.00     0.174 HD
ENDBRANCH   8  22
ENDBRANCH   1   4
BRANCH   3  25
HETATM   25  N6  UNL     1       1.378   2.349   0.511  1.00  0.00    -0.221 N 
ATOM     26  H6  UNL     1       2.376   2.419   0.708  1.00  0.00     0.206 HD
BRANCH  25  27
HETATM   27  N7  UNL     1       0.530   3.340   1.013  1.00  0.00    -0.237 N 
ATOM     28  H7  UNL     1       0.266   4.108   0.396  1.00  0.00     0.209 HD
BRANCH  27  29
HETATM   29  N8  UNL     1       0.071   3.334   2.197  1.00  0.00    -0.330 N 
ATOM     30  H82 UNL     1       0.345   2.558   2.800  1.00  0.00     0.178 HD
ATOM     31  H81 UNL     1      -0.548   4.057   2.563  1.00  0.00     0.178 HD
ENDBRANCH  27  29
ENDBRANCH  25  27
ENDBRANCH   3  25
BRANCH   3  32
HETATM   32  N9  UNL     1       1.775   0.189   0.043  1.00  0.00    -0.200 N 
HETATM   33  C9  UNL     1       3.094   0.167  -0.216  1.00  0.00     0.150 A 
HETATM   34  C10 UNL     1       3.611  -1.052   0.219  1.00  0.00     0.052 A 
HETATM   35  C13 UNL     1       2.547  -1.736   0.740  1.00  0.00     0.126 A 
HETATM   36  N12 UNL     1       1.464  -0.950   0.612  1.00  0.00    -0.292 N 
ATOM     37  H12 UNL     1       0.525  -1.206   0.917  1.00  0.00     0.187 HD
BRANCH  34  38
HETATM   38  C11 UNL     1       4.987  -1.516   0.145  1.00  0.00     0.178 A 
HETATM   39  N10 UNL     1       5.437  -2.699   0.578  1.00  0.00    -0.276 N 
HETATM   40  N11 UNL     1       6.752  -2.773   0.342  1.00  0.00    -0.268 N 
ATOM     41  H10 UNL     1       4.871  -3.425   1.016  1.00  0.00     0.189 HD
HETATM   42  C12 UNL     1       7.107  -1.621  -0.241  1.00  0.00     0.235 A 
ATOM     43  H11 UNL     1       7.366  -3.557   0.564  1.00  0.00     0.190 HD
HETATM   44  S1  UNL     1       8.609  -1.231  -0.721  1.00  0.00    -0.031 SA
HETATM   45  O4  UNL     1       6.022  -0.878  -0.350  1.00  0.00    -0.264 OA
ENDBRANCH  34  38
ENDBRANCH   3  32
TORSDOF 9
