REMARK  10 active torsions:
REMARK  status: ('A' for Active; 'I' for Inactive)
REMARK    1  A    between atoms: C2_4  and  S1_6 
REMARK    2  A    between atoms: S1_6  and  C3_7 
REMARK    3  A    between atoms: C3_7  and  C4_8 
REMARK    4  A    between atoms: C5_10  and  O2_11 
REMARK    5  A    between atoms: C7_13  and  N3_14 
REMARK    6  A    between atoms: C9_19  and  N4_20 
REMARK       I    between atoms: N4_20  and  C10_22 
REMARK    7  A    between atoms: C10_22  and  C11_24 
REMARK    8  A    between atoms: C12_26  and  O5_27 
REMARK    9  A    between atoms: C13_29  and  N5_30 
REMARK   10  A    between atoms: N5_30  and  O6_31 
ROOT
HETATM    1  C4  UNL     1      -1.611  -0.399  -0.890  1.00  0.00     0.157 C 
HETATM    2  O1  UNL     1      -2.415  -1.267  -1.487  1.00  0.00    -0.351 OA
HETATM    3  C5  UNL     1      -2.304  -2.585  -1.414  1.00  0.00     0.290 C 
HETATM    4  C7  UNL     1      -1.262  -3.188  -0.554  1.00  0.00     0.240 C 
HETATM    5  C8  UNL     1      -0.039  -2.318  -0.474  1.00  0.00     0.065 C 
HETATM    6  C9  UNL     1      -0.371  -0.870  -0.233  1.00  0.00     0.116 C 
ENDROOT
BRANCH   6   7
HETATM    7  N4  UNL     1       0.792  -0.100  -0.629  1.00  0.00    -0.352 N 
HETATM    8  C10 UNL     1       1.598   0.607   0.301  1.00  0.00     0.248 C 
HETATM    9  O3  UNL     1       1.248   0.532   1.509  1.00  0.00    -0.271 OA
ATOM     10  H4  UNL     1       1.041  -0.065  -1.617  1.00  0.00     0.163 HD
BRANCH   8  11
HETATM   11  C11 UNL     1       2.774   1.391  -0.054  1.00  0.00     0.231 C 
HETATM   12  O4  UNL     1       3.324   1.941   1.098  1.00  0.00    -0.344 OA
HETATM   13  C12 UNL     1       4.134   0.984   1.708  1.00  0.00     0.279 C 
HETATM   14  C13 UNL     1       5.410   0.816   0.958  1.00  0.00     0.162 C 
HETATM   15  C14 UNL     1       5.175   1.212  -0.492  1.00  0.00     0.047 C 
HETATM   16  C15 UNL     1       3.802   0.624  -0.847  1.00  0.00     0.098 C 
HETATM   17  S2  UNL     1       3.507   0.755  -2.633  1.00  0.00    -0.089 SA
BRANCH  13  18
HETATM   18  O5  UNL     1       4.276   1.339   3.039  1.00  0.00    -0.369 OA
ATOM     19  H5  UNL     1       4.828   0.687   3.455  1.00  0.00     0.212 HD
ENDBRANCH  13  18
BRANCH  14  20
HETATM   20  N5  UNL     1       6.446   1.596   1.568  1.00  0.00    -0.094 NA
BRANCH  20  21
HETATM   21  O6  UNL     1       6.627   1.165   2.832  1.00  0.00    -0.295 OA
ATOM     22  H6  UNL     1       7.314   1.682   3.236  1.00  0.00     0.238 HD
ENDBRANCH  20  21
ENDBRANCH  14  20
ENDBRANCH   8  11
ENDBRANCH   6   7
BRANCH   1  23
HETATM   23  C3  UNL     1      -2.407   0.432   0.128  1.00  0.00     0.116 C 
BRANCH  23  24
HETATM   24  S1  UNL     1      -3.732   1.349  -0.639  1.00  0.00    -0.095 SA
BRANCH  24  25
HETATM   25  C2  UNL     1      -4.600   2.276   0.596  1.00  0.00     0.149 C 
HETATM   26  N1  UNL     1      -5.593   3.009   0.262  1.00  0.00    -0.377 N 
HETATM   27  C1  UNL     1      -6.357   3.798   1.210  1.00  0.00     0.148 C 
ATOM     28  H1  UNL     1      -5.862   3.041  -0.721  1.00  0.00     0.160 HD
HETATM   29  N2  UNL     1      -4.208   2.217   1.947  1.00  0.00    -0.075 NA
ENDBRANCH  24  25
ENDBRANCH  23  24
ENDBRANCH   1  23
BRANCH   4  30
HETATM   30  N3  UNL     1      -1.810  -3.492   0.755  1.00  0.00    -0.070 N 
ATOM     31  H33 UNL     1      -2.237  -2.674   1.189  1.00  0.00     0.274 HD
ATOM     32  H32 UNL     1      -2.641  -4.080   0.694  1.00  0.00     0.274 HD
ATOM     33  H31 UNL     1      -1.092  -3.908   1.348  1.00  0.00     0.274 HD
ENDBRANCH   4  30
BRANCH   3  34
HETATM   34  O2  UNL     1      -3.544  -3.120  -1.001  1.00  0.00    -0.364 OA
HETATM   35  C6  UNL     1      -4.132  -3.915  -1.949  1.00  0.00     0.204 C 
ENDBRANCH   3  34
TORSDOF 10
