REMARK  9 active torsions:
REMARK  status: ('A' for Active; 'I' for Inactive)
REMARK    1  A    between atoms: O1_2  and  C2_3 
REMARK    2  A    between atoms: C4_5  and  N1_6 
REMARK    3  A    between atoms: C9_14  and  O2_15 
REMARK    4  A    between atoms: C10_17  and  O3_18 
REMARK    5  A    between atoms: C11_20  and  O4_21 
REMARK    6  A    between atoms: O4_21  and  C12_22 
REMARK    7  A    between atoms: C13_23  and  C14_24 
REMARK    8  A    between atoms: C15_31  and  C16_32 
REMARK       I    between atoms: C16_32  and  N6_34 
REMARK    9  A    between atoms: N6_34  and  N7_36 
ROOT
HETATM    1  C2  UNL     1      -1.157   1.127  -0.217  1.00  0.00     0.107 A 
HETATM    2  C3  UNL     1      -2.501   1.005  -0.378  1.00  0.00     0.072 A 
HETATM    3  C4  UNL     1      -3.220  -0.091   0.078  1.00  0.00     0.069 A 
HETATM    4  C9  UNL     1      -2.497  -1.070   0.713  1.00  0.00     0.128 A 
HETATM    5  C10 UNL     1      -1.151  -0.990   0.895  1.00  0.00     0.138 A 
HETATM    6  C11 UNL     1      -0.407   0.121   0.435  1.00  0.00     0.145 A 
ENDROOT
BRANCH   6   7
HETATM    7  O4  UNL     1       0.876   0.199   0.609  1.00  0.00    -0.306 OA
BRANCH   7   8
HETATM    8  C12 UNL     1       2.098  -0.070   0.143  1.00  0.00     0.095 A 
HETATM    9  C13 UNL     1       2.555  -0.638  -0.946  1.00  0.00     0.161 A 
HETATM   10  N3  UNL     1       3.986  -0.697  -0.952  1.00  0.00    -0.232 N 
HETATM   11  N4  UNL     1       5.102  -1.135  -1.734  1.00  0.00    -0.014 NA
HETATM   12  C17 UNL     1       4.454  -0.119   0.232  1.00  0.00     0.072 A 
HETATM   13  N5  UNL     1       6.194  -0.829  -0.955  1.00  0.00    -0.277 N 
HETATM   14  C15 UNL     1       5.789  -0.190   0.247  1.00  0.00     0.140 A 
ATOM     15  H5  UNL     1       7.161  -1.033  -1.206  1.00  0.00     0.184 HD
HETATM   16  C18 UNL     1       3.321   0.335   0.993  1.00  0.00     0.129 A 
BRANCH   9  17
HETATM   17  C14 UNL     1       1.777  -1.197  -2.081  1.00  0.00     0.231 C 
HETATM   18  O5  UNL     1       0.569  -1.193  -2.134  1.00  0.00    -0.643 OA
HETATM   19  O6  UNL     1       2.466  -1.770  -3.169  1.00  0.00    -0.643 OA
ENDBRANCH   9  17
BRANCH  14  20
HETATM   20  C16 UNL     1       6.642   0.304   1.312  1.00  0.00     0.289 C 
HETATM   21  O7  UNL     1       6.121   0.848   2.314  1.00  0.00    -0.264 OA
HETATM   22  N6  UNL     1       8.058   0.201   1.275  1.00  0.00    -0.271 N 
ATOM     23  H6  UNL     1       8.488  -0.240   0.462  1.00  0.00     0.189 HD
BRANCH  22  24
HETATM   24  N7  UNL     1       8.884   0.664   2.277  1.00  0.00    -0.342 N 
ATOM     25  H72 UNL     1       8.437   1.102   3.083  1.00  0.00     0.176 HD
ATOM     26  H71 UNL     1       9.901   0.590   2.250  1.00  0.00     0.176 HD
ENDBRANCH  22  24
ENDBRANCH  14  20
ENDBRANCH   7   8
ENDBRANCH   6   7
BRANCH   1  27
HETATM   27  O1  UNL     1      -0.486   2.237  -0.688  1.00  0.00    -0.353 OA
HETATM   28  C1  UNL     1      -1.089   3.306  -1.349  1.00  0.00     0.210 C 
ENDBRANCH   1  27
BRANCH   5  29
HETATM   29  O3  UNL     1      -0.422  -2.002   1.549  1.00  0.00    -0.356 OA
ATOM     30  H3  UNL     1       0.518  -1.946   1.676  1.00  0.00     0.218 HD
ENDBRANCH   5  29
BRANCH   4  31
HETATM   31  O2  UNL     1      -3.151  -2.197   1.198  1.00  0.00    -0.356 OA
ATOM     32  H2  UNL     1      -2.651  -2.875   1.637  1.00  0.00     0.218 HD
ENDBRANCH   4  31
BRANCH   3  33
HETATM   33  N1  UNL     1      -4.634  -0.179  -0.132  1.00  0.00    -0.375 N 
HETATM   34  C5  UNL     1      -5.272   0.992  -0.697  1.00  0.00     0.150 C 
HETATM   35  C6  UNL     1      -6.749   1.038  -0.606  1.00  0.00     0.252 C 
HETATM   36  N2  UNL     1      -7.323   0.006   0.247  1.00  0.00    -0.072 N 
HETATM   37  C7  UNL     1      -6.816  -1.247  -0.329  1.00  0.00     0.252 C 
ATOM     38  H22 UNL     1      -7.124   0.123   1.241  1.00  0.00     0.277 HD
ATOM     39  H21 UNL     1      -8.338   0.049   0.334  1.00  0.00     0.277 HD
HETATM   40  C8  UNL     1      -5.373  -1.357   0.187  1.00  0.00     0.150 C 
ENDBRANCH   3  33
TORSDOF 9
