REMARK  16 active torsions:
REMARK  status: ('A' for Active; 'I' for Inactive)
REMARK    1  A    between atoms: C3_4  and  C4_5 
REMARK    2  A    between atoms: C5_6  and  C6_7 
REMARK    3  A    between atoms: C6_7  and  O2_8 
REMARK    4  A    between atoms: C6_7  and  C7_10 
REMARK    5  A    between atoms: C9_12  and  O3_13 
REMARK    6  A    between atoms: C11_16  and  C12_17 
REMARK    7  A    between atoms: C12_17  and  O4_18 
REMARK    8  A    between atoms: C14_23  and  O7_25 
REMARK    9  A    between atoms: C16_27  and  O8_28 
REMARK   10  A    between atoms: C17_30  and  O9_31 
REMARK   11  A    between atoms: C18_33  and  C19_34 
REMARK   12  A    between atoms: C19_34  and  O10_35 
REMARK   13  A    between atoms: C19_34  and  C20_37 
REMARK   14  A    between atoms: C20_37  and  C21_38 
REMARK   15  A    between atoms: C21_38  and  C22_39 
REMARK   16  A    between atoms: C26_43  and  O11_44 
ROOT
HETATM    1  C1  UNL     1       1.284  -0.574   2.590  1.00  0.00     0.049 C 
HETATM    2  C2  UNL     1       0.912  -0.932   1.400  1.00  0.00     0.084 C 
HETATM    3  O1  UNL     1      -0.240  -0.428   0.754  1.00  0.00    -0.309 OA
HETATM    4  C3  UNL     1      -0.096  -0.546  -0.690  1.00  0.00     0.226 C 
HETATM    5  O6  UNL     1      -0.296  -1.918  -0.916  1.00  0.00    -0.309 OA
HETATM    6  C14 UNL     1       0.386  -2.721   0.014  1.00  0.00     0.202 C 
HETATM    7  C15 UNL     1       0.749  -4.053  -0.528  1.00  0.00     0.083 C 
HETATM    8  C16 UNL     1       1.614  -1.915   0.519  1.00  0.00     0.196 C 
HETATM    9  C17 UNL     1       2.163  -1.252  -0.643  1.00  0.00     0.143 C 
HETATM   10  C18 UNL     1       3.467  -0.739  -0.854  1.00  0.00     0.056 C 
HETATM   11  C24 UNL     1       3.267   0.287  -1.968  1.00  0.00     0.014 C 
HETATM   12  C25 UNL     1       1.752   0.241  -2.287  1.00  0.00     0.048 C 
HETATM   13  C26 UNL     1       1.243  -0.043  -0.943  1.00  0.00     0.153 C 
ENDROOT
BRANCH   4  14
HETATM   14  C4  UNL     1      -1.231   0.162  -1.266  1.00  0.00     0.043 C 
HETATM   15  C5  UNL     1      -2.207   0.754  -0.610  1.00  0.00     0.007 C 
BRANCH  15  16
HETATM   16  C6  UNL     1      -3.336   1.459  -1.207  1.00  0.00     0.152 C 
BRANCH  16  17
HETATM   17  O2  UNL     1      -3.180   2.825  -0.980  1.00  0.00    -0.391 OA
ATOM     18  H2  UNL     1      -3.915   3.284  -1.369  1.00  0.00     0.210 HD
ENDBRANCH  16  17
BRANCH  16  19
HETATM   19  C7  UNL     1      -4.680   1.061  -0.681  1.00  0.00     0.090 C 
HETATM   20  C8  UNL     1      -4.971  -0.413  -0.905  1.00  0.00     0.046 C 
HETATM   21  C9  UNL     1      -6.449  -0.602  -0.533  1.00  0.00     0.119 C 
HETATM   22  C10 UNL     1      -6.550  -0.434   0.947  1.00  0.00     0.046 C 
HETATM   23  C11 UNL     1      -6.091   0.915   1.438  1.00  0.00     0.082 C 
HETATM   24  C13 UNL     1      -4.924   1.431   0.714  1.00  0.00     0.140 C 
HETATM   25  O5  UNL     1      -4.155   2.173   1.284  1.00  0.00    -0.297 OA
BRANCH  21  26
HETATM   26  O3  UNL     1      -6.808  -1.896  -0.858  1.00  0.00    -0.396 OA
ATOM     27  H3  UNL     1      -7.722  -2.013  -0.628  1.00  0.00     0.210 HD
ENDBRANCH  21  26
BRANCH  23  28
HETATM   28  C12 UNL     1      -7.270   1.862   1.406  1.00  0.00     0.176 C 
BRANCH  28  29
HETATM   29  O4  UNL     1      -6.926   3.135   1.847  1.00  0.00    -0.400 OA
ATOM     30  H4  UNL     1      -7.666   3.730   1.827  1.00  0.00     0.209 HD
ENDBRANCH  28  29
ENDBRANCH  23  28
ENDBRANCH  16  19
ENDBRANCH  15  16
ENDBRANCH   4  14
BRANCH  13  31
HETATM   31  O11 UNL     1       1.537   1.023  -0.109  1.00  0.00    -0.381 OA
ATOM     32  H11 UNL     1       2.413   1.352  -0.274  1.00  0.00     0.211 HD
ENDBRANCH  13  31
BRANCH   6  33
HETATM   33  O7  UNL     1      -0.518  -2.917   1.071  1.00  0.00    -0.363 OA
ATOM     34  H7  UNL     1      -0.057  -3.460   1.700  1.00  0.00     0.213 HD
ENDBRANCH   6  33
BRANCH   9  35
HETATM   35  O9  UNL     1       1.901  -2.077  -1.788  1.00  0.00    -0.382 OA
ATOM     36  H9  UNL     1       2.262  -1.641  -2.551  1.00  0.00     0.210 HD
ENDBRANCH   9  35
BRANCH   8  37
HETATM   37  O8  UNL     1       2.406  -2.785   1.216  1.00  0.00    -0.375 OA
ATOM     38  H8  UNL     1       2.852  -3.410   0.656  1.00  0.00     0.211 HD
ENDBRANCH   8  37
BRANCH  10  39
HETATM   39  C19 UNL     1       4.313  -0.134   0.202  1.00  0.00     0.125 C 
BRANCH  39  40
HETATM   40  O10 UNL     1       4.629  -0.941   1.264  1.00  0.00    -0.395 OA
ATOM     41  H10 UNL     1       5.171  -0.553   1.941  1.00  0.00     0.210 HD
ENDBRANCH  39  40
BRANCH  39  42
HETATM   42  C20 UNL     1       5.634   0.218  -0.458  1.00  0.00     0.032 C 
BRANCH  42  43
HETATM   43  C21 UNL     1       6.632   0.838   0.457  1.00  0.00     0.002 C 
BRANCH  43  44
HETATM   44  C22 UNL     1       6.120   2.128   1.050  1.00  0.00    -0.004 C 
HETATM   45  C23 UNL     1       7.159   2.757   1.968  1.00  0.00     0.005 C 
ENDBRANCH  43  44
ENDBRANCH  42  43
ENDBRANCH  39  42
ENDBRANCH  10  39
TORSDOF 16
