REMARK  11 active torsions:
REMARK  status: ('A' for Active; 'I' for Inactive)
REMARK    1  A    between atoms: O1_2  and  C2_3 
REMARK    2  A    between atoms: C4_5  and  C5_6 
REMARK    3  A    between atoms: C6_11  and  O4_12 
REMARK    4  A    between atoms: C8_14  and  S1_15 
REMARK    5  A    between atoms: S1_15  and  N2_18 
REMARK    6  A    between atoms: N2_18  and  C9_20 
REMARK    7  A    between atoms: C12_23  and  N3_24 
REMARK    8  A    between atoms: N3_24  and  C13_26 
REMARK    9  A    between atoms: C14_29  and  N5_30 
REMARK   10  A    between atoms: C16_38  and  N8_39 
REMARK   11  A    between atoms: C17_44  and  N10_45 
ROOT
HETATM    1  C9  UNL     1      -1.198  -0.879  -0.935  1.00  0.00     0.093 C 
HETATM    2  C10 UNL     1      -0.101  -1.571  -1.765  1.00  0.00     0.028 C 
HETATM    3  C11 UNL     1       1.265  -0.974  -1.491  1.00  0.00     0.027 C 
HETATM    4  C12 UNL     1       1.774  -1.362  -0.151  1.00  0.00     0.083 C 
HETATM    5  C19 UNL     1       0.561  -1.452   0.773  1.00  0.00     0.027 C 
HETATM    6  C20 UNL     1      -0.506  -0.463   0.353  1.00  0.00     0.028 C 
ENDROOT
BRANCH   4   7
HETATM    7  N3  UNL     1       2.750  -0.438   0.416  1.00  0.00    -0.370 N 
ATOM      8  H3  UNL     1       2.476   0.189   1.172  1.00  0.00     0.161 HD
BRANCH   7   9
HETATM    9  C13 UNL     1       4.058  -0.409  -0.072  1.00  0.00     0.135 A 
HETATM   10  N4  UNL     1       4.413  -1.343  -1.009  1.00  0.00    -0.176 N 
HETATM   11  C14 UNL     1       5.667  -1.411  -1.496  1.00  0.00     0.679 A 
ATOM     12  H4  UNL     1       3.711  -2.002  -1.346  1.00  0.00     0.186 HD
HETATM   13  N6  UNL     1       6.605  -0.563  -1.073  1.00  0.00    -0.175 N 
HETATM   14  C15 UNL     1       6.327   0.391  -0.144  1.00  0.00     0.154 A 
ATOM     15  H6  UNL     1       7.549  -0.631  -1.453  1.00  0.00     0.186 HD
HETATM   16  N7  UNL     1       7.286   1.242   0.267  1.00  0.00    -0.175 N 
HETATM   17  C18 UNL     1       5.037   0.460   0.355  1.00  0.00     0.097 A 
HETATM   18  C16 UNL     1       7.034   2.192   1.175  1.00  0.00     0.679 A 
ATOM     19  H7  UNL     1       8.225   1.161  -0.122  1.00  0.00     0.186 HD
HETATM   20  N9  UNL     1       5.788   2.271   1.667  1.00  0.00    -0.176 N 
HETATM   21  C17 UNL     1       4.792   1.440   1.286  1.00  0.00     0.132 A 
ATOM     22  H9  UNL     1       5.583   2.991   2.360  1.00  0.00     0.186 HD
BRANCH  11  23
HETATM   23  N5  UNL     1       5.995  -2.299  -2.383  1.00  0.00    -0.234 N 
ATOM     24  H52 UNL     1       5.277  -2.948  -2.707  1.00  0.00     0.174 HD
ATOM     25  H51 UNL     1       6.945  -2.350  -2.752  1.00  0.00     0.174 HD
ENDBRANCH  11  23
BRANCH  18  26
HETATM   26  N8  UNL     1       7.972   3.021   1.572  1.00  0.00    -0.234 N 
ATOM     27  H82 UNL     1       8.919   2.961   1.198  1.00  0.00     0.174 HD
ATOM     28  H81 UNL     1       7.780   3.745   2.264  1.00  0.00     0.174 HD
ENDBRANCH  18  26
BRANCH  21  29
HETATM   29  N10 UNL     1       3.650   1.618   1.818  1.00  0.00    -0.384 N 
ATOM     30 2H10 UNL     1       3.468   2.346   2.509  1.00  0.00     0.157 HD
ATOM     31 1H10 UNL     1       2.899   0.991   1.531  1.00  0.00     0.157 HD
ENDBRANCH  21  29
ENDBRANCH   7   9
ENDBRANCH   4   7
BRANCH   1  32
HETATM   32  N2  UNL     1      -1.670   0.219  -1.687  1.00  0.00    -0.310 N 
ATOM     33  H2  UNL     1      -1.037   0.972  -1.958  1.00  0.00     0.172 HD
BRANCH  32  34
HETATM   34  S1  UNL     1      -3.296   0.267  -2.131  1.00  0.00     0.266 S 
HETATM   35  O5  UNL     1      -3.730  -0.930  -2.939  1.00  0.00    -0.200 OA
HETATM   36  O6  UNL     1      -3.547   1.519  -2.966  1.00  0.00    -0.200 OA
BRANCH  34  37
HETATM   37  C8  UNL     1      -4.315   0.301  -0.718  1.00  0.00     0.163 A 
HETATM   38  C2  UNL     1      -4.906  -0.828  -0.203  1.00  0.00     0.098 A 
HETATM   39  C3  UNL     1      -5.676  -0.691   0.929  1.00  0.00     0.075 A 
HETATM   40  C4  UNL     1      -5.857   0.555   1.545  1.00  0.00     0.114 A 
HETATM   41  N1  UNL     1      -5.267   1.623   1.013  1.00  0.00    -0.330 N 
HETATM   42  C6  UNL     1      -4.518   1.536  -0.075  1.00  0.00     0.169 A 
ATOM     43  H1  UNL     1      -5.395   2.533   1.456  1.00  0.00     0.168 HD
BRANCH  38  44
HETATM   44  O1  UNL     1      -4.706  -2.037  -0.839  1.00  0.00    -0.354 OA
HETATM   45  C1  UNL     1      -5.319  -3.193  -0.302  1.00  0.00     0.210 C 
ENDBRANCH  38  44
BRANCH  40  46
HETATM   46  C5  UNL     1      -6.666   0.704   2.733  1.00  0.00     0.227 C 
HETATM   47  O2  UNL     1      -6.815   1.820   3.260  1.00  0.00    -0.643 OA
HETATM   48  O3  UNL     1      -7.278  -0.398   3.286  1.00  0.00    -0.643 OA
ENDBRANCH  40  46
BRANCH  42  49
HETATM   49  O4  UNL     1      -3.926   2.678  -0.588  1.00  0.00    -0.340 OA
HETATM   50  C7  UNL     1      -4.145   3.906   0.074  1.00  0.00     0.211 C 
ENDBRANCH  42  49
ENDBRANCH  34  37
ENDBRANCH  32  34
ENDBRANCH   1  32
TORSDOF 11
