REMARK  5 active torsions:
REMARK  status: ('A' for Active; 'I' for Inactive)
REMARK    1  A    between atoms: C3_3  and  C4_4 
REMARK    2  A    between atoms: C6_7  and  O1_8 
REMARK    3  A    between atoms: C6_7  and  C7_10 
REMARK    4  A    between atoms: C9_13  and  N2_14 
REMARK       I    between atoms: N2_14  and  C10_16 
REMARK    5  A    between atoms: C13_25  and  N6_26 
ROOT
HETATM    1  C1  UNL     1      -1.511  -4.237   0.229  1.00  0.00     0.096 C 
HETATM    2  C2  UNL     1      -1.092  -3.029  -0.076  1.00  0.00    -0.187 C 
HETATM    3  C3  UNL     1      -0.704  -1.810  -0.305  1.00  0.00     0.087 C 
ENDROOT
BRANCH   3   4
HETATM    4  C4  UNL     1      -1.380  -0.739   0.432  1.00  0.00     0.037 C 
HETATM    5  C5  UNL     1      -0.282  -0.073   1.254  1.00  0.00     0.132 C 
HETATM    6  N1  UNL     1       0.815   0.309   0.349  1.00  0.00    -0.360 N 
HETATM    7  C6  UNL     1       2.050  -0.147   0.656  1.00  0.00     0.166 C 
HETATM    8  C11 UNL     1       0.432   1.105  -0.767  1.00  0.00     0.127 C 
HETATM    9  C12 UNL     1      -1.030   1.472  -0.626  1.00  0.00     0.046 C 
HETATM   10  C13 UNL     1      -1.976   0.302  -0.524  1.00  0.00     0.096 C 
BRANCH   7  11
HETATM   11  O1  UNL     1       2.096  -0.912   1.766  1.00  0.00    -0.344 OA
ATOM     12  H1  UNL     1       2.964  -1.232   1.982  1.00  0.00     0.219 HD
ENDBRANCH   7  11
BRANCH   7  13
HETATM   13  C7  UNL     1       3.386   0.000   0.037  1.00  0.00     0.092 A 
HETATM   14  C8  UNL     1       3.564   0.737  -1.102  1.00  0.00     0.087 A 
HETATM   15  S1  UNL     1       5.256   0.609  -1.363  1.00  0.00    -0.063 SA
HETATM   16  C9  UNL     1       5.648  -0.362  -0.032  1.00  0.00     0.151 A 
HETATM   17  N5  UNL     1       4.449  -0.550   0.563  1.00  0.00    -0.333 N 
ATOM     18  H5  UNL     1       4.375  -1.113   1.410  1.00  0.00     0.168 HD
BRANCH  16  19
HETATM   19  N2  UNL     1       6.767  -0.829   0.417  1.00  0.00    -0.311 N 
HETATM   20  C10 UNL     1       7.982  -0.565  -0.202  1.00  0.00     0.187 C 
HETATM   21  N3  UNL     1       8.362   0.667  -0.351  1.00  0.00    -0.373 N 
HETATM   22  N4  UNL     1       8.761  -1.655  -0.643  1.00  0.00    -0.064 NA
ATOM     23  H32 UNL     1       7.799   1.455  -0.032  1.00  0.00     0.158 HD
ATOM     24  H31 UNL     1       9.254   0.861  -0.806  1.00  0.00     0.158 HD
ATOM     25  H2  UNL     1       6.757  -1.411   1.254  1.00  0.00     0.170 HD
ENDBRANCH  16  19
ENDBRANCH   7  13
BRANCH  10  26
HETATM   26  N6  UNL     1      -3.243   0.729  -0.121  1.00  0.00    -0.369 N 
HETATM   27  C14 UNL     1      -3.626   2.074  -0.159  1.00  0.00     0.063 C 
HETATM   28  C15 UNL     1      -4.986   2.287  -0.826  1.00  0.00     0.045 C 
HETATM   29  C16 UNL     1      -5.989   1.486  -0.020  1.00  0.00     0.010 C 
HETATM   30  C17 UNL     1      -5.594   0.028  -0.147  1.00  0.00     0.045 C 
HETATM   31  C18 UNL     1      -4.192  -0.164   0.381  1.00  0.00     0.063 C 
ENDBRANCH  10  26
ENDBRANCH   3   4
TORSDOF 5
