REMARK  2 active torsions:
REMARK  status: ('A' for Active; 'I' for Inactive)
REMARK       I    between atoms: C1_4  and  N2_5 
REMARK       I    between atoms: C1_4  and  N5_24 
REMARK       I    between atoms: N2_5  and  C2_7 
REMARK       I    between atoms: C2_7  and  N3_9 
REMARK    1  A    between atoms: N3_9  and  C3_11 
REMARK    2  A    between atoms: N5_24  and  C14_26 
ROOT
HETATM    1  N1  UNL     1       3.869   0.137   3.236  1.00  0.00    -0.235 N 
ATOM      2  H11 UNL     1       4.868  -0.070   3.232  1.00  0.00     0.174 HD
ATOM      3  H12 UNL     1       3.399   0.677   3.963  1.00  0.00     0.174 HD
HETATM    4  C1  UNL     1       3.135  -0.299   2.274  1.00  0.00     0.676 C 
HETATM    5  N2  UNL     1       1.753  -0.013   2.279  1.00  0.00    -0.142 N 
ATOM      6  H2  UNL     1       1.377   0.536   3.052  1.00  0.00     0.189 HD
HETATM    7  C2  UNL     1       0.862  -0.446   1.270  1.00  0.00     0.335 C 
HETATM    8  O1  UNL     1       1.313  -1.116   0.321  1.00  0.00    -0.246 OA
HETATM    9  N3  UNL     1      -0.492  -0.131   1.333  1.00  0.00    -0.329 N 
ATOM     10  H3  UNL     1      -0.819   0.419   2.127  1.00  0.00     0.165 HD
HETATM   11  N5  UNL     1       3.787  -1.047   1.267  1.00  0.00    -0.222 N 
ATOM     12  H5  UNL     1       3.481  -1.998   1.063  1.00  0.00     0.178 HD
ENDROOT
BRANCH   9  13
HETATM   13  C3  UNL     1      -1.474  -0.539   0.332  1.00  0.00     0.179 C 
HETATM   14  C4  UNL     1      -2.462  -1.435   0.953  1.00  0.00     0.039 C 
HETATM   15  C5  UNL     1      -3.906  -1.060   0.883  1.00  0.00    -0.010 C 
HETATM   16  C6  UNL     1      -4.496  -1.086  -0.453  1.00  0.00     0.009 C 
HETATM   17  C13 UNL     1      -4.079   0.206   1.679  1.00  0.00     0.030 C 
HETATM   18  C7  UNL     1      -5.334   0.036  -0.927  1.00  0.00    -0.011 C 
HETATM   19  C8  UNL     1      -4.721   0.733  -2.153  1.00  0.00     0.024 C 
HETATM   20  C12 UNL     1      -5.580   1.142   0.079  1.00  0.00     0.030 C 
HETATM   21  C9  UNL     1      -3.671   1.756  -1.661  1.00  0.00     0.127 C 
HETATM   22  N4  UNL     1      -3.275   1.248  -0.376  1.00  0.00    -0.346 N 
HETATM   23  C10 UNL     1      -2.012   0.646  -0.364  1.00  0.00     0.243 C 
HETATM   24  C11 UNL     1      -4.195   1.368   0.718  1.00  0.00     0.088 C 
HETATM   25  O2  UNL     1      -1.164   1.221  -1.086  1.00  0.00    -0.271 OA
ENDBRANCH   9  13
BRANCH  11  26
HETATM   26  C14 UNL     1       4.902  -0.462   0.513  1.00  0.00     0.099 C 
HETATM   27  C15 UNL     1       4.401   0.757  -0.174  1.00  0.00     0.026 C 
HETATM   28  C16 UNL     1       5.335   1.256  -1.257  1.00  0.00     0.002 C 
HETATM   29  C17 UNL     1       5.424   0.128  -2.282  1.00  0.00     0.000 C 
HETATM   30  C18 UNL     1       6.107  -1.021  -1.620  1.00  0.00     0.002 C 
HETATM   31  C19 UNL     1       5.451  -1.516  -0.376  1.00  0.00     0.026 C 
ENDBRANCH  11  26
TORSDOF 2
