REMARK  11 active torsions:
REMARK  status: ('A' for Active; 'I' for Inactive)
REMARK    1  A    between atoms: O1_2  and  N1_3 
REMARK    2  A    between atoms: C3_8  and  C4_9 
REMARK    3  A    between atoms: C6_18  and  O2_19 
REMARK    4  A    between atoms: C7_21  and  C8_22 
REMARK    5  A    between atoms: C8_22  and  N8_23 
REMARK    6  A    between atoms: N8_23  and  C9_25 
REMARK    7  A    between atoms: C9_25  and  C10_26 
REMARK    8  A    between atoms: C11_28  and  N9_29 
REMARK    9  A    between atoms: N9_29  and  C12_31 
REMARK   10  A    between atoms: C15_40  and  N13_41 
REMARK   11  A    between atoms: C19_53  and  N17_54 
ROOT
HETATM    1  C10 UNL     1       1.169  -0.680   0.893  1.00  0.00     0.194 C 
HETATM    2  O3  UNL     1       1.835   0.543   0.628  1.00  0.00    -0.349 OA
HETATM    3  C11 UNL     1       3.168   0.050   0.798  1.00  0.00     0.263 C 
HETATM    4  C17 UNL     1       3.148  -1.045  -0.194  1.00  0.00     0.061 A 
HETATM    5  C18 UNL     1       1.832  -1.534  -0.117  1.00  0.00     0.070 A 
HETATM    6  N15 UNL     1       1.677  -2.538  -0.959  1.00  0.00    -0.300 N 
ATOM      7  H15 UNL     1       0.823  -3.076  -1.106  1.00  0.00     0.186 HD
HETATM    8  N16 UNL     1       2.815  -2.716  -1.569  1.00  0.00    -0.285 N 
ATOM      9  H16 UNL     1       2.982  -3.430  -2.278  1.00  0.00     0.188 HD
HETATM   10  C19 UNL     1       3.754  -1.825  -1.138  1.00  0.00     0.126 A 
ENDROOT
BRANCH   1  11
HETATM   11  C9  UNL     1      -0.330  -0.503   0.604  1.00  0.00     0.157 C 
BRANCH  11  12
HETATM   12  N8  UNL     1      -1.060  -1.647   0.836  1.00  0.00    -0.397 N 
ATOM     13  H8  UNL     1      -0.508  -2.476   1.058  1.00  0.00     0.158 HD
BRANCH  12  14
HETATM   14  C8  UNL     1      -2.414  -1.840   0.814  1.00  0.00     0.086 C 
BRANCH  14  15
HETATM   15  C7  UNL     1      -3.157  -1.804  -0.497  1.00  0.00     0.186 C 
HETATM   16  N1  UNL     1      -4.585  -2.088  -0.219  1.00  0.00    -0.218 N 
HETATM   17  C2  UNL     1      -5.497  -1.995  -1.279  1.00  0.00     0.212 C 
HETATM   18  N2  UNL     1      -6.563  -2.946  -1.367  1.00  0.00    -0.062 NA
HETATM   19  N3  UNL     1      -5.346  -1.042  -2.119  1.00  0.00    -0.349 N 
HETATM   20  C3  UNL     1      -4.278  -0.112  -1.962  1.00  0.00     0.186 C 
ATOM     21  H3  UNL     1      -5.992  -0.948  -2.903  1.00  0.00     0.163 HD
HETATM   22  C6  UNL     1      -3.030  -0.584  -1.308  1.00  0.00     0.178 C 
BRANCH  16  23
HETATM   23  O1  UNL     1      -4.965  -2.442   1.040  1.00  0.00    -0.280 OA
HETATM   24  C1  UNL     1      -5.941  -1.629   1.579  1.00  0.00     0.238 C 
ENDBRANCH  16  23
BRANCH  20  25
HETATM   25  C4  UNL     1      -4.859   1.081  -1.250  1.00  0.00     0.139 A 
HETATM   26  N4  UNL     1      -6.036   1.620  -1.611  1.00  0.00    -0.270 N 
HETATM   27  N5  UNL     1      -6.278   2.647  -0.808  1.00  0.00    -0.225 N 
ATOM     28  H4  UNL     1      -6.637   1.296  -2.369  1.00  0.00     0.190 HD
HETATM   29  N6  UNL     1      -5.264   2.730   0.028  1.00  0.00    -0.223 N 
ATOM     30  H5  UNL     1      -7.095   3.257  -0.833  1.00  0.00     0.210 HD
HETATM   31  C5  UNL     1      -5.161   3.738   1.070  1.00  0.00     0.202 C 
HETATM   32  N7  UNL     1      -4.367   1.768  -0.227  1.00  0.00    -0.269 N 
ATOM     33  H7  UNL     1      -3.489   1.599   0.263  1.00  0.00     0.190 HD
ENDBRANCH  20  25
BRANCH  22  34
HETATM   34  O2  UNL     1      -2.111  -0.885  -2.360  1.00  0.00    -0.391 OA
ATOM     35  H2  UNL     1      -1.313  -1.187  -1.942  1.00  0.00     0.210 HD
ENDBRANCH  22  34
ENDBRANCH  14  15
ENDBRANCH  12  14
ENDBRANCH  11  12
ENDBRANCH   1  11
BRANCH   3  36
HETATM   36  N9  UNL     1       4.116   1.079   0.525  1.00  0.00    -0.344 N 
ATOM     37  H9  UNL     1       3.819   1.925   0.039  1.00  0.00     0.164 HD
BRANCH  36  38
HETATM   38  C12 UNL     1       5.465   0.935   0.923  1.00  0.00     0.136 A 
HETATM   39  N10 UNL     1       5.927  -0.128   1.581  1.00  0.00    -0.337 N 
HETATM   40  C13 UNL     1       7.210  -0.263   1.972  1.00  0.00     0.183 A 
ATOM     41  H10 UNL     1       5.274  -0.880   1.801  1.00  0.00     0.168 HD
HETATM   42  N11 UNL     1       8.085   0.719   1.691  1.00  0.00    -0.336 N 
HETATM   43  C14 UNL     1       7.681   1.819   1.028  1.00  0.00     0.153 A 
ATOM     44  H11 UNL     1       9.059   0.630   1.981  1.00  0.00     0.168 HD
HETATM   45  N12 UNL     1       8.303   2.933   0.616  1.00  0.00    -0.174 N 
HETATM   46  C16 UNL     1       6.351   1.945   0.630  1.00  0.00     0.137 A 
HETATM   47  C15 UNL     1       7.431   3.728  -0.008  1.00  0.00     0.678 A 
ATOM     48  H12 UNL     1       9.291   3.141   0.758  1.00  0.00     0.186 HD
HETATM   49  N14 UNL     1       6.248   3.131  -0.001  1.00  0.00    -0.184 N 
ATOM     50  H14 UNL     1       5.393   3.510  -0.409  1.00  0.00     0.184 HD
BRANCH  47  51
HETATM   51  N13 UNL     1       7.721   4.883  -0.524  1.00  0.00    -0.234 N 
ATOM     52 2H13 UNL     1       8.632   5.343  -0.529  1.00  0.00     0.174 HD
ATOM     53 1H13 UNL     1       7.055   5.490  -1.001  1.00  0.00     0.174 HD
ENDBRANCH  47  51
ENDBRANCH  36  38
ENDBRANCH   3  36
BRANCH  10  54
HETATM   54  N17 UNL     1       4.951  -1.747  -1.550  1.00  0.00    -0.384 N 
ATOM     55 2H17 UNL     1       5.653  -1.081  -1.228  1.00  0.00     0.157 HD
ATOM     56 1H17 UNL     1       5.403  -2.329  -2.255  1.00  0.00     0.157 HD
ENDBRANCH  10  54
TORSDOF 11
