REMARK  14 active torsions:
REMARK  status: ('A' for Active; 'I' for Inactive)
REMARK    1  A    between atoms: O1_2  and  C2_3 
REMARK    2  A    between atoms: C2_3  and  O2_4 
REMARK    3  A    between atoms: C2_3  and  C3_6 
REMARK    4  A    between atoms: N2_9  and  C4_10 
REMARK    5  A    between atoms: C4_10  and  C5_11 
REMARK    6  A    between atoms: C5_11  and  O4_13 
REMARK    7  A    between atoms: O4_13  and  C6_14 
REMARK    8  A    between atoms: C6_14  and  C7_15 
REMARK    9  A    between atoms: C12_27  and  S1_28 
REMARK   10  A    between atoms: S1_28  and  S2_29 
REMARK   11  A    between atoms: S2_29  and  C13_30 
REMARK   12  A    between atoms: C15_35  and  O7_36 
REMARK   13  A    between atoms: C16_41  and  O8_42 
REMARK   14  A    between atoms: C17_47  and  O9_48 
ROOT
HETATM    1  C3  UNL     1      -0.751  -1.405  -0.392  1.00  0.00     0.089 A 
HETATM    2  N1  UNL     1      -2.047  -1.275  -0.610  1.00  0.00    -0.296 N 
ATOM      3  H1  UNL     1      -2.751  -1.951  -0.312  1.00  0.00     0.187 HD
HETATM    4  N2  UNL     1      -2.317  -0.158  -1.264  1.00  0.00    -0.282 N 
HETATM    5  C9  UNL     1      -1.140   0.450  -1.471  1.00  0.00     0.093 A 
HETATM    6  C10 UNL     1      -0.116  -0.310  -0.932  1.00  0.00     0.002 A 
HETATM    7  C11 UNL     1       1.323   0.074  -1.000  1.00  0.00     0.088 C 
HETATM    8  C12 UNL     1       1.480   1.276  -1.842  1.00  0.00     0.265 C 
HETATM    9  N8  UNL     1       0.410   2.236  -1.506  1.00  0.00    -0.029 N 
ATOM     10  H81 UNL     1       0.642   3.199  -1.749  1.00  0.00     0.282 HD
ATOM     11  H82 UNL     1       0.299   2.380  -0.502  1.00  0.00     0.282 HD
HETATM   12  C17 UNL     1      -0.798   1.758  -2.153  1.00  0.00     0.373 C 
ENDROOT
BRANCH   8  13
HETATM   13  S1  UNL     1       3.073   2.091  -1.816  1.00  0.00    -0.062 SA
BRANCH  13  14
HETATM   14  S2  UNL     1       4.545   0.802  -2.588  1.00  0.00    -0.058 SA
BRANCH  14  15
HETATM   15  C13 UNL     1       5.304  -0.080  -1.251  1.00  0.00     0.314 C 
HETATM   16  N6  UNL     1       4.527  -1.005  -0.520  1.00  0.00    -0.053 N 
HETATM   17  C14 UNL     1       5.289  -1.519   0.586  1.00  0.00     0.294 C 
ATOM     18  H62 UNL     1       3.638  -0.605  -0.219  1.00  0.00     0.278 HD
ATOM     19  H61 UNL     1       4.162  -1.751  -1.112  1.00  0.00     0.278 HD
HETATM   20  C15 UNL     1       5.786  -0.436   1.510  1.00  0.00     0.347 C 
HETATM   21  N7  UNL     1       6.697   0.392   0.733  1.00  0.00    -0.018 N 
HETATM   22  C16 UNL     1       5.935   0.979  -0.324  1.00  0.00     0.363 C 
ATOM     23  H72 UNL     1       7.193   1.081   1.299  1.00  0.00     0.283 HD
ATOM     24  H71 UNL     1       7.516  -0.118   0.400  1.00  0.00     0.283 HD
BRANCH  20  25
HETATM   25  O7  UNL     1       6.446  -0.997   2.578  1.00  0.00    -0.368 OA
ATOM     26  H7  UNL     1       6.759  -0.315   3.160  1.00  0.00     0.212 HD
ENDBRANCH  20  25
BRANCH  22  27
HETATM   27  O8  UNL     1       6.747   1.769  -1.170  1.00  0.00    -0.367 OA
ATOM     28  H8  UNL     1       7.136   2.421  -0.599  1.00  0.00     0.212 HD
ENDBRANCH  22  27
ENDBRANCH  14  15
ENDBRANCH  13  14
ENDBRANCH   8  13
BRANCH  12  29
HETATM   29  O9  UNL     1      -0.500   1.563  -3.496  1.00  0.00    -0.365 OA
ATOM     30  H9  UNL     1      -0.285   2.384  -3.924  1.00  0.00     0.212 HD
ENDBRANCH  12  29
BRANCH   1  31
HETATM   31  C2  UNL     1      -0.018  -2.515   0.315  1.00  0.00     0.309 C 
BRANCH  31  32
HETATM   32  O1  UNL     1      -0.487  -3.741  -0.109  1.00  0.00    -0.360 OA
HETATM   33  C1  UNL     1      -1.135  -4.439   0.916  1.00  0.00     0.205 C 
ENDBRANCH  31  32
BRANCH  31  34
HETATM   34  O2  UNL     1       1.344  -2.454   0.137  1.00  0.00    -0.366 OA
ATOM     35  H2  UNL     1       1.667  -1.610   0.429  1.00  0.00     0.213 HD
ENDBRANCH  31  34
ENDBRANCH   1  31
BRANCH   4  36
HETATM   36  C4  UNL     1      -3.656   0.290  -1.658  1.00  0.00     0.260 C 
BRANCH  36  37
HETATM   37  C5  UNL     1      -4.305   1.096  -0.596  1.00  0.00     0.282 C 
HETATM   38  O3  UNL     1      -4.103   2.327  -0.578  1.00  0.00    -0.263 OA
BRANCH  37  39
HETATM   39  O4  UNL     1      -5.109   0.534   0.351  1.00  0.00    -0.261 OA
BRANCH  39  40
HETATM   40  C6  UNL     1      -5.795   1.168   1.402  1.00  0.00     0.329 C 
HETATM   41  N3  UNL     1      -4.871   1.753   2.362  1.00  0.00    -0.329 N 
HETATM   42  C8  UNL     1      -5.291   1.524   3.552  1.00  0.00     0.193 C 
ATOM     43  H3  UNL     1      -4.021   2.265   2.125  1.00  0.00     0.165 HD
HETATM   44  N4  UNL     1      -6.514   0.775   3.456  1.00  0.00    -0.295 N 
HETATM   45  N5  UNL     1      -6.494   0.158   2.214  1.00  0.00    -0.068 NA
ATOM     46  H4  UNL     1      -7.249   0.710   4.160  1.00  0.00     0.183 HD
BRANCH  40  47
HETATM   47  C7  UNL     1      -6.814   2.149   0.973  1.00  0.00     0.253 C 
HETATM   48  O5  UNL     1      -8.024   1.917   1.341  1.00  0.00    -0.643 OA
HETATM   49  O6  UNL     1      -6.566   3.288   0.215  1.00  0.00    -0.643 OA
ENDBRANCH  40  47
ENDBRANCH  39  40
ENDBRANCH  37  39
ENDBRANCH  36  37
ENDBRANCH   4  36
TORSDOF 14
