REMARK  16 active torsions:
REMARK  status: ('A' for Active; 'I' for Inactive)
REMARK    1  A    between atoms: N1_1  and  C1_4 
REMARK    2  A    between atoms: C2_7  and  N3_8 
REMARK    3  A    between atoms: C3_13  and  N5_14 
REMARK    4  A    between atoms: N5_14  and  C4_16 
REMARK    5  A    between atoms: C5_17  and  C6_18 
REMARK    6  A    between atoms: C6_18  and  S1_19 
REMARK    7  A    between atoms: S1_19  and  C7_20 
REMARK    8  A    between atoms: N11_35  and  C13_36 
REMARK    9  A    between atoms: C14_37  and  O1_38 
REMARK   10  A    between atoms: C15_40  and  O2_41 
REMARK   11  A    between atoms: C16_43  and  O3_44 
REMARK   12  A    between atoms: C16_43  and  C17_46 
REMARK   13  A    between atoms: C17_46  and  O4_47 
REMARK   14  A    between atoms: C17_46  and  C18_49 
REMARK   15  A    between atoms: C18_49  and  O5_50 
REMARK   16  A    between atoms: C19_52  and  O6_53 
ROOT
HETATM    1  C7  UNL     1       0.840  -1.826  -0.239  1.00  0.00     0.104 A 
HETATM    2  N6  UNL     1       0.769  -2.662   0.812  1.00  0.00    -0.345 N 
ATOM      3  H6  UNL     1       1.489  -3.372   0.946  1.00  0.00     0.167 HD
HETATM    4  C8  UNL     1      -0.261  -2.565   1.699  1.00  0.00     0.183 A 
HETATM    5  N7  UNL     1      -1.234  -1.656   1.574  1.00  0.00    -0.336 N 
ATOM      6  H7  UNL     1      -1.994  -1.606   2.252  1.00  0.00     0.168 HD
HETATM    7  C9  UNL     1      -1.183  -0.807   0.527  1.00  0.00     0.157 A 
HETATM    8  C10 UNL     1      -0.158  -0.886  -0.375  1.00  0.00     0.152 A 
HETATM    9  N8  UNL     1      -0.398   0.093  -1.291  1.00  0.00    -0.079 N 
HETATM   10  N9  UNL     1       0.134   0.595  -2.396  1.00  0.00    -0.274 N 
ATOM     11  H9  UNL     1       0.989   0.274  -2.850  1.00  0.00     0.189 HD
HETATM   12  C11 UNL     1      -0.647   1.595  -2.810  1.00  0.00     0.215 A 
HETATM   13  N10 UNL     1      -1.663   1.687  -1.933  1.00  0.00    -0.184 N 
ATOM     14  H10 UNL     1      -2.424   2.364  -1.989  1.00  0.00     0.185 HD
HETATM   15  C12 UNL     1      -1.526   0.741  -0.956  1.00  0.00     0.709 A 
HETATM   16  N11 UNL     1      -2.007   0.192   0.155  1.00  0.00    -0.154 N 
ENDROOT
BRANCH   1  17
HETATM   17  S1  UNL     1       2.138  -1.864  -1.459  1.00  0.00    -0.106 SA
BRANCH  17  18
HETATM   18  C6  UNL     1       3.475  -0.774  -0.897  1.00  0.00     0.109 C 
BRANCH  18  19
HETATM   19  C5  UNL     1       4.111  -1.311   0.332  1.00  0.00     0.001 C 
HETATM   20  C4  UNL     1       5.396  -1.605   0.317  1.00  0.00     0.103 C 
BRANCH  20  21
HETATM   21  N5  UNL     1       6.137  -1.405  -0.855  1.00  0.00    -0.201 N 
ATOM     22  H5  UNL     1       5.840  -1.827  -1.735  1.00  0.00     0.183 HD
BRANCH  21  23
HETATM   23  C3  UNL     1       7.208  -0.674  -0.803  1.00  0.00     0.711 A 
HETATM   24  N4  UNL     1       7.609  -0.114   0.347  1.00  0.00    -0.021 N 
HETATM   25  C2  UNL     1       8.719   0.641   0.393  1.00  0.00     0.705 A 
ATOM     26  H4  UNL     1       7.065  -0.263   1.197  1.00  0.00     0.203 HD
HETATM   27  N2  UNL     1       9.442   0.847  -0.707  1.00  0.00    -0.022 N 
HETATM   28  C1  UNL     1       9.019   0.270  -1.865  1.00  0.00     0.705 A 
ATOM     29  H2  UNL     1      10.286   1.419  -0.682  1.00  0.00     0.203 HD
HETATM   30  N12 UNL     1       7.909  -0.486  -1.916  1.00  0.00    -0.021 N 
ATOM     31  H12 UNL     1       7.610  -0.909  -2.795  1.00  0.00     0.203 HD
BRANCH  25  32
HETATM   32  N3  UNL     1       9.125   1.195   1.505  1.00  0.00    -0.234 N 
ATOM     33  H32 UNL     1       9.968   1.768   1.540  1.00  0.00     0.174 HD
ATOM     34  H31 UNL     1       8.571   1.037   2.347  1.00  0.00     0.174 HD
ENDBRANCH  25  32
BRANCH  28  35
HETATM   35  N1  UNL     1       9.690   0.447  -2.939  1.00  0.00    -0.234 N 
ATOM     36  H12 UNL     1      10.532   1.021  -2.900  1.00  0.00     0.174 HD
ATOM     37  H11 UNL     1       9.373   0.015  -3.807  1.00  0.00     0.174 HD
ENDBRANCH  28  35
ENDBRANCH  21  23
ENDBRANCH  20  21
ENDBRANCH  18  19
ENDBRANCH  17  18
ENDBRANCH   1  17
BRANCH  16  38
HETATM   38  C13 UNL     1      -3.208   0.624   0.813  1.00  0.00     0.173 C 
HETATM   39  C14 UNL     1      -3.886  -0.375   1.668  1.00  0.00     0.176 C 
HETATM   40  C15 UNL     1      -5.377  -0.015   1.575  1.00  0.00     0.188 C 
HETATM   41  C16 UNL     1      -5.470   1.100   0.603  1.00  0.00     0.141 C 
HETATM   42  C19 UNL     1      -4.265   0.869  -0.275  1.00  0.00     0.184 C 
BRANCH  39  43
HETATM   43  O1  UNL     1      -3.503  -0.321   3.005  1.00  0.00    -0.391 OA
ATOM     44  H1  UNL     1      -3.938  -0.962   3.554  1.00  0.00     0.210 HD
ENDBRANCH  39  43
BRANCH  40  45
HETATM   45  O2  UNL     1      -5.802   0.430   2.851  1.00  0.00    -0.390 OA
ATOM     46  H2  UNL     1      -6.724   0.653   2.794  1.00  0.00     0.210 HD
ENDBRANCH  40  45
BRANCH  41  47
HETATM   47  O3  UNL     1      -5.170   2.279   1.342  1.00  0.00    -0.382 OA
ATOM     48  H3  UNL     1      -5.230   2.994   0.719  1.00  0.00     0.211 HD
ENDBRANCH  41  47
BRANCH  41  49
HETATM   49  C17 UNL     1      -6.739   1.318  -0.104  1.00  0.00     0.181 C 
BRANCH  49  50
HETATM   50  O4  UNL     1      -7.767   1.559   0.822  1.00  0.00    -0.390 OA
ATOM     51  H4  UNL     1      -8.588   1.700   0.365  1.00  0.00     0.210 HD
ENDBRANCH  49  50
BRANCH  49  52
HETATM   52  C18 UNL     1      -7.200   0.310  -1.080  1.00  0.00     0.199 C 
BRANCH  52  53
HETATM   53  O5  UNL     1      -7.533  -0.870  -0.463  1.00  0.00    -0.398 OA
ATOM     54  H5  UNL     1      -7.830  -1.518  -1.091  1.00  0.00     0.209 HD
ENDBRANCH  52  53
ENDBRANCH  49  52
ENDBRANCH  41  49
BRANCH  42  55
HETATM   55  O6  UNL     1      -4.390  -0.345  -0.938  1.00  0.00    -0.390 OA
ATOM     56  H6  UNL     1      -5.044  -0.194  -1.611  1.00  0.00     0.210 HD
ENDBRANCH  42  55
ENDBRANCH  16  38
TORSDOF 16
