REMARK  17 active torsions:
REMARK  status: ('A' for Active; 'I' for Inactive)
REMARK    1  A    between atoms: N1_1  and  C1_5 
REMARK    2  A    between atoms: C1_5  and  O1_6 
REMARK    3  A    between atoms: C1_5  and  C2_8 
REMARK    4  A    between atoms: C2_8  and  C6_20 
REMARK    5  A    between atoms: N2_9  and  O2_11 
REMARK    6  A    between atoms: O2_11  and  C3_12 
REMARK    7  A    between atoms: C3_12  and  O3_13 
REMARK    8  A    between atoms: C3_12  and  C4_15 
REMARK    9  A    between atoms: C4_15  and  C5_17 
REMARK   10  A    between atoms: C7_21  and  O7_22 
REMARK   11  A    between atoms: C8_24  and  O8_25 
REMARK   12  A    between atoms: C9_27  and  O9_28 
REMARK   13  A    between atoms: C10_30  and  C11_31 
REMARK   14  A    between atoms: C13_38  and  O12_39 
REMARK   15  A    between atoms: C15_42  and  O13_43 
REMARK   16  A    between atoms: C16_45  and  O14_46 
REMARK   17  A    between atoms: C18_49  and  O15_50 
ROOT
HETATM    1  C6  UNL     1       0.709   0.219  -0.880  1.00  0.00     0.063 A 
HETATM    2  C7  UNL     1       0.906   0.782  -2.127  1.00  0.00     0.117 A 
HETATM    3  C8  UNL     1      -0.160   1.289  -2.840  1.00  0.00     0.134 A 
HETATM    4  C9  UNL     1      -1.381   1.202  -2.273  1.00  0.00     0.117 A 
HETATM    5  C10 UNL     1      -1.706   0.649  -1.019  1.00  0.00     0.062 A 
HETATM    6  C18 UNL     1      -0.583   0.153  -0.318  1.00  0.00     0.096 A 
ENDROOT
BRANCH   1   7
HETATM    7  C2  UNL     1       1.899  -0.285  -0.230  1.00  0.00     0.103 C 
HETATM    8  N2  UNL     1       3.046  -0.163  -0.882  1.00  0.00    -0.262 N 
ATOM      9  H2  UNL     1       2.973   0.265  -1.805  1.00  0.00     0.194 HD
BRANCH   7  10
HETATM   10  C1  UNL     1       1.982  -0.894   1.085  1.00  0.00     0.370 C 
BRANCH  10  11
HETATM   11  N1  UNL     1       3.300  -1.549   1.284  1.00  0.00    -0.047 N 
ATOM     12  H13 UNL     1       4.094  -0.909   1.285  1.00  0.00     0.277 HD
ATOM     13  H12 UNL     1       3.454  -1.911   2.225  1.00  0.00     0.277 HD
ATOM     14  H11 UNL     1       3.328  -2.256   0.549  1.00  0.00     0.277 HD
ENDBRANCH  10  11
BRANCH  10  15
HETATM   15  O1  UNL     1       1.943   0.091   2.109  1.00  0.00    -0.365 OA
ATOM     16  H1  UNL     1       1.100   0.510   1.982  1.00  0.00     0.212 HD
ENDBRANCH  10  15
ENDBRANCH   7  10
BRANCH   8  17
HETATM   17  O2  UNL     1       4.260  -0.507  -0.525  1.00  0.00    -0.239 OA
BRANCH  17  18
HETATM   18  C3  UNL     1       5.430   0.274  -0.708  1.00  0.00     0.368 C 
BRANCH  18  19
HETATM   19  O3  UNL     1       6.030   0.598   0.489  1.00  0.00    -0.363 OA
ATOM     20  H3  UNL     1       6.814   1.121   0.366  1.00  0.00     0.213 HD
ENDBRANCH  18  19
BRANCH  18  21
HETATM   21  C4  UNL     1       6.409  -0.394  -1.581  1.00  0.00     0.281 C 
HETATM   22  O4  UNL     1       6.045  -0.786  -2.748  1.00  0.00    -0.280 OA
BRANCH  21  23
HETATM   23  C5  UNL     1       7.764  -0.610  -1.136  1.00  0.00     0.252 C 
HETATM   24  O5  UNL     1       8.153  -0.241  -0.009  1.00  0.00    -0.642 OA
HETATM   25  O6  UNL     1       8.676  -1.242  -1.965  1.00  0.00    -0.642 OA
ENDBRANCH  21  23
ENDBRANCH  18  21
ENDBRANCH  17  18
ENDBRANCH   8  17
ENDBRANCH   1   7
BRANCH   2  26
HETATM   26  O7  UNL     1       2.155   0.861  -2.701  1.00  0.00    -0.357 OA
ATOM     27  H7  UNL     1       2.290   1.248  -3.558  1.00  0.00     0.217 HD
ENDBRANCH   2  26
BRANCH   6  28
HETATM   28  O15 UNL     1      -0.733  -0.339   0.881  1.00  0.00    -0.359 OA
ATOM     29  H15 UNL     1      -1.603  -0.383   1.260  1.00  0.00     0.217 HD
ENDBRANCH   6  28
BRANCH   3  30
HETATM   30  O8  UNL     1       0.104   1.851  -4.091  1.00  0.00    -0.356 OA
ATOM     31  H8  UNL     1      -0.630   2.200  -4.582  1.00  0.00     0.218 HD
ENDBRANCH   3  30
BRANCH   5  32
HETATM   32  C11 UNL     1      -2.997   0.984  -0.403  1.00  0.00     0.073 C 
HETATM   33  N3  UNL     1      -3.620   2.045  -0.945  1.00  0.00    -0.278 N 
HETATM   34  S1  UNL     1      -5.056   2.362  -0.178  1.00  0.00     0.267 S 
ATOM     35  H3  UNL     1      -3.256   2.587  -1.729  1.00  0.00     0.179 HD
HETATM   36  O10 UNL     1      -6.257   2.448  -1.075  1.00  0.00    -0.200 OA
HETATM   37  O11 UNL     1      -5.021   3.483   0.816  1.00  0.00    -0.200 OA
HETATM   38  C12 UNL     1      -5.148   0.797   0.652  1.00  0.00     0.128 A 
HETATM   39  C13 UNL     1      -6.220   0.235   1.256  1.00  0.00     0.092 A 
HETATM   40  C17 UNL     1      -3.883   0.264   0.482  1.00  0.00     0.054 A 
HETATM   41  C14 UNL     1      -6.093  -1.019   1.779  1.00  0.00     0.077 A 
HETATM   42  C15 UNL     1      -4.902  -1.623   1.656  1.00  0.00     0.102 A 
HETATM   43  C16 UNL     1      -3.796  -1.033   1.025  1.00  0.00     0.113 A 
BRANCH  39  44
HETATM   44  O12 UNL     1      -7.411   0.949   1.324  1.00  0.00    -0.359 OA
ATOM     45  H12 UNL     1      -8.164   0.554   1.748  1.00  0.00     0.217 HD
ENDBRANCH  39  44
BRANCH  42  46
HETATM   46  O13 UNL     1      -4.749  -2.902   2.180  1.00  0.00    -0.358 OA
ATOM     47  H13 UNL     1      -3.905  -3.330   2.093  1.00  0.00     0.217 HD
ENDBRANCH  42  46
BRANCH  43  48
HETATM   48  O14 UNL     1      -2.686  -1.802   0.960  1.00  0.00    -0.357 OA
ATOM     49  H14 UNL     1      -1.937  -1.403   0.533  1.00  0.00     0.217 HD
ENDBRANCH  43  48
ENDBRANCH   5  32
BRANCH   4  50
HETATM   50  O9  UNL     1      -2.477   1.709  -2.985  1.00  0.00    -0.357 OA
ATOM     51  H9  UNL     1      -3.337   1.648  -2.586  1.00  0.00     0.217 HD
ENDBRANCH   4  50
TORSDOF 17
