REMARK  21 active torsions:
REMARK  status: ('A' for Active; 'I' for Inactive)
REMARK    1  A    between atoms: O1_2  and  C2_3 
REMARK    2  A    between atoms: C3_4  and  O2_5 
REMARK    3  A    between atoms: C4_7  and  C5_8 
REMARK    4  A    between atoms: C5_8  and  O3_9 
REMARK    5  A    between atoms: C5_8  and  C6_11 
REMARK    6  A    between atoms: C6_11  and  O4_12 
REMARK    7  A    between atoms: C6_11  and  C7_14 
REMARK    8  A    between atoms: C7_14  and  O5_15 
REMARK    9  A    between atoms: C7_14  and  C8_17 
REMARK   10  A    between atoms: C8_17  and  O6_18 
REMARK   11  A    between atoms: C10_21  and  C11_22 
REMARK   12  A    between atoms: C13_27  and  C14_28 
REMARK   13  A    between atoms: C14_28  and  O8_29 
REMARK   14  A    between atoms: C14_28  and  C15_31 
REMARK   15  A    between atoms: C15_31  and  O9_32 
REMARK   16  A    between atoms: C15_31  and  O10_34 
REMARK   17  A    between atoms: C16_37  and  O12_38 
REMARK   18  A    between atoms: C16_37  and  C17_40 
REMARK   19  A    between atoms: C19_42  and  O13_43 
REMARK   20  A    between atoms: C20_45  and  O14_46 
REMARK   21  A    between atoms: C21_48  and  O15_49 
ROOT
HETATM    1  C2  UNL     1       2.317  -0.761   1.333  1.00  0.00     0.218 C 
HETATM    2  C3  UNL     1       1.427   0.252   1.917  1.00  0.00     0.165 C 
HETATM    3  C4  UNL     1      -0.014   0.331   1.448  1.00  0.00     0.105 C 
HETATM    4  C9  UNL     1      -0.385  -0.664   0.448  1.00  0.00     0.062 C 
HETATM    5  C10 UNL     1      -1.543  -1.255   0.325  1.00  0.00     0.072 C 
HETATM    6  O11 UNL     1       0.672  -0.988  -0.449  1.00  0.00    -0.311 OA
HETATM    7  C16 UNL     1       1.935  -1.440   0.078  1.00  0.00     0.225 C 
ENDROOT
BRANCH   3   8
HETATM    8  C5  UNL     1      -0.145   1.761   1.007  1.00  0.00     0.162 C 
BRANCH   8   9
HETATM    9  O3  UNL     1       0.139   2.557   2.122  1.00  0.00    -0.392 OA
ATOM     10  H3  UNL     1       0.056   3.461   1.843  1.00  0.00     0.210 HD
ENDBRANCH   8   9
BRANCH   8  11
HETATM   11  C6  UNL     1      -1.298   2.284   0.327  1.00  0.00     0.178 C 
BRANCH  11  12
HETATM   12  O4  UNL     1      -2.478   2.381   1.061  1.00  0.00    -0.390 OA
ATOM     13  H4  UNL     1      -3.240   2.727   0.611  1.00  0.00     0.210 HD
ENDBRANCH  11  12
BRANCH  11  14
HETATM   14  C7  UNL     1      -1.015   3.739  -0.121  1.00  0.00     0.172 C 
BRANCH  14  15
HETATM   15  O5  UNL     1      -0.919   4.599   0.943  1.00  0.00    -0.391 OA
ATOM     16  H5  UNL     1      -0.745   5.492   0.668  1.00  0.00     0.210 HD
ENDBRANCH  14  15
BRANCH  14  17
HETATM   17  C8  UNL     1      -1.914   4.172  -1.240  1.00  0.00     0.198 C 
BRANCH  17  18
HETATM   18  O6  UNL     1      -1.422   5.383  -1.734  1.00  0.00    -0.398 OA
ATOM     19  H6  UNL     1      -1.992   5.657  -2.443  1.00  0.00     0.209 HD
ENDBRANCH  17  18
ENDBRANCH  14  17
ENDBRANCH  11  14
ENDBRANCH   8  11
ENDBRANCH   3   8
BRANCH   5  20
HETATM   20  C11 UNL     1      -2.755  -1.135   1.099  1.00  0.00     0.104 A 
HETATM   21  O7  UNL     1      -2.782  -1.154   2.426  1.00  0.00    -0.304 OA
HETATM   22  C12 UNL     1      -4.024  -1.040   2.853  1.00  0.00     0.234 A 
HETATM   23  N1  UNL     1      -4.859  -0.939   1.815  1.00  0.00    -0.346 N 
HETATM   24  C13 UNL     1      -4.061  -0.996   0.695  1.00  0.00     0.078 A 
ATOM     25  H1  UNL     1      -5.874  -0.840   1.846  1.00  0.00     0.167 HD
BRANCH  24  26
HETATM   26  C14 UNL     1      -4.526  -0.845  -0.694  1.00  0.00     0.225 C 
BRANCH  26  27
HETATM   27  O8  UNL     1      -3.670  -1.375  -1.606  1.00  0.00    -0.384 OA
ATOM     28  H8  UNL     1      -3.970  -1.278  -2.502  1.00  0.00     0.210 HD
ENDBRANCH  26  27
BRANCH  26  29
HETATM   29  C15 UNL     1      -5.981  -1.159  -0.877  1.00  0.00     0.288 C 
BRANCH  29  30
HETATM   30  O9  UNL     1      -6.079  -2.560  -0.903  1.00  0.00    -0.368 OA
ATOM     31  H9  UNL     1      -7.001  -2.759  -1.019  1.00  0.00     0.212 HD
ENDBRANCH  29  30
BRANCH  29  32
HETATM   32  O10 UNL     1      -6.787  -0.752   0.204  1.00  0.00    -0.368 OA
ATOM     33  H10 UNL     1      -7.709  -0.951   0.088  1.00  0.00     0.212 HD
ENDBRANCH  29  32
ENDBRANCH  26  29
ENDBRANCH  24  26
ENDBRANCH   5  20
BRANCH   2  34
HETATM   34  O2  UNL     1       1.362   0.060   3.325  1.00  0.00    -0.392 OA
ATOM     35  H2  UNL     1       0.787   0.715   3.703  1.00  0.00     0.210 HD
ENDBRANCH   2  34
BRANCH   7  36
HETATM   36  O12 UNL     1       1.696  -2.814   0.457  1.00  0.00    -0.359 OA
ATOM     37  H12 UNL     1       1.450  -3.251  -0.350  1.00  0.00     0.213 HD
ENDBRANCH   7  36
BRANCH   7  38
HETATM   38  C17 UNL     1       2.970  -1.574  -0.946  1.00  0.00     0.012 A 
HETATM   39  C18 UNL     1       4.007  -2.477  -0.745  1.00  0.00     0.052 A 
HETATM   40  C19 UNL     1       5.007  -2.649  -1.664  1.00  0.00     0.102 A 
HETATM   41  C20 UNL     1       4.981  -1.902  -2.825  1.00  0.00     0.132 A 
HETATM   42  C21 UNL     1       3.969  -0.996  -3.062  1.00  0.00     0.102 A 
HETATM   43  C22 UNL     1       2.963  -0.849  -2.096  1.00  0.00     0.052 A 
BRANCH  40  44
HETATM   44  O13 UNL     1       6.020  -3.563  -1.411  1.00  0.00    -0.358 OA
ATOM     45  H13 UNL     1       6.714  -3.682  -2.049  1.00  0.00     0.217 HD
ENDBRANCH  40  44
BRANCH  41  46
HETATM   46  O14 UNL     1       5.989  -2.051  -3.800  1.00  0.00    -0.356 OA
ATOM     47  H14 UNL     1       5.971  -1.537  -4.599  1.00  0.00     0.218 HD
ENDBRANCH  41  46
BRANCH  42  48
HETATM   48  O15 UNL     1       3.963  -0.259  -4.233  1.00  0.00    -0.358 OA
ATOM     49  H15 UNL     1       3.266   0.365  -4.396  1.00  0.00     0.217 HD
ENDBRANCH  42  48
ENDBRANCH   7  38
BRANCH   1  50
HETATM   50  O1  UNL     1       3.581  -0.175   1.164  1.00  0.00    -0.382 OA
HETATM   51  C1  UNL     1       4.550  -0.561   2.021  1.00  0.00     0.202 C 
ENDBRANCH   1  50
TORSDOF 21
