REMARK  11 active torsions:
REMARK  status: ('A' for Active; 'I' for Inactive)
REMARK    1  A    between atoms: C2_7  and  C3_8 
REMARK    2  A    between atoms: C3_8  and  S1_9 
REMARK    3  A    between atoms: S1_9  and  C4_10 
REMARK    4  A    between atoms: C8_16  and  N3_17 
REMARK    5  A    between atoms: N3_17  and  C9_19 
REMARK    6  A    between atoms: C9_19  and  C10_20 
REMARK    7  A    between atoms: C10_20  and  C11_21 
REMARK    8  A    between atoms: C12_30  and  O2_31 
REMARK    9  A    between atoms: C13_33  and  O3_34 
REMARK   10  A    between atoms: C14_36  and  N8_37 
REMARK   11  A    between atoms: C17_46  and  O4_47 
ROOT
HETATM    1  C4  UNL     1       1.994  -1.174  -0.741  1.00  0.00     0.159 C 
HETATM    2  S2  UNL     1       2.067  -1.217  -2.456  1.00  0.00    -0.145 SA
HETATM    3  C5  UNL     1       0.960  -0.816  -3.686  1.00  0.00     0.110 C 
HETATM    4  C6  UNL     1      -0.213   0.077  -3.378  1.00  0.00     0.163 C 
HETATM    5  O1  UNL     1      -1.442  -0.428  -3.354  1.00  0.00    -0.380 OA
HETATM    6  C7  UNL     1      -2.306  -0.272  -2.298  1.00  0.00     0.197 C 
HETATM    7  C8  UNL     1      -1.744  -0.421  -0.901  1.00  0.00     0.147 C 
HETATM    8  C12 UNL     1      -0.283  -0.662  -1.115  1.00  0.00     0.150 C 
HETATM    9  C13 UNL     1       0.133   0.521  -1.942  1.00  0.00     0.190 C 
HETATM   10  C14 UNL     1       0.622  -1.095  -0.063  1.00  0.00     0.077 C 
ENDROOT
BRANCH   7  11
HETATM   11  N3  UNL     1      -2.381  -1.279  -0.010  1.00  0.00    -0.392 N 
ATOM     12  H3  UNL     1      -1.932  -2.141   0.299  1.00  0.00     0.159 HD
BRANCH  11  13
HETATM   13  C9  UNL     1      -3.661  -0.926   0.454  1.00  0.00     0.063 C 
BRANCH  13  14
HETATM   14  C10 UNL     1      -4.823  -0.932  -0.478  1.00  0.00     0.123 C 
BRANCH  14  15
HETATM   15  C11 UNL     1      -6.093  -0.566   0.275  1.00  0.00     0.117 A 
HETATM   16  N4  UNL     1      -6.938  -1.407   0.891  1.00  0.00    -0.272 N 
HETATM   17  N5  UNL     1      -7.919  -0.664   1.427  1.00  0.00    -0.227 N 
ATOM     18  H4  UNL     1      -6.851  -2.422   0.942  1.00  0.00     0.190 HD
HETATM   19  N6  UNL     1      -7.712   0.604   1.166  1.00  0.00    -0.227 N 
ATOM     20  H5  UNL     1      -8.708  -1.031   1.958  1.00  0.00     0.210 HD
HETATM   21  N7  UNL     1      -6.605   0.669   0.467  1.00  0.00    -0.272 N 
ATOM     22  H6  UNL     1      -8.299   1.388   1.452  1.00  0.00     0.210 HD
ATOM     23  H7  UNL     1      -6.188   1.532   0.117  1.00  0.00     0.190 HD
ENDBRANCH  14  15
ENDBRANCH  13  14
ENDBRANCH  11  13
ENDBRANCH   7  11
BRANCH   8  24
HETATM   24  O2  UNL     1      -0.405  -1.866  -1.914  1.00  0.00    -0.379 OA
ATOM     25  H2  UNL     1       0.523  -2.019  -2.050  1.00  0.00     0.211 HD
ENDBRANCH   8  24
BRANCH   9  26
HETATM   26  O3  UNL     1      -0.733   1.638  -1.851  1.00  0.00    -0.389 OA
ATOM     27  H3  UNL     1      -0.520   1.911  -0.967  1.00  0.00     0.210 HD
ENDBRANCH   9  26
BRANCH  10  28
HETATM   28  N8  UNL     1       0.596  -0.578   1.258  1.00  0.00    -0.234 N 
HETATM   29  N9  UNL     1       0.439  -1.317   2.382  1.00  0.00    -0.276 N 
HETATM   30  C15 UNL     1       0.443  -0.586   3.493  1.00  0.00     0.143 A 
ATOM     31  H9  UNL     1       0.329  -2.331   2.377  1.00  0.00     0.189 HD
HETATM   32  N10 UNL     1       0.311  -1.016   4.720  1.00  0.00    -0.383 N 
HETATM   33  C16 UNL     1       0.611   0.705   3.116  1.00  0.00     0.143 A 
ATOM     34 2H10 UNL     1       0.185  -1.988   5.004  1.00  0.00     0.157 HD
ATOM     35 1H10 UNL     1       0.314  -0.455   5.572  1.00  0.00     0.157 HD
HETATM   36  N11 UNL     1       0.672   1.817   3.992  1.00  0.00    -0.094 NA
HETATM   37  C17 UNL     1       0.701   0.672   1.738  1.00  0.00     0.190 A 
BRANCH  37  38
HETATM   38  O4  UNL     1       0.878   1.821   1.007  1.00  0.00    -0.343 OA
ATOM     39  H4  UNL     1       0.952   2.705   1.347  1.00  0.00     0.219 HD
ENDBRANCH  37  38
ENDBRANCH  10  28
BRANCH   1  40
HETATM   40  S1  UNL     1       3.143   0.105  -0.153  1.00  0.00    -0.140 SA
BRANCH  40  41
HETATM   41  C3  UNL     1       4.851  -0.257  -0.484  1.00  0.00     0.153 C 
BRANCH  41  42
HETATM   42  C2  UNL     1       5.684   0.849   0.045  1.00  0.00     0.114 A 
HETATM   43  N2  UNL     1       6.241   0.957   1.262  1.00  0.00    -0.308 N 
HETATM   44  C1  UNL     1       6.919   2.100   1.373  1.00  0.00     0.242 A 
ATOM     45  H2  UNL     1       6.157   0.259   2.001  1.00  0.00     0.170 HD
HETATM   46  N1  UNL     1       7.562   2.518   2.379  1.00  0.00    -0.364 N 
HETATM   47  O5  UNL     1       6.784   2.708   0.221  1.00  0.00    -0.200 OA
ATOM     48  H12 UNL     1       7.667   2.044   3.276  1.00  0.00     0.159 HD
ATOM     49  H11 UNL     1       8.081   3.392   2.464  1.00  0.00     0.159 HD
HETATM   50  N12 UNL     1       6.056   1.987  -0.582  1.00  0.00    -0.244 N 
ATOM     51  H12 UNL     1       5.805   2.242  -1.537  1.00  0.00     0.196 HD
ENDBRANCH  41  42
ENDBRANCH  40  41
ENDBRANCH   1  40
TORSDOF 11
