REMARK  8 active torsions:
REMARK  status: ('A' for Active; 'I' for Inactive)
REMARK    1  A    between atoms: C1_2  and  N1_3 
REMARK    2  A    between atoms: C1_2  and  N4_17 
REMARK    3  A    between atoms: N1_3  and  N2_5 
REMARK    4  A    between atoms: C2_7  and  C3_8 
REMARK    5  A    between atoms: C3_8  and  C4_9 
REMARK    6  A    between atoms: C4_9  and  C5_10 
REMARK    7  A    between atoms: C5_10  and  N3_11 
REMARK    8  A    between atoms: N4_17  and  C10_19 
ROOT
HETATM    1  N1  UNL     1      -0.751  -0.230   0.204  1.00  0.00    -0.277 N 
ATOM      2  H1  UNL     1      -1.117  -0.837   0.937  1.00  0.00     0.189 HD
ENDROOT
BRANCH   1   3
HETATM    3  C1  UNL     1      -1.578   0.042  -0.894  1.00  0.00     0.187 C 
HETATM    4  S1  UNL     1      -0.888   1.033  -2.046  1.00  0.00    -0.040 SA
BRANCH   3   5
HETATM    5  N4  UNL     1      -2.874  -0.401  -1.140  1.00  0.00    -0.357 N 
ATOM      6  H4  UNL     1      -3.282  -0.087  -2.021  1.00  0.00     0.162 HD
BRANCH   5   7
HETATM    7  C10 UNL     1      -3.720  -1.235  -0.336  1.00  0.00     0.117 C 
HETATM    8  C11 UNL     1      -4.924  -1.688  -1.251  1.00  0.00     0.109 C 
HETATM    9  C12 UNL     1      -5.902  -0.717  -1.013  1.00  0.00    -0.180 C 
HETATM   10  C13 UNL     1      -7.090   0.032  -1.118  1.00  0.00     0.083 C 
HETATM   11  C14 UNL     1      -6.976   1.056   0.064  1.00  0.00     0.038 C 
HETATM   12  C15 UNL     1      -5.610   1.462   0.418  1.00  0.00    -0.026 C 
HETATM   13  C16 UNL     1      -4.649   0.687   1.194  1.00  0.00    -0.006 C 
HETATM   14  C17 UNL     1      -4.168  -0.646   0.940  1.00  0.00    -0.001 C 
ENDBRANCH   5   7
ENDBRANCH   3   5
ENDBRANCH   1   3
BRANCH   1  15
HETATM   15  N2  UNL     1       0.545   0.276   0.361  1.00  0.00    -0.314 N 
HETATM   16  C2  UNL     1       1.529  -0.453   0.753  1.00  0.00     0.080 C 
ATOM     17  H2  UNL     1       0.715   1.261   0.157  1.00  0.00     0.185 HD
BRANCH  16  18
HETATM   18  C3  UNL     1       2.863   0.178   0.888  1.00  0.00     0.048 C 
BRANCH  18  19
HETATM   19  C4  UNL     1       3.388   0.585  -0.481  1.00  0.00     0.035 C 
BRANCH  19  20
HETATM   20  C5  UNL     1       4.755   1.230  -0.367  1.00  0.00     0.273 C 
BRANCH  20  21
HETATM   21  N3  UNL     1       5.718   0.319   0.226  1.00  0.00     0.092 N 
HETATM   22  C6  UNL     1       6.025  -0.795  -0.634  1.00  0.00     0.298 C 
HETATM   23  C7  UNL     1       7.093  -1.622   0.085  1.00  0.00     0.198 C 
HETATM   24  O1  UNL     1       8.265  -0.920   0.273  1.00  0.00    -0.388 OA
HETATM   25  C8  UNL     1       8.161   0.415  -0.070  1.00  0.00     0.198 C 
HETATM   26  C9  UNL     1       6.917   1.055   0.528  1.00  0.00     0.298 C 
ENDBRANCH  20  21
ENDBRANCH  19  20
ENDBRANCH  18  19
ENDBRANCH  16  18
ENDBRANCH   1  15
TORSDOF 8
