REMARK  10 active torsions:
REMARK  status: ('A' for Active; 'I' for Inactive)
REMARK    1  A    between atoms: C2_2  and  C3_3 
REMARK    2  A    between atoms: C3_3  and  C4_4 
REMARK    3  A    between atoms: C5_5  and  C6_6 
REMARK    4  A    between atoms: C6_6  and  C7_7 
REMARK    5  A    between atoms: C7_7  and  C8_8 
REMARK    6  A    between atoms: C8_8  and  O1_9 
REMARK    7  A    between atoms: C15_17  and  C16_18 
REMARK    8  A    between atoms: C16_18  and  C17_19 
REMARK    9  A    between atoms: C17_19  and  S1_20 
REMARK   10  A    between atoms: N1_24  and  O3_25 
ROOT
HETATM    1  C8  UNL     1      -0.237  -0.318  -1.637  1.00  0.00     0.090 C 
HETATM    2  C9  UNL     1      -0.321   1.055  -2.263  1.00  0.00     0.019 C 
HETATM    3  C10 UNL     1       0.004   1.034  -3.740  1.00  0.00     0.013 C 
HETATM    4  C11 UNL     1      -1.686   1.689  -2.120  1.00  0.00     0.007 C 
HETATM    5  C12 UNL     1      -2.806   0.737  -2.519  1.00  0.00     0.003 C 
HETATM    6  C13 UNL     1      -2.714  -0.534  -1.745  1.00  0.00     0.038 C 
HETATM    7  C14 UNL     1      -1.481  -0.603  -0.873  1.00  0.00     0.106 C 
HETATM    8  C15 UNL     1      -1.640  -0.050   0.481  1.00  0.00     0.115 C 
HETATM    9  C19 UNL     1      -1.071  -1.304   0.969  1.00  0.00     0.251 C 
HETATM   10  O2  UNL     1      -0.500  -1.771   1.993  1.00  0.00    -0.271 OA
HETATM   11  N1  UNL     1      -1.417  -1.917  -0.265  1.00  0.00    -0.214 N 
ENDROOT
BRANCH   1  12
HETATM   12  C7  UNL     1       1.026  -0.536  -0.874  1.00  0.00     0.053 C 
BRANCH  12  13
HETATM   13  C6  UNL     1       2.266  -0.290  -1.691  1.00  0.00     0.097 C 
BRANCH  13  14
HETATM   14  C5  UNL     1       3.416  -0.549  -0.791  1.00  0.00    -0.106 C 
HETATM   15  C4  UNL     1       4.346  -0.742  -0.048  1.00  0.00    -0.107 C 
BRANCH  15  16
HETATM   16  C3  UNL     1       5.465  -0.984   0.872  1.00  0.00     0.093 C 
BRANCH  16  17
HETATM   17  C2  UNL     1       5.308  -0.152   2.144  1.00  0.00     0.007 C 
HETATM   18  C1  UNL     1       6.504  -0.474   3.016  1.00  0.00     0.006 C 
ENDBRANCH  16  17
ENDBRANCH  15  16
ENDBRANCH  13  14
ENDBRANCH  12  13
ENDBRANCH   1  12
BRANCH   1  19
HETATM   19  O1  UNL     1      -0.211  -1.226  -2.725  1.00  0.00    -0.387 OA
ATOM     20  H1  UNL     1      -1.015  -1.087  -3.211  1.00  0.00     0.210 HD
ENDBRANCH   1  19
BRANCH   8  21
HETATM   21  C16 UNL     1      -3.074   0.093   0.942  1.00  0.00     0.027 C 
BRANCH  21  22
HETATM   22  C17 UNL     1      -3.074   0.677   2.362  1.00  0.00     0.074 C 
BRANCH  22  23
HETATM   23  S1  UNL     1      -4.804   0.856   2.935  1.00  0.00    -0.173 SA
HETATM   24  C18 UNL     1      -4.838   1.537   4.594  1.00  0.00     0.089 C 
ENDBRANCH  22  23
ENDBRANCH  21  22
ENDBRANCH   8  21
BRANCH  11  25
HETATM   25  O3  UNL     1      -1.600  -3.210  -0.654  1.00  0.00    -0.284 OA
ATOM     26  H3  UNL     1      -1.558  -4.071  -0.255  1.00  0.00     0.245 HD
ENDBRANCH  11  25
TORSDOF 10
