REMARK  6 active torsions:
REMARK  status: ('A' for Active; 'I' for Inactive)
REMARK    1  A    between atoms: C2_2  and  C3_3 
REMARK    2  A    between atoms: C3_3  and  C4_4 
REMARK    3  A    between atoms: C4_4  and  C5_5 
REMARK    4  A    between atoms: C5_5  and  C6_6 
REMARK    5  A    between atoms: C6_6  and  N1_7 
REMARK    6  A    between atoms: N4_21  and  C16_22 
ROOT
HETATM    1  N1  UNL     1       2.297   0.923  -1.195  1.00  0.00    -0.380 N 
ATOM      2  H1  UNL     1       2.393   0.766  -2.198  1.00  0.00     0.160 HD
HETATM    3  C7  UNL     1       1.135   0.857  -0.682  1.00  0.00     0.073 C 
HETATM    4  C8  UNL     1       0.741   1.047   0.750  1.00  0.00     0.078 C 
HETATM    5  C9  UNL     1      -0.755   0.761   0.755  1.00  0.00     0.041 C 
HETATM    6  C10 UNL     1      -1.169   1.069  -0.630  1.00  0.00     0.066 C 
HETATM    7  C11 UNL     1      -1.380   2.509  -0.939  1.00  0.00     0.034 C 
HETATM    8  C12 UNL     1      -2.145   2.494  -2.221  1.00  0.00     0.006 C 
HETATM    9  C13 UNL     1      -2.634   1.092  -2.454  1.00  0.00     0.044 C 
HETATM   10  C14 UNL     1      -2.402   0.399  -1.108  1.00  0.00     0.139 A 
HETATM   11  N2  UNL     1      -2.326  -1.015  -1.234  1.00  0.00    -0.344 N 
ATOM     12  H2  UNL     1      -1.596  -1.506  -1.750  1.00  0.00     0.163 HD
HETATM   13  C15 UNL     1      -3.294  -1.600  -0.616  1.00  0.00     0.194 A 
HETATM   14  N3  UNL     1      -3.502  -3.015  -0.552  1.00  0.00    -0.063 NA
HETATM   15  N4  UNL     1      -4.144  -0.648   0.005  1.00  0.00    -0.286 N 
HETATM   16  C19 UNL     1      -3.593   0.622  -0.297  1.00  0.00     0.257 A 
HETATM   17  O1  UNL     1      -4.067   1.714   0.078  1.00  0.00    -0.270 OA
HETATM   18  N5  UNL     1      -0.043   0.576  -1.426  1.00  0.00    -0.368 N 
ATOM     19  H5  UNL     1      -0.094   0.120  -2.337  1.00  0.00     0.161 HD
ENDROOT
BRANCH  15  20
HETATM   20  C16 UNL     1      -5.345  -0.952   0.794  1.00  0.00     0.087 C 
HETATM   21  C17 UNL     1      -6.397  -1.615  -0.101  1.00  0.00     0.032 C 
HETATM   22  C18 UNL     1      -5.057  -1.902   1.914  1.00  0.00     0.032 C 
ENDBRANCH  15  20
BRANCH   1  23
HETATM   23  C6  UNL     1       3.498   1.212  -0.423  1.00  0.00     0.121 C 
BRANCH  23  24
HETATM   24  C5  UNL     1       4.683   0.496  -1.018  1.00  0.00     0.020 C 
BRANCH  24  25
HETATM   25  C4  UNL     1       5.915   0.810  -0.247  1.00  0.00     0.002 C 
BRANCH  25  26
HETATM   26  C3  UNL     1       5.814   0.400   1.175  1.00  0.00    -0.000 C 
BRANCH  26  27
HETATM   27  C2  UNL     1       5.566  -1.087   1.267  1.00  0.00    -0.005 C 
HETATM   28  C1  UNL     1       6.735  -1.783   0.588  1.00  0.00     0.005 C 
ENDBRANCH  26  27
ENDBRANCH  25  26
ENDBRANCH  24  25
ENDBRANCH  23  24
ENDBRANCH   1  23
TORSDOF 6
