REMARK  1 active torsions:
REMARK  status: ('A' for Active; 'I' for Inactive)
REMARK    1  A    between atoms: C2_2  and  C3_3 
ROOT
HETATM    1  C1  UNL     1      -0.416  -1.236  -0.040  1.00  0.00     0.011 C 
HETATM    2  C2  UNL     1      -0.962  -0.069   0.228  1.00  0.00     0.039 C 
HETATM    3  N1  UNL     1       0.098   0.804   0.571  1.00  0.00    -0.335 N 
ATOM      4  H1  UNL     1      -0.021   1.699   1.045  1.00  0.00     0.165 HD
HETATM    5  C7  UNL     1       1.382   0.254   0.158  1.00  0.00     0.252 C 
HETATM    6  C8  UNL     1       1.051  -1.221   0.104  1.00  0.00     0.123 C 
HETATM    7  O1  UNL     1       1.725   0.777  -1.076  1.00  0.00    -0.336 OA
HETATM    8  C9  UNL     1       3.090   0.476  -1.179  1.00  0.00     0.199 C 
HETATM    9  C10 UNL     1       3.538   0.254   0.252  1.00  0.00     0.199 C 
HETATM   10  O2  UNL     1       2.401   0.552   1.036  1.00  0.00    -0.336 OA
ENDROOT
BRANCH   2  11
HETATM   11  C3  UNL     1      -2.421   0.257   0.179  1.00  0.00    -0.003 A 
HETATM   12  C4  UNL     1      -3.365  -0.644  -0.159  1.00  0.00     0.021 A 
HETATM   13  C5  UNL     1      -4.665  -0.226  -0.168  1.00  0.00     0.050 A 
HETATM   14  S1  UNL     1      -4.544   1.409   0.292  1.00  0.00    -0.113 SA
HETATM   15  C6  UNL     1      -2.859   1.521   0.483  1.00  0.00     0.063 A 
ENDBRANCH   2  11
TORSDOF 1
