REMARK  3 active torsions:
REMARK  status: ('A' for Active; 'I' for Inactive)
REMARK    1  A    between atoms: C3_5  and  C4_6 
REMARK    2  A    between atoms: C4_6  and  C5_7 
REMARK    3  A    between atoms: C5_7  and  N1_8 
ROOT
HETATM    1  C1  UNL     1      -3.116  -0.843  -0.581  1.00  0.00     0.050 C 
HETATM    2  C2  UNL     1      -1.920   0.016  -0.247  1.00  0.00     0.102 C 
HETATM    3  O1  UNL     1      -2.312   1.304  -0.136  1.00  0.00    -0.303 OA
HETATM    4  S1  UNL     1      -0.894   2.263   0.163  1.00  0.00     0.028 SA
HETATM    5  C3  UNL     1       0.399   0.971   0.379  1.00  0.00     0.136 C 
HETATM    6  C6  UNL     1       0.487   0.270  -0.936  1.00  0.00     0.059 C 
HETATM    7  C7  UNL     1      -0.879  -0.249  -1.330  1.00  0.00     0.027 C 
HETATM    8  C8  UNL     1      -0.803  -1.777  -1.163  1.00  0.00     0.010 C 
HETATM    9  C9  UNL     1      -0.781  -1.940   0.340  1.00  0.00     0.035 C 
HETATM   10  C10 UNL     1      -1.218  -0.588   0.926  1.00  0.00     0.159 C 
HETATM   11  O2  UNL     1      -0.102   0.108   1.347  1.00  0.00    -0.359 OA
ENDROOT
BRANCH   5  12
HETATM   12  C4  UNL     1       1.634   1.647   0.819  1.00  0.00     0.079 C 
BRANCH  12  13
HETATM   13  C5  UNL     1       2.804   0.748   1.048  1.00  0.00     0.233 C 
BRANCH  13  14
HETATM   14  N1  UNL     1       3.927   1.590   1.476  1.00  0.00    -0.079 N 
ATOM     15  H13 UNL     1       4.128   2.347   0.823  1.00  0.00     0.274 HD
ATOM     16  H12 UNL     1       3.705   2.169   2.286  1.00  0.00     0.274 HD
ATOM     17  H11 UNL     1       4.726   0.976   1.632  1.00  0.00     0.274 HD
ENDBRANCH  13  14
ENDBRANCH  12  13
ENDBRANCH   5  12
TORSDOF 3
