REMARK  2 active torsions:
REMARK  status: ('A' for Active; 'I' for Inactive)
REMARK    1  A    between atoms: C8_11  and  C9_12 
REMARK    2  A    between atoms: C9_12  and  O4_13 
ROOT
HETATM    1  C1  UNL     1       2.398   2.045   0.069  1.00  0.00     0.049 C 
HETATM    2  C2  UNL     1       1.441   1.155   0.125  1.00  0.00     0.077 C 
HETATM    3  O1  UNL     1       0.156   1.249  -0.371  1.00  0.00    -0.316 OA
HETATM    4  C3  UNL     1      -0.467  -0.017  -0.084  1.00  0.00     0.175 C 
HETATM    5  C4  UNL     1      -1.462  -0.403  -1.129  1.00  0.00     0.095 C 
HETATM    6  C5  UNL     1      -2.629  -1.167  -0.555  1.00  0.00     0.173 C 
HETATM    7  O2  UNL     1      -3.303  -0.493   0.432  1.00  0.00    -0.391 OA
HETATM    8  C6  UNL     1      -2.573   0.514   1.012  1.00  0.00     0.173 C 
HETATM    9  C7  UNL     1      -1.145   0.037   1.270  1.00  0.00     0.095 C 
HETATM   10  O3  UNL     1       0.623  -0.907  -0.029  1.00  0.00    -0.335 OA
HETATM   11  C8  UNL     1       1.527  -0.181   0.748  1.00  0.00     0.248 C 
ENDROOT
BRANCH  11  12
HETATM   12  C9  UNL     1       2.863  -0.754   0.767  1.00  0.00     0.146 C 
HETATM   13  S1  UNL     1       3.555  -1.126   2.198  1.00  0.00    -0.055 SA
BRANCH  12  14
HETATM   14  O4  UNL     1       3.616  -1.015  -0.374  1.00  0.00    -0.352 OA
ATOM     15  H4  UNL     1       4.489  -1.389  -0.362  1.00  0.00     0.218 HD
ENDBRANCH  12  14
ENDBRANCH  11  12
TORSDOF 2
