REMARK  1 active torsions:
REMARK  status: ('A' for Active; 'I' for Inactive)
REMARK    1  A    between atoms: C3_4  and  C4_5 
ROOT
HETATM    1  C4  UNL     1       0.269  -0.873  -0.523  1.00  0.00     0.115 C 
HETATM    2  C5  UNL     1      -0.858  -0.982   0.517  1.00  0.00     0.039 C 
HETATM    3  C6  UNL     1      -1.982  -0.399  -0.313  1.00  0.00     0.045 C 
HETATM    4  C7  UNL     1      -3.117   0.158   0.408  1.00  0.00     0.022 C 
HETATM    5  C8  UNL     1      -3.748   1.298  -0.282  1.00  0.00     0.081 C 
HETATM    6  S2  UNL     1      -2.450   1.891  -1.423  1.00  0.00    -0.117 SA
HETATM    7  C9  UNL     1      -1.236   0.657  -1.029  1.00  0.00     0.047 C 
HETATM    8  N1  UNL     1      -0.010   0.373  -1.130  1.00  0.00    -0.380 N 
ATOM      9  H1  UNL     1       0.685   0.963  -1.588  1.00  0.00     0.160 HD
ENDROOT
BRANCH   1  10
HETATM   10  C3  UNL     1       1.613  -0.981   0.117  1.00  0.00     0.165 C 
HETATM   11  S1  UNL     1       2.953  -0.852  -1.102  1.00  0.00    -0.137 SA
HETATM   12  C2  UNL     1       3.990   0.226  -0.056  1.00  0.00     0.120 C 
HETATM   13  C1  UNL     1       2.959   0.809   0.844  1.00  0.00     0.067 C 
HETATM   14  N2  UNL     1       1.913  -0.056   1.113  1.00  0.00    -0.386 N 
ATOM     15  H2  UNL     1       1.393  -0.018   1.989  1.00  0.00     0.159 HD
ENDBRANCH   1  10
TORSDOF 1
