REMARK  3 active torsions:
REMARK  status: ('A' for Active; 'I' for Inactive)
REMARK    1  A    between atoms: C2_2  and  O1_4 
REMARK    2  A    between atoms: O1_4  and  C4_5 
REMARK    3  A    between atoms: C5_6  and  O2_7 
ROOT
HETATM    1  C4  UNL     1      -0.822   0.115   0.980  1.00  0.00     0.188 C 
HETATM    2  C5  UNL     1      -0.929   1.564   0.588  1.00  0.00     0.152 C 
HETATM    3  C6  UNL     1       0.305   1.693  -0.320  1.00  0.00     0.069 C 
HETATM    4  C7  UNL     1       1.345   1.152   0.641  1.00  0.00     0.159 C 
HETATM    5  O3  UNL     1       2.479   0.705  -0.015  1.00  0.00    -0.348 OA
HETATM    6  C8  UNL     1       2.419  -0.656  -0.095  1.00  0.00     0.158 C 
HETATM    7  C9  UNL     1       2.570  -1.077  -1.551  1.00  0.00     0.078 C 
HETATM    8  C10 UNL     1       3.566  -1.249   0.695  1.00  0.00     0.078 C 
HETATM    9  O4  UNL     1       1.188  -1.079   0.377  1.00  0.00    -0.345 OA
HETATM   10  C11 UNL     1       0.664  -0.084   1.164  1.00  0.00     0.186 C 
ENDROOT
BRANCH   1  11
HETATM   11  O1  UNL     1      -1.347  -0.710  -0.034  1.00  0.00    -0.346 OA
BRANCH  11  12
HETATM   12  C2  UNL     1      -2.673  -0.618  -0.452  1.00  0.00     0.034 C 
HETATM   13  C1  UNL     1      -3.020  -0.522  -1.713  1.00  0.00     0.045 C 
HETATM   14  C3  UNL     1      -3.727  -0.631   0.600  1.00  0.00     0.075 C 
ENDBRANCH  11  12
ENDBRANCH   1  11
BRANCH   2  15
HETATM   15  O2  UNL     1      -2.086   1.917  -0.047  1.00  0.00    -0.393 OA
ATOM     16  H2  UNL     1      -2.154   2.832  -0.294  1.00  0.00     0.210 HD
ENDBRANCH   2  15
TORSDOF 3
