REMARK  5 active torsions:
REMARK  status: ('A' for Active; 'I' for Inactive)
REMARK    1  A    between atoms: C3_4  and  C4_5 
REMARK    2  A    between atoms: C4_5  and  O1_8 
REMARK    3  A    between atoms: O1_8  and  O2_9 
REMARK    4  A    between atoms: O2_9  and  C7_10 
REMARK    5  A    between atoms: C11_14  and  O3_15 
ROOT
HETATM    1  C7  UNL     1       1.025   0.556   0.165  1.00  0.00     0.194 C 
HETATM    2  C8  UNL     1       1.481   0.977   1.553  1.00  0.00     0.082 C 
HETATM    3  C9  UNL     1       1.435   1.656  -0.783  1.00  0.00     0.073 C 
HETATM    4  C10 UNL     1       2.902   1.606  -1.120  1.00  0.00     0.040 C 
HETATM    5  C11 UNL     1       3.265   0.198  -1.500  1.00  0.00     0.152 C 
HETATM    6  C12 UNL     1       2.728  -0.840  -0.574  1.00  0.00     0.083 C 
HETATM    7  C13 UNL     1       2.805  -2.184  -1.315  1.00  0.00     0.048 C 
HETATM    8  C14 UNL     1       3.684  -0.962   0.596  1.00  0.00     0.048 C 
HETATM    9  O4  UNL     1       1.430  -0.685  -0.201  1.00  0.00    -0.340 OA
ENDROOT
BRANCH   1  10
HETATM   10  O2  UNL     1      -0.377   0.571   0.196  1.00  0.00    -0.200 OA
BRANCH  10  11
HETATM   11  O1  UNL     1      -0.850  -0.257   1.098  1.00  0.00    -0.225 OA
BRANCH  11  12
HETATM   12  C4  UNL     1      -2.218  -0.082   1.175  1.00  0.00     0.122 C 
HETATM   13  C5  UNL     1      -2.731  -1.141   2.155  1.00  0.00     0.051 C 
HETATM   14  C6  UNL     1      -2.624   1.259   1.696  1.00  0.00     0.051 C 
BRANCH  12  15
HETATM   15  C3  UNL     1      -2.914  -0.355  -0.137  1.00  0.00     0.287 A 
HETATM   16  N1  UNL     1      -4.335  -0.200  -0.163  1.00  0.00     0.096 N 
HETATM   17  C1  UNL     1      -5.162  -0.919  -1.079  1.00  0.00     0.310 C 
HETATM   18  C2  UNL     1      -3.529   0.856  -0.797  1.00  0.00     0.311 A 
ENDBRANCH  12  15
ENDBRANCH  11  12
ENDBRANCH  10  11
ENDBRANCH   1  10
BRANCH   5  19
HETATM   19  O3  UNL     1       4.673   0.134  -1.484  1.00  0.00    -0.393 OA
ATOM     20  H3  UNL     1       4.902  -0.756  -1.724  1.00  0.00     0.210 HD
ENDBRANCH   5  19
TORSDOF 5
