REMARK  3 active torsions:
REMARK  status: ('A' for Active; 'I' for Inactive)
REMARK    1  A    between atoms: C2_2  and  C10_17 
REMARK    2  A    between atoms: C3_3  and  C4_4 
REMARK    3  A    between atoms: C4_4  and  N1_5 
ROOT
HETATM    1  N1  UNL     1      -1.929  -0.164  -0.327  1.00  0.00    -0.326 N 
HETATM    2  C5  UNL     1      -1.993  -0.023  -1.715  1.00  0.00     0.195 A 
HETATM    3  N2  UNL     1      -0.971  -0.622  -2.511  1.00  0.00    -0.063 NA
HETATM    4  N3  UNL     1      -2.953   0.638  -2.335  1.00  0.00    -0.305 N 
ATOM      5  H3  UNL     1      -2.980   0.731  -3.350  1.00  0.00     0.171 HD
HETATM    6  C6  UNL     1      -3.945   1.211  -1.499  1.00  0.00     0.192 A 
HETATM    7  N4  UNL     1      -5.046   1.956  -2.063  1.00  0.00    -0.063 NA
HETATM    8  N5  UNL     1      -3.931   1.109  -0.233  1.00  0.00    -0.338 N 
ATOM      9  H5  UNL     1      -4.689   1.555   0.284  1.00  0.00     0.164 HD
HETATM   10  C7  UNL     1      -2.955   0.432   0.508  1.00  0.00     0.103 A 
HETATM   11  C8  UNL     1      -2.351   1.256   1.625  1.00  0.00     0.063 C 
HETATM   12  C9  UNL     1      -3.635  -0.749   1.233  1.00  0.00     0.063 C 
ENDROOT
BRANCH   1  13
HETATM   13  C4  UNL     1      -0.873  -0.883   0.381  1.00  0.00     0.155 C 
BRANCH  13  14
HETATM   14  C3  UNL     1       0.439  -0.289   0.362  1.00  0.00    -0.004 C 
HETATM   15  C2  UNL     1       1.528  -0.904  -0.023  1.00  0.00    -0.082 C 
HETATM   16  C1  UNL     1       1.496  -2.319  -0.483  1.00  0.00     0.043 C 
BRANCH  15  17
HETATM   17  C10 UNL     1       2.870  -0.252  -0.038  1.00  0.00     0.014 C 
HETATM   18  C11 UNL     1       2.851   1.169   0.437  1.00  0.00     0.009 C 
HETATM   19  C12 UNL     1       4.360   1.405   0.620  1.00  0.00     0.001 C 
HETATM   20  C13 UNL     1       4.707   0.204   1.485  1.00  0.00     0.001 C 
HETATM   21  C14 UNL     1       3.887  -0.914   0.827  1.00  0.00     0.009 C 
ENDBRANCH  15  17
ENDBRANCH  13  14
ENDBRANCH   1  13
TORSDOF 3
