REMARK  4 active torsions:
REMARK  status: ('A' for Active; 'I' for Inactive)
REMARK    1  A    between atoms: C3_3  and  C4_4 
REMARK    2  A    between atoms: C4_4  and  O1_5 
REMARK    3  A    between atoms: C4_4  and  C5_7 
REMARK    4  A    between atoms: C12_16  and  N1_17 
ROOT
HETATM    1  C4  UNL     1      -0.428   0.554   1.151  1.00  0.00     0.189 C 
ENDROOT
BRANCH   1   2
HETATM    2  C3  UNL     1      -1.647  -0.152   0.660  1.00  0.00     0.039 A 
HETATM    3  C2  UNL     1      -2.800   0.355   0.118  1.00  0.00     0.025 A 
HETATM    4  C1  UNL     1      -2.809   1.841  -0.261  1.00  0.00     0.069 C 
HETATM    5  N2  UNL     1      -3.796  -0.448  -0.077  1.00  0.00    -0.335 N 
HETATM    6  C12 UNL     1      -3.685  -1.728   0.260  1.00  0.00     0.144 A 
HETATM    7  C13 UNL     1      -5.030  -0.010  -0.794  1.00  0.00     0.158 C 
HETATM    8  S1  UNL     1      -2.057  -1.792   0.877  1.00  0.00    -0.054 SA
BRANCH   6   9
HETATM    9  N1  UNL     1      -4.541  -2.676   0.208  1.00  0.00    -0.379 N 
ATOM     10  H12 UNL     1      -4.456  -3.659   0.467  1.00  0.00     0.158 HD
ATOM     11  H11 UNL     1      -5.494  -2.639  -0.153  1.00  0.00     0.158 HD
ENDBRANCH   6   9
ENDBRANCH   1   2
BRANCH   1  12
HETATM   12  O1  UNL     1      -0.288   0.086   2.527  1.00  0.00    -0.388 OA
ATOM     13  H1  UNL     1       0.488   0.536   2.840  1.00  0.00     0.210 HD
ENDBRANCH   1  12
BRANCH   1  14
HETATM   14  C5  UNL     1       0.832   0.100   0.528  1.00  0.00     0.155 C 
HETATM   15  C6  UNL     1       0.996  -1.187  -0.110  1.00  0.00     0.035 C 
HETATM   16  C7  UNL     1       2.430  -1.715  -0.029  1.00  0.00     0.003 C 
HETATM   17  C8  UNL     1       3.418  -0.869  -0.732  1.00  0.00     0.002 C 
HETATM   18  C9  UNL     1       3.119   0.591  -0.804  1.00  0.00     0.031 C 
HETATM   19  C10 UNL     1       2.783   1.229   0.502  1.00  0.00     0.118 C 
HETATM   20  C11 UNL     1       4.103   1.500   1.236  1.00  0.00     0.039 C 
HETATM   21  O2  UNL     1       1.925   0.494   1.270  1.00  0.00    -0.378 OA
ENDBRANCH   1  14
TORSDOF 4
