REMARK  5 active torsions:
REMARK  status: ('A' for Active; 'I' for Inactive)
REMARK    1  A    between atoms: N1_1  and  C1_4 
REMARK    2  A    between atoms: C5_11  and  C6_12 
REMARK    3  A    between atoms: C6_12  and  O1_13 
REMARK    4  A    between atoms: O1_13  and  C7_14 
REMARK    5  A    between atoms: C7_14  and  C8_15 
ROOT
HETATM    1  C6  UNL     1       2.338  -0.921  -1.128  1.00  0.00     0.210 C 
ENDROOT
BRANCH   1   2
HETATM    2  C5  UNL     1       3.251  -0.139  -0.296  1.00  0.00     0.009 A 
HETATM    3  C1  UNL     1       4.543   0.132  -0.774  1.00  0.00     0.109 A 
HETATM    4  N2  UNL     1       5.419   0.801  -0.026  1.00  0.00    -0.319 N 
HETATM    5  C2  UNL     1       5.143   1.258   1.212  1.00  0.00     0.189 A 
ATOM      6  H2  UNL     1       6.347   0.977  -0.410  1.00  0.00     0.169 HD
HETATM    7  F1  UNL     1       6.028   1.937   1.972  1.00  0.00    -0.186 F 
HETATM    8  C3  UNL     1       3.897   1.027   1.741  1.00  0.00     0.062 A 
HETATM    9  C4  UNL     1       2.968   0.322   0.961  1.00  0.00     0.017 A 
BRANCH   3  10
HETATM   10  N1  UNL     1       4.898  -0.275  -1.966  1.00  0.00    -0.385 N 
ATOM     11  H12 UNL     1       5.837  -0.078  -2.313  1.00  0.00     0.157 HD
ATOM     12  H11 UNL     1       4.227  -0.787  -2.539  1.00  0.00     0.157 HD
ENDBRANCH   3  10
ENDBRANCH   1   2
BRANCH   1  13
HETATM   13  O1  UNL     1       1.060  -1.110  -0.679  1.00  0.00    -0.384 OA
BRANCH  13  14
HETATM   14  C7  UNL     1       0.335   0.040  -0.729  1.00  0.00     0.206 C 
BRANCH  14  15
HETATM   15  C8  UNL     1      -1.075  -0.108  -0.189  1.00  0.00     0.083 C 
HETATM   16  C9  UNL     1      -1.708   1.266  -0.255  1.00  0.00     0.045 C 
HETATM   17  C10 UNL     1      -3.130   1.160   0.248  1.00  0.00    -0.009 C 
HETATM   18  C11 UNL     1      -3.847   0.151  -0.613  1.00  0.00     0.009 C 
HETATM   19  C15 UNL     1      -3.043   0.698   1.696  1.00  0.00     0.037 C 
HETATM   20  C12 UNL     1      -3.226  -1.209  -0.477  1.00  0.00    -0.009 C 
HETATM   21  C13 UNL     1      -3.167  -1.612   0.971  1.00  0.00     0.037 C 
HETATM   22  C16 UNL     1      -1.799  -1.126  -1.007  1.00  0.00     0.045 C 
HETATM   23  C14 UNL     1      -2.282  -0.621   1.687  1.00  0.00     0.123 C 
HETATM   24  O2  UNL     1      -1.033  -0.509   1.141  1.00  0.00    -0.373 OA
ENDBRANCH  14  15
ENDBRANCH  13  14
ENDBRANCH   1  13
TORSDOF 5
