REMARK  2 active torsions:
REMARK  status: ('A' for Active; 'I' for Inactive)
REMARK    1  A    between atoms: N1_2  and  C3_4 
REMARK    2  A    between atoms: C6_7  and  C7_8 
ROOT
HETATM    1  C7  UNL     1      -0.943  -0.454   0.171  1.00  0.00     0.143 C 
HETATM    2  N2  UNL     1      -1.260  -1.491  -0.787  1.00  0.00    -0.217 N 
ATOM      3  H2  UNL     1      -0.532  -1.913  -1.364  1.00  0.00     0.178 HD
HETATM    4  C8  UNL     1      -2.611  -1.902  -0.900  1.00  0.00     0.668 C 
HETATM    5  N3  UNL     1      -2.962  -3.068  -1.305  1.00  0.00    -0.235 N 
ATOM      6  H31 UNL     1      -3.935  -3.364  -1.386  1.00  0.00     0.174 HD
ATOM      7  H32 UNL     1      -2.270  -3.770  -1.569  1.00  0.00     0.174 HD
HETATM    8  N4  UNL     1      -3.584  -0.915  -0.529  1.00  0.00    -0.217 N 
ATOM      9  H4  UNL     1      -4.561  -1.080  -0.769  1.00  0.00     0.178 HD
HETATM   10  C9  UNL     1      -3.246   0.287   0.161  1.00  0.00     0.049 C 
HETATM   11  C10 UNL     1      -3.575   0.124   1.632  1.00  0.00     0.039 C 
HETATM   12  C11 UNL     1      -4.153   1.393  -0.371  1.00  0.00     0.039 C 
HETATM   13  C12 UNL     1      -1.790   0.720  -0.039  1.00  0.00     0.003 C 
HETATM   14  C13 UNL     1      -1.596   1.809   1.017  1.00  0.00     0.020 C 
HETATM   15  C14 UNL     1      -1.722   1.305  -1.434  1.00  0.00     0.020 C 
ENDROOT
BRANCH   1  16
HETATM   16  C6  UNL     1       0.511  -0.308   0.168  1.00  0.00    -0.032 A 
HETATM   17  C5  UNL     1       1.245   0.824   0.056  1.00  0.00     0.011 A 
HETATM   18  C4  UNL     1       2.625   0.785   0.081  1.00  0.00     0.031 A 
HETATM   19  C3  UNL     1       3.344  -0.397   0.221  1.00  0.00     0.051 A 
HETATM   20  C16 UNL     1       2.601  -1.542   0.334  1.00  0.00     0.061 A 
HETATM   21  C15 UNL     1       1.219  -1.493   0.308  1.00  0.00     0.035 A 
HETATM   22 CL1  UNL     1       3.416  -3.085   0.523  1.00  0.00    -0.082 Cl
BRANCH  19  23
HETATM   23  N1  UNL     1       4.762  -0.325   0.223  1.00  0.00    -0.388 N 
HETATM   24  C1  UNL     1       5.389   1.003   0.198  1.00  0.00     0.149 C 
HETATM   25  C2  UNL     1       5.661  -1.448   0.237  1.00  0.00     0.149 C 
ENDBRANCH  19  23
ENDBRANCH   1  16
TORSDOF 2
