REMARK  3 active torsions:
REMARK  status: ('A' for Active; 'I' for Inactive)
REMARK    1  A    between atoms: O1_2  and  C2_3 
REMARK    2  A    between atoms: C10_14  and  C11_15 
REMARK    3  A    between atoms: C11_15  and  N2_16 
ROOT
HETATM    1  C2  UNL     1      -1.679   1.737   0.402  1.00  0.00     0.078 A 
HETATM    2  C3  UNL     1      -3.049   1.641   0.416  1.00  0.00     0.051 A 
HETATM    3  C4  UNL     1      -3.729   0.485   0.182  1.00  0.00    -0.003 A 
HETATM    4  C5  UNL     1      -5.057   0.115   0.135  1.00  0.00     0.038 A 
HETATM    5  C6  UNL     1      -5.136  -1.236  -0.158  1.00  0.00     0.006 A 
HETATM    6  C7  UNL     1      -6.374  -2.063  -0.306  1.00  0.00     0.068 C 
HETATM    7  N1  UNL     1      -3.864  -1.652  -0.281  1.00  0.00    -0.358 N 
ATOM      8  H1  UNL     1      -3.595  -2.612  -0.497  1.00  0.00     0.166 HD
HETATM    9  C8  UNL     1      -2.984  -0.645  -0.084  1.00  0.00     0.065 A 
HETATM   10  C9  UNL     1      -1.585  -0.605  -0.111  1.00  0.00     0.072 A 
HETATM   11 CL1  UNL     1      -0.776  -2.097  -0.458  1.00  0.00    -0.081 Cl
HETATM   12  C10 UNL     1      -0.945   0.573   0.130  1.00  0.00     0.017 A 
ENDROOT
BRANCH  12  13
HETATM   13  C11 UNL     1       0.526   0.651   0.109  1.00  0.00     0.164 C 
BRANCH  13  14
HETATM   14  N2  UNL     1       1.087  -0.642  -0.186  1.00  0.00    -0.372 N 
HETATM   15  C12 UNL     1       2.378  -0.732  -0.177  1.00  0.00     0.104 A 
HETATM   16  C13 UNL     1       3.142   0.383   0.107  1.00  0.00     0.072 A 
HETATM   17  N4  UNL     1       2.958  -1.896  -0.442  1.00  0.00    -0.333 N 
HETATM   18  C14 UNL     1       4.512   0.235   0.104  1.00  0.00     0.010 A 
HETATM   19  C15 UNL     1       5.383   1.407   0.404  1.00  0.00     0.068 C 
HETATM   20  N3  UNL     1       5.059  -0.984  -0.176  1.00  0.00    -0.350 N 
HETATM   21  C16 UNL     1       4.296  -2.057  -0.450  1.00  0.00     0.078 A 
ATOM     22  H3  UNL     1       6.074  -1.084  -0.177  1.00  0.00     0.167 HD
HETATM   23  C17 UNL     1       4.922  -3.389  -0.754  1.00  0.00     0.089 C 
ATOM     24  H4  UNL     1       2.367  -2.701  -0.648  1.00  0.00     0.168 HD
ATOM     25  H2  UNL     1       0.496  -1.447  -0.392  1.00  0.00     0.161 HD
ENDBRANCH  13  14
ENDBRANCH  12  13
BRANCH   1  26
HETATM   26  O1  UNL     1      -1.020   2.939   0.648  1.00  0.00    -0.355 OA
HETATM   27  C1  UNL     1      -1.717   4.115   0.922  1.00  0.00     0.210 C 
ENDBRANCH   1  26
TORSDOF 3
