REMARK  4 active torsions:
REMARK  status: ('A' for Active; 'I' for Inactive)
REMARK    1  A    between atoms: N1_2  and  C2_4 
REMARK    2  A    between atoms: C3_8  and  C4_9 
REMARK    3  A    between atoms: C4_9  and  S2_10 
REMARK    4  A    between atoms: S2_10  and  C5_11 
ROOT
HETATM    1  S2  UNL     1       0.043  -0.952  -0.709  1.00  0.00    -0.088 SA
ENDROOT
BRANCH   1   2
HETATM    2  C4  UNL     1       1.059   0.186   0.259  1.00  0.00     0.141 C 
BRANCH   2   3
HETATM    3  C3  UNL     1       2.532  -0.115   0.035  1.00  0.00     0.045 A 
HETATM    4  N2  UNL     1       2.894  -1.100  -0.780  1.00  0.00    -0.326 N 
HETATM    5  S1  UNL     1       4.571  -1.078  -0.731  1.00  0.00     0.005 SA
ATOM      6  H2  UNL     1       2.291  -1.726  -1.313  1.00  0.00     0.174 HD
HETATM    7  C2  UNL     1       4.795   0.216   0.353  1.00  0.00     0.105 A 
HETATM    8  C12 UNL     1       3.510   0.592   0.643  1.00  0.00     0.069 A 
HETATM    9 BR1  UNL     1       3.177   2.073   1.873  1.00  0.00    -0.046 Br
BRANCH   7  10
HETATM   10  N1  UNL     1       5.905   0.746   0.817  1.00  0.00    -0.386 N 
HETATM   11  C1  UNL     1       7.136   0.145   0.338  1.00  0.00     0.147 C 
ATOM     12  H1  UNL     1       5.901   1.529   1.471  1.00  0.00     0.159 HD
ENDBRANCH   7  10
ENDBRANCH   2   3
ENDBRANCH   1   2
BRANCH   1  13
HETATM   13  C5  UNL     1      -1.685  -0.615  -0.461  1.00  0.00     0.145 A 
HETATM   14  N3  UNL     1      -2.494  -1.151   0.479  1.00  0.00    -0.335 N 
HETATM   15  C6  UNL     1      -3.740  -0.665   0.369  1.00  0.00     0.061 A 
ATOM     16  H3  UNL     1      -2.198  -1.833   1.178  1.00  0.00     0.168 HD
HETATM   17  C7  UNL     1      -4.900  -0.900   1.084  1.00  0.00     0.032 A 
HETATM   18  C11 UNL     1      -3.729   0.216  -0.684  1.00  0.00     0.061 A 
HETATM   19  C8  UNL     1      -6.071  -0.234   0.730  1.00  0.00     0.002 A 
HETATM   20  C9  UNL     1      -6.085   0.658  -0.326  1.00  0.00     0.002 A 
HETATM   21  C10 UNL     1      -4.911   0.859  -1.006  1.00  0.00     0.032 A 
HETATM   22  N4  UNL     1      -2.477   0.230  -1.170  1.00  0.00    -0.335 N 
ATOM     23  H4  UNL     1      -2.165   0.795  -1.960  1.00  0.00     0.168 HD
ENDBRANCH   1  13
TORSDOF 4
