REMARK  6 active torsions:
REMARK  status: ('A' for Active; 'I' for Inactive)
REMARK    1  A    between atoms: C2_2  and  C3_3 
REMARK    2  A    between atoms: C4_4  and  C5_5 
REMARK    3  A    between atoms: C5_5  and  N1_6 
REMARK    4  A    between atoms: C9_13  and  O1_14 
REMARK    5  A    between atoms: N2_18  and  C12_19 
REMARK    6  A    between atoms: C12_19  and  C15_22 
ROOT
HETATM    1  C3  UNL     1       3.386   0.058  -0.645  1.00  0.00    -0.017 A 
HETATM    2  C4  UNL     1       3.144  -0.005   0.664  1.00  0.00    -0.023 A 
HETATM    3  C6  UNL     1       1.853   0.031   1.173  1.00  0.00     0.019 A 
HETATM    4  C7  UNL     1       0.817   0.151   0.218  1.00  0.00    -0.020 A 
HETATM    5  C8  UNL     1       1.074   0.203  -1.136  1.00  0.00    -0.015 A 
HETATM    6  C9  UNL     1       2.337   0.152  -1.586  1.00  0.00     0.079 A 
HETATM    7  C10 UNL     1      -0.119   0.019  -2.063  1.00  0.00     0.072 C 
HETATM    8  C11 UNL     1      -1.123  -0.718  -1.069  1.00  0.00     0.278 C 
HETATM    9  N2  UNL     1      -1.599   0.274  -0.203  1.00  0.00     0.103 N 
HETATM   10  C18 UNL     1      -0.549   0.507   0.754  1.00  0.00     0.312 C 
ENDROOT
BRANCH   9  11
HETATM   11  C12 UNL     1      -2.831   0.142   0.470  1.00  0.00     0.173 C 
HETATM   12  C13 UNL     1      -2.925   1.493   1.246  1.00  0.00     0.051 C 
HETATM   13  C14 UNL     1      -2.886  -0.932   1.516  1.00  0.00     0.051 C 
BRANCH  11  14
HETATM   14  C15 UNL     1      -4.094   0.180  -0.333  1.00  0.00     0.065 C 
HETATM   15  C16 UNL     1      -4.266  -0.871  -1.385  1.00  0.00     0.035 C 
HETATM   16  C17 UNL     1      -5.234  -0.090   0.675  1.00  0.00     0.035 C 
HETATM   17 CL1  UNL     1      -4.329   1.744  -1.073  1.00  0.00    -0.117 Cl
ENDBRANCH  11  14
ENDBRANCH   9  11
BRANCH   6  18
HETATM   18  O1  UNL     1       2.536   0.175  -2.942  1.00  0.00    -0.360 OA
ATOM     19  H1  UNL     1       1.830   0.238  -3.575  1.00  0.00     0.217 HD
ENDBRANCH   6  18
BRANCH   2  20
HETATM   20  C5  UNL     1       4.297  -0.141   1.681  1.00  0.00     0.268 C 
BRANCH  20  21
HETATM   21  N1  UNL     1       3.964  -1.497   2.306  1.00  0.00    -0.075 N 
ATOM     22  H13 UNL     1       3.024  -1.586   2.691  1.00  0.00     0.274 HD
ATOM     23  H12 UNL     1       3.862  -2.271   1.650  1.00  0.00     0.274 HD
ATOM     24  H11 UNL     1       4.726  -1.587   2.978  1.00  0.00     0.274 HD
ENDBRANCH  20  21
ENDBRANCH   2  20
BRANCH   1  25
HETATM   25  C2  UNL     1       4.788   0.018  -1.148  1.00  0.00     0.037 C 
HETATM   26  C1  UNL     1       5.296   1.458  -0.870  1.00  0.00     0.010 C 
ENDBRANCH   1  25
TORSDOF 6
