REMARK  9 active torsions:
REMARK  status: ('A' for Active; 'I' for Inactive)
REMARK    1  A    between atoms: C4_7  and  C5_8 
REMARK    2  A    between atoms: C5_8  and  C6_9 
REMARK    3  A    between atoms: N3_14  and  C8_15 
REMARK    4  A    between atoms: N5_24  and  C15_26 
REMARK    5  A    between atoms: C18_29  and  C19_30 
REMARK    6  A    between atoms: C19_30  and  O3_31 
REMARK    7  A    between atoms: C19_30  and  N6_33 
REMARK    8  A    between atoms: N6_33  and  C20_34 
REMARK    9  A    between atoms: N6_33  and  C23_37 
ROOT
HETATM    1  C1  UNL     1      -0.071   2.637  -0.934  1.00  0.00     0.047 C 
HETATM    2  C2  UNL     1       0.919   2.115  -1.628  1.00  0.00     0.070 A 
HETATM    3  N1  UNL     1       1.878   2.947  -2.127  1.00  0.00    -0.319 N 
ATOM      4  H1  UNL     1       1.805   3.948  -1.945  1.00  0.00     0.169 HD
HETATM    5  C3  UNL     1       2.914   2.493  -2.850  1.00  0.00     0.272 A 
HETATM    6  O1  UNL     1       3.765   3.309  -3.283  1.00  0.00    -0.266 OA
HETATM    7  C4  UNL     1       3.068   1.153  -3.131  1.00  0.00     0.104 A 
HETATM    8  N4  UNL     1       2.143   0.336  -2.653  1.00  0.00    -0.336 N 
ATOM      9  H4  UNL     1       2.231  -0.662  -2.847  1.00  0.00     0.168 HD
HETATM   10  C14 UNL     1       1.055   0.771  -1.898  1.00  0.00     0.133 A 
HETATM   11  N5  UNL     1       0.286  -0.077  -1.502  1.00  0.00    -0.341 N 
ATOM     12  H5  UNL     1       0.667  -0.947  -1.873  1.00  0.00     0.167 HD
ENDROOT
BRANCH  11  13
HETATM   13  C15 UNL     1      -0.815  -0.466  -0.823  1.00  0.00     0.033 A 
HETATM   14  C16 UNL     1      -0.750  -0.760   0.545  1.00  0.00     0.030 A 
HETATM   15  C17 UNL     1      -1.864  -1.151   1.233  1.00  0.00     0.018 A 
HETATM   16  C18 UNL     1      -3.092  -1.282   0.671  1.00  0.00     0.015 A 
HETATM   17  C26 UNL     1      -3.163  -0.991  -0.702  1.00  0.00     0.018 A 
HETATM   18  C27 UNL     1      -2.074  -0.597  -1.433  1.00  0.00     0.030 A 
BRANCH  16  19
HETATM   19  C19 UNL     1      -4.305  -1.591   1.358  1.00  0.00     0.149 C 
BRANCH  19  20
HETATM   20  O3  UNL     1      -5.259  -2.033   0.547  1.00  0.00    -0.346 OA
ATOM     21  H3  UNL     1      -6.066  -2.239   1.004  1.00  0.00     0.219 HD
ENDBRANCH  19  20
BRANCH  19  22
HETATM   22  N6  UNL     1      -4.680  -1.520   2.691  1.00  0.00    -0.353 N 
BRANCH  22  23
HETATM   23  C20 UNL     1      -6.019  -2.039   3.045  1.00  0.00     0.078 C 
HETATM   24  C21 UNL     1      -7.111  -1.328   2.310  1.00  0.00     0.032 C 
HETATM   25  C22 UNL     1      -6.027  -3.541   2.746  1.00  0.00     0.032 C 
ENDBRANCH  22  23
BRANCH  22  26
HETATM   26  C23 UNL     1      -3.976  -0.897   3.752  1.00  0.00     0.078 C 
HETATM   27  C24 UNL     1      -4.860   0.125   4.478  1.00  0.00     0.032 C 
HETATM   28  C25 UNL     1      -3.594  -1.892   4.849  1.00  0.00     0.032 C 
ENDBRANCH  22  26
ENDBRANCH  19  22
ENDBRANCH  16  19
ENDBRANCH  11  13
BRANCH   7  29
HETATM   29  C5  UNL     1       4.088   0.673  -3.838  1.00  0.00     0.069 C 
BRANCH  29  30
HETATM   30  C6  UNL     1       5.150   1.471  -4.394  1.00  0.00     0.085 A 
HETATM   31  C7  UNL     1       5.159   2.046  -5.675  1.00  0.00     0.201 A 
HETATM   32  O2  UNL     1       6.319   2.679  -5.785  1.00  0.00    -0.232 OA
HETATM   33  N2  UNL     1       6.994   2.529  -4.688  1.00  0.00    -0.195 N 
HETATM   34  N3  UNL     1       6.320   1.809  -3.831  1.00  0.00    -0.235 N 
ATOM     35  H2  UNL     1       7.921   2.919  -4.518  1.00  0.00     0.217 HD
BRANCH  34  36
HETATM   36  C8  UNL     1       6.734   1.431  -2.524  1.00  0.00     0.058 A 
HETATM   37  C9  UNL     1       6.710   0.107  -2.107  1.00  0.00     0.031 A 
HETATM   38  C10 UNL     1       7.110  -0.259  -0.843  1.00  0.00     0.002 A 
HETATM   39  C11 UNL     1       7.546   0.696   0.043  1.00  0.00     0.000 A 
HETATM   40  C12 UNL     1       7.575   2.012  -0.357  1.00  0.00     0.002 A 
HETATM   41  C13 UNL     1       7.177   2.389  -1.621  1.00  0.00     0.031 A 
ENDBRANCH  34  36
ENDBRANCH  29  30
ENDBRANCH   7  29
TORSDOF 9
