REMARK  10 active torsions:
REMARK  status: ('A' for Active; 'I' for Inactive)
REMARK    1  A    between atoms: C7_7  and  N1_8 
REMARK    2  A    between atoms: N1_8  and  S1_10 
REMARK    3  A    between atoms: S1_10  and  C9_13 
REMARK    4  A    between atoms: C12_16  and  C13_17 
REMARK    5  A    between atoms: C13_17  and  N2_18 
REMARK       I    between atoms: N2_18  and  C14_20 
REMARK    6  A    between atoms: C14_20  and  C15_22 
REMARK       I    between atoms: C15_22  and  N3_24 
REMARK    7  A    between atoms: N3_24  and  N4_26 
REMARK    8  A    between atoms: N4_26  and  C17_28 
REMARK    9  A    between atoms: C17_28  and  O5_29 
REMARK   10  A    between atoms: C17_28  and  C18_31 
ROOT
HETATM    1  C13 UNL     1       0.282  -3.484  -0.550  1.00  0.00     0.161 C 
ENDROOT
BRANCH   1   2
HETATM    2  C12 UNL     1      -0.771  -2.443  -0.652  1.00  0.00    -0.040 A 
HETATM    3  C11 UNL     1      -2.049  -2.804  -1.094  1.00  0.00     0.010 A 
HETATM    4  C10 UNL     1      -3.054  -1.867  -1.202  1.00  0.00     0.026 A 
HETATM    5  C9  UNL     1      -2.856  -0.535  -0.885  1.00  0.00     0.080 A 
HETATM    6  C25 UNL     1      -1.601  -0.168  -0.449  1.00  0.00     0.026 A 
HETATM    7  C24 UNL     1      -0.584  -1.117  -0.339  1.00  0.00     0.010 A 
BRANCH   5   8
HETATM    8  S1  UNL     1      -4.159   0.633  -1.032  1.00  0.00     0.265 S 
HETATM    9  O1  UNL     1      -5.086   0.241  -2.156  1.00  0.00    -0.200 OA
HETATM   10  O2  UNL     1      -3.625   2.011  -1.376  1.00  0.00    -0.200 OA
BRANCH   8  11
HETATM   11  N1  UNL     1      -5.038   0.775   0.445  1.00  0.00    -0.276 N 
HETATM   12  C8  UNL     1      -4.266   1.242   1.598  1.00  0.00     0.170 C 
BRANCH  11  13
HETATM   13  C7  UNL     1      -6.419   0.468   0.561  1.00  0.00     0.050 A 
HETATM   14  C2  UNL     1      -7.319   1.486   0.335  1.00  0.00    -0.035 A 
HETATM   15  C1  UNL     1      -6.860   2.857  -0.019  1.00  0.00     0.050 C 
HETATM   16  C3  UNL     1      -8.672   1.217   0.443  1.00  0.00     0.009 A 
HETATM   17  C4  UNL     1      -9.118  -0.057   0.773  1.00  0.00     0.001 A 
HETATM   18  C5  UNL     1      -8.205  -1.066   0.996  1.00  0.00     0.002 A 
HETATM   19  C6  UNL     1      -6.852  -0.820   0.895  1.00  0.00     0.031 A 
ENDBRANCH  11  13
ENDBRANCH   8  11
ENDBRANCH   5   8
ENDBRANCH   1   2
BRANCH   1  20
HETATM   20  N2  UNL     1       1.519  -3.027   0.001  1.00  0.00    -0.349 N 
HETATM   21  C14 UNL     1       2.405  -2.272  -0.801  1.00  0.00     0.311 C 
HETATM   22  O3  UNL     1       2.115  -2.005  -1.983  1.00  0.00    -0.262 OA
ATOM     23  H2  UNL     1       1.761  -3.244   0.968  1.00  0.00     0.163 HD
BRANCH  21  24
HETATM   24  C15 UNL     1       3.659  -1.808  -0.240  1.00  0.00     0.328 C 
HETATM   25  O4  UNL     1       3.939  -2.095   0.973  1.00  0.00    -0.261 OA
HETATM   26  N3  UNL     1       4.600  -1.050  -0.961  1.00  0.00    -0.258 N 
ATOM     27  H3  UNL     1       4.415  -0.800  -1.932  1.00  0.00     0.190 HD
BRANCH  26  28
HETATM   28  N4  UNL     1       5.825  -0.626  -0.331  1.00  0.00    -0.272 N 
HETATM   29  C16 UNL     1       6.675  -1.642   0.200  1.00  0.00     0.180 C 
BRANCH  28  30
HETATM   30  C17 UNL     1       6.049   0.750  -0.325  1.00  0.00     0.167 C 
BRANCH  30  31
HETATM   31  O5  UNL     1       5.079   1.415  -0.931  1.00  0.00    -0.344 OA
ATOM     32  H5  UNL     1       5.232   2.353  -0.927  1.00  0.00     0.219 HD
ENDBRANCH  30  31
BRANCH  30  33
HETATM   33  C18 UNL     1       7.122   1.526   0.212  1.00  0.00     0.016 A 
HETATM   34  C19 UNL     1       7.109   2.927  -0.013  1.00  0.00     0.016 A 
HETATM   35  C20 UNL     1       8.068   3.765   0.461  1.00  0.00     0.001 A 
HETATM   36  C21 UNL     1       9.101   3.228   1.194  1.00  0.00     0.000 A 
HETATM   37  C22 UNL     1       9.181   1.884   1.453  1.00  0.00     0.001 A 
HETATM   38  C23 UNL     1       8.164   1.059   0.941  1.00  0.00     0.016 A 
ENDBRANCH  30  33
ENDBRANCH  28  30
ENDBRANCH  26  28
ENDBRANCH  21  24
ENDBRANCH   1  20
TORSDOF 10
