REMARK  8 active torsions:
REMARK  status: ('A' for Active; 'I' for Inactive)
REMARK    1  A    between atoms: C2_5  and  C3_6 
REMARK       I    between atoms: C3_6  and  N3_8 
REMARK    2  A    between atoms: N3_8  and  C4_10 
REMARK    3  A    between atoms: N4_13  and  C6_14 
REMARK    4  A    between atoms: C6_14  and  C7_15 
REMARK    5  A    between atoms: C15_25  and  C16_26 
REMARK    6  A    between atoms: N6_32  and  C22_33 
REMARK    7  A    between atoms: C22_33  and  O3_34 
REMARK    8  A    between atoms: C22_33  and  C23_36 
ROOT
HETATM    1  C4  UNL     1      -0.997  -1.669   0.625  1.00  0.00     0.189 C 
HETATM    2  C5  UNL     1      -1.558  -0.376   1.104  1.00  0.00     0.244 C 
HETATM    3  O2  UNL     1      -0.974   0.131   2.092  1.00  0.00    -0.271 OA
HETATM    4  N4  UNL     1      -2.655   0.363   0.604  1.00  0.00    -0.343 N 
HETATM    5  C12 UNL     1      -3.210   0.314  -0.713  1.00  0.00     0.153 C 
HETATM    6  C13 UNL     1      -3.057  -0.960  -1.428  1.00  0.00    -0.010 C 
HETATM    7  C14 UNL     1      -2.628  -2.164  -1.089  1.00  0.00    -0.017 C 
HETATM    8  C15 UNL     1      -2.143  -2.557   0.246  1.00  0.00     0.073 C 
ENDROOT
BRANCH   1   9
HETATM    9  N3  UNL     1      -0.091  -1.359  -0.466  1.00  0.00    -0.344 N 
HETATM   10  C3  UNL     1       1.304  -1.611  -0.393  1.00  0.00     0.261 C 
HETATM   11  O1  UNL     1       1.756  -2.119   0.655  1.00  0.00    -0.269 OA
ATOM     12  H3  UNL     1      -0.471  -0.945  -1.317  1.00  0.00     0.163 HD
BRANCH  10  13
HETATM   13  C2  UNL     1       2.271  -1.314  -1.474  1.00  0.00     0.289 A 
HETATM   14  N2  UNL     1       1.668  -0.799  -2.614  1.00  0.00    -0.335 N 
HETATM   15  C1  UNL     1       2.169   0.361  -2.553  1.00  0.00     0.196 A 
ATOM     16  H2  UNL     1       1.027  -1.221  -3.285  1.00  0.00     0.164 HD
HETATM   17  N1  UNL     1       2.003   1.499  -3.423  1.00  0.00    -0.063 NA
HETATM   18  N6  UNL     1       2.871   0.039  -1.389  1.00  0.00    -0.270 N 
BRANCH  18  19
HETATM   19  C22 UNL     1       3.762   0.513  -0.405  1.00  0.00     0.157 C 
BRANCH  19  20
HETATM   20  O3  UNL     1       4.041  -0.398   0.487  1.00  0.00    -0.345 OA
ATOM     21  H3  UNL     1       4.642  -0.079   1.150  1.00  0.00     0.219 HD
ENDBRANCH  19  20
BRANCH  19  22
HETATM   22  C23 UNL     1       4.395   1.777  -0.215  1.00  0.00     0.015 A 
HETATM   23  C24 UNL     1       5.246   1.921   0.898  1.00  0.00     0.016 A 
HETATM   24  C25 UNL     1       5.902   3.092   1.171  1.00  0.00     0.001 A 
HETATM   25  C26 UNL     1       5.746   4.182   0.348  1.00  0.00     0.000 A 
HETATM   26  C27 UNL     1       4.933   4.096  -0.744  1.00  0.00     0.001 A 
HETATM   27  C28 UNL     1       4.277   2.898  -1.001  1.00  0.00     0.016 A 
ENDBRANCH  19  22
ENDBRANCH  18  19
ENDBRANCH  10  13
ENDBRANCH   1   9
BRANCH   8  28
HETATM   28  C16 UNL     1      -1.891  -3.998   0.379  1.00  0.00    -0.048 A 
HETATM   29  C17 UNL     1      -2.594  -4.765   1.287  1.00  0.00     0.008 A 
HETATM   30  C18 UNL     1      -2.405  -6.119   1.458  1.00  0.00     0.001 A 
HETATM   31  C19 UNL     1      -1.460  -6.753   0.682  1.00  0.00     0.000 A 
HETATM   32  C20 UNL     1      -0.736  -6.051  -0.229  1.00  0.00     0.001 A 
HETATM   33  C21 UNL     1      -0.951  -4.681  -0.379  1.00  0.00     0.008 A 
ENDBRANCH   8  28
BRANCH   4  34
HETATM   34  C6  UNL     1      -3.322   1.306   1.522  1.00  0.00     0.166 C 
BRANCH  34  35
HETATM   35  C7  UNL     1      -2.772   2.656   1.463  1.00  0.00    -0.025 A 
HETATM   36  C8  UNL     1      -3.012   3.495   0.373  1.00  0.00     0.011 A 
HETATM   37  C9  UNL     1      -2.479   4.754   0.373  1.00  0.00     0.018 A 
HETATM   38  C10 UNL     1      -1.708   5.228   1.414  1.00  0.00     0.087 A 
HETATM   39  N5  UNL     1      -1.499   4.394   2.443  1.00  0.00    -0.375 N 
HETATM   40  C11 UNL     1      -2.004   3.131   2.498  1.00  0.00     0.096 A 
ATOM     41  H5  UNL     1      -0.932   4.723   3.225  1.00  0.00     0.164 HD
ENDBRANCH  34  35
ENDBRANCH   4  34
TORSDOF 8
