REMARK  8 active torsions:
REMARK  status: ('A' for Active; 'I' for Inactive)
REMARK    1  A    between atoms: N2_3  and  S1_5 
REMARK    2  A    between atoms: S1_5  and  N3_6 
REMARK    3  A    between atoms: S1_5  and  N4_14 
REMARK    4  A    between atoms: N3_6  and  C2_7 
REMARK    5  A    between atoms: C9_17  and  C10_18 
REMARK    6  A    between atoms: C10_18  and  O2_19 
REMARK    7  A    between atoms: C10_18  and  C11_21 
REMARK    8  A    between atoms: C10_18  and  C17_27 
ROOT
HETATM    1  N1  UNL     1       2.031   3.167  -2.980  1.00  0.00    -0.171 NA
HETATM    2  C1  UNL     1       2.583   2.396  -2.310  1.00  0.00     0.190 C 
HETATM    3  N2  UNL     1       3.227   1.479  -1.494  1.00  0.00    -0.246 N 
ATOM      4  H2  UNL     1       4.246   1.497  -1.446  1.00  0.00     0.188 HD
ENDROOT
BRANCH   3   5
HETATM    5  S1  UNL     1       2.422   0.375  -0.609  1.00  0.00     0.075 SA
BRANCH   5   6
HETATM    6  N3  UNL     1       3.341  -0.749   0.400  1.00  0.00    -0.146 NA
BRANCH   6   7
HETATM    7  C2  UNL     1       4.753  -0.730   0.094  1.00  0.00     0.092 C 
HETATM    8  C3  UNL     1       5.413  -1.733   1.016  1.00  0.00     0.035 C 
HETATM    9  C4  UNL     1       6.748  -2.128   0.386  1.00  0.00     0.110 C 
HETATM   10  S2  UNL     1       7.721  -0.617   0.360  1.00  0.00     0.015 S 
HETATM   11  O1  UNL     1       8.007  -0.213  -1.253  1.00  0.00    -0.258 OA
HETATM   12  C5  UNL     1       6.640   0.658   1.011  1.00  0.00     0.110 C 
HETATM   13  C6  UNL     1       5.374   0.626   0.179  1.00  0.00     0.035 C 
ENDBRANCH   6   7
ENDBRANCH   5   6
BRANCH   5  14
HETATM   14  N4  UNL     1       0.672   0.417  -0.637  1.00  0.00    -0.335 N 
HETATM   15  C7  UNL     1       0.074   1.291   0.302  1.00  0.00     0.133 C 
HETATM   16  C8  UNL     1      -1.083   0.781   1.080  1.00  0.00     0.029 C 
HETATM   17  C9  UNL     1      -1.892  -0.298   0.434  1.00  0.00     0.033 C 
HETATM   18  C21 UNL     1      -1.471  -0.589  -0.977  1.00  0.00     0.029 C 
HETATM   19  C22 UNL     1       0.049  -0.829  -0.883  1.00  0.00     0.133 C 
BRANCH  17  20
HETATM   20  C10 UNL     1      -3.341  -0.248   0.711  1.00  0.00     0.122 C 
BRANCH  20  21
HETATM   21  O2  UNL     1      -3.458  -0.382   2.139  1.00  0.00    -0.379 OA
ATOM     22  H2  UNL     1      -4.391  -0.350   2.317  1.00  0.00     0.211 HD
ENDBRANCH  20  21
BRANCH  20  23
HETATM   23  C11 UNL     1      -4.081   0.968   0.397  1.00  0.00    -0.019 A 
HETATM   24  C12 UNL     1      -5.364   1.114   0.949  1.00  0.00     0.010 A 
HETATM   25  C13 UNL     1      -6.158   2.194   0.739  1.00  0.00     0.001 A 
HETATM   26  C14 UNL     1      -5.728   3.221  -0.047  1.00  0.00     0.000 A 
HETATM   27  C15 UNL     1      -4.480   3.144  -0.621  1.00  0.00     0.001 A 
HETATM   28  C16 UNL     1      -3.683   2.019  -0.387  1.00  0.00     0.010 A 
ENDBRANCH  20  23
BRANCH  20  29
HETATM   29  C17 UNL     1      -4.094  -1.443   0.188  1.00  0.00     0.022 A 
HETATM   30  C18 UNL     1      -4.491  -1.688  -1.101  1.00  0.00     0.018 A 
HETATM   31  C19 UNL     1      -5.153  -2.825  -1.339  1.00  0.00     0.008 A 
HETATM   32  C20 UNL     1      -5.383  -3.658  -0.275  1.00  0.00     0.050 A 
HETATM   33  S3  UNL     1      -4.661  -2.813   1.021  1.00  0.00    -0.103 SA
ENDBRANCH  20  29
ENDBRANCH  17  20
ENDBRANCH   5  14
ENDBRANCH   3   5
TORSDOF 8
