REMARK  9 active torsions:
REMARK  status: ('A' for Active; 'I' for Inactive)
REMARK    1  A    between atoms: N1_2  and  C2_4 
REMARK    2  A    between atoms: C2_4  and  C4_6 
REMARK    3  A    between atoms: C2_4  and  C18_22 
REMARK    4  A    between atoms: C4_6  and  C5_7 
REMARK    5  A    between atoms: C8_10  and  C9_11 
REMARK    6  A    between atoms: C10_12  and  C11_13 
REMARK    7  A    between atoms: C18_22  and  N3_23 
REMARK    8  A    between atoms: C18_22  and  N4_33 
REMARK       I    between atoms: N3_23  and  C19_25 
REMARK    9  A    between atoms: C19_25  and  C20_27 
ROOT
HETATM    1  C2  UNL     1      -0.829  -0.635  -0.973  1.00  0.00     0.064 C 
HETATM    2  C3  UNL     1      -0.955  -1.775   0.061  1.00  0.00     0.042 C 
ENDROOT
BRANCH   1   3
HETATM    3  N1  UNL     1      -0.147  -1.144  -2.104  1.00  0.00    -0.414 N 
HETATM    4  C1  UNL     1      -0.764  -2.203  -2.827  1.00  0.00     0.141 C 
ATOM      5  H1  UNL     1       0.755  -0.765  -2.391  1.00  0.00     0.153 HD
ENDBRANCH   1   3
BRANCH   1   6
HETATM    6  C4  UNL     1      -0.144   0.534  -0.379  1.00  0.00     0.072 C 
BRANCH   6   7
HETATM    7  C5  UNL     1       1.244   0.231   0.081  1.00  0.00    -0.056 A 
HETATM    8  C6  UNL     1       2.286   0.414  -0.770  1.00  0.00     0.009 A 
HETATM    9  C7  UNL     1       3.565   0.130  -0.333  1.00  0.00     0.021 A 
HETATM   10  C8  UNL     1       3.851  -0.334   0.934  1.00  0.00     0.018 A 
HETATM   11  C16 UNL     1       2.790  -0.518   1.796  1.00  0.00     0.021 A 
HETATM   12  C17 UNL     1       1.492  -0.231   1.354  1.00  0.00     0.009 A 
BRANCH  10  13
HETATM   13  C9  UNL     1       5.214  -0.616   1.348  1.00  0.00    -0.061 C 
HETATM   14  C10 UNL     1       6.355  -0.830   1.690  1.00  0.00    -0.060 C 
BRANCH  14  15
HETATM   15  C11 UNL     1       7.720  -1.063   2.083  1.00  0.00     0.033 A 
HETATM   16  C12 UNL     1       8.798  -0.646   1.307  1.00  0.00     0.023 A 
HETATM   17  C13 UNL     1      10.098  -0.876   1.699  1.00  0.00     0.019 A 
HETATM   18  C14 UNL     1      10.363  -1.530   2.879  1.00  0.00     0.087 A 
HETATM   19  N2  UNL     1       9.332  -1.935   3.634  1.00  0.00    -0.374 N 
HETATM   20  C15 UNL     1       8.062  -1.711   3.251  1.00  0.00     0.108 A 
ATOM     21  H2  UNL     1       9.513  -2.421   4.513  1.00  0.00     0.164 HD
ENDBRANCH  14  15
ENDBRANCH  10  13
ENDBRANCH   6   7
ENDBRANCH   1   6
BRANCH   1  22
HETATM   22  C18 UNL     1      -2.262  -0.257  -1.347  1.00  0.00     0.211 C 
BRANCH  22  23
HETATM   23  N3  UNL     1      -2.930   0.307  -0.187  1.00  0.00    -0.334 N 
HETATM   24  C19 UNL     1      -3.967  -0.329   0.540  1.00  0.00     0.253 C 
HETATM   25  O1  UNL     1      -4.323  -1.463   0.142  1.00  0.00    -0.268 OA
ATOM     26  H3  UNL     1      -2.630   1.230   0.128  1.00  0.00     0.165 HD
BRANCH  24  27
HETATM   27  C20 UNL     1      -4.621   0.248   1.690  1.00  0.00     0.032 A 
HETATM   28  C21 UNL     1      -4.153   1.389   2.299  1.00  0.00     0.017 A 
HETATM   29  C22 UNL     1      -4.787   1.947   3.406  1.00  0.00     0.001 A 
HETATM   30  C23 UNL     1      -5.910   1.316   3.878  1.00  0.00     0.000 A 
HETATM   31  C24 UNL     1      -6.407   0.170   3.291  1.00  0.00     0.001 A 
HETATM   32  C25 UNL     1      -5.740  -0.337   2.201  1.00  0.00     0.017 A 
ENDBRANCH  24  27
ENDBRANCH  22  23
BRANCH  22  33
HETATM   33  N4  UNL     1      -2.320   0.411  -2.541  1.00  0.00    -0.376 N 
HETATM   34  C26 UNL     1      -1.796   1.631  -2.919  1.00  0.00     0.132 A 
HETATM   35  C27 UNL     1      -2.883   1.717  -4.003  1.00  0.00     0.073 A 
HETATM   36  C28 UNL     1      -3.958   2.678  -3.666  1.00  0.00     0.072 C 
HETATM   37  C30 UNL     1      -3.382   0.361  -3.464  1.00  0.00     0.184 A 
HETATM   38  N5  UNL     1      -4.964   2.086  -3.153  1.00  0.00    -0.339 N 
HETATM   39  C29 UNL     1      -4.745   0.686  -3.063  1.00  0.00     0.244 C 
ATOM     40  H5  UNL     1      -5.815   2.557  -2.847  1.00  0.00     0.167 HD
HETATM   41  O2  UNL     1      -5.615  -0.131  -2.690  1.00  0.00    -0.271 OA
ENDBRANCH  22  33
ENDBRANCH   1  22
TORSDOF 9
