REMARK  3 active torsions:
REMARK  status: ('A' for Active; 'I' for Inactive)
REMARK    1  A    between atoms: C2_2  and  C3_3 
REMARK    2  A    between atoms: C3_3  and  C4_4 
REMARK    3  A    between atoms: C6_6  and  O1_7 
ROOT
HETATM    1  C4  UNL     1       1.121   0.174   0.844  1.00  0.00     0.166 C 
HETATM    2  C5  UNL     1       0.358  -1.004   0.326  1.00  0.00     0.070 C 
HETATM    3  C6  UNL     1      -1.069  -0.570   0.069  1.00  0.00     0.160 C 
HETATM    4  C8  UNL     1      -1.157   0.895  -0.277  1.00  0.00     0.115 C 
HETATM    5  C9  UNL     1      -2.205   1.164  -1.339  1.00  0.00     0.051 C 
HETATM    6  C10 UNL     1      -1.485   1.758   0.917  1.00  0.00     0.051 C 
HETATM    7  O2  UNL     1       0.081   1.248  -0.841  1.00  0.00    -0.227 OA
HETATM    8  O3  UNL     1       0.984   1.317   0.085  1.00  0.00    -0.234 OA
ENDROOT
BRANCH   1   9
HETATM    9  C3  UNL     1       2.594  -0.119   1.022  1.00  0.00     0.061 C 
BRANCH   9  10
HETATM   10  C2  UNL     1       3.261  -0.510  -0.220  1.00  0.00    -0.034 C 
HETATM   11  C1  UNL     1       4.270   0.195  -0.702  1.00  0.00     0.007 C 
ENDBRANCH   9  10
ENDBRANCH   1   9
BRANCH   3  12
HETATM   12  O1  UNL     1      -1.562  -1.374  -0.952  1.00  0.00    -0.388 OA
HETATM   13  C7  UNL     1      -2.637  -2.153  -0.526  1.00  0.00     0.202 C 
ENDBRANCH   3  12
TORSDOF 3
