REMARK  3 active torsions:
REMARK  status: ('A' for Active; 'I' for Inactive)
REMARK    1  A    between atoms: C2_2  and  C3_3 
REMARK    2  A    between atoms: C6_10  and  O1_11 
REMARK    3  A    between atoms: O1_11  and  C7_12 
ROOT
HETATM    1  C3  UNL     1      -1.717   0.544   0.265  1.00  0.00     0.042 A 
HETATM    2  N1  UNL     1      -1.137   1.787   0.146  1.00  0.00    -0.346 N 
ATOM      3  H1  UNL     1      -1.715   2.614   0.295  1.00  0.00     0.167 HD
HETATM    4  C4  UNL     1       0.151   1.952  -0.157  1.00  0.00     0.079 A 
HETATM    5  C5  UNL     1       0.744   3.320  -0.277  1.00  0.00     0.089 C 
HETATM    6  N2  UNL     1       0.935   0.867  -0.358  1.00  0.00    -0.326 N 
ATOM      7  H2  UNL     1       1.919   1.004  -0.590  1.00  0.00     0.169 HD
HETATM    8  C6  UNL     1       0.459  -0.380  -0.262  1.00  0.00     0.151 A 
HETATM    9  C9  UNL     1      -0.894  -0.539   0.056  1.00  0.00     0.016 A 
HETATM   10  C10 UNL     1      -1.353  -1.944   0.184  1.00  0.00     0.055 C 
ENDROOT
BRANCH   8  11
HETATM   11  O1  UNL     1       1.243  -1.499  -0.465  1.00  0.00    -0.336 OA
BRANCH  11  12
HETATM   12  C7  UNL     1       2.591  -1.496  -0.784  1.00  0.00     0.173 C 
HETATM   13  C8  UNL     1       3.398  -0.800   0.301  1.00  0.00     0.034 C 
ENDBRANCH  11  12
ENDBRANCH   8  11
BRANCH   1  14
HETATM   14  C2  UNL     1      -3.117   0.448   0.617  1.00  0.00     0.020 C 
HETATM   15  C1  UNL     1      -4.015  -0.410   0.275  1.00  0.00     0.013 C 
ENDBRANCH   1  14
TORSDOF 3
