REMARK  10 active torsions:
REMARK  status: ('A' for Active; 'I' for Inactive)
REMARK    1  A    between atoms: C2_2  and  O1_5 
REMARK    2  A    between atoms: O1_5  and  C5_6 
REMARK    3  A    between atoms: C5_6  and  C6_7 
REMARK    4  A    between atoms: C5_6  and  N1_9 
REMARK    5  A    between atoms: N1_9  and  C7_11 
REMARK    6  A    between atoms: N2_13  and  C9_14 
REMARK    7  A    between atoms: C9_14  and  C10_15 
REMARK    8  A    between atoms: C15_23  and  C16_24 
REMARK    9  A    between atoms: C17_25  and  C18_26 
REMARK   10  A    between atoms: C21_31  and  N5_32 
ROOT
HETATM    1  C7  UNL     1      -0.441  -0.059  -0.164  1.00  0.00     0.084 A 
HETATM    2  C8  UNL     1       0.321  -1.161   0.082  1.00  0.00     0.142 A 
HETATM    3  N2  UNL     1       1.529  -0.769   0.614  1.00  0.00    -0.300 N 
HETATM    4  N3  UNL     1       1.491   0.531   0.685  1.00  0.00    -0.289 N 
ATOM      5  H3  UNL     1       2.257   1.101   1.044  1.00  0.00     0.188 HD
HETATM    6  C15 UNL     1       0.344   1.033   0.238  1.00  0.00     0.130 A 
ENDROOT
BRANCH   6   7
HETATM    7  C16 UNL     1      -0.062   2.410   0.161  1.00  0.00    -0.038 C 
HETATM    8  C17 UNL     1      -0.418   3.566   0.090  1.00  0.00    -0.041 C 
BRANCH   8   9
HETATM    9  C18 UNL     1      -0.848   4.934   0.003  1.00  0.00     0.104 A 
HETATM   10  C19 UNL     1      -1.724   5.301  -0.999  1.00  0.00     0.057 A 
HETATM   11  C20 UNL     1      -2.126   6.614  -1.069  1.00  0.00     0.109 A 
HETATM   12  N4  UNL     1      -1.692   7.536  -0.195  1.00  0.00    -0.202 N 
HETATM   13  C21 UNL     1      -0.844   7.168   0.771  1.00  0.00     0.676 A 
ATOM     14  H4  UNL     1      -2.005   8.504  -0.267  1.00  0.00     0.183 HD
HETATM   15  N6  UNL     1      -0.438   5.882   0.854  1.00  0.00    -0.184 N 
ATOM     16  H6  UNL     1       0.210   5.622   1.598  1.00  0.00     0.185 HD
BRANCH  13  17
HETATM   17  N5  UNL     1      -0.409   8.018   1.620  1.00  0.00    -0.234 N 
ATOM     18  H52 UNL     1      -0.716   8.989   1.557  1.00  0.00     0.174 HD
ATOM     19  H51 UNL     1       0.238   7.737   2.357  1.00  0.00     0.174 HD
ENDBRANCH  13  17
ENDBRANCH   8   9
ENDBRANCH   6   7
BRANCH   1  20
HETATM   20  N1  UNL     1      -1.758  -0.004  -0.677  1.00  0.00    -0.358 N 
ATOM     21  H1  UNL     1      -2.216   0.907  -0.669  1.00  0.00     0.162 HD
BRANCH  20  22
HETATM   22  C5  UNL     1      -2.515  -1.105  -1.209  1.00  0.00     0.251 C 
BRANCH  22  23
HETATM   23  O1  UNL     1      -2.339  -2.196  -0.414  1.00  0.00    -0.355 OA
BRANCH  23  24
HETATM   24  C2  UNL     1      -3.412  -2.680   0.248  1.00  0.00     0.052 C 
HETATM   25  C1  UNL     1      -2.946  -3.893   1.060  1.00  0.00     0.045 C 
HETATM   26  C3  UNL     1      -4.570  -3.123  -0.579  1.00  0.00     0.045 C 
HETATM   27  C4  UNL     1      -3.874  -1.654   1.262  1.00  0.00     0.045 C 
ENDBRANCH  23  24
ENDBRANCH  22  23
BRANCH  22  28
HETATM   28  C6  UNL     1      -2.114  -1.420  -2.624  1.00  0.00     0.275 C 
HETATM   29  F1  UNL     1      -0.804  -1.792  -2.738  1.00  0.00    -0.251 F 
ENDBRANCH  22  28
ENDBRANCH  20  22
ENDBRANCH   1  20
BRANCH   3  30
HETATM   30  C9  UNL     1       2.602  -1.624   1.023  1.00  0.00     0.153 C 
BRANCH  30  31
HETATM   31  C10 UNL     1       3.519  -1.883  -0.131  1.00  0.00     0.009 C 
HETATM   32  C11 UNL     1       4.618  -2.806   0.385  1.00  0.00     0.032 C 
HETATM   33  C12 UNL     1       5.844  -1.971   0.649  1.00  0.00     0.168 C 
HETATM   34  O2  UNL     1       5.500  -0.788   1.267  1.00  0.00    -0.391 OA
HETATM   35  C13 UNL     1       4.994   0.073   0.288  1.00  0.00     0.168 C 
HETATM   36  C14 UNL     1       4.092  -0.623  -0.703  1.00  0.00     0.032 C 
ENDBRANCH  30  31
ENDBRANCH   3  30
TORSDOF 10
