REMARK  10 active torsions:
REMARK  status: ('A' for Active; 'I' for Inactive)
REMARK    1  A    between atoms: C2_2  and  C3_3 
REMARK    2  A    between atoms: C4_4  and  C5_5 
REMARK    3  A    between atoms: C6_8  and  N2_9 
REMARK    4  A    between atoms: C7_13  and  S2_14 
REMARK    5  A    between atoms: S2_14  and  C8_15 
REMARK    6  A    between atoms: C8_15  and  C9_16 
REMARK       I    between atoms: C9_16  and  N3_18 
REMARK    7  A    between atoms: N3_18  and  C10_20 
REMARK    8  A    between atoms: C13_25  and  C14_26 
REMARK    9  A    between atoms: C14_26  and  O3_28 
REMARK   10  A    between atoms: O3_28  and  C15_29 
ROOT
HETATM    1  C9  UNL     1      -0.758  -2.149  -0.111  1.00  0.00     0.233 C 
HETATM    2  O1  UNL     1      -0.587  -3.313  -0.609  1.00  0.00    -0.272 OA
HETATM    3  N3  UNL     1      -0.049  -1.857   1.063  1.00  0.00    -0.306 N 
ATOM      4  H3  UNL     1      -0.490  -1.978   1.975  1.00  0.00     0.171 HD
ENDROOT
BRANCH   1   5
HETATM    5  C8  UNL     1      -1.667  -1.224  -0.794  1.00  0.00     0.183 C 
BRANCH   5   6
HETATM    6  S2  UNL     1      -1.768   0.349   0.061  1.00  0.00    -0.110 SA
BRANCH   6   7
HETATM    7  C7  UNL     1      -2.903   1.432  -0.843  1.00  0.00     0.080 A 
HETATM    8  C5  UNL     1      -4.260   1.571  -0.694  1.00  0.00     0.112 A 
HETATM    9  N1  UNL     1      -4.867   2.424  -1.468  1.00  0.00    -0.328 N 
HETATM   10  C6  UNL     1      -4.148   3.111  -2.357  1.00  0.00     0.144 A 
ATOM     11  H1  UNL     1      -5.875   2.564  -1.396  1.00  0.00     0.168 HD
HETATM   12  S1  UNL     1      -2.562   2.539  -2.095  1.00  0.00    -0.044 SA
BRANCH   8  13
HETATM   13  C4  UNL     1      -4.965   0.765   0.318  1.00  0.00    -0.047 C 
HETATM   14  C3  UNL     1      -5.543   0.080   1.144  1.00  0.00    -0.100 C 
BRANCH  14  15
HETATM   15  C2  UNL     1      -6.246  -0.749   2.111  1.00  0.00     0.090 C 
HETATM   16  C1  UNL     1      -6.965  -1.911   1.422  1.00  0.00     0.018 C 
ENDBRANCH  14  15
ENDBRANCH   8  13
BRANCH  10  17
HETATM   17  N2  UNL     1      -4.568   4.012  -3.223  1.00  0.00    -0.380 N 
ATOM     18  H22 UNL     1      -5.516   4.354  -3.380  1.00  0.00     0.158 HD
ATOM     19  H21 UNL     1      -4.018   4.537  -3.903  1.00  0.00     0.158 HD
ENDBRANCH  10  17
ENDBRANCH   6   7
ENDBRANCH   5   6
ENDBRANCH   1   5
BRANCH   3  20
HETATM   20  C10 UNL     1       1.190  -1.426   0.975  1.00  0.00     0.152 A 
HETATM   21  N4  UNL     1       1.917  -1.211  -0.124  1.00  0.00    -0.339 N 
HETATM   22  C11 UNL     1       3.136  -0.779   0.012  1.00  0.00     0.030 A 
ATOM     23  H4  UNL     1       1.525  -1.382  -1.050  1.00  0.00     0.168 HD
HETATM   24  C12 UNL     1       4.050  -0.502  -1.170  1.00  0.00     0.070 C 
HETATM   25  C13 UNL     1       3.603  -0.568   1.281  1.00  0.00     0.105 A 
HETATM   26  S3  UNL     1       2.257  -1.005   2.235  1.00  0.00    -0.046 SA
BRANCH  25  27
HETATM   27  C14 UNL     1       4.936  -0.084   1.695  1.00  0.00     0.302 C 
HETATM   28  O2  UNL     1       5.194   0.051   2.912  1.00  0.00    -0.259 OA
BRANCH  27  29
HETATM   29  O3  UNL     1       5.910   0.225   0.770  1.00  0.00    -0.317 OA
BRANCH  29  30
HETATM   30  C15 UNL     1       7.206   0.695   1.173  1.00  0.00     0.174 C 
HETATM   31  C16 UNL     1       8.078   0.958  -0.010  1.00  0.00     0.034 C 
ENDBRANCH  29  30
ENDBRANCH  27  29
ENDBRANCH  25  27
ENDBRANCH   3  20
TORSDOF 10
