REMARK  6 active torsions:
REMARK  status: ('A' for Active; 'I' for Inactive)
REMARK    1  A    between atoms: C2_2  and  N1_3 
REMARK    2  A    between atoms: N1_3  and  C3_5 
REMARK    3  A    between atoms: C3_5  and  C4_7 
REMARK    4  A    between atoms: C4_7  and  O1_8 
REMARK    5  A    between atoms: N2_13  and  C9_14 
REMARK    6  A    between atoms: N7_28  and  C14_29 
ROOT
HETATM    1  C9  UNL     1      -0.260   0.588  -0.127  1.00  0.00     0.150 A 
HETATM    2  N3  UNL     1      -0.346   1.890  -0.300  1.00  0.00    -0.175 N 
ATOM      3  H3  UNL     1       0.506   2.449  -0.264  1.00  0.00     0.186 HD
HETATM    4  C10 UNL     1      -1.538   2.517  -0.526  1.00  0.00     0.679 A 
HETATM    5  N4  UNL     1      -1.609   3.790  -0.694  1.00  0.00    -0.234 N 
ATOM      6  H41 UNL     1      -2.499   4.258  -0.863  1.00  0.00     0.174 HD
ATOM      7  H42 UNL     1      -0.756   4.348  -0.657  1.00  0.00     0.174 HD
HETATM    8  N5  UNL     1      -2.666   1.780  -0.575  1.00  0.00    -0.174 N 
ATOM      9  H5  UNL     1      -3.561   2.239  -0.744  1.00  0.00     0.186 HD
HETATM   10  C11 UNL     1      -2.626   0.454  -0.405  1.00  0.00     0.155 A 
HETATM   11  C12 UNL     1      -1.392  -0.179  -0.172  1.00  0.00     0.123 A 
HETATM   12  N6  UNL     1      -1.683  -1.476  -0.047  1.00  0.00    -0.346 N 
ATOM     13  H6  UNL     1      -1.010  -2.222   0.130  1.00  0.00     0.167 HD
HETATM   14  C13 UNL     1      -3.011  -1.637  -0.193  1.00  0.00     0.185 A 
HETATM   15  N7  UNL     1      -3.615  -0.456  -0.415  1.00  0.00    -0.322 N 
ENDROOT
BRANCH   1  16
HETATM   16  N2  UNL     1       0.998  -0.090   0.117  1.00  0.00    -0.362 N 
HETATM   17  C8  UNL     1       1.114  -0.805   1.358  1.00  0.00     0.124 C 
HETATM   18  C7  UNL     1       2.530  -0.911   1.806  1.00  0.00     0.023 C 
HETATM   19  C6  UNL     1       3.348  -1.458   0.651  1.00  0.00     0.049 C 
HETATM   20  C4  UNL     1       3.380  -0.381  -0.427  1.00  0.00     0.128 C 
HETATM   21  C19 UNL     1       2.021  -0.054  -0.873  1.00  0.00     0.170 C 
BRANCH  20  22
HETATM   22  C3  UNL     1       4.055   0.833   0.102  1.00  0.00     0.110 C 
HETATM   23  S1  UNL     1       3.380   2.280  -0.093  1.00  0.00    -0.062 SA
BRANCH  22  24
HETATM   24  N1  UNL     1       5.302   0.731   0.765  1.00  0.00    -0.382 N 
ATOM     25  H1  UNL     1       5.735  -0.186   0.878  1.00  0.00     0.160 HD
BRANCH  24  26
HETATM   26  C2  UNL     1       5.974   1.900   1.285  1.00  0.00     0.116 C 
HETATM   27  C1  UNL     1       7.273   1.577   1.949  1.00  0.00     0.026 C 
ENDBRANCH  24  26
ENDBRANCH  22  24
ENDBRANCH  20  22
BRANCH  20  28
HETATM   28  O1  UNL     1       4.231  -0.805  -1.461  1.00  0.00    -0.376 OA
HETATM   29  C5  UNL     1       3.860  -1.928  -2.120  1.00  0.00     0.203 C 
ENDBRANCH  20  28
ENDBRANCH   1  16
BRANCH  15  30
HETATM   30  C14 UNL     1      -5.024  -0.277  -0.613  1.00  0.00     0.092 C 
HETATM   31  C15 UNL     1      -5.682   0.641   0.377  1.00  0.00     0.026 C 
HETATM   32  C16 UNL     1      -7.070   0.100   0.647  1.00  0.00     0.002 C 
HETATM   33  C17 UNL     1      -7.151  -1.256  -0.020  1.00  0.00     0.002 C 
HETATM   34  C18 UNL     1      -5.720  -1.598  -0.376  1.00  0.00     0.026 C 
ENDBRANCH  15  30
TORSDOF 6
