REMARK  6 active torsions:
REMARK  status: ('A' for Active; 'I' for Inactive)
REMARK    1  A    between atoms: N1_6  and  C6_7 
REMARK    2  A    between atoms: C8_12  and  S1_13 
REMARK    3  A    between atoms: S1_13  and  C9_14 
REMARK    4  A    between atoms: C12_17  and  N3_18 
REMARK    5  A    between atoms: N3_18  and  C13_21 
REMARK    6  A    between atoms: C16_24  and  N4_25 
ROOT
HETATM    1  C6  UNL     1       4.076  -0.368   0.677  1.00  0.00     0.707 A 
HETATM    2  N2  UNL     1       3.940  -1.731   0.701  1.00  0.00    -0.178 N 
ATOM      3  H2  UNL     1       4.740  -2.322   0.476  1.00  0.00     0.185 HD
HETATM    4  C7  UNL     1       2.765  -2.295   1.017  1.00  0.00     0.141 A 
HETATM    5 CL1  UNL     1       2.666  -4.096   1.031  1.00  0.00    -0.062 Cl
HETATM    6  C8  UNL     1       1.683  -1.567   1.322  1.00  0.00     0.108 A 
HETATM    7  C19 UNL     1       1.779  -0.147   1.309  1.00  0.00     0.279 A 
HETATM    8  O1  UNL     1       0.798   0.558   1.586  1.00  0.00    -0.266 OA
HETATM    9  N5  UNL     1       2.987   0.329   0.984  1.00  0.00    -0.153 N 
ATOM     10  H5  UNL     1       3.083   1.344   0.970  1.00  0.00     0.187 HD
ENDROOT
BRANCH   6  11
HETATM   11  S1  UNL     1       0.107  -2.246   1.718  1.00  0.00    -0.116 SA
BRANCH  11  12
HETATM   12  C9  UNL     1      -0.931  -2.478   0.235  1.00  0.00     0.055 C 
HETATM   13  C10 UNL     1      -0.337  -1.907  -0.977  1.00  0.00     0.017 C 
HETATM   14  C11 UNL     1      -1.421  -1.207  -1.730  1.00  0.00     0.034 C 
HETATM   15  C12 UNL     1      -2.411  -0.816  -0.660  1.00  0.00     0.187 C 
HETATM   16  C18 UNL     1      -2.273  -1.833   0.422  1.00  0.00     0.048 C 
BRANCH  15  17
HETATM   17  N3  UNL     1      -3.781  -0.840  -1.151  1.00  0.00    -0.067 N 
ATOM     18  H32 UNL     1      -3.845  -0.896  -2.167  1.00  0.00     0.278 HD
ATOM     19  H31 UNL     1      -4.268  -1.712  -0.945  1.00  0.00     0.278 HD
BRANCH  17  20
HETATM   20  C13 UNL     1      -4.443   0.338  -0.594  1.00  0.00     0.188 C 
HETATM   21  C14 UNL     1      -4.513   0.283   0.891  1.00  0.00     0.035 C 
HETATM   22  C15 UNL     1      -5.702   1.121   1.256  1.00  0.00     0.034 C 
HETATM   23  C16 UNL     1      -6.550   1.200   0.034  1.00  0.00     0.185 C 
HETATM   24  C17 UNL     1      -5.898   0.368  -1.032  1.00  0.00     0.065 C 
BRANCH  23  25
HETATM   25  N4  UNL     1      -6.709   2.565  -0.439  1.00  0.00    -0.075 N 
ATOM     26  H43 UNL     1      -7.068   3.171   0.299  1.00  0.00     0.274 HD
ATOM     27  H42 UNL     1      -5.804   3.011  -0.589  1.00  0.00     0.274 HD
ATOM     28  H41 UNL     1      -7.290   2.619  -1.276  1.00  0.00     0.274 HD
ENDBRANCH  23  25
ENDBRANCH  17  20
ENDBRANCH  15  17
ENDBRANCH  11  12
ENDBRANCH   6  11
BRANCH   1  29
HETATM   29  N1  UNL     1       5.309   0.251   0.334  1.00  0.00    -0.091 N 
HETATM   30  C4  UNL     1       5.450   1.096  -0.705  1.00  0.00     0.050 A 
HETATM   31  C3  UNL     1       6.767   1.474  -0.695  1.00  0.00     0.053 A 
HETATM   32  C5  UNL     1       4.416   1.543  -1.670  1.00  0.00     0.071 C 
HETATM   33  C2  UNL     1       7.419   0.861   0.345  1.00  0.00     0.025 A 
HETATM   34  C1  UNL     1       8.853   1.001   0.737  1.00  0.00     0.070 C 
HETATM   35  N6  UNL     1       6.474   0.109   0.960  1.00  0.00    -0.284 N 
ATOM     36  H6  UNL     1       6.632  -0.477   1.779  1.00  0.00     0.188 HD
ENDBRANCH   1  29
TORSDOF 6
