REMARK  7 active torsions:
REMARK  status: ('A' for Active; 'I' for Inactive)
REMARK    1  A    between atoms: C2_2  and  C3_3 
REMARK    2  A    between atoms: C3_3  and  C4_4 
REMARK    3  A    between atoms: C7_7  and  C8_8 
REMARK    4  A    between atoms: C8_8  and  N1_9 
REMARK    5  A    between atoms: N5_23  and  C14_24 
REMARK    6  A    between atoms: C16_27  and  O1_28 
REMARK    7  A    between atoms: C17_30  and  O2_31 
ROOT
HETATM    1  N1  UNL     1       0.121   0.758   0.199  1.00  0.00    -0.374 N 
ATOM      2  H1  UNL     1       0.176   0.550   1.196  1.00  0.00     0.161 HD
HETATM    3  C9  UNL     1      -0.938   0.494  -0.478  1.00  0.00     0.134 A 
HETATM    4  N2  UNL     1      -1.061   0.746  -1.789  1.00  0.00    -0.317 N 
ATOM      5  H2  UNL     1      -0.265   1.170  -2.265  1.00  0.00     0.170 HD
HETATM    6  C10 UNL     1      -2.144   0.484  -2.516  1.00  0.00     0.182 A 
HETATM    7 CL1  UNL     1      -2.186   0.861  -4.239  1.00  0.00    -0.045 Cl
HETATM    8  N3  UNL     1      -3.196  -0.077  -1.886  1.00  0.00    -0.317 N 
ATOM      9  H3  UNL     1      -4.041  -0.290  -2.416  1.00  0.00     0.170 HD
HETATM   10  C11 UNL     1      -3.153  -0.360  -0.579  1.00  0.00     0.142 A 
HETATM   11  C12 UNL     1      -2.018  -0.080   0.164  1.00  0.00     0.122 A 
HETATM   12  N4  UNL     1      -2.306  -0.479   1.409  1.00  0.00    -0.346 N 
ATOM     13  H4  UNL     1      -1.665  -0.406   2.199  1.00  0.00     0.167 HD
HETATM   14  C13 UNL     1      -3.548  -0.989   1.485  1.00  0.00     0.186 A 
HETATM   15  N5  UNL     1      -4.069  -0.913   0.253  1.00  0.00    -0.310 N 
ENDROOT
BRANCH   1  16
HETATM   16  C8  UNL     1       1.230   1.358  -0.500  1.00  0.00     0.126 C 
BRANCH  16  17
HETATM   17  C7  UNL     1       2.358   1.758   0.401  1.00  0.00     0.003 C 
HETATM   18  C6  UNL     1       2.940   0.609   1.158  1.00  0.00     0.006 C 
HETATM   19  C5  UNL     1       4.401   0.800   1.506  1.00  0.00     0.005 C 
HETATM   20  C4  UNL     1       5.257   1.055   0.311  1.00  0.00    -0.014 C 
HETATM   21  C19 UNL     1       4.380   1.322  -0.880  1.00  0.00     0.005 C 
HETATM   22  C18 UNL     1       3.410   2.436  -0.464  1.00  0.00     0.006 C 
BRANCH  20  23
HETATM   23  C3  UNL     1       6.269  -0.032   0.044  1.00  0.00     0.004 C 
BRANCH  23  24
HETATM   24  C2  UNL     1       5.646  -1.370  -0.199  1.00  0.00    -0.004 C 
HETATM   25  C1  UNL     1       6.767  -2.361  -0.452  1.00  0.00     0.005 C 
ENDBRANCH  23  24
ENDBRANCH  20  23
ENDBRANCH  16  17
ENDBRANCH   1  16
BRANCH  15  26
HETATM   26  C14 UNL     1      -5.385  -1.352  -0.101  1.00  0.00     0.185 C 
HETATM   27  S1  UNL     1      -5.907  -0.647  -1.715  1.00  0.00    -0.138 SA
HETATM   28  C15 UNL     1      -7.608  -0.134  -1.248  1.00  0.00     0.110 C 
HETATM   29  C16 UNL     1      -7.753  -0.844   0.082  1.00  0.00     0.159 C 
HETATM   30  C17 UNL     1      -6.436  -0.696   0.804  1.00  0.00     0.180 C 
BRANCH  29  31
HETATM   31  O1  UNL     1      -8.038  -2.178  -0.078  1.00  0.00    -0.392 OA
ATOM     32  H1  UNL     1      -8.129  -2.623   0.756  1.00  0.00     0.210 HD
ENDBRANCH  29  31
BRANCH  30  33
HETATM   33  O2  UNL     1      -6.522  -1.380   1.994  1.00  0.00    -0.390 OA
ATOM     34  H2  UNL     1      -7.173  -0.974   2.554  1.00  0.00     0.210 HD
ENDBRANCH  30  33
ENDBRANCH  15  26
TORSDOF 7
