REMARK  9 active torsions:
REMARK  status: ('A' for Active; 'I' for Inactive)
REMARK    1  A    between atoms: C3_3  and  C4_4 
REMARK    2  A    between atoms: C4_4  and  N1_5 
REMARK    3  A    between atoms: C5_7  and  N2_8 
REMARK    4  A    between atoms: C9_15  and  O2_16 
REMARK    5  A    between atoms: C10_18  and  N3_19 
REMARK       I    between atoms: N3_19  and  C11_21 
REMARK    6  A    between atoms: C11_21  and  C12_23 
REMARK    7  A    between atoms: C12_23  and  O4_24 
REMARK    8  A    between atoms: O4_24  and  C13_25 
REMARK    9  A    between atoms: C13_25  and  C14_27 
ROOT
HETATM    1  C1  UNL     1       3.561  -2.040  -0.447  1.00  0.00     0.015 C 
HETATM    2  C2  UNL     1       2.635  -1.120  -0.700  1.00  0.00    -0.071 C 
HETATM    3  C3  UNL     1       2.880   0.340  -0.860  1.00  0.00     0.066 C 
HETATM    4  C9  UNL     1       1.541   0.832  -1.430  1.00  0.00     0.151 C 
HETATM    5  C10 UNL     1       0.530  -0.096  -0.833  1.00  0.00     0.126 C 
HETATM    6  C18 UNL     1       1.190  -1.431  -0.868  1.00  0.00    -0.002 C 
HETATM    7  C19 UNL     1       0.703  -2.346   0.251  1.00  0.00     0.022 C 
HETATM    8  C20 UNL     1       0.969  -2.152  -2.184  1.00  0.00     0.022 C 
ENDROOT
BRANCH   5   9
HETATM    9  N3  UNL     1      -0.702  -0.035  -1.556  1.00  0.00    -0.351 N 
HETATM   10  C11 UNL     1      -1.896   0.361  -0.914  1.00  0.00     0.242 C 
HETATM   11  O3  UNL     1      -1.934   0.674   0.308  1.00  0.00    -0.271 OA
ATOM     12  H3  UNL     1      -0.719  -0.280  -2.546  1.00  0.00     0.163 HD
BRANCH  10  13
HETATM   13  C12 UNL     1      -3.147   0.410  -1.699  1.00  0.00     0.281 C 
BRANCH  13  14
HETATM   14  O4  UNL     1      -4.283   0.779  -0.990  1.00  0.00    -0.311 OA
BRANCH  14  15
HETATM   15  C13 UNL     1      -4.783   0.061   0.078  1.00  0.00     0.267 C 
HETATM   16  O5  UNL     1      -4.252  -0.981   0.486  1.00  0.00    -0.264 OA
BRANCH  15  17
HETATM   17  C14 UNL     1      -6.008   0.589   0.737  1.00  0.00     0.037 C 
HETATM   18  C15 UNL     1      -7.159   0.669  -0.244  1.00  0.00     0.025 C 
HETATM   19  C16 UNL     1      -6.399  -0.316   1.859  1.00  0.00     0.025 C 
HETATM   20  C17 UNL     1      -5.756   1.977   1.258  1.00  0.00     0.025 C 
ENDBRANCH  15  17
ENDBRANCH  14  15
ENDBRANCH  13  14
ENDBRANCH  10  13
ENDBRANCH   5   9
BRANCH   4  21
HETATM   21  O2  UNL     1       1.543   0.887  -2.801  1.00  0.00    -0.393 OA
ATOM     22  H2  UNL     1       0.715   1.191  -3.153  1.00  0.00     0.210 HD
ENDBRANCH   4  21
BRANCH   3  23
HETATM   23  C4  UNL     1       3.078   1.069   0.426  1.00  0.00     0.168 C 
BRANCH  23  24
HETATM   24  N1  UNL     1       4.194   0.614   1.218  1.00  0.00    -0.253 N 
HETATM   25  O1  UNL     1       4.195  -0.290   2.123  1.00  0.00    -0.216 OA
HETATM   26  C5  UNL     1       5.361  -0.482   2.672  1.00  0.00     0.188 A 
HETATM   27  C6  UNL     1       6.225   0.386   2.067  1.00  0.00     0.111 A 
HETATM   28 CL1  UNL     1       7.925   0.612   2.360  1.00  0.00    -0.077 Cl
HETATM   29  C7  UNL     1       5.468   1.078   1.143  1.00  0.00     0.057 A 
HETATM   30  C8  UNL     1       5.936   2.138   0.225  1.00  0.00     0.072 C 
BRANCH  26  31
HETATM   31  N2  UNL     1       5.690  -1.318   3.609  1.00  0.00    -0.377 N 
ATOM     32  H22 UNL     1       5.045  -1.966   4.061  1.00  0.00     0.158 HD
ATOM     33  H21 UNL     1       6.603  -1.468   4.039  1.00  0.00     0.158 HD
ENDBRANCH  26  31
ENDBRANCH  23  24
ENDBRANCH   3  23
TORSDOF 9
