REMARK  7 active torsions:
REMARK  status: ('A' for Active; 'I' for Inactive)
REMARK    1  A    between atoms: C8_8  and  C9_9 
REMARK    2  A    between atoms: C9_9  and  O1_10 
REMARK    3  A    between atoms: O1_10  and  C10_11 
REMARK    4  A    between atoms: C11_14  and  N2_15 
REMARK    5  A    between atoms: N3_18  and  C14_19 
REMARK    6  A    between atoms: C14_19  and  C16_21 
REMARK    7  A    between atoms: C20_28  and  N5_29 
ROOT
HETATM    1  C10 UNL     1      -1.422  -0.800  -0.881  1.00  0.00     0.226 A 
HETATM    2  N1  UNL     1      -0.253  -0.355  -0.384  1.00  0.00    -0.307 N 
ATOM      3  H1  UNL     1      -0.275   0.285   0.410  1.00  0.00     0.171 HD
HETATM    4  C11 UNL     1       0.945  -0.716  -0.886  1.00  0.00     0.132 A 
HETATM    5  C19 UNL     1       0.937  -1.578  -1.954  1.00  0.00     0.121 A 
HETATM    6 CL1  UNL     1       2.415  -2.123  -2.684  1.00  0.00    -0.076 Cl
HETATM    7  C20 UNL     1      -0.257  -2.051  -2.485  1.00  0.00     0.127 A 
HETATM    8  N6  UNL     1      -1.404  -1.644  -1.927  1.00  0.00    -0.307 N 
ATOM      9  H6  UNL     1      -2.288  -1.984  -2.306  1.00  0.00     0.171 HD
ENDROOT
BRANCH   4  10
HETATM   10  N2  UNL     1       2.173  -0.243  -0.362  1.00  0.00    -0.362 N 
HETATM   11  C12 UNL     1       3.058   0.563  -1.135  1.00  0.00     0.154 C 
HETATM   12  C13 UNL     1       4.526   0.259  -0.953  1.00  0.00     0.293 C 
HETATM   13  N3  UNL     1       4.845  -0.305   0.314  1.00  0.00     0.104 N 
HETATM   14  C17 UNL     1       3.855   0.217   1.271  1.00  0.00     0.293 C 
HETATM   15  C18 UNL     1       2.586  -0.568   1.013  1.00  0.00     0.154 C 
BRANCH  13  16
HETATM   16  C14 UNL     1       6.182  -0.073   0.780  1.00  0.00     0.307 C 
HETATM   17  C15 UNL     1       6.482   1.393   0.990  1.00  0.00     0.053 C 
BRANCH  16  18
HETATM   18  C16 UNL     1       7.215  -0.740  -0.014  1.00  0.00     0.264 C 
HETATM   19  N4  UNL     1       8.595  -0.564   0.362  1.00  0.00    -0.060 NA
HETATM   20  O2  UNL     1       6.981  -1.457  -1.002  1.00  0.00    -0.274 OA
ENDBRANCH  16  18
ENDBRANCH  13  16
ENDBRANCH   4  10
BRANCH   1  21
HETATM   21  O1  UNL     1      -2.651  -0.393  -0.319  1.00  0.00    -0.321 OA
BRANCH  21  22
HETATM   22  C9  UNL     1      -2.597   0.492   0.771  1.00  0.00     0.188 C 
BRANCH  22  23
HETATM   23  C8  UNL     1      -3.927   0.874   1.316  1.00  0.00     0.038 C 
HETATM   24  C2  UNL     1      -4.839   1.542   0.390  1.00  0.00    -0.083 C 
HETATM   25  C1  UNL     1      -4.347   1.955  -0.769  1.00  0.00     0.015 C 
HETATM   26  C3  UNL     1      -6.286   1.829   0.581  1.00  0.00     0.034 C 
HETATM   27  C4  UNL     1      -7.147   0.656   0.164  1.00  0.00     0.004 C 
HETATM   28  C5  UNL     1      -6.946  -0.546   1.052  1.00  0.00     0.000 C 
HETATM   29  C6  UNL     1      -5.513  -1.025   1.000  1.00  0.00     0.001 C 
HETATM   30  C7  UNL     1      -4.622  -0.317   1.961  1.00  0.00     0.011 C 
ENDBRANCH  22  23
ENDBRANCH  21  22
ENDBRANCH   1  21
BRANCH   7  31
HETATM   31  N5  UNL     1      -0.285  -2.867  -3.495  1.00  0.00    -0.384 N 
ATOM     32  H52 UNL     1       0.589  -3.177  -3.920  1.00  0.00     0.157 HD
ATOM     33  H51 UNL     1      -1.161  -3.214  -3.885  1.00  0.00     0.157 HD
ENDBRANCH   7  31
TORSDOF 7
