REMARK  11 active torsions:
REMARK  status: ('A' for Active; 'I' for Inactive)
REMARK    1  A    between atoms: O1_2  and  C2_3 
REMARK    2  A    between atoms: C6_7  and  O2_8 
REMARK    3  A    between atoms: C7_10  and  C8_11 
REMARK    4  A    between atoms: C9_12  and  C11_14 
REMARK    5  A    between atoms: C11_14  and  O3_15 
REMARK    6  A    between atoms: C13_18  and  C14_19 
REMARK    7  A    between atoms: C17_22  and  O4_23 
REMARK    8  A    between atoms: O4_23  and  C18_24 
REMARK    9  A    between atoms: C21_29  and  O6_30 
REMARK   10  A    between atoms: C21_29  and  C22_32 
REMARK   11  A    between atoms: C22_32  and  O7_33 
ROOT
HETATM    1  C2  UNL     1       1.069  -0.169  -0.634  1.00  0.00     0.133 C 
HETATM    2  C3  UNL     1       0.384   1.142  -0.523  1.00  0.00    -0.015 C 
HETATM    3  C4  UNL     1       1.267   2.124  -0.343  1.00  0.00    -0.045 C 
HETATM    4  C5  UNL     1       0.955   3.568  -0.190  1.00  0.00     0.047 C 
HETATM    5  C6  UNL     1       2.632   1.608  -0.315  1.00  0.00     0.158 C 
HETATM    6  C7  UNL     1       2.412   0.106  -0.075  1.00  0.00     0.084 C 
HETATM    7  C12 UNL     1      -1.030   1.505  -0.598  1.00  0.00     0.016 C 
HETATM    8  C13 UNL     1      -2.135   0.855  -0.287  1.00  0.00    -0.044 C 
HETATM    9  C17 UNL     1      -2.165  -0.517   0.277  1.00  0.00     0.198 C 
HETATM   10  C20 UNL     1      -1.135  -1.309  -0.494  1.00  0.00     0.243 C 
HETATM   11  F1  UNL     1      -1.596  -2.595  -0.565  1.00  0.00    -0.243 F 
HETATM   12  C21 UNL     1       0.257  -1.198   0.151  1.00  0.00     0.148 C 
ENDROOT
BRANCH   6  13
HETATM   13  C8  UNL     1       2.616  -0.053   1.366  1.00  0.00    -0.011 C 
HETATM   14  C9  UNL     1       3.605  -0.818   1.804  1.00  0.00    -0.064 C 
HETATM   15  C10 UNL     1       4.510  -1.516   0.849  1.00  0.00     0.045 C 
BRANCH  14  16
HETATM   16  C11 UNL     1       3.869  -1.024   3.254  1.00  0.00     0.197 C 
BRANCH  16  17
HETATM   17  O3  UNL     1       5.149  -0.585   3.579  1.00  0.00    -0.397 OA
ATOM     18  H3  UNL     1       5.318  -0.717   4.505  1.00  0.00     0.209 HD
ENDBRANCH  16  17
ENDBRANCH  14  16
ENDBRANCH   6  13
BRANCH   1  19
HETATM   19  O1  UNL     1       0.958  -0.581  -1.891  1.00  0.00    -0.376 OA
HETATM   20  C1  UNL     1       1.372  -0.055  -3.008  1.00  0.00     0.203 C 
ENDBRANCH   1  19
BRANCH   5  21
HETATM   21  O2  UNL     1       3.424   1.895  -1.387  1.00  0.00    -0.390 OA
ATOM     22  H2  UNL     1       4.312   1.559  -1.369  1.00  0.00     0.210 HD
ENDBRANCH   5  21
BRANCH  12  23
HETATM   23  O6  UNL     1       0.018  -0.841   1.454  1.00  0.00    -0.381 OA
ATOM     24  H6  UNL     1      -0.487  -1.481   1.942  1.00  0.00     0.211 HD
ENDBRANCH  12  23
BRANCH  12  25
HETATM   25  C22 UNL     1       0.822  -2.599  -0.000  1.00  0.00     0.208 C 
BRANCH  25  26
HETATM   26  O7  UNL     1       1.041  -2.885  -1.323  1.00  0.00    -0.398 OA
ATOM     27  H7  UNL     1       1.395  -3.762  -1.417  1.00  0.00     0.209 HD
ENDBRANCH  25  26
ENDBRANCH  12  25
BRANCH   8  28
HETATM   28  C14 UNL     1      -3.426   1.550  -0.502  1.00  0.00     0.009 C 
HETATM   29  C15 UNL     1      -4.226   0.745  -1.510  1.00  0.00     0.014 C 
HETATM   30  C16 UNL     1      -3.289   2.950  -1.032  1.00  0.00     0.014 C 
ENDBRANCH   8  28
BRANCH   9  31
HETATM   31  O4  UNL     1      -3.444  -1.111   0.199  1.00  0.00    -0.309 OA
BRANCH  31  32
HETATM   32  C18 UNL     1      -4.158  -1.524   1.344  1.00  0.00     0.255 C 
HETATM   33  C19 UNL     1      -5.503  -2.147   1.231  1.00  0.00     0.126 C 
HETATM   34  O5  UNL     1      -3.582  -1.329   2.445  1.00  0.00    -0.266 OA
ENDBRANCH  31  32
ENDBRANCH   9  31
TORSDOF 11
