REMARK  9 active torsions:
REMARK  status: ('A' for Active; 'I' for Inactive)
REMARK    1  A    between atoms: O1_1  and  C1_3 
REMARK    2  A    between atoms: C1_3  and  C2_4 
REMARK    3  A    between atoms: C4_6  and  N1_7 
REMARK    4  A    between atoms: C7_12  and  N3_13 
REMARK    5  A    between atoms: N3_13  and  C8_15 
REMARK    6  A    between atoms: C8_15  and  C9_16 
REMARK    7  A    between atoms: C9_16  and  C10_17 
REMARK    8  A    between atoms: C13_22  and  N5_23 
REMARK    9  A    between atoms: C22_35  and  O2_36 
ROOT
HETATM    1  N1  UNL     1       1.802  -0.908  -0.590  1.00  0.00    -0.319 N 
HETATM    2  C5  UNL     1       1.593  -2.207  -0.867  1.00  0.00     0.185 A 
HETATM    3  N2  UNL     1       0.285  -2.501  -0.754  1.00  0.00    -0.346 N 
ATOM      4  H2  UNL     1      -0.138  -3.416  -0.910  1.00  0.00     0.167 HD
HETATM    5  C6  UNL     1      -0.368  -1.383  -0.400  1.00  0.00     0.123 A 
HETATM    6  C7  UNL     1      -1.675  -1.029  -0.134  1.00  0.00     0.147 A 
HETATM    7  N4  UNL     1      -2.030   0.242   0.215  1.00  0.00    -0.174 N 
ATOM      8  H4  UNL     1      -3.006   0.471   0.405  1.00  0.00     0.186 HD
HETATM    9  C13 UNL     1      -1.101   1.167   0.304  1.00  0.00     0.684 A 
HETATM   10  N6  UNL     1       0.190   0.815   0.040  1.00  0.00    -0.174 N 
ATOM     11  H6  UNL     1       0.900   1.544   0.111  1.00  0.00     0.186 HD
HETATM   12  C20 UNL     1       0.592  -0.397  -0.301  1.00  0.00     0.155 A 
ENDROOT
BRANCH   1  13
HETATM   13  C4  UNL     1       3.089  -0.245  -0.613  1.00  0.00     0.129 C 
HETATM   14  C3  UNL     1       4.149  -1.057   0.104  1.00  0.00     0.038 C 
HETATM   15  C2  UNL     1       5.417  -0.386  -0.375  1.00  0.00     0.043 C 
HETATM   16  C22 UNL     1       5.159  -0.269  -1.862  1.00  0.00     0.160 C 
HETATM   17  C21 UNL     1       3.655  -0.083  -1.985  1.00  0.00     0.222 C 
HETATM   18  F1  UNL     1       3.168  -1.016  -2.851  1.00  0.00    -0.244 F 
BRANCH  15  19
HETATM   19  C1  UNL     1       6.608  -1.265  -0.078  1.00  0.00     0.171 C 
BRANCH  19  20
HETATM   20  O1  UNL     1       6.660  -1.459   1.302  1.00  0.00    -0.400 OA
ATOM     21  H1  UNL     1       7.409  -2.012   1.489  1.00  0.00     0.209 HD
ENDBRANCH  19  20
ENDBRANCH  15  19
BRANCH  16  22
HETATM   22  O2  UNL     1       5.586  -1.416  -2.505  1.00  0.00    -0.392 OA
ATOM     23  H2  UNL     1       5.424  -1.343  -3.438  1.00  0.00     0.210 HD
ENDBRANCH  16  22
ENDBRANCH   1  13
BRANCH   6  24
HETATM   24  N3  UNL     1      -2.608  -1.897  -0.209  1.00  0.00    -0.374 N 
ATOM     25  H3  UNL     1      -3.549  -1.564   0.001  1.00  0.00     0.161 HD
BRANCH  24  26
HETATM   26  C8  UNL     1      -2.494  -3.272  -0.550  1.00  0.00     0.121 C 
BRANCH  26  27
HETATM   27  C9  UNL     1      -3.830  -3.959  -0.710  1.00  0.00     0.024 C 
BRANCH  27  28
HETATM   28  C10 UNL     1      -4.673  -3.933   0.515  1.00  0.00    -0.013 A 
HETATM   29  C11 UNL     1      -4.261  -4.524   1.793  1.00  0.00     0.005 A 
HETATM   30  C12 UNL     1      -5.226  -5.308   0.943  1.00  0.00     0.005 A 
ENDBRANCH  27  28
ENDBRANCH  26  27
ENDBRANCH  24  26
ENDBRANCH   6  24
BRANCH   9  31
HETATM   31  N5  UNL     1      -1.339   2.497   0.649  1.00  0.00    -0.208 N 
HETATM   32  C14 UNL     1      -2.653   3.029   0.945  1.00  0.00     0.142 C 
HETATM   33  C15 UNL     1      -3.109   4.235   0.221  1.00  0.00     0.021 C 
HETATM   34  C16 UNL     1      -2.805   5.619   0.718  1.00  0.00     0.013 C 
HETATM   35  C17 UNL     1      -1.273   5.946   0.713  1.00  0.00     0.081 C 
HETATM   36  C18 UNL     1      -0.567   4.730   0.711  1.00  0.00    -0.163 C 
HETATM   37  C19 UNL     1      -0.117   3.387   0.705  1.00  0.00     0.221 C 
ENDBRANCH   9  31
TORSDOF 9
