REMARK  3 active torsions:
REMARK  status: ('A' for Active; 'I' for Inactive)
REMARK    1  A    between atoms: S1_2  and  C2_3 
REMARK    2  A    between atoms: C4_9  and  N3_10 
REMARK    3  A    between atoms: N5_16  and  C6_18 
ROOT
HETATM    1  C2  UNL     1       3.851   0.698  -0.936  1.00  0.00     0.094 A 
HETATM    2  N1  UNL     1       3.517  -0.116   0.065  1.00  0.00    -0.334 N 
ATOM      3  H1  UNL     1       4.243  -0.586   0.606  1.00  0.00     0.168 HD
HETATM    4  C3  UNL     1       2.206  -0.318   0.363  1.00  0.00     0.137 A 
HETATM    5  N2  UNL     1       1.900  -1.147   1.381  1.00  0.00    -0.176 N 
ATOM      6  H2  UNL     1       2.654  -1.599   1.899  1.00  0.00     0.186 HD
HETATM    7  C4  UNL     1       0.628  -1.391   1.729  1.00  0.00     0.679 A 
HETATM    8  N4  UNL     1      -0.357  -0.780   1.027  1.00  0.00    -0.176 N 
ATOM      9  H4  UNL     1      -1.321  -0.973   1.299  1.00  0.00     0.186 HD
HETATM   10  C5  UNL     1      -0.158   0.058   0.004  1.00  0.00     0.133 A 
HETATM   11  N5  UNL     1      -1.027   0.650  -0.679  1.00  0.00    -0.370 N 
ATOM     12  H5  UNL     1      -0.658   1.248  -1.419  1.00  0.00     0.161 HD
HETATM   13  C11 UNL     1       1.198   0.283  -0.325  1.00  0.00     0.076 A 
HETATM   14  C12 UNL     1       1.529   1.127  -1.362  1.00  0.00     0.076 A 
HETATM   15 CL1  UNL     1       0.288   1.915  -2.268  1.00  0.00    -0.081 Cl
HETATM   16  C13 UNL     1       2.874   1.338  -1.672  1.00  0.00     0.090 A 
HETATM   17 CL2  UNL     1       3.344   2.393  -2.971  1.00  0.00    -0.080 Cl
ENDROOT
BRANCH  11  18
HETATM   18  C6  UNL     1      -2.418   0.620  -0.587  1.00  0.00     0.087 C 
HETATM   19  C7  UNL     1      -3.040   1.093   0.694  1.00  0.00     0.051 C 
HETATM   20  C8  UNL     1      -4.198   0.228   1.128  1.00  0.00     0.169 C 
HETATM   21  O1  UNL     1      -5.090  -0.084   0.140  1.00  0.00    -0.391 OA
HETATM   22  C9  UNL     1      -4.580  -0.302  -1.111  1.00  0.00     0.169 C 
HETATM   23  C10 UNL     1      -3.098  -0.692  -0.944  1.00  0.00     0.051 C 
ENDBRANCH  11  18
BRANCH   7  24
HETATM   24  N3  UNL     1       0.333  -2.181   2.699  1.00  0.00    -0.234 N 
ATOM     25  H32 UNL     1       1.074  -2.641   3.227  1.00  0.00     0.174 HD
ATOM     26  H31 UNL     1      -0.634  -2.367   2.964  1.00  0.00     0.174 HD
ENDBRANCH   7  24
BRANCH   1  27
HETATM   27  S1  UNL     1       5.592   0.933  -1.293  1.00  0.00    -0.115 SA
HETATM   28  C1  UNL     1       6.607  -0.039  -0.155  1.00  0.00     0.097 C 
ENDBRANCH   1  27
TORSDOF 3
