REMARK  7 active torsions:
REMARK  status: ('A' for Active; 'I' for Inactive)
REMARK    1  A    between atoms: O1_2  and  C2_3 
REMARK    2  A    between atoms: C2_3  and  C3_5 
REMARK    3  A    between atoms: C3_5  and  C4_6 
REMARK    4  A    between atoms: C8_10  and  O3_11 
REMARK    5  A    between atoms: C11_15  and  C12_16 
REMARK    6  A    between atoms: C14_19  and  O4_20 
REMARK    7  A    between atoms: C15_22  and  O5_23 
ROOT
HETATM    1  C4  UNL     1       1.148   0.177  -0.491  1.00  0.00     0.006 C 
HETATM    2  C5  UNL     1       1.433   0.496   0.935  1.00  0.00     0.019 C 
HETATM    3  C6  UNL     1       1.977  -1.100  -0.761  1.00  0.00     0.016 C 
HETATM    4  C7  UNL     1       1.454  -2.233   0.051  1.00  0.00     0.033 C 
HETATM    5  C8  UNL     1       0.020  -2.340   0.315  1.00  0.00     0.130 C 
HETATM    6  C9  UNL     1      -0.918  -1.230  -0.028  1.00  0.00     0.032 C 
HETATM    7  C10 UNL     1      -2.021  -1.762  -0.921  1.00  0.00     0.022 C 
HETATM    8  C11 UNL     1      -1.592  -0.628   1.170  1.00  0.00     0.069 C 
HETATM    9  C14 UNL     1      -2.226   0.716   0.919  1.00  0.00     0.182 C 
HETATM   10  C15 UNL     1      -2.035   1.273  -0.416  1.00  0.00     0.077 C 
HETATM   11  C16 UNL     1      -1.128   0.892  -1.296  1.00  0.00    -0.011 C 
HETATM   12  C17 UNL     1      -1.075   1.578  -2.637  1.00  0.00     0.050 C 
HETATM   13  C18 UNL     1      -0.221  -0.204  -0.889  1.00  0.00     0.147 C 
HETATM   14  F2  UNL     1      -0.022  -0.886  -2.122  1.00  0.00    -0.236 F 
ENDROOT
BRANCH   1  15
HETATM   15  C3  UNL     1       1.721   1.227  -1.403  1.00  0.00     0.123 C 
BRANCH  15  16
HETATM   16  C2  UNL     1       3.195   1.390  -1.317  1.00  0.00     0.259 C 
HETATM   17  O2  UNL     1       4.020   0.697  -1.987  1.00  0.00    -0.265 OA
BRANCH  16  18
HETATM   18  O1  UNL     1       3.782   2.335  -0.477  1.00  0.00    -0.326 OA
HETATM   19  C1  UNL     1       5.152   2.546  -0.343  1.00  0.00     0.213 C 
ENDBRANCH  16  18
ENDBRANCH  15  16
ENDBRANCH   1  15
BRANCH   5  20
HETATM   20  O3  UNL     1      -0.093  -2.787   1.652  1.00  0.00    -0.395 OA
ATOM     21  H3  UNL     1      -1.025  -2.857   1.824  1.00  0.00     0.210 HD
ENDBRANCH   5  20
BRANCH   8  22
HETATM   22  C12 UNL     1      -2.637  -1.445   1.846  1.00  0.00     0.173 C 
HETATM   23  C13 UNL     1      -3.199  -0.691   3.079  1.00  0.00     0.045 C 
HETATM   24  F1  UNL     1      -3.813  -1.594   1.077  1.00  0.00    -0.249 F 
ENDBRANCH   8  22
BRANCH  10  25
HETATM   25  O5  UNL     1      -2.888   2.321  -0.832  1.00  0.00    -0.362 OA
ATOM     26  H5  UNL     1      -2.764   2.684  -1.701  1.00  0.00     0.217 HD
ENDBRANCH  10  25
BRANCH   9  27
HETATM   27  O4  UNL     1      -1.866   1.678   1.853  1.00  0.00    -0.388 OA
ATOM     28  H4  UNL     1      -2.266   2.525   1.695  1.00  0.00     0.210 HD
ENDBRANCH   9  27
TORSDOF 7
