REMARK  18 active torsions:
REMARK  status: ('A' for Active; 'I' for Inactive)
REMARK    1  A    between atoms: C4_6  and  C5_7 
REMARK    2  A    between atoms: C5_7  and  N2_8 
REMARK       I    between atoms: C6_10  and  N4_12 
REMARK    3  A    between atoms: N4_12  and  C7_14 
REMARK    4  A    between atoms: C7_14  and  C8_15 
REMARK    5  A    between atoms: C8_15  and  N5_16 
REMARK    6  A    between atoms: N5_16  and  C9_19 
REMARK    7  A    between atoms: C9_19  and  C10_20 
REMARK    8  A    between atoms: C10_20  and  C11_21 
REMARK    9  A    between atoms: C11_21  and  N6_22 
REMARK   10  A    between atoms: N6_22  and  C12_25 
REMARK   11  A    between atoms: C12_25  and  C13_26 
REMARK   12  A    between atoms: C13_26  and  C14_27 
REMARK   13  A    between atoms: C14_27  and  C15_28 
REMARK   14  A    between atoms: C15_28  and  N7_29 
REMARK   15  A    between atoms: N7_29  and  C16_32 
REMARK   16  A    between atoms: C16_32  and  C17_33 
REMARK   17  A    between atoms: C17_33  and  C18_34 
REMARK   18  A    between atoms: C18_34  and  N8_35 
ROOT
HETATM    1  C7  UNL     1      -0.432  -0.222  -0.794  1.00  0.00     0.150 C 
ENDROOT
BRANCH   1   2
HETATM    2  N4  UNL     1      -1.549   0.546  -0.309  1.00  0.00    -0.363 N 
HETATM    3  C6  UNL     1      -2.380   1.253  -1.210  1.00  0.00     0.184 C 
HETATM    4  N2  UNL     1      -3.606   1.067  -1.452  1.00  0.00    -0.363 N 
HETATM    5  N3  UNL     1      -1.679   2.319  -1.920  1.00  0.00    -0.064 NA
ATOM      6  H2  UNL     1      -3.995   1.706  -2.146  1.00  0.00     0.162 HD
ATOM      7  H4  UNL     1      -1.743   0.581   0.692  1.00  0.00     0.162 HD
BRANCH   4   8
HETATM    8  C5  UNL     1      -4.540   0.134  -0.937  1.00  0.00     0.142 C 
BRANCH   8   9
HETATM    9  C4  UNL     1      -5.057   0.632   0.411  1.00  0.00     0.099 C 
HETATM   10  S1  UNL     1      -5.832   2.246   0.217  1.00  0.00    -0.150 SA
HETATM   11  C3  UNL     1      -7.562   2.047  -0.175  1.00  0.00     0.082 C 
HETATM   12  C2  UNL     1      -7.747   2.388  -1.636  1.00  0.00     0.141 C 
HETATM   13  C25 UNL     1      -8.150   0.720   0.021  1.00  0.00     0.127 C 
HETATM   14  N1  UNL     1      -8.273   1.205  -2.269  1.00  0.00    -0.355 N 
HETATM   15  C1  UNL     1      -8.538   1.103  -3.684  1.00  0.00     0.152 C 
HETATM   16  C26 UNL     1      -8.495   0.175  -1.344  1.00  0.00     0.227 C 
HETATM   17  O3  UNL     1      -8.903  -0.995  -1.566  1.00  0.00    -0.273 OA
HETATM   18  C24 UNL     1      -7.498  -0.282   0.850  1.00  0.00     0.171 C 
HETATM   19  C19 UNL     1      -6.051  -0.321   0.962  1.00  0.00    -0.013 C 
HETATM   20  O2  UNL     1      -8.035  -0.392   2.148  1.00  0.00    -0.345 OA
HETATM   21  C20 UNL     1      -5.581  -1.370   1.639  1.00  0.00     0.145 C 
HETATM   22  O1  UNL     1      -6.579  -2.222   2.128  1.00  0.00    -0.327 OA
HETATM   23  C21 UNL     1      -7.690  -1.565   2.769  1.00  0.00     0.162 C 
HETATM   24  C22 UNL     1      -8.836  -2.512   3.013  1.00  0.00     0.079 C 
HETATM   25  C23 UNL     1      -7.179  -1.166   4.166  1.00  0.00     0.079 C 
ENDBRANCH   8   9
ENDBRANCH   4   8
ENDBRANCH   1   2
BRANCH   1  26
HETATM   26  C8  UNL     1       0.361  -0.708   0.424  1.00  0.00     0.251 C 
BRANCH  26  27
HETATM   27  N5  UNL     1       1.491  -1.484   0.043  1.00  0.00    -0.074 N 
ATOM     28  H52 UNL     1       1.217  -2.339  -0.441  1.00  0.00     0.277 HD
ATOM     29  H51 UNL     1       2.016  -1.042  -0.712  1.00  0.00     0.277 HD
BRANCH  27  30
HETATM   30  C9  UNL     1       2.324  -1.760   1.183  1.00  0.00     0.234 C 
BRANCH  30  31
HETATM   31  C10 UNL     1       3.014  -0.475   1.596  1.00  0.00     0.055 C 
BRANCH  31  32
HETATM   32  C11 UNL     1       3.835  -0.069   0.351  1.00  0.00     0.233 C 
BRANCH  32  33
HETATM   33  N6  UNL     1       4.739  -1.147   0.128  1.00  0.00    -0.075 N 
ATOM     34  H62 UNL     1       5.310  -1.335   0.952  1.00  0.00     0.277 HD
ATOM     35  H61 UNL     1       4.250  -2.040   0.070  1.00  0.00     0.277 HD
BRANCH  33  36
HETATM   36  C12 UNL     1       5.550  -0.912  -1.033  1.00  0.00     0.232 C 
BRANCH  36  37
HETATM   37  C13 UNL     1       6.470   0.241  -0.771  1.00  0.00     0.029 C 
BRANCH  37  38
HETATM   38  C14 UNL     1       7.405   0.497  -1.941  1.00  0.00     0.029 C 
BRANCH  38  39
HETATM   39  C15 UNL     1       8.283  -0.726  -2.183  1.00  0.00     0.232 C 
BRANCH  39  40
HETATM   40  N7  UNL     1       9.049  -1.025  -0.978  1.00  0.00    -0.075 N 
ATOM     41  H72 UNL     1       8.429  -1.163  -0.180  1.00  0.00     0.277 HD
ATOM     42  H71 UNL     1       9.463  -1.956  -1.033  1.00  0.00     0.277 HD
BRANCH  40  43
HETATM   43  C16 UNL     1      10.044  -0.044  -0.684  1.00  0.00     0.233 C 
BRANCH  43  44
HETATM   44  C17 UNL     1      10.683  -0.422   0.657  1.00  0.00     0.055 C 
BRANCH  44  45
HETATM   45  C18 UNL     1      11.761   0.554   1.051  1.00  0.00     0.231 C 
BRANCH  45  46
HETATM   46  N8  UNL     1      12.780   0.521   0.011  1.00  0.00    -0.079 N 
ATOM     47  H83 UNL     1      13.138  -0.418  -0.166  1.00  0.00     0.274 HD
ATOM     48  H82 UNL     1      12.404   0.698  -0.921  1.00  0.00     0.274 HD
ATOM     49  H81 UNL     1      13.510   1.182   0.278  1.00  0.00     0.274 HD
ENDBRANCH  45  46
ENDBRANCH  44  45
ENDBRANCH  43  44
ENDBRANCH  40  43
ENDBRANCH  39  40
ENDBRANCH  38  39
ENDBRANCH  37  38
ENDBRANCH  36  37
ENDBRANCH  33  36
ENDBRANCH  32  33
ENDBRANCH  31  32
ENDBRANCH  30  31
ENDBRANCH  27  30
ENDBRANCH  26  27
ENDBRANCH   1  26
TORSDOF 18
