REMARK  20 active torsions:
REMARK  status: ('A' for Active; 'I' for Inactive)
REMARK    1  A    between atoms: N1_1  and  C1_5 
REMARK    2  A    between atoms: C1_5  and  C2_6 
REMARK    3  A    between atoms: C2_6  and  C3_7 
REMARK    4  A    between atoms: C3_7  and  C4_8 
REMARK    5  A    between atoms: C4_8  and  C5_9 
REMARK    6  A    between atoms: C5_9  and  C6_10 
REMARK    7  A    between atoms: C6_10  and  C7_11 
REMARK    8  A    between atoms: C7_11  and  C8_12 
REMARK    9  A    between atoms: C8_12  and  N2_13 
REMARK       I    between atoms: N2_13  and  C9_15 
REMARK   10  A    between atoms: C9_15  and  C10_17 
REMARK       I    between atoms: N3_21  and  C14_22 
REMARK   11  A    between atoms: C14_22  and  C15_24 
REMARK   12  A    between atoms: C15_24  and  O3_25 
REMARK   13  A    between atoms: C15_24  and  N4_27 
REMARK       I    between atoms: N4_27  and  C16_29 
REMARK   14  A    between atoms: C16_29  and  C17_31 
REMARK   15  A    between atoms: C17_31  and  N5_32 
REMARK   16  A    between atoms: N5_32  and  C18_33 
REMARK   17  A    between atoms: N5_32  and  C24_42 
REMARK   18  A    between atoms: C18_33  and  C19_34 
REMARK   19  A    between atoms: C19_34  and  N6_35 
REMARK   20  A    between atoms: C22_38  and  O5_39 
ROOT
HETATM    1  C15 UNL     1      -1.329  -0.389  -1.464  1.00  0.00     0.314 C 
ENDROOT
BRANCH   1   2
HETATM    2  C14 UNL     1      -0.244   0.289  -0.735  1.00  0.00     0.269 C 
HETATM    3  N3  UNL     1       0.920   0.821  -1.346  1.00  0.00    -0.335 N 
HETATM    4  C10 UNL     1       2.001   1.469  -0.627  1.00  0.00     0.179 C 
HETATM    5  C13 UNL     1       1.259   0.854  -2.759  1.00  0.00     0.127 C 
HETATM    6  C11 UNL     1       2.261   2.644  -1.594  1.00  0.00     0.037 C 
HETATM    7  C12 UNL     1       2.416   1.834  -2.875  1.00  0.00     0.022 C 
HETATM    8  O2  UNL     1      -0.381   0.395   0.522  1.00  0.00    -0.268 OA
BRANCH   4   9
HETATM    9  C9  UNL     1       3.168   0.567  -0.621  1.00  0.00     0.240 C 
HETATM   10  N2  UNL     1       4.399   0.915   0.008  1.00  0.00    -0.359 N 
ATOM     11  H2  UNL     1       4.465   1.821   0.471  1.00  0.00     0.162 HD
HETATM   12  O1  UNL     1       3.097  -0.542  -1.180  1.00  0.00    -0.271 OA
BRANCH  10  13
HETATM   13  C8  UNL     1       5.561   0.050   0.024  1.00  0.00     0.122 C 
BRANCH  13  14
HETATM   14  C7  UNL     1       6.656   0.742   0.781  1.00  0.00     0.020 C 
BRANCH  14  15
HETATM   15  C6  UNL     1       7.935  -0.074   0.875  1.00  0.00     0.002 C 
BRANCH  15  16
HETATM   16  C5  UNL     1       8.470  -0.343  -0.454  1.00  0.00     0.000 C 
BRANCH  16  17
HETATM   17  C4  UNL     1       9.698  -1.148  -0.556  1.00  0.00     0.000 C 
BRANCH  17  18
HETATM   18  C3  UNL     1      10.917  -0.648   0.050  1.00  0.00     0.002 C 
BRANCH  18  19
HETATM   19  C2  UNL     1      11.167  -0.522   1.489  1.00  0.00     0.027 C 
BRANCH  19  20
HETATM   20  C1  UNL     1      11.212  -1.787   2.289  1.00  0.00     0.229 C 
BRANCH  20  21
HETATM   21  N1  UNL     1      10.068  -2.610   2.298  1.00  0.00    -0.079 N 
ATOM     22  H13 UNL     1       9.263  -2.058   2.593  1.00  0.00     0.274 HD
ATOM     23  H12 UNL     1       9.810  -2.833   1.337  1.00  0.00     0.274 HD
ATOM     24  H11 UNL     1      10.099  -3.472   2.843  1.00  0.00     0.274 HD
ENDBRANCH  20  21
ENDBRANCH  19  20
ENDBRANCH  18  19
ENDBRANCH  17  18
ENDBRANCH  16  17
ENDBRANCH  15  16
ENDBRANCH  14  15
ENDBRANCH  13  14
ENDBRANCH  10  13
ENDBRANCH   4   9
ENDBRANCH   1   2
BRANCH   1  25
HETATM   25  O3  UNL     1      -0.987  -0.564  -2.830  1.00  0.00    -0.368 OA
ATOM     26  H3  UNL     1      -1.687  -1.001  -3.300  1.00  0.00     0.212 HD
ENDBRANCH   1  25
BRANCH   1  27
HETATM   27  N4  UNL     1      -2.576   0.363  -1.408  1.00  0.00    -0.322 N 
HETATM   28  C16 UNL     1      -3.829  -0.172  -1.063  1.00  0.00     0.259 C 
HETATM   29  O4  UNL     1      -3.919  -1.380  -0.773  1.00  0.00    -0.267 OA
ATOM     30  H4  UNL     1      -2.536   1.356  -1.637  1.00  0.00     0.165 HD
BRANCH  28  31
HETATM   31  C17 UNL     1      -5.038   0.686  -1.043  1.00  0.00     0.165 C 
BRANCH  31  32
HETATM   32  N5  UNL     1      -6.231   0.065  -0.703  1.00  0.00    -0.357 N 
BRANCH  32  33
HETATM   33  C18 UNL     1      -6.483  -0.411   0.598  1.00  0.00     0.094 C 
BRANCH  33  34
HETATM   34  C19 UNL     1      -6.625   0.651   1.667  1.00  0.00     0.317 C 
BRANCH  34  35
HETATM   35  N6  UNL     1      -6.916   0.094   2.958  1.00  0.00     0.095 N 
HETATM   36  C20 UNL     1      -5.875  -0.670   3.540  1.00  0.00     0.275 C 
HETATM   37  C21 UNL     1      -6.397  -2.072   3.762  1.00  0.00     0.064 C 
HETATM   38  C22 UNL     1      -7.831  -2.051   3.354  1.00  0.00     0.148 C 
HETATM   39  C23 UNL     1      -8.148  -0.626   3.033  1.00  0.00     0.304 C 
BRANCH  38  40
HETATM   40  O5  UNL     1      -8.680  -2.601   4.316  1.00  0.00    -0.394 OA
ATOM     41  H5  UNL     1      -9.594  -2.588   4.056  1.00  0.00     0.210 HD
ENDBRANCH  38  40
ENDBRANCH  34  35
ENDBRANCH  33  34
ENDBRANCH  32  33
BRANCH  32  42
HETATM   42  C24 UNL     1      -7.389   0.209  -1.483  1.00  0.00     0.116 C 
HETATM   43  C25 UNL     1      -7.903   1.630  -1.585  1.00  0.00     0.055 C 
HETATM   44  C26 UNL     1      -8.796   1.544  -2.806  1.00  0.00     0.234 C 
HETATM   45  N7  UNL     1      -8.406   0.398  -3.569  1.00  0.00    -0.073 N 
HETATM   46  C27 UNL     1      -7.230  -0.159  -2.935  1.00  0.00     0.257 C 
ATOM     47  H72 UNL     1      -9.158  -0.281  -3.682  1.00  0.00     0.277 HD
ATOM     48  H71 UNL     1      -8.266   0.605  -4.558  1.00  0.00     0.277 HD
ENDBRANCH  32  42
ENDBRANCH  31  32
ENDBRANCH  28  31
ENDBRANCH   1  27
TORSDOF 20
