REMARK  18 active torsions:
REMARK  status: ('A' for Active; 'I' for Inactive)
REMARK    1  A    between atoms: N3_4  and  C2_6 
REMARK    2  A    between atoms: C2_6  and  C3_7 
REMARK    3  A    between atoms: C3_7  and  C4_8 
REMARK    4  A    between atoms: C4_8  and  C5_9 
REMARK    5  A    between atoms: C5_9  and  C6_10 
REMARK    6  A    between atoms: C6_10  and  C7_11 
REMARK    7  A    between atoms: C7_11  and  N4_12 
REMARK    8  A    between atoms: N4_12  and  N5_14 
REMARK    9  A    between atoms: N5_14  and  C8_16 
REMARK   10  A    between atoms: C8_16  and  O1_17 
REMARK   11  A    between atoms: C9_19  and  N6_20 
REMARK   12  A    between atoms: C13_24  and  N7_25 
REMARK       I    between atoms: N7_25  and  C14_27 
REMARK   13  A    between atoms: C14_27  and  C15_29 
REMARK   14  A    between atoms: C15_29  and  C16_30 
REMARK   15  A    between atoms: C16_30  and  C17_31 
REMARK   16  A    between atoms: C17_31  and  C18_32 
REMARK   17  A    between atoms: C18_32  and  C19_33 
REMARK   18  A    between atoms: C19_33  and  N8_34 
ROOT
HETATM    1  N6  UNL     1      -0.306   1.757  -1.198  1.00  0.00    -0.287 NA
HETATM    2  C10 UNL     1       0.193   2.085  -2.553  1.00  0.00     0.095 C 
HETATM    3  C11 UNL     1       1.586   1.574  -2.739  1.00  0.00     0.017 C 
HETATM    4  C12 UNL     1       2.414   2.088  -1.550  1.00  0.00     0.027 C 
HETATM    5  C13 UNL     1       1.909   1.342  -0.323  1.00  0.00     0.097 C 
HETATM    6  C25 UNL     1       0.500   0.777  -0.586  1.00  0.00     0.120 C 
ENDROOT
BRANCH   5   7
HETATM    7  N7  UNL     1       2.800   0.253  -0.059  1.00  0.00    -0.355 N 
HETATM    8  C14 UNL     1       3.633   0.105   1.070  1.00  0.00     0.217 C 
HETATM    9  O2  UNL     1       3.683   0.940   1.977  1.00  0.00    -0.274 OA
ATOM     10  H7  UNL     1       2.836  -0.490  -0.757  1.00  0.00     0.162 HD
BRANCH   8  11
HETATM   11  C15 UNL     1       4.513  -1.120   1.197  1.00  0.00     0.103 C 
BRANCH  11  12
HETATM   12  C16 UNL     1       5.734  -0.919   2.005  1.00  0.00     0.009 C 
BRANCH  12  13
HETATM   13  C17 UNL     1       6.700   0.112   1.342  1.00  0.00     0.002 C 
BRANCH  13  14
HETATM   14  C18 UNL     1       6.931  -0.356  -0.080  1.00  0.00     0.020 C 
BRANCH  14  15
HETATM   15  C19 UNL     1       7.905   0.510  -0.808  1.00  0.00     0.133 C 
BRANCH  15  16
HETATM   16  N8  UNL     1       9.211   0.443  -0.231  1.00  0.00    -0.310 N 
HETATM   17  C20 UNL     1       9.689   1.346   0.611  1.00  0.00     0.187 A 
HETATM   18  N9  UNL     1      10.935   1.220   1.060  1.00  0.00    -0.336 N 
HETATM   19  C21 UNL     1      11.753   0.231   0.713  1.00  0.00     0.138 A 
ATOM     20  H9  UNL     1      11.284   1.925   1.710  1.00  0.00     0.168 HD
HETATM   21  N10 UNL     1      12.996  -0.147   0.979  1.00  0.00    -0.285 N 
HETATM   22  C23 UNL     1      11.247  -0.725  -0.181  1.00  0.00     0.094 A 
HETATM   23  N11 UNL     1      13.325  -1.236   0.349  1.00  0.00    -0.309 N 
ATOM     24  H10 UNL     1      13.622   0.358   1.606  1.00  0.00     0.188 HD
HETATM   25  C22 UNL     1      12.270  -1.612  -0.369  1.00  0.00     0.128 A 
ATOM     26  H11 UNL     1      14.225  -1.713   0.397  1.00  0.00     0.186 HD
HETATM   27  C24 UNL     1       9.975  -0.621  -0.655  1.00  0.00     0.264 A 
HETATM   28  O3  UNL     1       9.524  -1.460  -1.446  1.00  0.00    -0.267 OA
ENDBRANCH  15  16
ENDBRANCH  14  15
ENDBRANCH  13  14
ENDBRANCH  12  13
ENDBRANCH  11  12
ENDBRANCH   8  11
ENDBRANCH   5   7
BRANCH   1  29
HETATM   29  C9  UNL     1      -1.663   1.418  -1.383  1.00  0.00     0.117 C 
HETATM   30  C8  UNL     1      -2.522   1.011  -0.305  1.00  0.00     0.165 C 
BRANCH  30  31
HETATM   31  N5  UNL     1      -3.869   0.730  -0.542  1.00  0.00    -0.284 N 
ATOM     32  H5  UNL     1      -4.188   0.908  -1.495  1.00  0.00     0.188 HD
BRANCH  31  33
HETATM   33  N4  UNL     1      -4.800   0.265   0.288  1.00  0.00    -0.334 N 
ATOM     34  H4  UNL     1      -4.627  -0.577   0.837  1.00  0.00     0.180 HD
BRANCH  33  35
HETATM   35  C7  UNL     1      -6.070   0.973   0.404  1.00  0.00     0.139 C 
BRANCH  35  36
HETATM   36  C6  UNL     1      -7.171  -0.125   0.264  1.00  0.00     0.021 C 
BRANCH  36  37
HETATM   37  C5  UNL     1      -7.064  -1.243   1.204  1.00  0.00     0.002 C 
BRANCH  37  38
HETATM   38  C4  UNL     1      -7.924  -2.389   0.838  1.00  0.00     0.002 C 
BRANCH  38  39
HETATM   39  C3  UNL     1      -9.380  -2.318   0.704  1.00  0.00     0.020 C 
BRANCH  39  40
HETATM   40  C2  UNL     1      -9.976  -1.431  -0.354  1.00  0.00     0.122 C 
BRANCH  40  41
HETATM   41  N3  UNL     1     -11.432  -1.667  -0.339  1.00  0.00    -0.367 N 
HETATM   42  C1  UNL     1     -12.297  -0.735  -0.338  1.00  0.00     0.196 C 
HETATM   43  N1  UNL     1     -13.680  -1.159  -0.324  1.00  0.00    -0.067 NA
HETATM   44  N2  UNL     1     -11.963   0.616  -0.346  1.00  0.00    -0.067 NA
ATOM     45  H3  UNL     1     -11.763  -2.632  -0.329  1.00  0.00     0.161 HD
ENDBRANCH  40  41
ENDBRANCH  39  40
ENDBRANCH  38  39
ENDBRANCH  37  38
ENDBRANCH  36  37
ENDBRANCH  35  36
ENDBRANCH  33  35
ENDBRANCH  31  33
ENDBRANCH  30  31
BRANCH  30  46
HETATM   46  O1  UNL     1      -2.063   0.875   0.910  1.00  0.00    -0.344 OA
ATOM     47  H1  UNL     1      -1.147   1.066   1.071  1.00  0.00     0.219 HD
ENDBRANCH  30  46
ENDBRANCH   1  29
TORSDOF 18
