REMARK  18 active torsions:
REMARK  status: ('A' for Active; 'I' for Inactive)
REMARK    1  A    between atoms: C2_2  and  C3_3 
REMARK    2  A    between atoms: C3_3  and  N1_4 
REMARK    3  A    between atoms: N1_4  and  C4_5 
REMARK    4  A    between atoms: N1_4  and  C7_8 
REMARK    5  A    between atoms: C4_5  and  C5_6 
REMARK    6  A    between atoms: C7_8  and  C8_9 
REMARK    7  A    between atoms: C8_9  and  N2_10 
REMARK    8  A    between atoms: N3_13  and  C11_14 
REMARK    9  A    between atoms: C11_14  and  C12_15 
REMARK   10  A    between atoms: C12_15  and  C13_16 
REMARK   11  A    between atoms: C12_15  and  N7_26 
REMARK   12  A    between atoms: C13_16  and  C14_17 
REMARK   13  A    between atoms: C14_17  and  C15_18 
REMARK   14  A    between atoms: C15_18  and  N4_19 
REMARK       I    between atoms: N4_19  and  C16_21 
REMARK       I    between atoms: N7_26  and  C17_28 
REMARK   15  A    between atoms: C17_28  and  C18_30 
REMARK   16  A    between atoms: C18_30  and  N8_31 
REMARK   17  A    between atoms: C19_34  and  C20_35 
REMARK   18  A    between atoms: C25_44  and  N12_45 
ROOT
HETATM    1  C12 UNL     1       0.746   1.066  -0.381  1.00  0.00     0.113 C 
ENDROOT
BRANCH   1   2
HETATM    2  C11 UNL     1       0.834   0.745   1.156  1.00  0.00     0.299 C 
BRANCH   2   3
HETATM    3  N3  UNL     1      -0.477   0.604   1.640  1.00  0.00     0.109 N 
HETATM    4  C10 UNL     1      -0.557   0.229   3.027  1.00  0.00     0.294 C 
HETATM    5  C9  UNL     1      -1.962  -0.434   3.105  1.00  0.00     0.154 C 
HETATM    6  N2  UNL     1      -2.106  -1.007   1.836  1.00  0.00    -0.365 N 
HETATM    7  C26 UNL     1      -1.182  -0.471   0.904  1.00  0.00     0.397 C 
BRANCH   6   8
HETATM    8  C8  UNL     1      -3.318  -1.544   1.391  1.00  0.00     0.090 C 
BRANCH   8   9
HETATM    9  C7  UNL     1      -4.399  -0.492   1.189  1.00  0.00     0.317 C 
BRANCH   9  10
HETATM   10  N1  UNL     1      -5.642  -1.034   0.695  1.00  0.00     0.096 N 
BRANCH  10  11
HETATM   11  C3  UNL     1      -6.262  -1.917   1.672  1.00  0.00     0.299 C 
BRANCH  11  12
HETATM   12  C2  UNL     1      -7.442  -2.629   1.113  1.00  0.00    -0.007 C 
HETATM   13  C1  UNL     1      -7.455  -3.974   1.079  1.00  0.00     0.008 C 
ENDBRANCH  11  12
ENDBRANCH  10  11
BRANCH  10  14
HETATM   14  C4  UNL     1      -6.530   0.078   0.408  1.00  0.00     0.273 C 
BRANCH  14  15
HETATM   15  C5  UNL     1      -5.986   1.025  -0.606  1.00  0.00     0.026 C 
HETATM   16  C6  UNL     1      -7.068   2.128  -0.783  1.00  0.00     0.007 C 
ENDBRANCH  14  15
ENDBRANCH  10  14
ENDBRANCH   9  10
ENDBRANCH   8   9
ENDBRANCH   6   8
ENDBRANCH   2   3
ENDBRANCH   1   2
BRANCH   1  17
HETATM   17  C13 UNL     1       0.010   2.315  -0.576  1.00  0.00     0.028 C 
BRANCH  17  18
HETATM   18  C14 UNL     1      -0.208   2.728  -1.975  1.00  0.00     0.022 C 
BRANCH  18  19
HETATM   19  C15 UNL     1       0.935   3.027  -2.865  1.00  0.00     0.122 C 
BRANCH  19  20
HETATM   20  N4  UNL     1       1.758   4.135  -2.509  1.00  0.00    -0.365 N 
HETATM   21  C16 UNL     1       1.279   5.464  -2.582  1.00  0.00     0.181 C 
HETATM   22  N5  UNL     1       0.705   5.954  -1.507  1.00  0.00    -0.374 N 
HETATM   23  N6  UNL     1       1.341   6.275  -3.725  1.00  0.00    -0.064 NA
ATOM     24  H52 UNL     1       0.660   5.364  -0.676  1.00  0.00     0.158 HD
ATOM     25  H51 UNL     1       0.360   6.912  -1.560  1.00  0.00     0.158 HD
ATOM     26  H4  UNL     1       2.713   3.966  -2.195  1.00  0.00     0.162 HD
ENDBRANCH  19  20
ENDBRANCH  18  19
ENDBRANCH  17  18
ENDBRANCH   1  17
BRANCH   1  27
HETATM   27  N7  UNL     1       2.110   1.100  -0.827  1.00  0.00    -0.353 N 
HETATM   28  C17 UNL     1       2.756  -0.188  -1.116  1.00  0.00     0.238 C 
HETATM   29  O1  UNL     1       2.056  -1.212  -0.915  1.00  0.00    -0.272 OA
ATOM     30  H7  UNL     1       2.610   1.982  -0.939  1.00  0.00     0.163 HD
BRANCH  28  31
HETATM   31  C18 UNL     1       4.117  -0.175  -1.606  1.00  0.00     0.270 C 
BRANCH  31  32
HETATM   32  N8  UNL     1       4.842  -1.356  -1.207  1.00  0.00    -0.114 N 
HETATM   33  N9  UNL     1       5.689  -1.442  -0.171  1.00  0.00    -0.266 N 
HETATM   34  C19 UNL     1       6.223  -2.673  -0.152  1.00  0.00     0.163 A 
ATOM     35  H9  UNL     1       5.894  -0.695   0.493  1.00  0.00     0.189 HD
HETATM   36  N11 UNL     1       5.721  -3.368  -1.172  1.00  0.00    -0.172 N 
HETATM   37  C25 UNL     1       4.866  -2.528  -1.812  1.00  0.00     0.694 A 
ATOM     38  H11 UNL     1       5.935  -4.334  -1.421  1.00  0.00     0.186 HD
BRANCH  34  39
HETATM   39  C20 UNL     1       7.232  -3.140   0.811  1.00  0.00     0.078 A 
HETATM   40  C21 UNL     1       7.727  -2.283   1.740  1.00  0.00     0.033 A 
HETATM   41  C22 UNL     1       8.719  -2.692   2.630  1.00  0.00     0.004 A 
HETATM   42  C23 UNL     1       9.191  -3.969   2.560  1.00  0.00     0.017 A 
HETATM   43  C24 UNL     1       8.652  -4.824   1.583  1.00  0.00     0.088 A 
HETATM   44  N10 UNL     1       7.689  -4.401   0.732  1.00  0.00    -0.363 N 
ATOM     45  H10 UNL     1       7.310  -5.038   0.031  1.00  0.00     0.165 HD
ENDBRANCH  34  39
BRANCH  37  46
HETATM   46  N12 UNL     1       4.170  -2.877  -2.868  1.00  0.00    -0.233 N 
ATOM     47 2H12 UNL     1       3.528  -2.246  -3.348  1.00  0.00     0.174 HD
ATOM     48 1H12 UNL     1       4.189  -3.783  -3.336  1.00  0.00     0.174 HD
ENDBRANCH  37  46
ENDBRANCH  31  32
ENDBRANCH  28  31
ENDBRANCH   1  27
TORSDOF 18
