REMARK  18 active torsions:
REMARK  status: ('A' for Active; 'I' for Inactive)
REMARK    1  A    between atoms: N1_1  and  C1_4 
REMARK    2  A    between atoms: C2_7  and  N3_8 
REMARK    3  A    between atoms: N3_8  and  C3_9 
REMARK    4  A    between atoms: C3_9  and  C4_10 
REMARK    5  A    between atoms: C4_10  and  C5_11 
REMARK    6  A    between atoms: C5_11  and  C6_12 
REMARK    7  A    between atoms: C6_12  and  N4_13 
REMARK    8  A    between atoms: C11_23  and  C12_24 
REMARK    9  A    between atoms: C12_24  and  N8_25 
REMARK   10  A    between atoms: C15_29  and  C16_30 
REMARK   11  A    between atoms: C16_30  and  C17_31 
REMARK   12  A    between atoms: C17_31  and  O1_32 
REMARK   13  A    between atoms: O1_32  and  C18_33 
REMARK   14  A    between atoms: C18_33  and  C19_34 
REMARK   15  A    between atoms: C19_34  and  O2_35 
REMARK   16  A    between atoms: O2_35  and  C20_36 
REMARK   17  A    between atoms: C20_36  and  C21_37 
REMARK   18  A    between atoms: C21_37  and  S1_38 
ROOT
HETATM    1  C1  UNL     1      -4.086  -1.716  -2.260  1.00  0.00     0.132 A 
HETATM    2  N2  UNL     1      -5.407  -1.793  -2.177  1.00  0.00    -0.301 N 
ATOM      3  H2  UNL     1      -5.939  -1.965  -3.030  1.00  0.00     0.171 HD
HETATM    4  C2  UNL     1      -6.101  -1.650  -0.982  1.00  0.00     0.260 A 
HETATM    5  N7  UNL     1      -5.292  -1.421   0.091  1.00  0.00    -0.314 N 
ATOM      6  H7  UNL     1      -5.742  -1.304   0.999  1.00  0.00     0.170 HD
HETATM    7  C8  UNL     1      -3.971  -1.337   0.055  1.00  0.00     0.066 A 
HETATM    8  C9  UNL     1      -3.172  -1.147   1.156  1.00  0.00     0.034 A 
HETATM    9  C10 UNL     1      -1.779  -1.111   1.043  1.00  0.00     0.033 A 
HETATM   10  C11 UNL     1      -1.142  -1.262  -0.161  1.00  0.00     0.043 A 
HETATM   11  N10 UNL     1      -1.973  -1.445  -1.217  1.00  0.00    -0.351 N 
ATOM     12  H10 UNL     1      -1.547  -1.560  -2.137  1.00  0.00     0.166 HD
HETATM   13  C24 UNL     1      -3.307  -1.486  -1.145  1.00  0.00     0.104 A 
ENDROOT
BRANCH  10  14
HETATM   14  C12 UNL     1       0.292  -1.278  -0.368  1.00  0.00     0.089 C 
BRANCH  14  15
HETATM   15  N8  UNL     1       1.174  -0.867   0.644  1.00  0.00    -0.287 NA
HETATM   16  C13 UNL     1       2.553  -1.146   0.174  1.00  0.00     0.114 C 
HETATM   17  C14 UNL     1       3.066   0.200  -0.400  1.00  0.00     0.137 C 
HETATM   18  N9  UNL     1       3.456   0.950   0.693  1.00  0.00    -0.391 N 
HETATM   19  C15 UNL     1       4.518   1.770   0.887  1.00  0.00     0.060 C 
HETATM   20  C22 UNL     1       2.442   0.899   1.730  1.00  0.00     0.137 C 
HETATM   21  C23 UNL     1       1.072   0.469   1.140  1.00  0.00     0.114 C 
BRANCH  19  22
HETATM   22  C16 UNL     1       5.877   1.164   1.000  1.00  0.00     0.070 C 
BRANCH  22  23
HETATM   23  C17 UNL     1       6.327   0.481  -0.245  1.00  0.00     0.172 C 
BRANCH  23  24
HETATM   24  O1  UNL     1       7.642  -0.022  -0.126  1.00  0.00    -0.389 OA
BRANCH  24  25
HETATM   25  C18 UNL     1       7.721  -1.064   0.753  1.00  0.00     0.193 C 
BRANCH  25  26
HETATM   26  C19 UNL     1       9.140  -1.556   0.967  1.00  0.00     0.193 C 
BRANCH  26  27
HETATM   27  O2  UNL     1       9.984  -0.663   1.482  1.00  0.00    -0.388 OA
BRANCH  27  28
HETATM   28  C20 UNL     1      10.349   0.482   0.894  1.00  0.00     0.183 C 
BRANCH  28  29
HETATM   29  C21 UNL     1      11.121   0.367  -0.410  1.00  0.00     0.183 C 
BRANCH  29  30
HETATM   30  S1  UNL     1      11.454   2.053  -0.917  1.00  0.00     0.252 S 
HETATM   31  O3  UNL     1      12.304   2.059  -2.346  1.00  0.00    -0.212 OA
HETATM   32  O4  UNL     1       9.959   2.837  -1.080  1.00  0.00    -0.212 OA
ENDBRANCH  29  30
ENDBRANCH  28  29
ENDBRANCH  27  28
ENDBRANCH  26  27
ENDBRANCH  25  26
ENDBRANCH  24  25
ENDBRANCH  23  24
ENDBRANCH  22  23
ENDBRANCH  19  22
ENDBRANCH  14  15
ENDBRANCH  10  14
BRANCH   1  33
HETATM   33  N1  UNL     1      -3.469  -1.865  -3.404  1.00  0.00    -0.383 N 
ATOM     34  H12 UNL     1      -4.045  -2.035  -4.228  1.00  0.00     0.157 HD
ATOM     35  H11 UNL     1      -2.453  -1.806  -3.468  1.00  0.00     0.157 HD
ENDBRANCH   1  33
BRANCH   4  36
HETATM   36  N3  UNL     1      -7.283  -1.801  -0.987  1.00  0.00    -0.388 NA
BRANCH  36  37
HETATM   37  C3  UNL     1      -8.609  -1.967  -0.982  1.00  0.00     0.159 C 
BRANCH  37  38
HETATM   38  C4  UNL     1      -9.293  -1.921   0.355  1.00  0.00     0.061 C 
BRANCH  38  39
HETATM   39  C5  UNL     1      -9.271  -0.596   1.021  1.00  0.00     0.026 C 
BRANCH  39  40
HETATM   40  C6  UNL     1     -10.055   0.419   0.204  1.00  0.00     0.122 C 
BRANCH  40  41
HETATM   41  N4  UNL     1     -10.155   1.690   0.814  1.00  0.00    -0.367 N 
HETATM   42  C7  UNL     1     -10.037   2.847   0.333  1.00  0.00     0.196 C 
HETATM   43  N5  UNL     1     -10.191   3.991   1.200  1.00  0.00    -0.067 NA
HETATM   44  N6  UNL     1      -9.772   3.085  -1.049  1.00  0.00    -0.067 NA
ATOM     45  H4  UNL     1     -10.357   1.665   1.813  1.00  0.00     0.161 HD
ENDBRANCH  40  41
ENDBRANCH  39  40
ENDBRANCH  38  39
ENDBRANCH  37  38
ENDBRANCH  36  37
ENDBRANCH   4  36
TORSDOF 18
