REMARK  16 active torsions:
REMARK  status: ('A' for Active; 'I' for Inactive)
REMARK    1  A    between atoms: C2_2  and  C3_3 
REMARK    2  A    between atoms: C5_8  and  C6_9 
REMARK    3  A    between atoms: C6_9  and  O1_10 
REMARK    4  A    between atoms: O1_10  and  C7_11 
REMARK    5  A    between atoms: C7_11  and  N2_12 
REMARK    6  A    between atoms: C14_27  and  N5_28 
REMARK       I    between atoms: N5_28  and  C15_30 
REMARK    7  A    between atoms: C15_30  and  C16_32 
REMARK    8  A    between atoms: C16_32  and  C17_33 
REMARK    9  A    between atoms: C17_33  and  C18_34 
REMARK   10  A    between atoms: C18_34  and  C19_35 
REMARK   11  A    between atoms: C19_35  and  C20_36 
REMARK   12  A    between atoms: C20_36  and  C21_37 
REMARK   13  A    between atoms: C21_37  and  C22_38 
REMARK   14  A    between atoms: C22_38  and  C23_39 
REMARK   15  A    between atoms: C23_39  and  C24_40 
REMARK   16  A    between atoms: C24_40  and  N6_41 
ROOT
HETATM    1  C3  UNL     1      -2.907   2.290   0.618  1.00  0.00     0.211 C 
HETATM    2  N1  UNL     1      -3.755   1.948  -0.490  1.00  0.00    -0.061 N 
ATOM      3  H11 UNL     1      -4.014   2.761  -1.049  1.00  0.00     0.278 HD
ATOM      4  H12 UNL     1      -4.693   1.676  -0.195  1.00  0.00     0.278 HD
HETATM    5  C4  UNL     1      -3.116   0.944  -1.256  1.00  0.00     0.230 C 
HETATM    6  C5  UNL     1      -4.060  -0.184  -1.618  1.00  0.00     0.113 C 
HETATM    7  C10 UNL     1      -3.227  -1.153  -2.416  1.00  0.00     0.137 C 
HETATM    8  O4  UNL     1      -3.633  -1.290  -3.556  1.00  0.00    -0.297 OA
HETATM    9  C11 UNL     1      -2.050  -1.881  -1.935  1.00  0.00     0.105 C 
HETATM   10  C12 UNL     1      -0.819  -1.065  -1.803  1.00  0.00     0.175 C 
HETATM   11  O5  UNL     1      -0.900   0.098  -1.115  1.00  0.00    -0.381 OA
HETATM   12  C13 UNL     1      -2.047   0.313  -0.372  1.00  0.00     0.177 C 
HETATM   13  C14 UNL     1      -1.824   1.284   0.755  1.00  0.00     0.146 C 
ENDROOT
BRANCH  13  14
HETATM   14  N5  UNL     1      -0.495   1.870   0.703  1.00  0.00    -0.352 N 
HETATM   15  C15 UNL     1       0.429   1.646   1.750  1.00  0.00     0.218 C 
HETATM   16  O6  UNL     1       0.099   0.944   2.718  1.00  0.00    -0.274 OA
ATOM     17  H5  UNL     1      -0.227   2.447  -0.094  1.00  0.00     0.163 HD
BRANCH  15  18
HETATM   18  C16 UNL     1       1.764   2.244   1.681  1.00  0.00     0.103 C 
BRANCH  18  19
HETATM   19  C17 UNL     1       2.691   1.907   2.794  1.00  0.00     0.009 C 
BRANCH  19  20
HETATM   20  C18 UNL     1       3.014   0.460   2.958  1.00  0.00     0.000 C 
BRANCH  20  21
HETATM   21  C19 UNL     1       3.667  -0.049   1.678  1.00  0.00     0.000 C 
BRANCH  21  22
HETATM   22  C20 UNL     1       3.990  -1.522   1.848  1.00  0.00     0.000 C 
BRANCH  22  23
HETATM   23  C21 UNL     1       4.637  -2.102   0.626  1.00  0.00     0.000 C 
BRANCH  23  24
HETATM   24  C22 UNL     1       5.942  -1.438   0.256  1.00  0.00     0.002 C 
BRANCH  24  25
HETATM   25  C23 UNL     1       6.476  -2.109  -0.979  1.00  0.00     0.020 C 
BRANCH  25  26
HETATM   26  C24 UNL     1       7.780  -1.529  -1.441  1.00  0.00     0.122 C 
BRANCH  26  27
HETATM   27  N6  UNL     1       8.802  -1.668  -0.404  1.00  0.00    -0.367 N 
HETATM   28  C25 UNL     1       9.988  -1.246  -0.673  1.00  0.00     0.196 C 
HETATM   29  N7  UNL     1      10.317  -0.661  -1.928  1.00  0.00    -0.067 NA
HETATM   30  N8  UNL     1      10.993  -1.371   0.318  1.00  0.00    -0.067 NA
ATOM     31  H6  UNL     1       8.583  -2.085   0.501  1.00  0.00     0.161 HD
ENDBRANCH  26  27
ENDBRANCH  25  26
ENDBRANCH  24  25
ENDBRANCH  23  24
ENDBRANCH  22  23
ENDBRANCH  21  22
ENDBRANCH  20  21
ENDBRANCH  19  20
ENDBRANCH  18  19
ENDBRANCH  15  18
ENDBRANCH  13  14
BRANCH   1  32
HETATM   32  C2  UNL     1      -3.734   2.286   1.901  1.00  0.00     0.030 C 
HETATM   33  C1  UNL     1      -4.836   3.309   1.743  1.00  0.00     0.007 C 
ENDBRANCH   1  32
BRANCH   6  34
HETATM   34  C6  UNL     1      -5.275   0.234  -2.362  1.00  0.00     0.190 C 
BRANCH  34  35
HETATM   35  O1  UNL     1      -6.135   1.082  -1.799  1.00  0.00    -0.344 OA
BRANCH  35  36
HETATM   36  C7  UNL     1      -6.875   0.797  -0.721  1.00  0.00     0.256 C 
BRANCH  36  37
HETATM   37  N2  UNL     1      -7.854  -0.265  -0.849  1.00  0.00    -0.190 N 
HETATM   38  N3  UNL     1      -9.086  -0.103  -1.305  1.00  0.00    -0.239 N 
HETATM   39  C8  UNL     1      -9.681  -1.302  -1.291  1.00  0.00     0.343 A 
ATOM     40  H3  UNL     1      -9.505   0.775  -1.611  1.00  0.00     0.192 HD
HETATM   41  O2  UNL     1     -10.863  -1.571  -1.649  1.00  0.00    -0.245 OA
HETATM   42  N4  UNL     1      -8.829  -2.224  -0.828  1.00  0.00    -0.258 N 
HETATM   43  C9  UNL     1      -7.689  -1.544  -0.559  1.00  0.00     0.351 A 
ATOM     44  H4  UNL     1      -9.001  -3.222  -0.705  1.00  0.00     0.175 HD
HETATM   45  O3  UNL     1      -6.665  -2.134  -0.096  1.00  0.00    -0.244 OA
ENDBRANCH  36  37
ENDBRANCH  35  36
ENDBRANCH  34  35
ENDBRANCH   6  34
TORSDOF 16
