REMARK  19 active torsions:
REMARK  status: ('A' for Active; 'I' for Inactive)
REMARK    1  A    between atoms: C2_2  and  C3_3 
REMARK    2  A    between atoms: C3_3  and  N1_4 
REMARK    3  A    between atoms: N1_4  and  C4_5 
REMARK       I    between atoms: N1_4  and  C23_41 
REMARK    4  A    between atoms: C4_5  and  C5_6 
REMARK    5  A    between atoms: C5_6  and  N2_7 
REMARK    6  A    between atoms: C6_8  and  C7_9 
REMARK    7  A    between atoms: C7_9  and  C8_10 
REMARK    8  A    between atoms: C8_10  and  C9_11 
REMARK    9  A    between atoms: C9_11  and  N3_12 
REMARK   10  A    between atoms: C12_20  and  N7_21 
REMARK   11  A    between atoms: N7_21  and  C13_23 
REMARK   12  A    between atoms: C13_23  and  C14_24 
REMARK   13  A    between atoms: C14_24  and  C15_25 
REMARK   14  A    between atoms: C15_25  and  O1_26 
REMARK   15  A    between atoms: O1_26  and  C16_27 
REMARK   16  A    between atoms: C18_29  and  N8_30 
REMARK       I    between atoms: N8_30  and  C19_32 
REMARK   17  A    between atoms: C20_38  and  C21_39 
REMARK   18  A    between atoms: C23_41  and  C24_43 
REMARK   19  A    between atoms: C24_43  and  N11_44 
ROOT
HETATM    1  N2  UNL     1      -1.484  -0.847   0.795  1.00  0.00    -0.374 N 
HETATM    2  C6  UNL     1      -1.517   0.495   0.297  1.00  0.00     0.102 C 
HETATM    3  C11 UNL     1      -0.226   1.203   0.503  1.00  0.00     0.146 C 
HETATM    4  N6  UNL     1       0.905   0.245   0.498  1.00  0.00    -0.376 N 
ATOM      5  H6  UNL     1       1.766   0.492   0.011  1.00  0.00     0.160 HD
HETATM    6  C12 UNL     1       0.821  -0.916   1.108  1.00  0.00     0.096 C 
HETATM    7  C20 UNL     1      -0.475  -1.181   1.750  1.00  0.00     0.150 C 
ENDROOT
BRANCH   6   8
HETATM    8  N7  UNL     1       1.914  -1.810   1.077  1.00  0.00    -0.378 N 
ATOM      9  H7  UNL     1       2.007  -2.397   0.248  1.00  0.00     0.160 HD
BRANCH   8  10
HETATM   10  C13 UNL     1       2.901  -1.970   2.096  1.00  0.00     0.123 C 
BRANCH  10  11
HETATM   11  C14 UNL     1       3.718  -0.697   2.188  1.00  0.00     0.046 C 
BRANCH  11  12
HETATM   12  C15 UNL     1       4.447  -0.352   0.929  1.00  0.00     0.179 C 
BRANCH  12  13
HETATM   13  O1  UNL     1       5.148   0.853   1.177  1.00  0.00    -0.329 OA
BRANCH  13  14
HETATM   14  C16 UNL     1       5.948   1.492   0.252  1.00  0.00     0.210 A 
HETATM   15  C17 UNL     1       6.231   1.123  -1.033  1.00  0.00     0.116 A 
HETATM   16  C18 UNL     1       7.088   2.080  -1.583  1.00  0.00     0.134 A 
HETATM   17  N10 UNL     1       7.260   2.964  -0.580  1.00  0.00    -0.242 N 
HETATM   18  O3  UNL     1       6.598   2.611   0.467  1.00  0.00    -0.211 OA
ATOM     19  H10 UNL     1       7.838   3.802  -0.642  1.00  0.00     0.196 HD
BRANCH  16  20
HETATM   20  N8  UNL     1       7.589   2.095  -2.772  1.00  0.00    -0.296 N 
HETATM   21  C19 UNL     1       8.449   3.188  -3.114  1.00  0.00     0.334 C 
HETATM   22  N9  UNL     1       9.778   3.158  -2.622  1.00  0.00    -0.040 NA
HETATM   23  O2  UNL     1       7.980   4.106  -3.827  1.00  0.00    -0.251 OA
ATOM     24  H8  UNL     1       7.380   1.356  -3.443  1.00  0.00     0.171 HD
ENDBRANCH  16  20
ENDBRANCH  13  14
ENDBRANCH  12  13
ENDBRANCH  11  12
ENDBRANCH  10  11
ENDBRANCH   8  10
ENDBRANCH   6   8
BRANCH   7  25
HETATM   25  C21 UNL     1      -0.725  -0.563   3.078  1.00  0.00     0.028 C 
HETATM   26  C22 UNL     1       0.247  -0.845   4.166  1.00  0.00     0.007 C 
ENDBRANCH   7  25
BRANCH   1  27
HETATM   27  C5  UNL     1      -2.400  -1.791   0.377  1.00  0.00     0.079 C 
BRANCH  27  28
HETATM   28  C4  UNL     1      -2.278  -2.220  -1.067  1.00  0.00     0.169 C 
BRANCH  28  29
HETATM   29  N1  UNL     1      -3.217  -3.198  -1.498  1.00  0.00    -0.346 N 
HETATM   30  C23 UNL     1      -2.902  -4.584  -1.347  1.00  0.00     0.245 C 
HETATM   31  O4  UNL     1      -1.827  -4.911  -0.807  1.00  0.00    -0.272 OA
BRANCH  29  32
HETATM   32  C3  UNL     1      -4.457  -2.867  -2.112  1.00  0.00     0.126 C 
BRANCH  32  33
HETATM   33  C2  UNL     1      -5.634  -2.733  -1.199  1.00  0.00     0.015 C 
HETATM   34  C1  UNL     1      -6.886  -2.390  -2.027  1.00  0.00     0.006 C 
ENDBRANCH  32  33
ENDBRANCH  29  32
BRANCH  30  35
HETATM   35  C24 UNL     1      -3.813  -5.660  -1.814  1.00  0.00     0.332 C 
BRANCH  35  36
HETATM   36  N11 UNL     1      -3.245  -6.963  -1.532  1.00  0.00    -0.071 N 
ATOM     37 3H11 UNL     1      -2.309  -7.062  -1.924  1.00  0.00     0.274 HD
ATOM     38 2H11 UNL     1      -3.008  -7.068  -0.545  1.00  0.00     0.274 HD
ATOM     39 1H11 UNL     1      -3.871  -7.702  -1.853  1.00  0.00     0.274 HD
ENDBRANCH  35  36
ENDBRANCH  30  35
ENDBRANCH  28  29
ENDBRANCH  27  28
ENDBRANCH   1  27
BRANCH   2  40
HETATM   40  C7  UNL     1      -2.687   1.267   0.743  1.00  0.00     0.028 C 
BRANCH  40  41
HETATM   41  C8  UNL     1      -2.875   2.654   0.280  1.00  0.00     0.022 C 
BRANCH  41  42
HETATM   42  C9  UNL     1      -1.924   3.727   0.606  1.00  0.00     0.122 C 
BRANCH  42  43
HETATM   43  N3  UNL     1      -2.520   4.965   0.009  1.00  0.00    -0.367 N 
HETATM   44  C10 UNL     1      -1.771   5.989  -0.108  1.00  0.00     0.196 C 
HETATM   45  N4  UNL     1      -0.421   5.927   0.321  1.00  0.00    -0.067 NA
HETATM   46  N5  UNL     1      -2.259   7.206  -0.666  1.00  0.00    -0.067 NA
ATOM     47  H3  UNL     1      -3.494   4.987  -0.294  1.00  0.00     0.161 HD
ENDBRANCH  42  43
ENDBRANCH  41  42
ENDBRANCH  40  41
ENDBRANCH   2  40
TORSDOF 19
