REMARK  4 active torsions:
REMARK  status: ('A' for Active; 'I' for Inactive)
REMARK    1  A    between atoms: O1_2  and  C2_3 
REMARK    2  A    between atoms: C2_3  and  C3_5 
REMARK    3  A    between atoms: C3_5  and  O3_6 
REMARK    4  A    between atoms: O3_6  and  C4_7 
ROOT
HETATM    1  C4  UNL     1      -0.523  -0.220   0.063  1.00  0.00     0.112 A 
HETATM    2  C5  UNL     1       0.387   0.672  -0.449  1.00  0.00     0.065 A 
HETATM    3  C6  UNL     1       1.688   0.346  -0.352  1.00  0.00     0.038 A 
HETATM    4  C7  UNL     1       1.988  -0.850   0.251  1.00  0.00     0.061 A 
HETATM    5  S1  UNL     1       0.458  -1.472   0.657  1.00  0.00    -0.057 SA
HETATM    6  S2  UNL     1       3.534  -1.682   0.597  1.00  0.00    -0.120 SA
HETATM    7  C8  UNL     1       4.894  -0.996  -0.341  1.00  0.00     0.091 C 
HETATM    8  C9  UNL     1       5.504   0.134   0.454  1.00  0.00     0.097 C 
HETATM    9  S3  UNL     1       4.569   1.666   0.326  1.00  0.00    -0.091 SA
HETATM   10  S4  UNL     1       2.953   1.492  -1.014  1.00  0.00    -0.056 SA
ENDROOT
BRANCH   1  11
HETATM   11  O3  UNL     1      -1.917  -0.161   0.108  1.00  0.00    -0.334 OA
BRANCH  11  12
HETATM   12  C3  UNL     1      -2.657   0.898  -0.400  1.00  0.00     0.287 C 
BRANCH  12  13
HETATM   13  C2  UNL     1      -4.101   0.615  -0.174  1.00  0.00     0.282 C 
HETATM   14  O2  UNL     1      -4.948   1.461  -0.566  1.00  0.00    -0.263 OA
BRANCH  13  15
HETATM   15  O1  UNL     1      -4.563  -0.527   0.443  1.00  0.00    -0.325 OA
HETATM   16  C1  UNL     1      -5.940  -0.796   0.658  1.00  0.00     0.213 C 
ENDBRANCH  13  15
ENDBRANCH  12  13
ENDBRANCH  11  12
ENDBRANCH   1  11
TORSDOF 4
