REMARK  7 active torsions:
REMARK  status: ('A' for Active; 'I' for Inactive)
REMARK    1  A    between atoms: C2_2  and  N1_5 
REMARK    2  A    between atoms: N1_5  and  C5_6 
REMARK    3  A    between atoms: C5_6  and  S1_7 
REMARK    4  A    between atoms: C5_6  and  C10_17 
REMARK    5  A    between atoms: S1_7  and  C6_8 
REMARK    6  A    between atoms: C6_8  and  C7_9 
REMARK    7  A    between atoms: C7_9  and  C8_11 
ROOT
HETATM    1  C5  UNL     1      -0.426   0.969   0.172  1.00  0.00     0.123 C 
ENDROOT
BRANCH   1   2
HETATM    2  N1  UNL     1      -0.993  -0.067   0.197  1.00  0.00    -0.434 NA
BRANCH   2   3
HETATM    3  C2  UNL     1      -1.578  -1.264   0.228  1.00  0.00     0.083 C 
HETATM    4  C1  UNL     1      -2.364  -1.486  -1.118  1.00  0.00     0.053 C 
HETATM    5  C3  UNL     1      -2.626  -1.466   1.357  1.00  0.00     0.053 C 
HETATM    6  C4  UNL     1      -0.741  -2.534   0.328  1.00  0.00     0.053 C 
ENDBRANCH   2   3
ENDBRANCH   1   2
BRANCH   1   7
HETATM    7  S1  UNL     1       1.322   1.307   0.211  1.00  0.00    -0.094 SA
BRANCH   7   8
HETATM    8  C6  UNL     1       2.469   0.074  -0.183  1.00  0.00     0.166 C 
BRANCH   8   9
HETATM    9  C7  UNL     1       3.315  -0.449   0.949  1.00  0.00     0.178 C 
HETATM   10  O1  UNL     1       3.214  -0.080   2.135  1.00  0.00    -0.291 OA
BRANCH   9  11
HETATM   11  C8  UNL     1       4.350  -1.480   0.594  1.00  0.00     0.082 A 
HETATM   12  C9  UNL     1       4.611  -1.888  -0.722  1.00  0.00     0.127 A 
HETATM   13  N2  UNL     1       5.575  -2.867  -0.827  1.00  0.00    -0.303 N 
HETATM   14  N3  UNL     1       6.125  -3.289   0.304  1.00  0.00    -0.061 NA
ATOM     15  H2  UNL     1       5.852  -3.249  -1.731  1.00  0.00     0.182 HD
HETATM   16  S2  UNL     1       5.383  -2.423   1.473  1.00  0.00     0.004 SA
ENDBRANCH   9  11
ENDBRANCH   8   9
ENDBRANCH   7   8
ENDBRANCH   1   7
BRANCH   1  17
HETATM   17  C10 UNL     1      -1.223   2.297   0.073  1.00  0.00     0.011 C 
HETATM   18  C11 UNL     1      -0.999   3.020   1.370  1.00  0.00     0.023 C 
HETATM   19  C12 UNL     1      -2.632   2.137  -0.242  1.00  0.00     0.023 C 
HETATM   20  C13 UNL     1      -0.549   3.097  -1.062  1.00  0.00     0.023 C 
ENDBRANCH   1  17
TORSDOF 7
