REMARK  3 active torsions:
REMARK  status: ('A' for Active; 'I' for Inactive)
REMARK    1  A    between atoms: O1_2  and  N1_3 
REMARK    2  A    between atoms: N1_3  and  S1_5 
REMARK    3  A    between atoms: C8_17  and  N4_18 
ROOT
HETATM    1  S1  UNL     1      -1.241  -0.615   0.487  1.00  0.00    -0.017 SA
HETATM    2  C2  UNL     1      -2.014   0.751   1.406  1.00  0.00     0.056 A 
HETATM    3  C3  UNL     1      -2.798   0.433   2.625  1.00  0.00     0.077 C 
HETATM    4  N2  UNL     1      -1.833   1.903   0.944  1.00  0.00    -0.350 N 
ATOM      5  H2  UNL     1      -2.263   2.678   1.449  1.00  0.00     0.166 HD
HETATM    6  C4  UNL     1      -1.086   2.224  -0.215  1.00  0.00     0.092 A 
HETATM    7  C5  UNL     1      -0.927   3.520  -0.743  1.00  0.00     0.058 A 
HETATM    8  C6  UNL     1      -1.446   4.798  -0.230  1.00  0.00     0.072 C 
HETATM    9  N3  UNL     1      -0.186   3.389  -1.849  1.00  0.00    -0.263 N 
ATOM     10  H3  UNL     1       0.106   4.149  -2.464  1.00  0.00     0.194 HD
HETATM   11  O2  UNL     1       0.098   2.140  -2.008  1.00  0.00    -0.237 OA
HETATM   12  C7  UNL     1      -0.429   1.394  -1.036  1.00  0.00     0.149 A 
HETATM   13  C8  UNL     1      -0.265  -0.084  -0.952  1.00  0.00     0.362 A 
ENDROOT
BRANCH  13  14
HETATM   14  N4  UNL     1       1.154  -0.370  -0.900  1.00  0.00     0.110 N 
HETATM   15  C9  UNL     1       1.466  -1.750  -0.777  1.00  0.00     0.274 C 
HETATM   16  C10 UNL     1       2.960  -2.009  -0.768  1.00  0.00     0.030 C 
HETATM   17  C11 UNL     1       3.481  -1.324   0.475  1.00  0.00     0.003 C 
HETATM   18  C12 UNL     1       3.163   0.117   0.439  1.00  0.00     0.030 C 
HETATM   19  C13 UNL     1       1.755   0.474   0.085  1.00  0.00     0.274 C 
ENDBRANCH  13  14
BRANCH   1  20
HETATM   20  N1  UNL     1      -1.913  -2.088   0.638  1.00  0.00    -0.243 N 
ATOM     21  H1  UNL     1      -2.730  -2.138   1.246  1.00  0.00     0.202 HD
BRANCH  20  22
HETATM   22  O1  UNL     1      -1.541  -3.250   0.072  1.00  0.00    -0.280 OA
HETATM   23  C1  UNL     1      -2.320  -3.952  -0.886  1.00  0.00     0.238 C 
ENDBRANCH  20  22
ENDBRANCH   1  20
TORSDOF 3
