REMARK  4 active torsions:
REMARK  status: ('A' for Active; 'I' for Inactive)
REMARK    1  A    between atoms: C2_2  and  C3_3 
REMARK    2  A    between atoms: C3_3  and  C4_4 
REMARK    3  A    between atoms: C4_4  and  C5_5 
REMARK    4  A    between atoms: N1_7  and  C6_9 
ROOT
HETATM    1  C6  UNL     1      -1.026   0.160   1.300  1.00  0.00     0.098 A 
HETATM    2  S1  UNL     1       0.148   1.334   1.685  1.00  0.00    -0.045 SA
HETATM    3  C7  UNL     1       1.550   0.526   1.109  1.00  0.00     0.121 A 
HETATM    4  C8  UNL     1       1.048  -0.650   0.629  1.00  0.00     0.008 A 
HETATM    5  C9  UNL     1      -0.291  -0.846   0.725  1.00  0.00     0.088 A 
HETATM    6  C10 UNL     1      -0.939  -2.086   0.235  1.00  0.00     0.103 C 
HETATM    7  N2  UNL     1      -1.464  -3.049  -0.142  1.00  0.00    -0.191 NA
HETATM    8  C11 UNL     1       1.988  -1.687   0.010  1.00  0.00     0.074 C 
HETATM    9  C12 UNL     1       2.968  -0.987  -0.867  1.00  0.00     0.279 C 
HETATM   10  N3  UNL     1       4.133  -0.476  -0.261  1.00  0.00     0.107 N 
HETATM   11  C13 UNL     1       4.861   0.329  -1.197  1.00  0.00     0.312 C 
HETATM   12  C14 UNL     1       4.028   0.207   0.967  1.00  0.00     0.447 C 
HETATM   13  O2  UNL     1       2.879   1.010   1.149  1.00  0.00    -0.314 OA
ENDROOT
BRANCH   1  14
HETATM   14  N1  UNL     1      -2.445   0.184   1.511  1.00  0.00    -0.353 N 
HETATM   15  C3  UNL     1      -3.267   0.407   0.551  1.00  0.00     0.012 C 
ATOM     16  H1  UNL     1      -2.810   0.019   2.449  1.00  0.00     0.166 HD
BRANCH  15  17
HETATM   17  C2  UNL     1      -4.738   0.444   0.705  1.00  0.00     0.052 C 
HETATM   18  C1  UNL     1      -5.250   1.811   0.292  1.00  0.00     0.011 C 
ENDBRANCH  15  17
BRANCH  15  19
HETATM   19  C4  UNL     1      -2.721   0.637  -0.777  1.00  0.00     0.066 C 
BRANCH  19  20
HETATM   20  C5  UNL     1      -3.386   0.171  -1.799  1.00  0.00     0.260 C 
HETATM   21  O1  UNL     1      -3.733  -0.572  -2.724  1.00  0.00    -0.302 OA
ENDBRANCH  19  20
ENDBRANCH  15  19
ENDBRANCH   1  14
TORSDOF 4
