REMARK  4 active torsions:
REMARK  status: ('A' for Active; 'I' for Inactive)
REMARK    1  A    between atoms: N1_2  and  C3_4 
REMARK    2  A    between atoms: C3_4  and  C4_5 
REMARK    3  A    between atoms: C4_5  and  C5_6 
REMARK    4  A    between atoms: C5_6  and  C6_7 
ROOT
HETATM    1  C6  UNL     1      -0.560  -0.397   0.414  1.00  0.00     0.197 C 
HETATM    2  O1  UNL     1       0.450   0.491   0.778  1.00  0.00    -0.229 OA
HETATM    3  O2  UNL     1       1.513  -0.065   1.245  1.00  0.00    -0.197 OA
HETATM    4  C7  UNL     1       2.472  -0.031   0.203  1.00  0.00     0.229 C 
HETATM    5  C8  UNL     1       3.734  -0.714   0.643  1.00  0.00     0.074 C 
HETATM    6  C9  UNL     1       4.754  -0.562  -0.464  1.00  0.00     0.006 C 
HETATM    7  C10 UNL     1       5.091   0.913  -0.535  1.00  0.00     0.000 C 
HETATM    8  C11 UNL     1       3.888   1.715  -0.949  1.00  0.00     0.006 C 
HETATM    9  C12 UNL     1       2.645   1.403  -0.200  1.00  0.00     0.074 C 
HETATM   10  O3  UNL     1       1.903  -0.802  -0.818  1.00  0.00    -0.197 OA
HETATM   11  O4  UNL     1       1.305  -1.804  -0.226  1.00  0.00    -0.225 OA
HETATM   12  C13 UNL     1      -0.071  -1.681  -0.151  1.00  0.00     0.118 C 
HETATM   13  C14 UNL     1      -0.610  -1.972  -1.547  1.00  0.00     0.052 C 
HETATM   14  C15 UNL     1      -0.544  -2.873   0.698  1.00  0.00     0.052 C 
ENDROOT
BRANCH   1  15
HETATM   15  C5  UNL     1      -1.411   0.347  -0.582  1.00  0.00     0.040 C 
BRANCH  15  16
HETATM   16  C4  UNL     1      -2.050   1.576  -0.133  1.00  0.00     0.022 C 
BRANCH  16  17
HETATM   17  C3  UNL     1      -3.037   1.617   0.941  1.00  0.00     0.116 C 
BRANCH  17  18
HETATM   18  N1  UNL     1      -4.264   0.923   0.732  1.00  0.00    -0.421 N 
HETATM   19  C1  UNL     1      -4.251  -0.498   0.694  1.00  0.00     0.142 C 
HETATM   20  C2  UNL     1      -5.114   1.491  -0.280  1.00  0.00     0.142 C 
ENDBRANCH  17  18
ENDBRANCH  16  17
ENDBRANCH  15  16
ENDBRANCH   1  15
TORSDOF 4
