REMARK  5 active torsions:
REMARK  status: ('A' for Active; 'I' for Inactive)
REMARK    1  A    between atoms: O1_1  and  N1_3 
REMARK    2  A    between atoms: C1_5  and  O2_6 
REMARK    3  A    between atoms: C1_5  and  C2_8 
REMARK    4  A    between atoms: C5_11  and  O3_12 
REMARK    5  A    between atoms: C7_16  and  C8_17 
ROOT
HETATM    1  C2  UNL     1       0.993   0.385   0.507  1.00  0.00     0.072 C 
HETATM    2  C3  UNL     1       1.801  -0.834   0.971  1.00  0.00     0.016 C 
HETATM    3  C4  UNL     1       1.906  -1.677  -0.316  1.00  0.00     0.041 C 
HETATM    4  C5  UNL     1       0.466  -1.571  -0.732  1.00  0.00     0.086 C 
HETATM    5  C6  UNL     1      -0.457  -2.295   0.221  1.00  0.00     0.207 C 
HETATM    6  O4  UNL     1      -1.106  -1.280   0.968  1.00  0.00    -0.378 OA
HETATM    7  C7  UNL     1      -1.349  -0.387  -0.071  1.00  0.00     0.166 C 
HETATM    8  C12 UNL     1       0.045  -0.127  -0.535  1.00  0.00     0.068 C 
ENDROOT
BRANCH   1   9
HETATM    9  C1  UNL     1       2.000   1.344  -0.023  1.00  0.00     0.140 C 
HETATM   10  N1  UNL     1       3.277   1.067  -0.020  1.00  0.00    -0.251 N 
ATOM     11  H1  UNL     1       3.571   0.167   0.360  1.00  0.00     0.196 HD
BRANCH  10  12
HETATM   12  O1  UNL     1       4.240   1.907  -0.493  1.00  0.00    -0.288 OA
ATOM     13  H1  UNL     1       5.168   1.706  -0.491  1.00  0.00     0.244 HD
ENDBRANCH  10  12
BRANCH   9  14
HETATM   14  O2  UNL     1       1.683   2.590  -0.557  1.00  0.00    -0.348 OA
ATOM     15  H2  UNL     1       0.755   2.791  -0.559  1.00  0.00     0.219 HD
ENDBRANCH   9  14
ENDBRANCH   1   9
BRANCH   4  16
HETATM   16  O3  UNL     1       0.254  -1.926  -2.050  1.00  0.00    -0.387 OA
ATOM     17  H3  UNL     1      -0.656  -1.859  -2.313  1.00  0.00     0.210 HD
ENDBRANCH   4  16
BRANCH   7  18
HETATM   18  C8  UNL     1      -2.215   0.711   0.213  1.00  0.00     0.017 A 
HETATM   19  C9  UNL     1      -2.061   2.067   0.073  1.00  0.00     0.152 A 
HETATM   20  O5  UNL     1      -3.163   2.685   0.475  1.00  0.00    -0.332 OA
HETATM   21  C10 UNL     1      -4.041   1.830   0.874  1.00  0.00     0.165 A 
HETATM   22  C11 UNL     1      -3.506   0.571   0.734  1.00  0.00     0.067 A 
HETATM   23 CL1  UNL     1      -4.267  -0.970   1.127  1.00  0.00    -0.082 Cl
ENDBRANCH   7  18
TORSDOF 5
