REMARK  3 active torsions:
REMARK  status: ('A' for Active; 'I' for Inactive)
REMARK    1  A    between atoms: C2_2  and  C4_4 
REMARK    2  A    between atoms: C4_4  and  C5_5 
REMARK    3  A    between atoms: C9_18  and  N5_19 
ROOT
HETATM    1  C5  UNL     1      -0.411   0.824   0.453  1.00  0.00     0.141 A 
HETATM    2  N1  UNL     1       0.327   1.829   0.120  1.00  0.00    -0.282 N 
ATOM      3  H1  UNL     1      -0.099   2.756   0.112  1.00  0.00     0.188 HD
HETATM    4  N2  UNL     1       1.673   1.723  -0.230  1.00  0.00    -0.292 N 
ATOM      5  H2  UNL     1       2.212   2.550  -0.486  1.00  0.00     0.187 HD
HETATM    6  C6  UNL     1       2.274   0.444  -0.222  1.00  0.00     0.143 A 
HETATM    7  C7  UNL     1       1.467  -0.613   0.137  1.00  0.00     0.183 A 
HETATM    8  N3  UNL     1       1.990  -1.844   0.159  1.00  0.00    -0.315 N 
ATOM      9  H3  UNL     1       1.405  -2.637   0.422  1.00  0.00     0.170 HD
HETATM   10  C8  UNL     1       3.294  -2.047  -0.166  1.00  0.00     0.157 A 
HETATM   11 BR1  UNL     1       3.920  -3.849  -0.095  1.00  0.00    -0.010 Br
HETATM   12  N4  UNL     1       4.108  -1.048  -0.519  1.00  0.00    -0.321 N 
ATOM     13  H4  UNL     1       5.084  -1.220  -0.760  1.00  0.00     0.169 HD
HETATM   14  C9  UNL     1       3.584   0.209  -0.544  1.00  0.00     0.134 A 
HETATM   15  O1  UNL     1       0.136  -0.448   0.474  1.00  0.00    -0.277 OA
ENDROOT
BRANCH   1  16
HETATM   16  C4  UNL     1      -1.843   0.993   0.817  1.00  0.00     0.090 C 
BRANCH  16  17
HETATM   17  C2  UNL     1      -2.718   0.196  -0.131  1.00  0.00    -0.015 C 
HETATM   18  C1  UNL     1      -4.161   0.437   0.328  1.00  0.00     0.010 C 
HETATM   19  C3  UNL     1      -2.388  -1.261  -0.116  1.00  0.00     0.010 C 
ENDBRANCH  16  17
ENDBRANCH   1  16
BRANCH  14  20
HETATM   20  N5  UNL     1       4.362   1.148  -0.880  1.00  0.00    -0.383 N 
ATOM     21  H52 UNL     1       3.970   2.089  -0.899  1.00  0.00     0.157 HD
ATOM     22  H51 UNL     1       5.338   0.973  -1.120  1.00  0.00     0.157 HD
ENDBRANCH  14  20
TORSDOF 3
