REMARK  3 active torsions:
REMARK  status: ('A' for Active; 'I' for Inactive)
REMARK    1  A    between atoms: C8_10  and  S1_11 
REMARK    2  A    between atoms: S1_11  and  C9_12 
REMARK    3  A    between atoms: C11_17  and  N4_18 
ROOT
HETATM    1  C9  UNL     1       5.503  -1.275   0.769  1.00  0.00     0.206 C 
HETATM    2  C10 UNL     1       5.106  -2.527   1.413  1.00  0.00     0.069 C 
HETATM    3  N2  UNL     1       4.772  -3.521   1.932  1.00  0.00    -0.197 NA
ENDROOT
BRANCH   1   4
HETATM    4  S1  UNL     1       4.383  -0.993  -0.627  1.00  0.00    -0.080 SA
BRANCH   4   5
HETATM    5  C8  UNL     1       2.719  -0.695  -0.062  1.00  0.00     0.148 A 
HETATM    6  N1  UNL     1       1.749  -0.464  -0.962  1.00  0.00    -0.323 N 
HETATM    7  C7  UNL     1       0.474  -0.235  -0.563  1.00  0.00     0.114 A 
ATOM      8  H1  UNL     1       1.974  -0.461  -1.957  1.00  0.00     0.169 HD
HETATM    9  C6  UNL     1       0.115  -0.229   0.774  1.00  0.00     0.030 A 
HETATM   10  N5  UNL     1      -0.373   0.008  -1.667  1.00  0.00    -0.354 N 
HETATM   11  C5  UNL     1      -1.177  -0.031   1.443  1.00  0.00     0.051 C 
HETATM   12  C11 UNL     1       1.135  -0.469   1.687  1.00  0.00     0.110 A 
HETATM   13  C4  UNL     1      -2.351  -0.267   0.555  1.00  0.00     0.042 C 
HETATM   14  C3  UNL     1      -2.460   0.630  -0.614  1.00  0.00    -0.047 C 
HETATM   15  C2  UNL     1      -3.523   1.400  -0.632  1.00  0.00    -0.025 C 
HETATM   16  C12 UNL     1      -1.571   0.812  -1.791  1.00  0.00     0.209 C 
HETATM   17  C1  UNL     1      -3.875   2.387  -1.686  1.00  0.00     0.036 C 
HETATM   18 CL1  UNL     1      -2.426   0.426  -3.276  1.00  0.00    -0.098 Cl
HETATM   19  N3  UNL     1       2.406  -0.695   1.237  1.00  0.00    -0.323 N 
ATOM     20  H3  UNL     1       3.144  -0.870   1.919  1.00  0.00     0.169 HD
ATOM     21  H5  UNL     1      -0.092  -0.465  -2.526  1.00  0.00     0.163 HD
BRANCH  12  22
HETATM   22  N4  UNL     1       1.002  -0.473   2.946  1.00  0.00    -0.385 N 
ATOM     23  H42 UNL     1       0.054  -0.304   3.282  1.00  0.00     0.157 HD
ATOM     24  H41 UNL     1       1.751  -0.649   3.616  1.00  0.00     0.157 HD
ENDBRANCH  12  22
ENDBRANCH   4   5
ENDBRANCH   1   4
TORSDOF 3
