REMARK  2 active torsions:
REMARK  status: ('A' for Active; 'I' for Inactive)
REMARK    1  A    between atoms: N1_4  and  N2_6 
REMARK       I    between atoms: N2_6  and  C4_8 
REMARK    2  A    between atoms: C4_8  and  C5_10 
ROOT
HETATM    1  C5  UNL     1      -0.219  -0.177   0.575  1.00  0.00     0.097 A 
HETATM    2  C6  UNL     1      -0.846  -1.282   1.079  1.00  0.00     0.122 A 
HETATM    3 CL1  UNL     1      -0.083  -2.262   2.334  1.00  0.00    -0.063 Cl
HETATM    4  N3  UNL     1      -2.078  -1.664   0.631  1.00  0.00    -0.332 N 
ATOM      5  H3  UNL     1      -2.511  -2.496   1.033  1.00  0.00     0.168 HD
HETATM    6  C7  UNL     1      -2.741  -0.986  -0.319  1.00  0.00     0.110 A 
HETATM    7  C8  UNL     1      -2.172   0.140  -0.876  1.00  0.00     0.011 A 
HETATM    8  C9  UNL     1      -0.939   0.521  -0.427  1.00  0.00     0.075 A 
HETATM    9  N4  UNL     1      -0.364   1.685  -1.011  1.00  0.00    -0.101 NA
HETATM   10  C10 UNL     1      -2.852   0.944  -1.939  1.00  0.00     0.046 C 
HETATM   11  C11 UNL     1      -4.344   0.758  -1.755  1.00  0.00     0.024 C 
HETATM   12  C12 UNL     1      -4.652  -0.733  -1.886  1.00  0.00     0.121 C 
HETATM   13  N5  UNL     1      -4.024  -1.388  -0.782  1.00  0.00    -0.376 N 
ATOM     14  H5  UNL     1      -4.505  -2.158  -0.317  1.00  0.00     0.161 HD
ENDROOT
BRANCH   1  15
HETATM   15  C4  UNL     1       1.082   0.330   0.964  1.00  0.00     0.275 C 
HETATM   16  N2  UNL     1       2.000  -0.131   1.896  1.00  0.00    -0.266 N 
ATOM     17  H2  UNL     1       1.796  -0.968   2.442  1.00  0.00     0.190 HD
HETATM   18  O1  UNL     1       1.459   1.396   0.338  1.00  0.00    -0.266 OA
BRANCH  16  19
HETATM   19  N1  UNL     1       3.232   0.568   2.090  1.00  0.00    -0.307 N 
HETATM   20  C2  UNL     1       4.334   0.091   1.637  1.00  0.00    -0.004 C 
HETATM   21  C1  UNL     1       5.598   0.841   1.854  1.00  0.00     0.064 C 
HETATM   22  C3  UNL     1       4.365  -1.193   0.904  1.00  0.00     0.064 C 
ATOM     23  H1  UNL     1       3.235   1.455   2.594  1.00  0.00     0.186 HD
ENDBRANCH  16  19
ENDBRANCH   1  15
TORSDOF 2
