REMARK  9 active torsions:
REMARK  status: ('A' for Active; 'I' for Inactive)
REMARK    1  A    between atoms: C2_2  and  C4_4 
REMARK    2  A    between atoms: C4_4  and  C5_5 
REMARK    3  A    between atoms: C7_10  and  C8_11 
REMARK    4  A    between atoms: C8_11  and  C9_12 
REMARK    5  A    between atoms: C15_24  and  C16_25 
REMARK    6  A    between atoms: C16_25  and  C17_26 
REMARK    7  A    between atoms: C22_34  and  C23_35 
REMARK    8  A    between atoms: C23_35  and  O6_36 
REMARK    9  A    between atoms: C24_40  and  O7_41 
ROOT
HETATM    1  C5  UNL     1      -2.597  -1.235   0.482  1.00  0.00     0.086 C 
HETATM    2  N1  UNL     1      -1.861  -0.995  -0.688  1.00  0.00    -0.322 N 
ATOM      3  H1  UNL     1      -1.009  -1.548  -0.776  1.00  0.00     0.169 HD
HETATM    4  C6  UNL     1      -2.105  -0.113  -1.766  1.00  0.00     0.245 C 
HETATM    5  O1  UNL     1      -2.174  -0.531  -2.965  1.00  0.00    -0.271 OA
HETATM    6  C7  UNL     1      -2.304   1.386  -1.632  1.00  0.00     0.177 C 
HETATM    7  N2  UNL     1      -1.490   1.931  -2.737  1.00  0.00    -0.344 N 
ATOM      8  H2  UNL     1      -1.989   2.246  -3.569  1.00  0.00     0.163 HD
HETATM    9  C12 UNL     1      -0.100   2.055  -2.747  1.00  0.00     0.272 C 
HETATM   10  O2  UNL     1       0.475   1.814  -3.873  1.00  0.00    -0.268 OA
HETATM   11  C13 UNL     1       0.830   2.421  -1.666  1.00  0.00     0.375 A 
HETATM   12  O3  UNL     1       0.316   2.072  -0.381  1.00  0.00    -0.234 OA
HETATM   13  N3  UNL     1       1.495   1.472  -1.031  1.00  0.00    -0.179 N 
HETATM   14  C14 UNL     1       2.502   0.563  -0.958  1.00  0.00     0.269 C 
HETATM   15  O4  UNL     1       2.672  -0.472  -1.713  1.00  0.00    -0.269 OA
HETATM   16  C15 UNL     1       3.618   0.618   0.046  1.00  0.00     0.179 C 
HETATM   17  N4  UNL     1       3.438  -0.098   1.238  1.00  0.00    -0.348 N 
ATOM     18  H4  UNL     1       4.019   0.251   2.000  1.00  0.00     0.163 HD
HETATM   19  C20 UNL     1       2.639  -1.187   1.618  1.00  0.00     0.220 C 
HETATM   20  O5  UNL     1       3.198  -2.219   2.167  1.00  0.00    -0.274 OA
HETATM   21  C21 UNL     1       1.162  -1.334   1.473  1.00  0.00     0.130 C 
HETATM   22  C22 UNL     1       0.487  -0.334   2.345  1.00  0.00     0.115 C 
HETATM   23  N5  UNL     1      -0.935  -0.211   2.268  1.00  0.00    -0.362 N 
ATOM     24  H5  UNL     1      -1.247   0.669   2.679  1.00  0.00     0.162 HD
HETATM   25  C24 UNL     1      -1.995  -0.934   1.802  1.00  0.00     0.163 C 
ENDROOT
BRANCH   1  26
HETATM   26  C4  UNL     1      -3.309  -2.545   0.474  1.00  0.00     0.036 C 
BRANCH  26  27
HETATM   27  C2  UNL     1      -2.620  -3.814   0.368  1.00  0.00    -0.085 C 
HETATM   28  C1  UNL     1      -1.786  -4.067  -0.862  1.00  0.00     0.043 C 
HETATM   29  C3  UNL     1      -1.911  -4.311   1.600  1.00  0.00     0.043 C 
ENDBRANCH  26  27
ENDBRANCH   1  26
BRANCH  25  30
HETATM   30  O7  UNL     1      -2.703  -1.537   2.718  1.00  0.00    -0.345 OA
ATOM     31  H7  UNL     1      -2.317  -1.344   3.564  1.00  0.00     0.219 HD
ENDBRANCH  25  30
BRANCH   6  32
HETATM   32  C8  UNL     1      -3.768   1.628  -1.901  1.00  0.00     0.038 C 
BRANCH  32  33
HETATM   33  C9  UNL     1      -4.245   3.020  -1.769  1.00  0.00    -0.020 C 
HETATM   34  C10 UNL     1      -5.756   3.065  -2.074  1.00  0.00     0.009 C 
HETATM   35  C11 UNL     1      -3.620   4.047  -2.635  1.00  0.00     0.009 C 
ENDBRANCH  32  33
ENDBRANCH   6  32
BRANCH  22  36
HETATM   36  C23 UNL     1       0.969  -0.425   3.796  1.00  0.00     0.189 C 
BRANCH  36  37
HETATM   37  O6  UNL     1       0.443  -1.506   4.458  1.00  0.00    -0.399 OA
ATOM     38  H6  UNL     1       0.742  -1.562   5.358  1.00  0.00     0.209 HD
ENDBRANCH  36  37
ENDBRANCH  22  36
BRANCH  16  39
HETATM   39  C16 UNL     1       4.939   0.422  -0.669  1.00  0.00     0.038 C 
BRANCH  39  40
HETATM   40  C17 UNL     1       6.143   0.450   0.199  1.00  0.00    -0.020 C 
HETATM   41  C18 UNL     1       6.294   1.756   0.953  1.00  0.00     0.009 C 
HETATM   42  C19 UNL     1       6.337  -0.716   1.100  1.00  0.00     0.009 C 
ENDBRANCH  39  40
ENDBRANCH  16  39
TORSDOF 9
