REMARK  8 active torsions:
REMARK  status: ('A' for Active; 'I' for Inactive)
REMARK    1  A    between atoms: C2_2  and  C3_3 
REMARK    2  A    between atoms: C8_9  and  N1_10 
REMARK    3  A    between atoms: C12_17  and  C13_18 
REMARK    4  A    between atoms: C14_20  and  O3_21 
REMARK    5  A    between atoms: C15_25  and  C16_26 
REMARK    6  A    between atoms: C20_33  and  C21_34 
REMARK    7  A    between atoms: C21_34  and  C22_35 
REMARK    8  A    between atoms: C22_35  and  O5_37 
ROOT
HETATM    1  C3  UNL     1       1.627  -2.475  -0.755  1.00  0.00     0.024 C 
HETATM    2  C4  UNL     1       3.080  -2.820  -1.001  1.00  0.00     0.038 C 
HETATM    3  C5  UNL     1       0.943  -3.697  -0.233  1.00  0.00     0.040 C 
HETATM    4  C6  UNL     1      -0.221  -3.414   0.692  1.00  0.00     0.076 C 
HETATM    5  S1  UNL     1      -1.776  -3.103  -0.239  1.00  0.00    -0.166 SA
HETATM    6  C7  UNL     1      -2.854  -1.930   0.634  1.00  0.00     0.119 C 
HETATM    7  C8  UNL     1      -3.576  -1.042  -0.296  1.00  0.00     0.322 C 
HETATM    8  C11 UNL     1      -2.714  -0.047  -0.944  1.00  0.00     0.256 C 
HETATM    9  O1  UNL     1      -1.980  -0.507  -1.877  1.00  0.00    -0.271 OA
HETATM   10  N2  UNL     1      -2.596   1.306  -0.692  1.00  0.00    -0.319 N 
ATOM     11  H2  UNL     1      -2.747   1.885  -1.518  1.00  0.00     0.169 HD
HETATM   12  C12 UNL     1      -2.307   2.063   0.483  1.00  0.00     0.124 C 
HETATM   13  C14 UNL     1      -1.060   1.896   1.191  1.00  0.00     0.167 C 
HETATM   14  N3  UNL     1       0.180   2.526   1.129  1.00  0.00    -0.355 N 
ATOM     15  H3  UNL     1       0.464   2.921   2.026  1.00  0.00     0.162 HD
HETATM   16  C15 UNL     1       1.161   2.751   0.087  1.00  0.00     0.179 C 
HETATM   17  C19 UNL     1       1.245   1.767  -0.994  1.00  0.00     0.242 C 
HETATM   18  O4  UNL     1       0.593   1.964  -2.081  1.00  0.00    -0.271 OA
HETATM   19  N4  UNL     1       1.997   0.558  -0.991  1.00  0.00    -0.338 N 
ATOM     20  H4  UNL     1       2.475   0.232  -1.831  1.00  0.00     0.164 HD
HETATM   21  C20 UNL     1       2.062  -0.212   0.275  1.00  0.00     0.182 C 
HETATM   22  N5  UNL     1       1.352  -1.431   0.137  1.00  0.00    -0.393 N 
ATOM     23  H5  UNL     1       0.552  -1.562   0.756  1.00  0.00     0.156 HD
ENDROOT
BRANCH  21  24
HETATM   24  C21 UNL     1       3.521  -0.280   0.610  1.00  0.00     0.077 C 
BRANCH  24  25
HETATM   25  C22 UNL     1       3.839  -0.789   1.994  1.00  0.00     0.117 C 
HETATM   26  C23 UNL     1       3.340   0.342   2.978  1.00  0.00     0.039 C 
BRANCH  25  27
HETATM   27  O5  UNL     1       3.094  -1.910   2.373  1.00  0.00    -0.396 OA
ATOM     28  H5  UNL     1       3.294  -2.231   3.245  1.00  0.00     0.210 HD
ENDBRANCH  25  27
ENDBRANCH  24  25
ENDBRANCH  21  24
BRANCH   1  29
HETATM   29  C2  UNL     1       1.106  -2.289  -2.191  1.00  0.00     0.026 C 
HETATM   30  C1  UNL     1       1.427  -3.472  -3.079  1.00  0.00     0.007 C 
ENDBRANCH   1  29
BRANCH  16  31
HETATM   31  C16 UNL     1       0.844   4.143  -0.496  1.00  0.00     0.009 C 
HETATM   32  C17 UNL     1       1.953   4.394  -1.489  1.00  0.00     0.012 C 
HETATM   33  C18 UNL     1       0.812   5.192   0.534  1.00  0.00     0.012 C 
ENDBRANCH  16  31
BRANCH  13  34
HETATM   34  O3  UNL     1      -1.064   0.967   2.109  1.00  0.00    -0.345 OA
ATOM     35  H3  UNL     1      -0.243   0.857   2.575  1.00  0.00     0.219 HD
ENDBRANCH  13  34
BRANCH  12  36
HETATM   36  C13 UNL     1      -2.781   3.475   0.358  1.00  0.00     0.292 C 
HETATM   37  O2  UNL     1      -3.654   3.861   1.138  1.00  0.00    -0.300 OA
ENDBRANCH  12  36
BRANCH   7  38
HETATM   38  N1  UNL     1      -4.794  -0.429   0.188  1.00  0.00     0.094 N 
HETATM   39  C9  UNL     1      -5.924  -0.803  -0.644  1.00  0.00     0.310 C 
HETATM   40  C10 UNL     1      -5.133  -0.918   1.521  1.00  0.00     0.310 C 
ENDBRANCH   7  38
TORSDOF 8
