REMARK  7 active torsions:
REMARK  status: ('A' for Active; 'I' for Inactive)
REMARK    1  A    between atoms: C2_2  and  C3_3 
REMARK    2  A    between atoms: C3_3  and  C5_5 
REMARK    3  A    between atoms: C7_10  and  C8_11 
REMARK    4  A    between atoms: C8_11  and  C10_13 
REMARK    5  A    between atoms: C13_19  and  C14_20 
REMARK    6  A    between atoms: C16_26  and  C17_27 
REMARK    7  A    between atoms: C17_27  and  C18_28 
ROOT
HETATM    1  C5  UNL     1      -2.846  -1.988  -0.233  1.00  0.00     0.202 C 
HETATM    2  N1  UNL     1      -2.658  -1.216   0.979  1.00  0.00    -0.076 NA
HETATM    3  O1  UNL     1      -1.698  -0.301   0.761  1.00  0.00    -0.204 OA
HETATM    4  C6  UNL     1      -1.247   0.812   1.337  1.00  0.00     0.300 C 
HETATM    5  O2  UNL     1      -0.788   0.959   2.533  1.00  0.00    -0.261 OA
HETATM    6  C7  UNL     1      -1.230   2.116   0.576  1.00  0.00     0.189 C 
HETATM    7  N2  UNL     1      -0.161   2.946   1.100  1.00  0.00    -0.345 N 
ATOM      8  H2  UNL     1      -0.391   3.548   1.891  1.00  0.00     0.163 HD
HETATM    9  C12 UNL     1       1.161   3.002   0.624  1.00  0.00     0.248 C 
HETATM   10  O3  UNL     1       2.066   3.293   1.434  1.00  0.00    -0.271 OA
HETATM   11  C13 UNL     1       1.538   2.739  -0.770  1.00  0.00     0.238 C 
HETATM   12  N3  UNL     1       2.963   2.583  -0.956  1.00  0.00    -0.340 N 
ATOM     13  H3  UNL     1       3.527   3.430  -0.885  1.00  0.00     0.163 HD
HETATM   14  C15 UNL     1       3.656   1.386  -1.225  1.00  0.00     0.241 C 
HETATM   15  O5  UNL     1       4.769   1.377  -1.812  1.00  0.00    -0.271 OA
HETATM   16  C16 UNL     1       3.121   0.033  -0.836  1.00  0.00     0.177 C 
HETATM   17  N4  UNL     1       3.533  -0.989  -1.731  1.00  0.00    -0.348 N 
ATOM     18  H4  UNL     1       4.494  -0.966  -2.072  1.00  0.00     0.163 HD
HETATM   19  C21 UNL     1       2.685  -2.050  -2.185  1.00  0.00     0.219 C 
HETATM   20  O6  UNL     1       3.129  -3.225  -2.236  1.00  0.00    -0.274 OA
HETATM   21  C22 UNL     1       1.278  -1.835  -2.610  1.00  0.00     0.122 C 
HETATM   22  C23 UNL     1       0.328  -2.126  -1.434  1.00  0.00     0.132 C 
HETATM   23  N5  UNL     1      -0.726  -1.140  -1.464  1.00  0.00    -0.359 N 
ATOM     24  H5  UNL     1      -0.426  -0.176  -1.606  1.00  0.00     0.162 HD
HETATM   25  C24 UNL     1      -2.108  -1.333  -1.324  1.00  0.00     0.239 C 
HETATM   26  O7  UNL     1      -2.843  -0.879  -2.274  1.00  0.00    -0.272 OA
ENDROOT
BRANCH   1  27
HETATM   27  C3  UNL     1      -2.465  -3.427  -0.015  1.00  0.00     0.012 C 
HETATM   28  C4  UNL     1      -2.912  -4.150  -1.307  1.00  0.00     0.012 C 
BRANCH  27  29
HETATM   29  C2  UNL     1      -3.331  -4.015   1.076  1.00  0.00     0.002 C 
HETATM   30  C1  UNL     1      -3.071  -3.478   2.444  1.00  0.00     0.005 C 
ENDBRANCH  27  29
ENDBRANCH   1  27
BRANCH   6  31
HETATM   31  C8  UNL     1      -2.538   2.815   0.808  1.00  0.00     0.014 C 
HETATM   32  C9  UNL     1      -3.755   2.098   0.364  1.00  0.00     0.012 C 
BRANCH  31  33
HETATM   33  C10 UNL     1      -2.552   4.202   0.168  1.00  0.00     0.002 C 
HETATM   34  C11 UNL     1      -3.889   4.860   0.432  1.00  0.00     0.005 C 
ENDBRANCH  31  33
ENDBRANCH   6  31
BRANCH  11  35
HETATM   35  C14 UNL     1       1.114   3.915  -1.586  1.00  0.00     0.266 C 
HETATM   36  O4  UNL     1       1.898   4.566  -2.259  1.00  0.00    -0.304 OA
ENDBRANCH  11  35
BRANCH  16  37
HETATM   37  C17 UNL     1       3.410  -0.324   0.576  1.00  0.00     0.038 C 
BRANCH  37  38
HETATM   38  C18 UNL     1       4.801  -0.381   1.043  1.00  0.00    -0.020 C 
HETATM   39  C19 UNL     1       5.618  -1.403   0.307  1.00  0.00     0.009 C 
HETATM   40  C20 UNL     1       4.820  -0.830   2.519  1.00  0.00     0.009 C 
ENDBRANCH  37  38
ENDBRANCH  16  37
TORSDOF 7
