REMARK  11 active torsions:
REMARK  status: ('A' for Active; 'I' for Inactive)
REMARK    1  A    between atoms: C2_2  and  N1_3 
REMARK    2  A    between atoms: C2_2  and  N2_7 
REMARK    3  A    between atoms: N2_7  and  C3_9 
REMARK    4  A    between atoms: C3_9  and  O1_10 
REMARK    5  A    between atoms: C3_9  and  C4_12 
REMARK    6  A    between atoms: C5_15  and  C6_16 
REMARK    7  A    between atoms: C10_22  and  N5_23 
REMARK    8  A    between atoms: N5_23  and  C11_25 
REMARK    9  A    between atoms: C14_30  and  O2_31 
REMARK   10  A    between atoms: O2_31  and  C15_32 
REMARK   11  A    between atoms: C15_32  and  C16_33 
ROOT
HETATM    1  C4  UNL     1      -2.398  -0.384   1.513  1.00  0.00     0.128 A 
HETATM    2  N3  UNL     1      -3.182  -1.466   1.842  1.00  0.00    -0.352 N 
ATOM      3  H3  UNL     1      -4.116  -1.295   2.214  1.00  0.00     0.166 HD
HETATM    4  C5  UNL     1      -2.776  -2.725   1.696  1.00  0.00     0.029 A 
HETATM    5  C9  UNL     1      -1.512  -2.928   1.190  1.00  0.00     0.115 A 
HETATM    6  N4  UNL     1      -0.732  -1.884   0.863  1.00  0.00    -0.348 N 
ATOM      7  H4  UNL     1       0.200  -2.064   0.491  1.00  0.00     0.167 HD
HETATM    8  C10 UNL     1      -1.142  -0.593   1.011  1.00  0.00     0.137 A 
ENDROOT
BRANCH   8   9
HETATM    9  N5  UNL     1      -0.341   0.353   0.682  1.00  0.00    -0.338 N 
ATOM     10  H5  UNL     1      -0.663   1.313   0.803  1.00  0.00     0.167 HD
BRANCH   9  11
HETATM   11  C11 UNL     1       0.960   0.154   0.162  1.00  0.00     0.074 A 
HETATM   12  C12 UNL     1       2.031  -0.107   1.001  1.00  0.00     0.119 A 
HETATM   13  N6  UNL     1       3.271  -0.298   0.532  1.00  0.00    -0.370 N 
HETATM   14  C13 UNL     1       3.551  -0.248  -0.782  1.00  0.00     0.126 A 
ATOM     15  H6  UNL     1       4.026  -0.487   1.192  1.00  0.00     0.164 HD
HETATM   16  C14 UNL     1       2.512   0.009  -1.646  1.00  0.00     0.108 A 
HETATM   17  C19 UNL     1       1.225   0.209  -1.185  1.00  0.00     0.096 A 
HETATM   18 CL1  UNL     1      -0.121   0.538  -2.268  1.00  0.00    -0.079 Cl
BRANCH  16  19
HETATM   19  O2  UNL     1       2.710   0.075  -2.993  1.00  0.00    -0.348 OA
BRANCH  19  20
HETATM   20  C15 UNL     1       3.856  -0.064  -3.743  1.00  0.00     0.180 C 
BRANCH  20  21
HETATM   21  C16 UNL     1       4.876   1.011  -3.413  1.00  0.00     0.010 A 
HETATM   22  C17 UNL     1       6.147   0.967  -4.137  1.00  0.00     0.007 A 
HETATM   23  C18 UNL     1       5.172   2.027  -4.497  1.00  0.00     0.007 A 
ENDBRANCH  20  21
ENDBRANCH  19  20
ENDBRANCH  16  19
ENDBRANCH   9  11
ENDBRANCH   8   9
BRANCH   1  24
HETATM   24  C3  UNL     1      -2.944   0.931   1.723  1.00  0.00     0.168 C 
BRANCH  24  25
HETATM   25  N2  UNL     1      -2.398   2.181   1.424  1.00  0.00    -0.342 N 
ATOM     26  H2  UNL     1      -1.477   2.238   0.989  1.00  0.00     0.163 HD
BRANCH  25  27
HETATM   27  C2  UNL     1      -3.130   3.409   1.727  1.00  0.00     0.279 C 
HETATM   28  C1  UNL     1      -2.400   4.281   2.700  1.00  0.00     0.063 C 
BRANCH  27  29
HETATM   29  N1  UNL     1      -3.384   4.087   0.486  1.00  0.00    -0.059 N 
ATOM     30  H13 UNL     1      -3.877   4.967   0.638  1.00  0.00     0.276 HD
ATOM     31  H12 UNL     1      -2.523   4.454   0.081  1.00  0.00     0.276 HD
ATOM     32  H11 UNL     1      -3.882   3.493  -0.177  1.00  0.00     0.276 HD
ENDBRANCH  27  29
ENDBRANCH  25  27
ENDBRANCH  24  25
BRANCH  24  33
HETATM   33  O1  UNL     1      -4.127   0.924   2.277  1.00  0.00    -0.344 OA
ATOM     34  H1  UNL     1      -4.498   0.074   2.480  1.00  0.00     0.219 HD
ENDBRANCH  24  33
ENDBRANCH   1  24
BRANCH   4  35
HETATM   35  C6  UNL     1      -3.669  -3.870   2.068  1.00  0.00     0.037 A 
HETATM   36  C7  UNL     1      -3.090  -5.013   2.831  1.00  0.00     0.011 A 
HETATM   37  C8  UNL     1      -3.482  -5.174   1.430  1.00  0.00     0.011 A 
ENDBRANCH   4  35
TORSDOF 11
