REMARK  11 active torsions:
REMARK  status: ('A' for Active; 'I' for Inactive)
REMARK    1  A    between atoms: C2_2  and  O2_4 
REMARK    2  A    between atoms: O2_4  and  C3_5 
REMARK    3  A    between atoms: C5_7  and  C6_8 
REMARK       I    between atoms: C6_8  and  N1_10 
REMARK    4  A    between atoms: N1_10  and  C7_12 
REMARK    5  A    between atoms: C12_17  and  C13_18 
REMARK    6  A    between atoms: C13_18  and  O4_19 
REMARK    7  A    between atoms: C13_18  and  O5_21 
REMARK    8  A    between atoms: C15_25  and  C16_26 
REMARK    9  A    between atoms: C16_26  and  N3_27 
REMARK   10  A    between atoms: N3_27  and  N4_29 
REMARK   11  A    between atoms: N4_29  and  N5_30 
ROOT
HETATM    1  C3  UNL     1       1.715   1.238   0.930  1.00  0.00     0.216 C 
HETATM    2  C4  UNL     1       1.254   0.038   0.206  1.00  0.00     0.061 A 
HETATM    3  C5  UNL     1       0.043  -0.359  -0.303  1.00  0.00     0.070 A 
HETATM    4  C12 UNL     1       0.226  -1.583  -0.870  1.00  0.00     0.029 A 
HETATM    5  C14 UNL     1       1.592  -1.941  -0.704  1.00  0.00     0.104 A 
HETATM    6  N2  UNL     1       2.180  -0.953  -0.058  1.00  0.00    -0.350 N 
HETATM    7  C15 UNL     1       3.543  -0.715   0.394  1.00  0.00     0.112 C 
HETATM    8  C17 UNL     1       3.999   0.644  -0.027  1.00  0.00     0.067 C 
HETATM    9  C18 UNL     1       3.055   1.696   0.388  1.00  0.00     0.207 C 
HETATM   10  F1  UNL     1       3.683   2.563   1.273  1.00  0.00    -0.246 F 
ENDROOT
BRANCH   3  11
HETATM   11  C6  UNL     1      -1.186   0.403  -0.225  1.00  0.00     0.254 C 
HETATM   12  O3  UNL     1      -1.291   1.319   0.690  1.00  0.00    -0.268 OA
HETATM   13  N1  UNL     1      -2.324   0.287  -1.039  1.00  0.00    -0.352 N 
ATOM     14  H1  UNL     1      -2.341  -0.396  -1.796  1.00  0.00     0.163 HD
BRANCH  13  15
HETATM   15  C7  UNL     1      -3.476   1.138  -0.804  1.00  0.00     0.084 C 
HETATM   16  C8  UNL     1      -4.667   0.250  -0.461  1.00  0.00     0.025 C 
HETATM   17  C9  UNL     1      -5.815   1.227  -0.607  1.00  0.00     0.002 C 
HETATM   18  C10 UNL     1      -5.368   2.270  -1.606  1.00  0.00     0.002 C 
HETATM   19  C11 UNL     1      -3.952   1.853  -2.020  1.00  0.00     0.025 C 
ENDBRANCH  13  15
ENDBRANCH   3  11
BRANCH   4  20
HETATM   20  C13 UNL     1      -0.725  -2.526  -1.496  1.00  0.00     0.290 C 
BRANCH  20  21
HETATM   21  O4  UNL     1      -0.398  -3.861  -1.073  1.00  0.00    -0.367 OA
ATOM     22  H4  UNL     1      -1.009  -4.467  -1.475  1.00  0.00     0.213 HD
ENDBRANCH  20  21
BRANCH  20  23
HETATM   23  O5  UNL     1      -0.688  -2.556  -2.875  1.00  0.00    -0.367 OA
ATOM     24  H5  UNL     1      -1.299  -3.162  -3.277  1.00  0.00     0.213 HD
ENDBRANCH  20  23
ENDBRANCH   4  20
BRANCH   1  25
HETATM   25  O2  UNL     1       1.949   0.962   2.307  1.00  0.00    -0.307 OA
BRANCH  25  26
HETATM   26  C2  UNL     1       1.412   1.760   3.301  1.00  0.00     0.255 C 
HETATM   27  C1  UNL     1       1.639   1.488   4.748  1.00  0.00     0.126 C 
HETATM   28  O1  UNL     1       0.712   2.741   2.982  1.00  0.00    -0.266 OA
ENDBRANCH  25  26
ENDBRANCH   1  25
BRANCH   7  29
HETATM   29  C16 UNL     1       4.494  -1.762  -0.119  1.00  0.00     0.181 C 
BRANCH  29  30
HETATM   30  N3  UNL     1       4.151  -3.100   0.326  1.00  0.00    -0.251 N 
ATOM     31  H3  UNL     1       3.451  -3.243   1.054  1.00  0.00     0.197 HD
BRANCH  30  32
HETATM   32  N4  UNL     1       4.716  -4.049  -0.188  1.00  0.00    -0.248 NA
BRANCH  32  33
HETATM   33  N5  UNL     1       4.999  -5.032  -0.872  1.00  0.00    -0.261 N 
ATOM     34  H52 UNL     1       4.093  -5.048  -1.340  1.00  0.00     0.193 HD
ATOM     35  H51 UNL     1       5.472  -5.827  -1.302  1.00  0.00     0.193 HD
ENDBRANCH  32  33
ENDBRANCH  30  32
ENDBRANCH  29  30
ENDBRANCH   7  29
TORSDOF 11
