REMARK  8 active torsions:
REMARK  status: ('A' for Active; 'I' for Inactive)
REMARK    1  A    between atoms: C2_2  and  C12_21 
REMARK    2  A    between atoms: N1_3  and  N2_5 
REMARK       I    between atoms: N2_5  and  C3_7 
REMARK    3  A    between atoms: C3_7  and  C4_9 
REMARK    4  A    between atoms: C4_9  and  C5_10 
REMARK       I    between atoms: C5_10  and  N3_12 
REMARK    5  A    between atoms: N3_12  and  C6_14 
REMARK    6  A    between atoms: C12_21  and  N4_23 
REMARK       I    between atoms: N4_23  and  C14_25 
REMARK    7  A    between atoms: C14_25  and  O4_27 
REMARK    8  A    between atoms: O4_27  and  C15_28 
ROOT
HETATM    1  C15 UNL     1      -5.319   2.480  -0.096  1.00  0.00     0.153 C 
HETATM    2  C16 UNL     1      -6.333   2.039  -1.126  1.00  0.00     0.063 C 
HETATM    3  C17 UNL     1      -5.914   3.418   0.921  1.00  0.00     0.063 C 
HETATM    4  C18 UNL     1      -4.168   3.115  -0.750  1.00  0.00     0.097 C 
HETATM    5  N5  UNL     1      -3.248   3.613  -1.272  1.00  0.00    -0.194 NA
ENDROOT
BRANCH   1   6
HETATM    6  O4  UNL     1      -4.840   1.296   0.539  1.00  0.00    -0.278 OA
BRANCH   6   7
HETATM    7  C14 UNL     1      -4.220   0.336  -0.236  1.00  0.00     0.362 C 
HETATM    8  N4  UNL     1      -3.716  -0.869   0.317  1.00  0.00    -0.327 N 
ATOM      9  H4  UNL     1      -3.814  -1.034   1.319  1.00  0.00     0.165 HD
HETATM   10  O3  UNL     1      -4.103   0.553  -1.489  1.00  0.00    -0.238 OA
BRANCH   8  11
HETATM   11  C12 UNL     1      -3.076  -1.856  -0.490  1.00  0.00     0.129 C 
HETATM   12  C13 UNL     1      -3.985  -3.094  -0.496  1.00  0.00     0.038 C 
BRANCH  11  13
HETATM   13  C2  UNL     1      -1.718  -2.213  -0.012  1.00  0.00     0.022 C 
HETATM   14  C1  UNL     1      -1.488  -2.780   1.332  1.00  0.00     0.067 C 
HETATM   15  N1  UNL     1      -0.728  -2.012  -0.814  1.00  0.00    -0.305 N 
ATOM     16  H1  UNL     1      -0.922  -1.619  -1.735  1.00  0.00     0.186 HD
BRANCH  15  17
HETATM   17  N2  UNL     1       0.592  -2.305  -0.483  1.00  0.00    -0.270 N 
HETATM   18  C3  UNL     1       1.598  -1.283  -0.527  1.00  0.00     0.244 C 
HETATM   19  O1  UNL     1       1.273  -0.134  -0.864  1.00  0.00    -0.271 OA
ATOM     20  H2  UNL     1       0.846  -3.254  -0.207  1.00  0.00     0.190 HD
BRANCH  18  21
HETATM   21  C4  UNL     1       2.960  -1.641  -0.173  1.00  0.00     0.207 C 
BRANCH  21  22
HETATM   22  C5  UNL     1       3.859  -0.440  -0.281  1.00  0.00     0.231 C 
HETATM   23  O2  UNL     1       3.406   0.662  -0.632  1.00  0.00    -0.273 OA
HETATM   24  N3  UNL     1       5.205  -0.619   0.028  1.00  0.00    -0.327 N 
ATOM     25  H3  UNL     1       5.476  -1.564   0.301  1.00  0.00     0.169 HD
BRANCH  24  26
HETATM   26  C6  UNL     1       6.241   0.335   0.012  1.00  0.00     0.034 A 
HETATM   27  C7  UNL     1       6.034   1.677  -0.064  1.00  0.00     0.031 A 
HETATM   28  C8  UNL     1       7.101   2.592  -0.094  1.00  0.00     0.026 A 
HETATM   29  C9  UNL     1       8.402   2.162  -0.048  1.00  0.00     0.034 A 
HETATM   30 CL1  UNL     1       9.741   3.307  -0.085  1.00  0.00    -0.084 Cl
HETATM   31  C10 UNL     1       8.611   0.807   0.029  1.00  0.00     0.026 A 
HETATM   32  C11 UNL     1       7.583  -0.097   0.059  1.00  0.00     0.031 A 
ENDBRANCH  24  26
ENDBRANCH  21  22
ENDBRANCH  18  21
ENDBRANCH  15  17
ENDBRANCH  11  13
ENDBRANCH   8  11
ENDBRANCH   6   7
ENDBRANCH   1   6
TORSDOF 8
