REMARK  7 active torsions:
REMARK  status: ('A' for Active; 'I' for Inactive)
REMARK    1  A    between atoms: N1_8  and  C8_9 
REMARK    2  A    between atoms: C8_9  and  C9_10 
REMARK    3  A    between atoms: C9_10  and  N2_11 
REMARK    4  A    between atoms: C10_16  and  C11_17 
REMARK    5  A    between atoms: C13_21  and  N6_22 
REMARK    6  A    between atoms: C15_31  and  C16_32 
REMARK    7  A    between atoms: C16_32  and  C17_33 
ROOT
HETATM    1  N2  UNL     1      -0.552   0.360  -1.744  1.00  0.00    -0.274 N 
HETATM    2  N3  UNL     1      -0.941  -0.558  -2.599  1.00  0.00    -0.240 N 
ATOM      3  H3  UNL     1      -0.490  -0.737  -3.496  1.00  0.00     0.208 HD
HETATM    4  N4  UNL     1      -1.955  -1.196  -2.164  1.00  0.00    -0.283 N 
ATOM      5  H4  UNL     1      -2.437  -1.956  -2.644  1.00  0.00     0.188 HD
HETATM    6  C10 UNL     1      -2.284  -0.678  -0.932  1.00  0.00     0.092 A 
HETATM    7  C15 UNL     1      -1.394   0.311  -0.669  1.00  0.00     0.079 A 
ENDROOT
BRANCH   6   8
HETATM    8  C11 UNL     1      -3.354  -1.353  -0.211  1.00  0.00     0.054 A 
HETATM    9  C12 UNL     1      -4.633  -0.926  -0.063  1.00  0.00     0.123 A 
HETATM   10  N5  UNL     1      -5.555  -1.691   0.529  1.00  0.00    -0.201 N 
HETATM   11  C13 UNL     1      -5.253  -2.924   1.007  1.00  0.00     0.677 A 
ATOM     12  H5  UNL     1      -6.508  -1.340   0.624  1.00  0.00     0.183 HD
HETATM   13  N7  UNL     1      -3.997  -3.338   0.860  1.00  0.00    -0.176 N 
HETATM   14  C14 UNL     1      -3.037  -2.624   0.281  1.00  0.00     0.128 A 
ATOM     15  H7  UNL     1      -3.755  -4.263   1.215  1.00  0.00     0.186 HD
HETATM   16  N8  UNL     1      -1.829  -3.115   0.211  1.00  0.00    -0.384 N 
ATOM     17  H82 UNL     1      -1.092  -2.567  -0.233  1.00  0.00     0.157 HD
ATOM     18  H81 UNL     1      -1.598  -4.041   0.570  1.00  0.00     0.157 HD
BRANCH  11  19
HETATM   19  N6  UNL     1      -6.171  -3.644   1.582  1.00  0.00    -0.234 N 
ATOM     20  H62 UNL     1      -7.134  -3.327   1.695  1.00  0.00     0.174 HD
ATOM     21  H61 UNL     1      -5.944  -4.571   1.941  1.00  0.00     0.174 HD
ENDBRANCH  11  19
ENDBRANCH   6   8
BRANCH   7  22
HETATM   22  C16 UNL     1      -1.322   1.207   0.477  1.00  0.00     0.031 C 
BRANCH  22  23
HETATM   23  C17 UNL     1      -2.089   2.450   0.566  1.00  0.00     0.050 C 
HETATM   24  C18 UNL     1      -1.897   3.457  -0.551  1.00  0.00     0.036 C 
HETATM   25  C19 UNL     1      -1.398   3.257   1.780  1.00  0.00     0.036 C 
HETATM   26 CL1  UNL     1      -3.755   2.420   1.073  1.00  0.00    -0.116 Cl
ENDBRANCH  22  23
ENDBRANCH   7  22
BRANCH   1  27
HETATM   27  C9  UNL     1       0.668   1.162  -1.899  1.00  0.00     0.181 C 
BRANCH  27  28
HETATM   28  C8  UNL     1       1.859   0.314  -1.729  1.00  0.00     0.295 C 
BRANCH  28  29
HETATM   29  N1  UNL     1       2.169  -0.331  -0.519  1.00  0.00     0.098 N 
HETATM   30  C2  UNL     1       3.092  -1.444  -0.765  1.00  0.00     0.219 C 
HETATM   31  C1  UNL     1       2.845  -2.523   0.242  1.00  0.00     0.043 C 
HETATM   32  C3  UNL     1       4.517  -1.096  -0.863  1.00  0.00     0.035 C 
HETATM   33  C4  UNL     1       5.025  -0.275   0.301  1.00  0.00     0.004 C 
HETATM   34  C5  UNL     1       3.883   0.018   1.256  1.00  0.00     0.035 C 
HETATM   35  C6  UNL     1       2.632   0.487   0.573  1.00  0.00     0.219 C 
HETATM   36  C7  UNL     1       2.773   1.945   0.314  1.00  0.00     0.043 C 
ENDBRANCH  28  29
ENDBRANCH  27  28
ENDBRANCH   1  27
TORSDOF 7
