REMARK  8 active torsions:
REMARK  status: ('A' for Active; 'I' for Inactive)
REMARK    1  A    between atoms: C2_2  and  C4_4 
REMARK    2  A    between atoms: C4_4  and  N1_5 
REMARK    3  A    between atoms: N1_5  and  C5_7 
REMARK    4  A    between atoms: C6_10  and  C7_11 
REMARK    5  A    between atoms: N4_23  and  C16_24 
REMARK    6  A    between atoms: C17_26  and  C18_27 
REMARK    7  A    between atoms: C18_27  and  O3_29 
REMARK    8  A    between atoms: C20_31  and  O4_32 
ROOT
HETATM    1  C5  UNL     1      -1.644  -1.694  -0.359  1.00  0.00     0.120 A 
HETATM    2  N2  UNL     1      -1.990  -0.425  -0.080  1.00  0.00    -0.329 N 
ATOM      3  H2  UNL     1      -2.976  -0.164  -0.064  1.00  0.00     0.168 HD
HETATM    4  C6  UNL     1      -1.051   0.506   0.179  1.00  0.00     0.114 A 
HETATM    5  N3  UNL     1       0.257   0.158   0.156  1.00  0.00    -0.329 N 
ATOM      6  H3  UNL     1       0.963   0.867   0.352  1.00  0.00     0.168 HD
HETATM    7  C12 UNL     1       0.645  -1.087  -0.116  1.00  0.00     0.125 A 
HETATM    8  C13 UNL     1      -0.304  -2.052  -0.382  1.00  0.00     0.054 A 
HETATM    9  C14 UNL     1       0.366  -3.231  -0.627  1.00  0.00     0.036 A 
HETATM   10  C15 UNL     1       1.691  -2.937  -0.499  1.00  0.00     0.096 A 
HETATM   11  N4  UNL     1       1.869  -1.619  -0.185  1.00  0.00    -0.312 N 
ENDROOT
BRANCH  11  12
HETATM   12  C16 UNL     1       3.136  -1.027   0.008  1.00  0.00     0.266 C 
HETATM   13  O2  UNL     1       3.598  -0.285  -1.088  1.00  0.00    -0.353 OA
HETATM   14  C17 UNL     1       4.835   0.147  -0.611  1.00  0.00     0.184 C 
HETATM   15  C20 UNL     1       4.651   0.549   0.825  1.00  0.00     0.188 C 
HETATM   16  C21 UNL     1       3.267  -0.052   1.122  1.00  0.00     0.250 C 
HETATM   17  F1  UNL     1       3.341  -0.704   2.337  1.00  0.00    -0.242 F 
BRANCH  14  18
HETATM   18  C18 UNL     1       5.404   1.264  -1.454  1.00  0.00     0.145 C 
HETATM   19  C19 UNL     1       5.567   0.763  -2.873  1.00  0.00     0.042 C 
BRANCH  18  20
HETATM   20  O3  UNL     1       4.537   2.351  -1.448  1.00  0.00    -0.393 OA
ATOM     21  H3  UNL     1       4.895   3.053  -1.978  1.00  0.00     0.210 HD
ENDBRANCH  18  20
ENDBRANCH  14  18
BRANCH  15  22
HETATM   22  O4  UNL     1       4.639   1.933   0.990  1.00  0.00    -0.390 OA
ATOM     23  H4  UNL     1       4.523   2.187   1.898  1.00  0.00     0.210 HD
ENDBRANCH  15  22
ENDBRANCH  11  12
BRANCH   4  24
HETATM   24  C7  UNL     1      -1.508   1.874   0.477  1.00  0.00     0.189 C 
HETATM   25  C8  UNL     1      -3.003   1.901   0.728  1.00  0.00     0.040 C 
HETATM   26  C9  UNL     1      -3.404   3.230   1.382  1.00  0.00     0.005 C 
HETATM   27  C10 UNL     1      -2.365   4.261   0.981  1.00  0.00     0.026 C 
HETATM   28  C11 UNL     1      -1.013   3.826   1.462  1.00  0.00     0.168 C 
HETATM   29  O1  UNL     1      -0.866   2.445   1.556  1.00  0.00    -0.378 OA
ENDBRANCH   4  24
BRANCH   1  30
HETATM   30  N1  UNL     1      -2.491  -2.626  -0.613  1.00  0.00    -0.351 N 
ATOM     31  H1  UNL     1      -2.171  -3.573  -0.818  1.00  0.00     0.166 HD
BRANCH  30  32
HETATM   32  C4  UNL     1      -3.880  -2.321  -0.605  1.00  0.00     0.091 C 
BRANCH  32  33
HETATM   33  C2  UNL     1      -4.730  -3.100   0.022  1.00  0.00    -0.072 C 
HETATM   34  C1  UNL     1      -4.227  -4.323   0.734  1.00  0.00     0.044 C 
HETATM   35  C3  UNL     1      -6.184  -2.798   0.042  1.00  0.00     0.044 C 
ENDBRANCH  32  33
ENDBRANCH  30  32
ENDBRANCH   1  30
TORSDOF 8
