REMARK  8 active torsions:
REMARK  status: ('A' for Active; 'I' for Inactive)
REMARK    1  A    between atoms: C2_2  and  C3_3 
REMARK    2  A    between atoms: C5_5  and  C7_7 
REMARK    3  A    between atoms: C9_11  and  N1_12 
REMARK    4  A    between atoms: N1_12  and  C10_14 
REMARK    5  A    between atoms: C10_14  and  O3_16 
REMARK    6  A    between atoms: O3_16  and  C11_17 
REMARK    7  A    between atoms: C13_20  and  N2_21 
REMARK    8  A    between atoms: C14_26  and  S2_27 
ROOT
HETATM    1  C10 UNL     1       0.787  -1.098  -1.347  1.00  0.00     0.218 C 
HETATM    2  S1  UNL     1      -0.079  -1.849  -2.503  1.00  0.00    -0.033 SA
ENDROOT
BRANCH   1   3
HETATM    3  N1  UNL     1       0.153  -0.323  -0.373  1.00  0.00    -0.335 N 
ATOM      4  H1  UNL     1       0.729   0.142   0.329  1.00  0.00     0.165 HD
BRANCH   3   5
HETATM    5  C9  UNL     1      -1.269  -0.151  -0.313  1.00  0.00     0.224 C 
HETATM    6  C8  UNL     1      -1.915  -1.427   0.131  1.00  0.00     0.074 C 
HETATM    7  C5  UNL     1      -3.426  -1.315   0.127  1.00  0.00     0.051 C 
HETATM    8  C4  UNL     1      -3.882   0.003   0.664  1.00  0.00     0.052 C 
HETATM    9  C6  UNL     1      -3.942  -2.392   1.088  1.00  0.00     0.027 C 
HETATM   10  C3  UNL     1      -2.964   1.151   0.334  1.00  0.00     0.125 C 
HETATM   11  O4  UNL     1      -1.642   0.869   0.566  1.00  0.00    -0.361 OA
BRANCH   7  12
HETATM   12  C7  UNL     1      -3.927  -1.601  -1.222  1.00  0.00     0.181 C 
HETATM   13  O1  UNL     1      -4.654  -0.769  -1.813  1.00  0.00    -0.647 OA
HETATM   14  O2  UNL     1      -3.587  -2.797  -1.831  1.00  0.00    -0.647 OA
ENDBRANCH   7  12
BRANCH  10  15
HETATM   15  C2  UNL     1      -3.450   2.361   1.110  1.00  0.00     0.027 C 
HETATM   16  C1  UNL     1      -2.533   3.517   0.783  1.00  0.00     0.007 C 
ENDBRANCH  10  15
ENDBRANCH   3   5
ENDBRANCH   1   3
BRANCH   1  17
HETATM   17  O3  UNL     1       2.165  -1.283  -1.408  1.00  0.00    -0.265 OA
BRANCH  17  18
HETATM   18  C11 UNL     1       3.040  -0.912  -0.429  1.00  0.00     0.180 A 
HETATM   19  C12 UNL     1       3.349  -1.810   0.570  1.00  0.00     0.129 A 
HETATM   20 CL1  UNL     1       2.615  -3.421   0.576  1.00  0.00    -0.076 Cl
HETATM   21  C13 UNL     1       4.217  -1.524   1.594  1.00  0.00     0.127 A 
HETATM   22  N3  UNL     1       4.780  -0.302   1.599  1.00  0.00    -0.322 N 
HETATM   23  C14 UNL     1       4.483   0.584   0.622  1.00  0.00     0.149 A 
ATOM     24  H3  UNL     1       5.431  -0.044   2.340  1.00  0.00     0.169 HD
HETATM   25  N4  UNL     1       3.629   0.296  -0.380  1.00  0.00    -0.311 N 
HETATM   26  C16 UNL     1       3.340   1.298  -1.420  1.00  0.00     0.160 C 
BRANCH  21  27
HETATM   27  N2  UNL     1       4.514  -2.361   2.539  1.00  0.00    -0.384 N 
ATOM     28  H22 UNL     1       4.087  -3.287   2.535  1.00  0.00     0.157 HD
ATOM     29  H21 UNL     1       5.159  -2.148   3.300  1.00  0.00     0.157 HD
ENDBRANCH  21  27
BRANCH  23  30
HETATM   30  S2  UNL     1       5.232   2.228   0.616  1.00  0.00    -0.098 SA
HETATM   31  C15 UNL     1       6.790   2.208  -0.308  1.00  0.00     0.099 C 
ENDBRANCH  23  30
ENDBRANCH  17  18
ENDBRANCH   1  17
TORSDOF 8
