REMARK  6 active torsions:
REMARK  status: ('A' for Active; 'I' for Inactive)
REMARK    1  A    between atoms: C2_2  and  C3_3 
REMARK    2  A    between atoms: C3_3  and  O1_4 
REMARK    3  A    between atoms: C3_3  and  C4_6 
REMARK    4  A    between atoms: C4_6  and  N1_7 
REMARK    5  A    between atoms: C8_17  and  C9_18 
REMARK    6  A    between atoms: C11_22  and  N5_23 
ROOT
HETATM    1  C9  UNL     1       0.891  -2.832   0.013  1.00  0.00     0.123 A 
HETATM    2  N4  UNL     1       0.132  -1.722  -0.002  1.00  0.00    -0.336 N 
ATOM      3  H4  UNL     1       0.492  -0.771   0.074  1.00  0.00     0.168 HD
HETATM    4  C10 UNL     1      -1.160  -2.040  -0.131  1.00  0.00     0.123 A 
HETATM    5  C11 UNL     1      -2.330  -1.323  -0.200  1.00  0.00     0.135 A 
HETATM    6  N6  UNL     1      -3.492  -1.939  -0.331  1.00  0.00    -0.337 N 
ATOM      7  H6  UNL     1      -4.354  -1.396  -0.381  1.00  0.00     0.168 HD
HETATM    8  C19 UNL     1      -3.540  -3.287  -0.399  1.00  0.00     0.183 A 
HETATM    9  N7  UNL     1      -2.430  -4.039  -0.336  1.00  0.00    -0.337 N 
ATOM     10  H7  UNL     1      -2.481  -5.056  -0.388  1.00  0.00     0.168 HD
HETATM   11  C20 UNL     1      -1.250  -3.411  -0.203  1.00  0.00     0.139 A 
HETATM   12  N8  UNL     1       0.031  -3.858  -0.111  1.00  0.00    -0.326 N 
ATOM     13  H8  UNL     1       0.303  -4.841  -0.133  1.00  0.00     0.169 HD
ENDROOT
BRANCH   1  14
HETATM   14  C8  UNL     1       2.340  -2.944   0.135  1.00  0.00     0.067 A 
HETATM   15  C5  UNL     1       3.125  -1.813   0.257  1.00  0.00     0.118 A 
HETATM   16  N1  UNL     1       2.545  -0.684   0.257  1.00  0.00    -0.373 N 
HETATM   17  N2  UNL     1       4.473  -1.890   0.372  1.00  0.00    -0.318 N 
ATOM     18  H1  UNL     1       1.529  -0.694   0.166  1.00  0.00     0.161 HD
HETATM   19  C6  UNL     1       5.068  -3.091   0.369  1.00  0.00     0.180 A 
ATOM     20  H2  UNL     1       5.031  -1.040   0.460  1.00  0.00     0.170 HD
HETATM   21 CL1  UNL     1       6.809  -3.265   0.515  1.00  0.00    -0.045 Cl
HETATM   22  N3  UNL     1       4.306  -4.193   0.251  1.00  0.00    -0.342 N 
HETATM   23  C7  UNL     1       2.978  -4.166   0.135  1.00  0.00     0.109 A 
ATOM     24  H3  UNL     1       4.770  -5.101   0.250  1.00  0.00     0.167 HD
BRANCH  16  25
HETATM   25  C4  UNL     1       3.163   0.599   0.371  1.00  0.00     0.153 C 
BRANCH  25  26
HETATM   26  C3  UNL     1       3.729   1.108  -0.928  1.00  0.00     0.135 C 
BRANCH  26  27
HETATM   27  C2  UNL     1       4.251   2.526  -0.666  1.00  0.00     0.029 C 
HETATM   28  C1  UNL     1       3.134   3.431  -0.196  1.00  0.00     0.007 C 
ENDBRANCH  26  27
BRANCH  26  29
HETATM   29  O1  UNL     1       2.753   1.241  -1.915  1.00  0.00    -0.394 OA
ATOM     30  H1  UNL     1       2.430   0.363  -2.077  1.00  0.00     0.210 HD
ENDBRANCH  26  29
ENDBRANCH  25  26
ENDBRANCH  16  25
ENDBRANCH   1  14
BRANCH   5  31
HETATM   31  N5  UNL     1      -2.263   0.089  -0.126  1.00  0.00    -0.365 N 
HETATM   32  C12 UNL     1      -1.680   0.478   1.135  1.00  0.00     0.124 C 
HETATM   33  C13 UNL     1      -2.560   1.374   1.975  1.00  0.00     0.020 C 
HETATM   34  C14 UNL     1      -2.891   2.653   1.314  1.00  0.00     0.002 C 
HETATM   35  C15 UNL     1      -4.176   2.708   0.577  1.00  0.00     0.000 C 
HETATM   36  C16 UNL     1      -4.740   1.393   0.154  1.00  0.00     0.002 C 
HETATM   37  C17 UNL     1      -4.231   0.940  -1.198  1.00  0.00     0.020 C 
HETATM   38  C18 UNL     1      -2.755   0.776  -1.272  1.00  0.00     0.124 C 
ENDBRANCH   5  31
TORSDOF 6
