REMARK  7 active torsions:
REMARK  status: ('A' for Active; 'I' for Inactive)
REMARK    1  A    between atoms: O1_2  and  C2_3 
REMARK    2  A    between atoms: C5_8  and  C6_9 
REMARK    3  A    between atoms: C7_12  and  N3_13 
REMARK    4  A    between atoms: N3_13  and  C8_15 
REMARK    5  A    between atoms: C13_24  and  N5_25 
REMARK    6  A    between atoms: N5_25  and  C14_27 
REMARK    7  A    between atoms: C17_30  and  N6_31 
ROOT
HETATM    1  C6  UNL     1      -0.528   0.705  -1.015  1.00  0.00     0.090 A 
HETATM    2  N2  UNL     1      -1.872   0.710  -0.813  1.00  0.00    -0.189 N 
ATOM      3  H2  UNL     1      -2.303   1.566  -0.464  1.00  0.00     0.184 HD
HETATM    4  C7  UNL     1      -2.662  -0.346  -1.047  1.00  0.00     0.680 A 
HETATM    5  N4  UNL     1      -2.106  -1.476  -1.505  1.00  0.00    -0.179 N 
ATOM      6  H4  UNL     1      -2.704  -2.283  -1.684  1.00  0.00     0.185 HD
HETATM    7  C12 UNL     1      -0.796  -1.580  -1.734  1.00  0.00     0.147 A 
HETATM    8 CL1  UNL     1      -0.163  -3.090  -2.330  1.00  0.00    -0.061 Cl
HETATM    9  C13 UNL     1       0.014  -0.461  -1.483  1.00  0.00     0.096 A 
ENDROOT
BRANCH   9  10
HETATM   10  N5  UNL     1       1.401  -0.614  -1.709  1.00  0.00    -0.381 N 
ATOM     11  H5  UNL     1       1.761  -0.315  -2.615  1.00  0.00     0.160 HD
BRANCH  10  12
HETATM   12  C14 UNL     1       2.348  -1.154  -0.774  1.00  0.00     0.082 C 
HETATM   13  C15 UNL     1       3.770  -1.101  -1.324  1.00  0.00     0.027 C 
HETATM   14  C16 UNL     1       4.626  -1.982  -0.467  1.00  0.00     0.035 C 
HETATM   15  C17 UNL     1       4.601  -1.525   0.975  1.00  0.00     0.183 C 
HETATM   16  C18 UNL     1       3.216  -1.362   1.507  1.00  0.00     0.035 C 
HETATM   17  C19 UNL     1       2.366  -0.495   0.575  1.00  0.00     0.027 C 
BRANCH  15  18
HETATM   18  N6  UNL     1       5.379  -0.315   1.154  1.00  0.00    -0.075 N 
ATOM     19  H63 UNL     1       6.334  -0.429   0.813  1.00  0.00     0.274 HD
ATOM     20  H62 UNL     1       5.074   0.424   0.521  1.00  0.00     0.274 HD
ATOM     21  H61 UNL     1       5.362  -0.007   2.126  1.00  0.00     0.274 HD
ENDBRANCH  15  18
ENDBRANCH  10  12
ENDBRANCH   9  10
BRANCH   1  22
HETATM   22  C5  UNL     1       0.212   1.924  -0.720  1.00  0.00     0.012 A 
HETATM   23  C4  UNL     1       1.113   2.439  -1.623  1.00  0.00     0.101 A 
HETATM   24  N1  UNL     1       1.771   3.563  -1.294  1.00  0.00    -0.372 N 
HETATM   25  C3  UNL     1       1.578   4.192  -0.126  1.00  0.00     0.124 A 
ATOM     26  H1  UNL     1       2.442   3.952  -1.957  1.00  0.00     0.164 HD
HETATM   27  C2  UNL     1       0.687   3.727   0.823  1.00  0.00     0.084 A 
HETATM   28  C20 UNL     1       0.006   2.579   0.503  1.00  0.00     0.053 A 
BRANCH  27  29
HETATM   29  O1  UNL     1       0.529   4.421   2.015  1.00  0.00    -0.355 OA
HETATM   30  C1  UNL     1      -0.341   4.038   3.035  1.00  0.00     0.210 C 
ENDBRANCH  27  29
ENDBRANCH   1  22
BRANCH   4  31
HETATM   31  N3  UNL     1      -3.918  -0.218  -0.816  1.00  0.00    -0.219 N 
ATOM     32  H3  UNL     1      -4.249   0.681  -0.466  1.00  0.00     0.178 HD
BRANCH  31  33
HETATM   33  C8  UNL     1      -4.889  -1.260  -1.018  1.00  0.00     0.125 C 
HETATM   34  C9  UNL     1      -4.911  -2.237   0.149  1.00  0.00     0.054 C 
HETATM   35  C10 UNL     1      -5.650  -1.425   1.186  1.00  0.00     0.169 C 
HETATM   36  O2  UNL     1      -6.420  -0.501   0.544  1.00  0.00    -0.389 OA
HETATM   37  C11 UNL     1      -6.268  -0.624  -0.811  1.00  0.00     0.193 C 
ENDBRANCH  31  33
ENDBRANCH   4  31
TORSDOF 7
