REMARK  8 active torsions:
REMARK  status: ('A' for Active; 'I' for Inactive)
REMARK    1  A    between atoms: C2_2  and  C3_3 
REMARK    2  A    between atoms: C3_3  and  C4_4 
REMARK    3  A    between atoms: C7_11  and  N3_12 
REMARK    4  A    between atoms: C10_15  and  O1_16 
REMARK    5  A    between atoms: N4_23  and  C15_24 
REMARK    6  A    between atoms: C18_27  and  N5_28 
REMARK    7  A    between atoms: C19_34  and  C20_35 
REMARK    8  A    between atoms: C20_35  and  O2_38 
ROOT
HETATM    1  C4  UNL     1      -1.539  -1.929  -0.980  1.00  0.00     0.085 A 
HETATM    2  N1  UNL     1      -0.497  -2.438  -1.676  1.00  0.00    -0.343 N 
ATOM      3  H1  UNL     1      -0.572  -3.175  -2.377  1.00  0.00     0.167 HD
HETATM    4  C5  UNL     1       0.626  -1.851  -1.324  1.00  0.00     0.079 A 
HETATM    5  C6  UNL     1       1.936  -2.038  -1.757  1.00  0.00     0.121 A 
HETATM    6  N2  UNL     1       2.924  -1.319  -1.249  1.00  0.00    -0.348 N 
ATOM      7  H2  UNL     1       3.884  -1.457  -1.566  1.00  0.00     0.167 HD
HETATM    8  C7  UNL     1       2.635  -0.390  -0.293  1.00  0.00     0.145 A 
HETATM    9  C13 UNL     1       1.341  -0.201   0.140  1.00  0.00     0.189 A 
HETATM   10  F1  UNL     1       1.135   0.733   1.068  1.00  0.00    -0.200 F 
HETATM   11  C14 UNL     1       0.282  -0.929  -0.362  1.00  0.00     0.107 A 
HETATM   12  N4  UNL     1      -1.067  -0.991  -0.162  1.00  0.00    -0.322 N 
ENDROOT
BRANCH  12  13
HETATM   13  C15 UNL     1      -1.748  -0.148   0.734  1.00  0.00     0.140 C 
HETATM   14  C16 UNL     1      -2.792  -0.910   1.537  1.00  0.00     0.035 C 
HETATM   15  C17 UNL     1      -2.963  -0.161   2.872  1.00  0.00     0.056 C 
HETATM   16  C18 UNL     1      -3.054   1.281   2.602  1.00  0.00     0.281 C 
HETATM   17  N6  UNL     1      -2.965   1.719   1.260  1.00  0.00    -0.365 N 
HETATM   18  C19 UNL     1      -2.354   1.096   0.282  1.00  0.00     0.041 C 
ATOM     19  H6  UNL     1      -3.419   2.603   1.032  1.00  0.00     0.161 HD
BRANCH  16  20
HETATM   20  N5  UNL     1      -4.264   1.895   3.165  1.00  0.00    -0.058 N 
ATOM     21  H53 UNL     1      -5.102   1.411   2.843  1.00  0.00     0.276 HD
ATOM     22  H52 UNL     1      -4.337   1.706   4.165  1.00  0.00     0.276 HD
ATOM     23  H51 UNL     1      -4.327   2.896   2.978  1.00  0.00     0.276 HD
ENDBRANCH  16  20
BRANCH  18  24
HETATM   24  C20 UNL     1      -2.410   1.768  -1.002  1.00  0.00     0.090 C 
HETATM   25  C21 UNL     1      -3.132   3.135  -0.913  1.00  0.00     0.052 C 
HETATM   26  C22 UNL     1      -1.157   2.029  -1.736  1.00  0.00     0.052 C 
BRANCH  24  27
HETATM   27  O2  UNL     1      -3.259   1.042  -1.861  1.00  0.00    -0.385 OA
ATOM     28  H2  UNL     1      -3.296   1.482  -2.702  1.00  0.00     0.211 HD
ENDBRANCH  24  27
ENDBRANCH  18  24
ENDBRANCH  12  13
BRANCH   1  29
HETATM   29  C3  UNL     1      -2.896  -2.425  -1.275  1.00  0.00     0.076 C 
BRANCH  29  30
HETATM   30  C2  UNL     1      -3.121  -3.763  -0.635  1.00  0.00     0.003 C 
HETATM   31  C1  UNL     1      -2.120  -4.785  -1.157  1.00  0.00     0.005 C 
ENDBRANCH  29  30
ENDBRANCH   1  29
BRANCH   8  32
HETATM   32  N3  UNL     1       3.738   0.332   0.194  1.00  0.00    -0.365 N 
HETATM   33  C8  UNL     1       3.776   1.767   0.028  1.00  0.00     0.127 C 
HETATM   34  C9  UNL     1       5.127   2.320   0.466  1.00  0.00     0.051 C 
HETATM   35  C10 UNL     1       6.280   1.496  -0.002  1.00  0.00     0.121 C 
HETATM   36  C11 UNL     1       6.087   0.019   0.067  1.00  0.00     0.051 C 
HETATM   37  C12 UNL     1       4.857  -0.294   0.863  1.00  0.00     0.127 C 
BRANCH  35  38
HETATM   38  O1  UNL     1       6.663   1.868  -1.306  1.00  0.00    -0.395 OA
ATOM     39  H1  UNL     1       7.397   1.343  -1.604  1.00  0.00     0.210 HD
ENDBRANCH  35  38
ENDBRANCH   8  32
TORSDOF 8
