REMARK  3 active torsions:
REMARK  status: ('A' for Active; 'I' for Inactive)
REMARK    1  A    between atoms: O1_2  and  C2_3 
REMARK    2  A    between atoms: C2_3  and  C3_5 
REMARK    3  A    between atoms: C7_13  and  C8_14 
ROOT
HETATM    1  C3  UNL     1       0.688   0.289   1.162  1.00  0.00     0.172 C 
HETATM    2  C4  UNL     1       0.902   1.620   1.797  1.00  0.00     0.062 C 
HETATM    3  N1  UNL     1       0.929   2.072   2.947  1.00  0.00    -0.396 N 
ATOM      4  H11 UNL     1       1.075   2.983   3.382  1.00  0.00     0.156 HD
ATOM      5  H12 UNL     1       0.789   1.547   3.810  1.00  0.00     0.156 HD
HETATM    6  S1  UNL     1       1.153   2.561   0.250  1.00  0.00    -0.081 SA
HETATM    7  C5  UNL     1      -0.193   1.635  -0.598  1.00  0.00    -0.015 C 
HETATM    8  C6  UNL     1      -0.857   2.271  -1.714  1.00  0.00     0.056 C 
HETATM    9  C7  UNL     1      -0.287   0.474   0.029  1.00  0.00    -0.040 C 
ENDROOT
BRANCH   1  10
HETATM   10  C2  UNL     1       2.023  -0.161   0.696  1.00  0.00     0.273 C 
HETATM   11  O2  UNL     1       2.989   0.672   0.829  1.00  0.00    -0.264 OA
BRANCH  10  12
HETATM   12  O1  UNL     1       2.323  -1.374   0.141  1.00  0.00    -0.326 OA
HETATM   13  C1  UNL     1       3.646  -1.662  -0.256  1.00  0.00     0.213 C 
ENDBRANCH  10  12
ENDBRANCH   1  10
BRANCH   9  14
HETATM   14  C8  UNL     1      -1.301  -0.592  -0.298  1.00  0.00    -0.026 C 
HETATM   15  C9  UNL     1      -2.073  -0.807   1.046  1.00  0.00     0.019 C 
HETATM   16  C10 UNL     1      -0.733  -1.931  -0.595  1.00  0.00     0.019 C 
HETATM   17  C11 UNL     1      -2.408  -0.167  -1.189  1.00  0.00     0.019 C 
ENDBRANCH   9  14
TORSDOF 3
