REMARK  1 active torsions:
REMARK  status: ('A' for Active; 'I' for Inactive)
REMARK    1  A    between atoms: C4_6  and  C5_7 
ROOT
HETATM    1  C1  UNL     1      -3.234  -0.179   1.209  1.00  0.00     0.062 C 
HETATM    2  C2  UNL     1      -2.435  -0.644   0.025  1.00  0.00     0.097 C 
HETATM    3  C3  UNL     1      -2.721  -2.126  -0.262  1.00  0.00     0.062 C 
HETATM    4  N1  UNL     1      -1.044  -0.533   0.241  1.00  0.00    -0.369 N 
ATOM      5  H1  UNL     1      -0.601  -1.353   0.656  1.00  0.00     0.161 HD
HETATM    6  C4  UNL     1      -0.274   0.427  -0.003  1.00  0.00     0.013 C 
HETATM    7  C11 UNL     1      -0.816   1.682  -0.614  1.00  0.00     0.205 C 
HETATM    8  C12 UNL     1      -1.128   2.688   0.402  1.00  0.00     0.077 C 
HETATM    9  N2  UNL     1      -1.373   3.481   1.210  1.00  0.00    -0.196 NA
HETATM   10  C13 UNL     1      -2.038   1.382  -1.365  1.00  0.00     0.096 C 
HETATM   11  N3  UNL     1      -2.494   2.220  -2.219  1.00  0.00    -0.388 N 
ATOM     12  H31 UNL     1      -3.345   2.011  -2.742  1.00  0.00     0.157 HD
ATOM     13  H32 UNL     1      -1.984   3.092  -2.358  1.00  0.00     0.157 HD
HETATM   14  N4  UNL     1      -2.758   0.150  -1.168  1.00  0.00    -0.353 N 
ATOM     15  H4  UNL     1      -3.467  -0.160  -1.833  1.00  0.00     0.163 HD
ENDROOT
BRANCH   6  16
HETATM   16  C5  UNL     1       1.166   0.303   0.317  1.00  0.00     0.033 C 
HETATM   17  C6  UNL     1       2.026   0.451  -0.892  1.00  0.00     0.010 C 
HETATM   18  C7  UNL     1       3.464   0.259  -0.592  1.00  0.00     0.001 C 
HETATM   19  C8  UNL     1       3.787  -0.856   0.334  1.00  0.00     0.000 C 
HETATM   20  C9  UNL     1       2.862  -0.951   1.521  1.00  0.00     0.001 C 
HETATM   21  C10 UNL     1       1.444  -1.046   0.942  1.00  0.00     0.010 C 
ENDBRANCH   6  16
TORSDOF 1
