REMARK  2 active torsions:
REMARK  status: ('A' for Active; 'I' for Inactive)
REMARK    1  A    between atoms: C8_8  and  C9_9 
REMARK    2  A    between atoms: N3_16  and  N4_17 
ROOT
HETATM    1  C9  UNL     1       1.364  -0.089   0.389  1.00  0.00     0.125 A 
HETATM    2  N1  UNL     1       1.465  -0.006   1.725  1.00  0.00    -0.285 N 
ATOM      3  H1  UNL     1       0.699  -0.158   2.381  1.00  0.00     0.188 HD
HETATM    4  N2  UNL     1       2.724   0.306   2.069  1.00  0.00    -0.273 N 
ATOM      5  H2  UNL     1       3.075   0.431   3.018  1.00  0.00     0.189 HD
HETATM    6  C10 UNL     1       3.434   0.423   0.943  1.00  0.00     0.213 A 
HETATM    7  S1  UNL     1       5.021   0.793   0.847  1.00  0.00    -0.037 SA
HETATM    8  N3  UNL     1       2.585   0.177  -0.094  1.00  0.00    -0.221 N 
ENDROOT
BRANCH   1   9
HETATM    9  C8  UNL     1       0.139  -0.413  -0.377  1.00  0.00     0.064 C 
HETATM   10  C2  UNL     1      -0.905   0.651  -0.164  1.00  0.00    -0.037 C 
HETATM   11  C1  UNL     1      -1.122   0.984   1.282  1.00  0.00     0.015 C 
HETATM   12  C3  UNL     1      -0.432   1.915  -0.857  1.00  0.00     0.015 C 
HETATM   13  C4  UNL     1      -2.220   0.267  -0.776  1.00  0.00     0.009 C 
HETATM   14  C5  UNL     1      -2.691  -0.997  -0.096  1.00  0.00     0.001 C 
HETATM   15  C6  UNL     1      -1.718  -2.110  -0.383  1.00  0.00     0.001 C 
HETATM   16  C7  UNL     1      -0.309  -1.783   0.011  1.00  0.00     0.013 C 
ENDBRANCH   1   9
BRANCH   8  17
HETATM   17  N4  UNL     1       2.997   0.215  -1.427  1.00  0.00    -0.335 N 
ATOM     18  H42 UNL     1       2.361   0.031  -2.203  1.00  0.00     0.177 HD
ATOM     19  H41 UNL     1       3.927   0.418  -1.795  1.00  0.00     0.177 HD
ENDBRANCH   8  17
TORSDOF 2
