REMARK  14 active torsions:
REMARK  status: ('A' for Active; 'I' for Inactive)
REMARK    1  A    between atoms: C2_2  and  O2_4 
REMARK    2  A    between atoms: O2_4  and  C3_5 
REMARK    3  A    between atoms: C3_5  and  C4_6 
REMARK    4  A    between atoms: N1_8  and  O3_10 
REMARK    5  A    between atoms: C7_13  and  O4_14 
REMARK    6  A    between atoms: C8_16  and  O5_18 
REMARK    7  A    between atoms: S1_20  and  C10_22 
REMARK    8  A    between atoms: C10_22  and  C11_23 
REMARK    9  A    between atoms: C11_23  and  O7_24 
REMARK   10  A    between atoms: O7_24  and  C12_25 
REMARK   11  A    between atoms: C12_25  and  O8_26 
REMARK   12  A    between atoms: O8_26  and  C13_27 
REMARK   13  A    between atoms: C13_27  and  C14_28 
REMARK   14  A    between atoms: C14_28  and  O9_29 
ROOT
HETATM    1  C3  UNL     1      -2.599  -0.079  -0.364  1.00  0.00     0.131 C 
HETATM    2  C6  UNL     1      -2.188  -1.297  -1.124  1.00  0.00     0.082 C 
HETATM    3  C7  UNL     1      -0.910  -1.197  -1.855  1.00  0.00     0.167 C 
HETATM    4  C8  UNL     1       0.311  -1.139  -1.012  1.00  0.00     0.146 C 
HETATM    5  C9  UNL     1       0.527  -2.324  -0.134  1.00  0.00     0.062 C 
HETATM    6  S1  UNL     1       0.180   0.481   0.113  1.00  0.00    -0.006 S 
HETATM    7  O6  UNL     1       0.059   2.119  -1.124  1.00  0.00    -0.266 OA
HETATM    8  C15 UNL     1      -1.750   0.201   0.829  1.00  0.00     0.067 C 
HETATM    9  C16 UNL     1      -2.053   1.538   1.454  1.00  0.00     0.026 C 
HETATM   10  C17 UNL     1      -2.689   1.173   2.797  1.00  0.00     0.002 C 
HETATM   11  C18 UNL     1      -2.056  -0.159   3.159  1.00  0.00     0.002 C 
HETATM   12  C19 UNL     1      -1.672  -0.820   1.883  1.00  0.00     0.026 C 
ENDROOT
BRANCH   1  13
HETATM   13  O2  UNL     1      -2.447   1.103  -1.181  1.00  0.00    -0.302 OA
BRANCH  13  14
HETATM   14  C2  UNL     1      -3.051   1.321  -2.383  1.00  0.00     0.256 C 
HETATM   15  C1  UNL     1      -2.849   2.592  -3.158  1.00  0.00     0.126 C 
HETATM   16  O1  UNL     1      -3.798   0.412  -2.832  1.00  0.00    -0.266 OA
ENDBRANCH  13  14
ENDBRANCH   1  13
BRANCH   1  17
HETATM   17  C4  UNL     1      -4.010  -0.234   0.038  1.00  0.00     0.043 C 
HETATM   18  C5  UNL     1      -4.590  -1.435   0.688  1.00  0.00     0.069 C 
HETATM   19  N1  UNL     1      -4.852   0.765  -0.155  1.00  0.00    -0.275 N 
ATOM     20  H1  UNL     1      -4.493   1.620  -0.580  1.00  0.00     0.193 HD
BRANCH  19  21
HETATM   21  O3  UNL     1      -6.159   0.722   0.177  1.00  0.00    -0.290 OA
ATOM     22  H3  UNL     1      -6.765   1.441   0.038  1.00  0.00     0.244 HD
ENDBRANCH  19  21
ENDBRANCH   1  17
BRANCH   3  23
HETATM   23  O4  UNL     1      -0.801  -2.313  -2.704  1.00  0.00    -0.392 OA
ATOM     24  H4  UNL     1       0.022  -2.249  -3.175  1.00  0.00     0.210 HD
ENDBRANCH   3  23
BRANCH   6  25
HETATM   25  C10 UNL     1       1.505   0.889   1.513  1.00  0.00     0.126 C 
BRANCH  25  26
HETATM   26  C11 UNL     1       2.853   1.028   0.892  1.00  0.00     0.182 C 
BRANCH  26  27
HETATM   27  O7  UNL     1       3.250  -0.140   0.243  1.00  0.00    -0.366 OA
BRANCH  27  28
HETATM   28  C12 UNL     1       4.546   0.100  -0.309  1.00  0.00     0.337 C 
BRANCH  28  29
HETATM   29  O8  UNL     1       5.344   0.399   0.751  1.00  0.00    -0.365 OA
BRANCH  29  30
HETATM   30  C13 UNL     1       6.648   0.690   0.554  1.00  0.00     0.196 C 
BRANCH  30  31
HETATM   31  C14 UNL     1       7.501  -0.352  -0.070  1.00  0.00     0.190 C 
BRANCH  31  32
HETATM   32  O9  UNL     1       7.094  -0.726  -1.337  1.00  0.00    -0.399 OA
ATOM     33  H9  UNL     1       7.640  -1.393  -1.736  1.00  0.00     0.209 HD
ENDBRANCH  31  32
ENDBRANCH  30  31
ENDBRANCH  29  30
ENDBRANCH  28  29
ENDBRANCH  27  28
ENDBRANCH  26  27
ENDBRANCH  25  26
ENDBRANCH   6  25
BRANCH   4  34
HETATM   34  O5  UNL     1       1.424  -0.990  -1.841  1.00  0.00    -0.376 OA
ATOM     35  H5  UNL     1       2.205  -0.953  -1.302  1.00  0.00     0.211 HD
ENDBRANCH   4  34
TORSDOF 14
