REMARK  16 active torsions:
REMARK  status: ('A' for Active; 'I' for Inactive)
REMARK    1  A    between atoms: C2_2  and  C3_3 
REMARK    2  A    between atoms: C3_3  and  O2_5 
REMARK    3  A    between atoms: O2_5  and  C4_6 
REMARK    4  A    between atoms: C5_7  and  N1_8 
REMARK    5  A    between atoms: C8_15  and  O4_16 
REMARK    6  A    between atoms: O4_16  and  C9_17 
REMARK    7  A    between atoms: C10_19  and  C11_20 
REMARK    8  A    between atoms: C11_20  and  O6_21 
REMARK    9  A    between atoms: C12_23  and  O7_24 
REMARK   10  A    between atoms: C13_26  and  O8_27 
REMARK   11  A    between atoms: C14_29  and  O9_30 
REMARK   12  A    between atoms: C15_32  and  C16_33 
REMARK   13  A    between atoms: C16_33  and  C17_34 
REMARK   14  A    between atoms: C18_35  and  C19_36 
REMARK   15  A    between atoms: C19_36  and  C20_37 
REMARK   16  A    between atoms: C20_37  and  C21_38 
ROOT
HETATM    1  C4  UNL     1      -0.079   2.690  -0.677  1.00  0.00     0.174 C 
HETATM    2  C5  UNL     1      -1.084   2.971  -1.759  1.00  0.00     0.241 C 
HETATM    3  C6  UNL     1      -2.173   1.978  -1.919  1.00  0.00     0.153 C 
HETATM    4  C7  UNL     1      -2.969   2.270  -3.155  1.00  0.00     0.042 C 
HETATM    5  O3  UNL     1      -1.627   0.713  -2.017  1.00  0.00    -0.354 OA
HETATM    6  C8  UNL     1      -1.083   0.428  -0.743  1.00  0.00     0.270 C 
HETATM    7  C15 UNL     1       0.160   1.190  -0.493  1.00  0.00     0.076 C 
ENDROOT
BRANCH   6   8
HETATM    8  O4  UNL     1      -1.055  -0.931  -0.592  1.00  0.00    -0.328 OA
BRANCH   8   9
HETATM    9  C9  UNL     1      -1.984  -1.322   0.341  1.00  0.00     0.294 C 
HETATM   10  O5  UNL     1      -1.281  -1.907   1.409  1.00  0.00    -0.348 OA
HETATM   11  C10 UNL     1      -2.083  -2.192   2.486  1.00  0.00     0.179 C 
HETATM   12  C12 UNL     1      -3.092  -3.256   2.096  1.00  0.00     0.180 C 
HETATM   13  C13 UNL     1      -3.915  -2.676   0.961  1.00  0.00     0.183 C 
HETATM   14  C14 UNL     1      -2.954  -2.351  -0.163  1.00  0.00     0.204 C 
BRANCH  11  15
HETATM   15  C11 UNL     1      -1.223  -2.761   3.578  1.00  0.00     0.198 C 
BRANCH  15  16
HETATM   16  O6  UNL     1      -2.033  -3.050   4.668  1.00  0.00    -0.398 OA
ATOM     17  H6  UNL     1      -1.489  -3.410   5.359  1.00  0.00     0.209 HD
ENDBRANCH  15  16
ENDBRANCH  11  15
BRANCH  12  18
HETATM   18  O7  UNL     1      -3.951  -3.547   3.135  1.00  0.00    -0.390 OA
ATOM     19  H7  UNL     1      -4.583  -4.213   2.891  1.00  0.00     0.210 HD
ENDBRANCH  12  18
BRANCH  13  20
HETATM   20  O8  UNL     1      -4.866  -3.564   0.487  1.00  0.00    -0.390 OA
ATOM     21  H8  UNL     1      -5.381  -3.201  -0.224  1.00  0.00     0.210 HD
ENDBRANCH  13  20
BRANCH  14  22
HETATM   22  O9  UNL     1      -2.333  -3.531  -0.547  1.00  0.00    -0.388 OA
ATOM     23  H9  UNL     1      -2.947  -4.182  -0.866  1.00  0.00     0.210 HD
ENDBRANCH  14  22
ENDBRANCH   8   9
ENDBRANCH   6   8
BRANCH   7  24
HETATM   24  C16 UNL     1       1.296   0.752  -1.381  1.00  0.00     0.039 C 
BRANCH  24  25
HETATM   25  C17 UNL     1       1.681  -0.643  -1.338  1.00  0.00    -0.030 C 
HETATM   26  C18 UNL     1       2.850  -1.079  -0.971  1.00  0.00    -0.031 C 
BRANCH  26  27
HETATM   27  C19 UNL     1       4.018  -0.329  -0.529  1.00  0.00     0.027 C 
BRANCH  27  28
HETATM   28  C20 UNL     1       5.194  -0.592  -1.456  1.00  0.00     0.003 C 
BRANCH  28  29
HETATM   29  C21 UNL     1       5.547  -2.064  -1.468  1.00  0.00    -0.004 C 
HETATM   30  C22 UNL     1       5.927  -2.575  -0.108  1.00  0.00     0.005 C 
ENDBRANCH  28  29
ENDBRANCH  27  28
ENDBRANCH  26  27
ENDBRANCH  24  25
ENDBRANCH   7  24
BRANCH   1  31
HETATM   31  O2  UNL     1      -0.369   3.344   0.539  1.00  0.00    -0.310 OA
BRANCH  31  32
HETATM   32  C3  UNL     1       0.454   4.294   1.125  1.00  0.00     0.282 C 
HETATM   33  O1  UNL     1       1.515   4.562   0.503  1.00  0.00    -0.260 OA
BRANCH  32  34
HETATM   34  C2  UNL     1       0.145   4.956   2.372  1.00  0.00     0.072 C 
HETATM   35  C1  UNL     1       0.972   5.845   2.867  1.00  0.00     0.017 C 
ENDBRANCH  32  34
ENDBRANCH  31  32
ENDBRANCH   1  31
BRANCH   2  36
HETATM   36  N1  UNL     1      -0.458   3.170  -3.055  1.00  0.00    -0.070 N 
ATOM     37  H13 UNL     1       0.252   3.901  -3.013  1.00  0.00     0.274 HD
ATOM     38  H12 UNL     1       0.137   2.379  -3.302  1.00  0.00     0.274 HD
ATOM     39  H11 UNL     1      -1.140   3.361  -3.789  1.00  0.00     0.274 HD
ENDBRANCH   2  36
TORSDOF 16
