REMARK  14 active torsions:
REMARK  status: ('A' for Active; 'I' for Inactive)
REMARK    1  A    between atoms: C1_2  and  C2_3 
REMARK       I    between atoms: C1_2  and  N1_12 
REMARK    2  A    between atoms: C2_3  and  C3_4 
REMARK    3  A    between atoms: C3_4  and  C4_5 
REMARK    4  A    between atoms: C4_5  and  C5_6 
REMARK    5  A    between atoms: C5_6  and  C6_7 
REMARK    6  A    between atoms: N1_12  and  C8_14 
REMARK    7  A    between atoms: C8_14  and  C9_15 
REMARK    8  A    between atoms: C9_15  and  S4_16 
REMARK    9  A    between atoms: S4_16  and  C10_17 
REMARK   10  A    between atoms: C11_19  and  C12_20 
REMARK   11  A    between atoms: C12_20  and  O3_21 
REMARK   12  A    between atoms: C13_23  and  O4_24 
REMARK   13  A    between atoms: C14_26  and  O5_27 
REMARK   14  A    between atoms: C15_29  and  O6_30 
ROOT
HETATM    1  S4  UNL     1      -3.088  -2.229   0.729  1.00  0.00    -0.133 SA
ENDROOT
BRANCH   1   2
HETATM    2  C9  UNL     1      -1.465  -1.785   1.245  1.00  0.00     0.096 C 
BRANCH   2   3
HETATM    3  C8  UNL     1      -0.577  -1.428   0.083  1.00  0.00     0.133 C 
BRANCH   3   4
HETATM    4  N1  UNL     1       0.762  -1.068   0.551  1.00  0.00    -0.360 N 
HETATM    5  C1  UNL     1       1.754  -0.703  -0.390  1.00  0.00     0.217 C 
HETATM    6  O1  UNL     1       1.474  -0.693  -1.618  1.00  0.00    -0.274 OA
ATOM      7  H1  UNL     1       0.979  -1.080   1.548  1.00  0.00     0.162 HD
BRANCH   5   8
HETATM    8  C2  UNL     1       3.126  -0.329   0.010  1.00  0.00     0.103 C 
BRANCH   8   9
HETATM    9  C3  UNL     1       3.963  -0.006  -1.198  1.00  0.00     0.009 C 
BRANCH   9  10
HETATM   10  C4  UNL     1       5.376   0.383  -0.805  1.00  0.00     0.002 C 
BRANCH  10  11
HETATM   11  C5  UNL     1       6.080  -0.708  -0.059  1.00  0.00     0.017 C 
BRANCH  11  12
HETATM   12  C6  UNL     1       7.460  -0.312   0.280  1.00  0.00     0.069 C 
HETATM   13  C7  UNL     1       7.603   0.896   1.138  1.00  0.00     0.102 C 
HETATM   14  S1  UNL     1       9.390   1.350   1.068  1.00  0.00    -0.085 SA
HETATM   15  S2  UNL     1      10.197  -0.603   1.519  1.00  0.00    -0.024 SA
HETATM   16  S3  UNL     1       8.353  -1.668   1.153  1.00  0.00    -0.080 SA
ENDBRANCH  11  12
ENDBRANCH  10  11
ENDBRANCH   9  10
ENDBRANCH   8   9
ENDBRANCH   5   8
ENDBRANCH   3   4
ENDBRANCH   2   3
ENDBRANCH   1   2
BRANCH   1  17
HETATM   17  C10 UNL     1      -4.194  -0.994   0.144  1.00  0.00     0.214 C 
HETATM   18  O2  UNL     1      -4.648  -0.076   1.104  1.00  0.00    -0.363 OA
HETATM   19  C11 UNL     1      -5.885   0.416   0.709  1.00  0.00     0.178 C 
HETATM   20  C13 UNL     1      -6.238   0.253  -0.723  1.00  0.00     0.180 C 
HETATM   21  C14 UNL     1      -5.124   0.238  -1.708  1.00  0.00     0.181 C 
HETATM   22  C15 UNL     1      -3.798  -0.201  -1.061  1.00  0.00     0.188 C 
BRANCH  19  23
HETATM   23  C12 UNL     1      -5.971   1.859   1.170  1.00  0.00     0.198 C 
BRANCH  23  24
HETATM   24  O3  UNL     1      -5.846   1.890   2.566  1.00  0.00    -0.398 OA
ATOM     25  H3  UNL     1      -5.900   2.793   2.855  1.00  0.00     0.209 HD
ENDBRANCH  23  24
ENDBRANCH  19  23
BRANCH  20  26
HETATM   26  O4  UNL     1      -7.097   1.329  -1.073  1.00  0.00    -0.390 OA
ATOM     27  H4  UNL     1      -7.323   1.225  -1.990  1.00  0.00     0.210 HD
ENDBRANCH  20  26
BRANCH  21  28
HETATM   28  O5  UNL     1      -5.434  -0.643  -2.736  1.00  0.00    -0.390 OA
ATOM     29  H5  UNL     1      -4.722  -0.653  -3.365  1.00  0.00     0.210 HD
ENDBRANCH  21  28
BRANCH  22  30
HETATM   30  O6  UNL     1      -3.180   1.009  -0.723  1.00  0.00    -0.389 OA
ATOM     31  H6  UNL     1      -2.929   1.513  -1.488  1.00  0.00     0.210 HD
ENDBRANCH  22  30
ENDBRANCH   1  17
TORSDOF 14
