REMARK  7 active torsions:
REMARK  status: ('A' for Active; 'I' for Inactive)
REMARK    1  A    between atoms: C2_2  and  O1_3 
REMARK    2  A    between atoms: C5_7  and  N1_8 
REMARK    3  A    between atoms: N4_19  and  C11_21 
REMARK    4  A    between atoms: C11_21  and  C12_22 
REMARK    5  A    between atoms: C12_22  and  C13_23 
REMARK    6  A    between atoms: C19_31  and  C20_32 
REMARK    7  A    between atoms: C20_32  and  O4_33 
ROOT
HETATM    1  N1  UNL     1      -1.893  -2.177   0.041  1.00  0.00    -0.310 N 
HETATM    2  C6  UNL     1      -2.826  -3.174  -0.038  1.00  0.00     0.186 A 
HETATM    3  N2  UNL     1      -2.174  -4.357  -0.001  1.00  0.00    -0.349 N 
ATOM      4  H2  UNL     1      -2.599  -5.283  -0.041  1.00  0.00     0.167 HD
HETATM    5  C7  UNL     1      -0.864  -4.087   0.098  1.00  0.00     0.087 A 
HETATM    6  C8  UNL     1       0.205  -4.950   0.169  1.00  0.00     0.078 A 
HETATM    7 CL1  UNL     1      -0.041  -6.663   0.134  1.00  0.00    -0.080 Cl
HETATM    8  C9  UNL     1       1.477  -4.392   0.267  1.00  0.00     0.116 A 
HETATM    9  N3  UNL     1       1.674  -3.062   0.295  1.00  0.00    -0.349 N 
ATOM     10  H3  UNL     1       2.624  -2.699   0.369  1.00  0.00     0.167 HD
HETATM   11  C10 UNL     1       0.645  -2.202   0.228  1.00  0.00     0.134 A 
HETATM   12  N4  UNL     1       0.761  -0.977   0.247  1.00  0.00    -0.354 N 
ATOM     13  H4  UNL     1      -0.179  -0.587   0.180  1.00  0.00     0.166 HD
HETATM   14  C18 UNL     1      -0.662  -2.733   0.126  1.00  0.00     0.111 A 
ENDROOT
BRANCH   1  15
HETATM   15  C5  UNL     1      -2.191  -0.774   0.032  1.00  0.00     0.229 C 
HETATM   16  C4  UNL     1      -2.140  -0.183  -1.383  1.00  0.00     0.057 C 
HETATM   17  C3  UNL     1      -2.250   1.306  -1.199  1.00  0.00     0.044 C 
HETATM   18  C2  UNL     1      -3.578   1.588  -0.542  1.00  0.00     0.082 C 
HETATM   19  C1  UNL     1      -3.474   3.006   0.036  1.00  0.00     0.049 C 
HETATM   20  C19 UNL     1      -3.912   0.676   0.580  1.00  0.00     0.181 C 
HETATM   21  O3  UNL     1      -3.535  -0.632   0.418  1.00  0.00    -0.356 OA
BRANCH  18  22
HETATM   22  O1  UNL     1      -4.534   1.650  -1.541  1.00  0.00    -0.388 OA
ATOM     23  H1  UNL     1      -4.598   0.772  -1.899  1.00  0.00     0.210 HD
ENDBRANCH  18  22
BRANCH  20  24
HETATM   24  C20 UNL     1      -5.419   0.697   0.757  1.00  0.00     0.199 C 
BRANCH  24  25
HETATM   25  O4  UNL     1      -5.972   0.140  -0.395  1.00  0.00    -0.398 OA
ATOM     26  H4  UNL     1      -6.915   0.153  -0.284  1.00  0.00     0.209 HD
ENDBRANCH  24  25
ENDBRANCH  20  24
ENDBRANCH   1  15
BRANCH  12  27
HETATM   27  C11 UNL     1       1.629   0.080   0.321  1.00  0.00     0.063 C 
BRANCH  27  28
HETATM   28  C12 UNL     1       3.092  -0.157   0.537  1.00  0.00     0.049 C 
BRANCH  28  29
HETATM   29  C13 UNL     1       3.791   1.217   0.578  1.00  0.00    -0.006 C 
HETATM   30  C14 UNL     1       3.544   1.894  -0.730  1.00  0.00     0.031 C 
HETATM   31  C15 UNL     1       4.618   2.868  -1.126  1.00  0.00     0.168 C 
HETATM   32  O2  UNL     1       5.894   2.382  -0.998  1.00  0.00    -0.391 OA
HETATM   33  C16 UNL     1       5.979   1.075  -0.585  1.00  0.00     0.168 C 
HETATM   34  C17 UNL     1       5.260   0.953   0.745  1.00  0.00     0.031 C 
ENDBRANCH  28  29
ENDBRANCH  27  28
ENDBRANCH  12  27
TORSDOF 7
