REMARK  8 active torsions:
REMARK  status: ('A' for Active; 'I' for Inactive)
REMARK    1  A    between atoms: O1_2  and  C2_3 
REMARK    2  A    between atoms: C2_3  and  C3_4 
REMARK    3  A    between atoms: C3_4  and  C4_5 
REMARK    4  A    between atoms: C4_5  and  C5_6 
REMARK    5  A    between atoms: C10_13  and  C11_14 
REMARK    6  A    between atoms: C17_21  and  O2_22 
REMARK    7  A    between atoms: C18_24  and  O3_25 
REMARK    8  A    between atoms: C19_27  and  O4_28 
ROOT
HETATM    1  C4  UNL     1       2.573  -0.176   0.635  1.00  0.00    -0.027 C 
HETATM    2  C6  UNL     1       1.462  -0.115  -0.284  1.00  0.00     0.019 C 
HETATM    3  C7  UNL     1       0.591  -1.325  -0.322  1.00  0.00     0.094 C 
HETATM    4  C8  UNL     1      -0.239  -1.421   0.950  1.00  0.00     0.156 C 
HETATM    5  S1  UNL     1      -0.689  -3.077   1.391  1.00  0.00    -0.114 SA
HETATM    6  C9  UNL     1      -2.389  -2.848   0.841  1.00  0.00     0.072 C 
HETATM    7  C10 UNL     1      -2.591  -1.586   0.515  1.00  0.00     0.022 C 
HETATM    8  N1  UNL     1      -1.478  -0.765   0.665  1.00  0.00    -0.367 N 
HETATM    9  C15 UNL     1      -1.565   0.677   0.541  1.00  0.00     0.152 C 
HETATM   10  C16 UNL     1      -0.219   1.367   0.648  1.00  0.00     0.138 C 
HETATM   11  C17 UNL     1      -0.525   2.845   0.789  1.00  0.00     0.174 C 
HETATM   12  C18 UNL     1      -0.644   3.551  -0.518  1.00  0.00     0.182 C 
HETATM   13  C19 UNL     1       0.704   3.420  -1.194  1.00  0.00     0.188 C 
HETATM   14  C20 UNL     1       1.172   1.998  -1.264  1.00  0.00     0.099 C 
HETATM   15  N2  UNL     1       0.717   1.115  -0.299  1.00  0.00    -0.352 N 
ENDROOT
BRANCH   1  16
HETATM   16  C3  UNL     1       3.700  -1.120   0.528  1.00  0.00     0.065 C 
BRANCH  16  17
HETATM   17  C2  UNL     1       3.490  -2.544   0.185  1.00  0.00     0.171 C 
BRANCH  17  18
HETATM   18  O1  UNL     1       4.691  -3.286   0.248  1.00  0.00    -0.396 OA
HETATM   19  C1  UNL     1       5.657  -2.834  -0.619  1.00  0.00     0.201 C 
ENDBRANCH  17  18
ENDBRANCH  16  17
ENDBRANCH   1  16
BRANCH   1  20
HETATM   20  C5  UNL     1       3.204   1.185   0.969  1.00  0.00     0.258 C 
HETATM   21  F1  UNL     1       3.897   1.081   2.167  1.00  0.00    -0.251 F 
ENDBRANCH   1  20
BRANCH  11  22
HETATM   22  O2  UNL     1      -1.692   3.065   1.512  1.00  0.00    -0.391 OA
ATOM     23  H2  UNL     1      -1.884   3.991   1.600  1.00  0.00     0.210 HD
ENDBRANCH  11  22
BRANCH  13  24
HETATM   24  O4  UNL     1       0.595   4.020  -2.449  1.00  0.00    -0.388 OA
ATOM     25  H4  UNL     1       1.441   3.938  -2.873  1.00  0.00     0.210 HD
ENDBRANCH  13  24
BRANCH   7  26
HETATM   26  C11 UNL     1      -3.970  -1.221   0.031  1.00  0.00    -0.008 C 
HETATM   27  C12 UNL     1      -4.925  -2.393   0.109  1.00  0.00     0.021 C 
HETATM   28  C13 UNL     1      -4.587  -0.113   0.819  1.00  0.00     0.021 C 
HETATM   29  C14 UNL     1      -3.820  -0.838  -1.422  1.00  0.00     0.021 C 
ENDBRANCH   7  26
BRANCH  12  30
HETATM   30  O3  UNL     1      -1.674   3.141  -1.318  1.00  0.00    -0.390 OA
ATOM     31  H3  UNL     1      -1.750   3.591  -2.151  1.00  0.00     0.210 HD
ENDBRANCH  12  30
TORSDOF 8
