REMARK  6 active torsions:
REMARK  status: ('A' for Active; 'I' for Inactive)
REMARK    1  A    between atoms: C3_4  and  O1_5 
REMARK    2  A    between atoms: O1_5  and  C4_6 
REMARK    3  A    between atoms: C4_6  and  C5_7 
REMARK    4  A    between atoms: C8_11  and  N2_12 
REMARK    5  A    between atoms: C13_20  and  C14_21 
REMARK    6  A    between atoms: C20_33  and  N6_34 
ROOT
HETATM    1  N1  UNL     1      -0.384  -4.402  -0.048  1.00  0.00    -0.191 NA
HETATM    2  C1  UNL     1      -1.262  -3.617  -0.101  1.00  0.00     0.106 C 
HETATM    3  C2  UNL     1      -2.351  -2.681  -0.167  1.00  0.00     0.121 A 
HETATM    4  C3  UNL     1      -1.984  -1.314  -0.151  1.00  0.00     0.102 A 
HETATM    5  C13 UNL     1      -3.019  -0.419  -0.214  1.00  0.00     0.007 A 
HETATM    6  C19 UNL     1      -4.329  -0.935  -0.287  1.00  0.00     0.100 A 
HETATM    7  N5  UNL     1      -4.629  -2.222  -0.299  1.00  0.00    -0.351 N 
ATOM      8  H5  UNL     1      -5.601  -2.528  -0.353  1.00  0.00     0.166 HD
HETATM    9  C20 UNL     1      -3.649  -3.105  -0.240  1.00  0.00     0.122 A 
ENDROOT
BRANCH   4  10
HETATM   10  O1  UNL     1      -0.709  -1.000  -0.068  1.00  0.00    -0.348 OA
BRANCH  10  11
HETATM   11  C4  UNL     1       0.442  -0.801  -0.717  1.00  0.00     0.180 C 
BRANCH  11  12
HETATM   12  C5  UNL     1       1.565  -0.416   0.278  1.00  0.00     0.016 C 
HETATM   13  C6  UNL     1       1.791  -1.480   1.290  1.00  0.00     0.033 C 
HETATM   14  C7  UNL     1       3.122  -1.285   1.948  1.00  0.00     0.171 C 
HETATM   15  O2  UNL     1       3.798  -0.160   1.542  1.00  0.00    -0.366 OA
HETATM   16  C8  UNL     1       4.067  -0.311   0.162  1.00  0.00     0.228 C 
HETATM   17  C12 UNL     1       2.771  -0.083  -0.554  1.00  0.00     0.061 C 
BRANCH  16  18
HETATM   18  N2  UNL     1       5.058   0.682  -0.249  1.00  0.00    -0.323 N 
HETATM   19  C9  UNL     1       6.224   0.966   0.366  1.00  0.00     0.186 A 
HETATM   20  N3  UNL     1       6.875   1.948  -0.313  1.00  0.00    -0.342 N 
HETATM   21  C10 UNL     1       6.121   2.297  -1.369  1.00  0.00     0.120 A 
ATOM     22  H3  UNL     1       7.779   2.350  -0.064  1.00  0.00     0.167 HD
HETATM   23 CL1  UNL     1       6.538   3.524  -2.545  1.00  0.00    -0.063 Cl
HETATM   24  C11 UNL     1       5.004   1.500  -1.306  1.00  0.00     0.136 A 
ENDBRANCH  16  18
ENDBRANCH  11  12
ENDBRANCH  10  11
ENDBRANCH   4  10
BRANCH   9  25
HETATM   25  N6  UNL     1      -3.927  -4.374  -0.251  1.00  0.00    -0.384 N 
ATOM     26  H62 UNL     1      -3.170  -5.056  -0.205  1.00  0.00     0.157 HD
ATOM     27  H61 UNL     1      -4.895  -4.690  -0.305  1.00  0.00     0.157 HD
ENDBRANCH   9  25
BRANCH   5  28
HETATM   28  C14 UNL     1      -2.890   1.025  -0.254  1.00  0.00     0.064 A 
HETATM   29  C15 UNL     1      -4.235   1.755  -0.231  1.00  0.00     0.251 C 
HETATM   30  N4  UNL     1      -3.858   3.126   0.128  1.00  0.00    -0.071 N 
HETATM   31  C16 UNL     1      -2.936   2.930   1.197  1.00  0.00     0.265 C 
ATOM     32  H42 UNL     1      -3.502   3.687  -0.646  1.00  0.00     0.277 HD
ATOM     33  H41 UNL     1      -4.642   3.741   0.347  1.00  0.00     0.277 HD
HETATM   34  C17 UNL     1      -2.059   1.787   0.666  1.00  0.00     0.164 A 
HETATM   35  O3  UNL     1      -1.368   2.304  -0.460  1.00  0.00    -0.382 OA
HETATM   36  C18 UNL     1      -2.123   1.635  -1.415  1.00  0.00     0.187 A 
ENDBRANCH   5  28
TORSDOF 6
