REMARK  9 active torsions:
REMARK  status: ('A' for Active; 'I' for Inactive)
REMARK    1  A    between atoms: C3_3  and  O1_4 
REMARK    2  A    between atoms: O1_4  and  C4_5 
REMARK    3  A    between atoms: C4_5  and  C5_7 
REMARK    4  A    between atoms: C5_7  and  C6_8 
REMARK    5  A    between atoms: C6_8  and  C7_9 
REMARK    6  A    between atoms: C7_9  and  C8_10 
REMARK    7  A    between atoms: C17_20  and  O3_21 
REMARK    8  A    between atoms: C18_23  and  O4_24 
REMARK    9  A    between atoms: C22_30  and  O6_31 
ROOT
HETATM    1  C1  UNL     1       0.964  -1.611   1.843  1.00  0.00     0.017 C 
HETATM    2  C2  UNL     1       0.699  -0.726   0.938  1.00  0.00    -0.056 C 
HETATM    3  C3  UNL     1       1.640  -0.430  -0.169  1.00  0.00     0.160 C 
HETATM    4  C10 UNL     1       0.802  -0.115  -1.389  1.00  0.00     0.037 C 
HETATM    5  C11 UNL     1      -0.517  -0.817  -1.401  1.00  0.00     0.009 C 
HETATM    6  C12 UNL     1      -1.382  -0.560  -0.171  1.00  0.00     0.003 C 
HETATM    7  C13 UNL     1      -0.569   0.043   0.936  1.00  0.00     0.022 C 
HETATM    8  C14 UNL     1      -1.262  -0.176   2.229  1.00  0.00     0.029 C 
HETATM    9  C15 UNL     1      -2.314   0.887   2.416  1.00  0.00     0.120 C 
HETATM   10  N1  UNL     1      -3.467   0.687   1.562  1.00  0.00    -0.384 N 
HETATM   11  C16 UNL     1      -4.627   0.945   2.273  1.00  0.00     0.146 C 
HETATM   12  C17 UNL     1      -3.201   1.157   0.294  1.00  0.00     0.164 C 
HETATM   13  C18 UNL     1      -4.364   1.730  -0.525  1.00  0.00     0.212 C 
HETATM   14  C19 UNL     1      -5.438   0.756  -0.722  1.00  0.00     0.042 A 
HETATM   15  C20 UNL     1      -5.058  -0.564  -0.836  1.00  0.00    -0.021 A 
HETATM   16  C21 UNL     1      -6.208  -1.280  -1.012  1.00  0.00     0.152 A 
HETATM   17  O5  UNL     1      -7.211  -0.425  -1.002  1.00  0.00    -0.299 OA
HETATM   18  C22 UNL     1      -6.810   0.793  -0.834  1.00  0.00     0.192 A 
HETATM   19  C23 UNL     1      -3.679  -0.997  -0.769  1.00  0.00     0.051 C 
HETATM   20  C24 UNL     1      -2.639   0.066  -0.568  1.00  0.00     0.053 C 
ENDROOT
BRANCH   3  21
HETATM   21  O1  UNL     1       2.583  -1.423  -0.381  1.00  0.00    -0.311 OA
BRANCH  21  22
HETATM   22  C4  UNL     1       3.950  -1.076  -0.237  1.00  0.00     0.259 C 
HETATM   23  O2  UNL     1       4.238   0.107   0.073  1.00  0.00    -0.265 OA
BRANCH  22  24
HETATM   24  C5  UNL     1       5.018  -2.051  -0.438  1.00  0.00     0.111 C 
BRANCH  24  25
HETATM   25  C6  UNL     1       6.358  -1.386  -0.373  1.00  0.00     0.010 C 
BRANCH  25  26
HETATM   26  C7  UNL     1       6.613  -0.371  -1.436  1.00  0.00     0.000 C 
BRANCH  26  27
HETATM   27  C8  UNL     1       7.996   0.239  -1.274  1.00  0.00    -0.005 C 
HETATM   28  C9  UNL     1       8.152   0.922   0.054  1.00  0.00     0.005 C 
ENDBRANCH  26  27
ENDBRANCH  25  26
ENDBRANCH  24  25
ENDBRANCH  22  24
ENDBRANCH  21  22
ENDBRANCH   3  21
BRANCH  12  29
HETATM   29  O3  UNL     1      -2.342   2.279   0.375  1.00  0.00    -0.368 OA
ATOM     30  H3  UNL     1      -2.159   2.603  -0.499  1.00  0.00     0.212 HD
ENDBRANCH  12  29
BRANCH  13  31
HETATM   31  O4  UNL     1      -4.759   2.968  -0.097  1.00  0.00    -0.386 OA
ATOM     32  H4  UNL     1      -5.479   3.323  -0.604  1.00  0.00     0.210 HD
ENDBRANCH  13  31
BRANCH  18  33
HETATM   33  O6  UNL     1      -7.534   1.983  -0.763  1.00  0.00    -0.340 OA
ATOM     34  H6  UNL     1      -8.481   2.009  -0.840  1.00  0.00     0.220 HD
ENDBRANCH  18  33
TORSDOF 9
