REMARK  8 active torsions:
REMARK  status: ('A' for Active; 'I' for Inactive)
REMARK    1  A    between atoms: C6_6  and  O1_7 
REMARK    2  A    between atoms: C8_10  and  O2_11 
REMARK    3  A    between atoms: C16_22  and  C17_23 
REMARK    4  A    between atoms: C17_23  and  C18_24 
REMARK    5  A    between atoms: C18_24  and  C19_25 
REMARK    6  A    between atoms: C19_25  and  C20_26 
REMARK    7  A    between atoms: C20_26  and  C21_27 
REMARK    8  A    between atoms: C21_27  and  O5_28 
ROOT
HETATM    1  C1  UNL     1       0.621  -3.476  -1.449  1.00  0.00     0.015 C 
HETATM    2  C2  UNL     1      -0.194  -2.610  -0.526  1.00  0.00     0.048 C 
HETATM    3  C3  UNL     1      -1.458  -2.123  -1.252  1.00  0.00     0.017 C 
HETATM    4  C4  UNL     1      -2.288  -1.488  -0.147  1.00  0.00     0.019 C 
HETATM    5  C5  UNL     1      -3.587  -0.951  -0.611  1.00  0.00     0.046 C 
HETATM    6  C6  UNL     1      -3.300   0.542  -0.815  1.00  0.00     0.073 C 
HETATM    7  C7  UNL     1      -2.247   0.901   0.161  1.00  0.00     0.079 C 
HETATM    8  C8  UNL     1      -2.729   1.508   1.436  1.00  0.00     0.127 C 
HETATM    9  C9  UNL     1      -3.587   2.721   1.061  1.00  0.00     0.033 C 
HETATM   10  C10 UNL     1      -4.802   2.159   0.394  1.00  0.00     0.014 C 
HETATM   11  C11 UNL     1      -4.529   1.345  -0.820  1.00  0.00    -0.016 C 
HETATM   12  C12 UNL     1      -5.720   0.386  -0.973  1.00  0.00     0.018 C 
HETATM   13  C13 UNL     1      -4.629   2.286  -2.027  1.00  0.00     0.018 C 
HETATM   14  C14 UNL     1      -1.474  -0.388   0.454  1.00  0.00     0.139 C 
HETATM   15  O3  UNL     1      -0.217  -0.234  -0.045  1.00  0.00    -0.346 OA
HETATM   16  C15 UNL     1       0.581  -1.350  -0.111  1.00  0.00     0.204 C 
HETATM   17  O4  UNL     1       1.469  -1.142  -1.176  1.00  0.00    -0.319 OA
HETATM   18  C16 UNL     1       2.497  -0.267  -0.898  1.00  0.00     0.300 C 
HETATM   19  O6  UNL     1       2.845  -0.264   0.447  1.00  0.00    -0.207 OA
HETATM   20  O7  UNL     1       2.683  -1.529   0.854  1.00  0.00    -0.222 OA
HETATM   21  C22 UNL     1       1.305  -1.552   1.192  1.00  0.00     0.145 C 
HETATM   22  C23 UNL     1       1.052  -2.870   1.837  1.00  0.00     0.054 C 
HETATM   23  C24 UNL     1       1.118  -0.404   2.161  1.00  0.00     0.054 C 
ENDROOT
BRANCH  18  24
HETATM   24  C17 UNL     1       3.715  -0.674  -1.678  1.00  0.00     0.064 C 
BRANCH  24  25
HETATM   25  C18 UNL     1       4.922   0.175  -1.524  1.00  0.00     0.005 C 
BRANCH  25  26
HETATM   26  C19 UNL     1       5.515   0.317  -0.181  1.00  0.00     0.002 C 
BRANCH  26  27
HETATM   27  C20 UNL     1       6.767   1.163  -0.254  1.00  0.00     0.026 C 
BRANCH  27  28
HETATM   28  C21 UNL     1       6.435   2.520  -0.770  1.00  0.00     0.164 C 
BRANCH  28  29
HETATM   29  O5  UNL     1       7.606   3.330  -0.816  1.00  0.00    -0.401 OA
ATOM     30  H5  UNL     1       7.394   4.196  -1.145  1.00  0.00     0.209 HD
ENDBRANCH  28  29
ENDBRANCH  27  28
ENDBRANCH  26  27
ENDBRANCH  25  26
ENDBRANCH  24  25
ENDBRANCH  18  24
BRANCH   6  31
HETATM   31  O1  UNL     1      -2.723   0.618  -2.106  1.00  0.00    -0.388 OA
ATOM     32  H1  UNL     1      -2.545   1.543  -2.232  1.00  0.00     0.210 HD
ENDBRANCH   6  31
BRANCH   8  33
HETATM   33  O2  UNL     1      -3.388   0.642   2.275  1.00  0.00    -0.395 OA
ATOM     34  H2  UNL     1      -3.695   1.028   3.087  1.00  0.00     0.210 HD
ENDBRANCH   8  33
TORSDOF 8
