REMARK  6 active torsions:
REMARK  status: ('A' for Active; 'I' for Inactive)
REMARK    1  A    between atoms: C6_7  and  C7_8 
REMARK    2  A    between atoms: C6_7  and  O6_30 
REMARK    3  A    between atoms: C7_8  and  C8_9 
REMARK    4  A    between atoms: C12_13  and  O2_14 
REMARK    5  A    between atoms: C13_16  and  C15_18 
REMARK    6  A    between atoms: C17_21  and  O4_23 
ROOT
HETATM    1  C8  UNL     1       0.496  -1.234  -0.775  1.00  0.00    -0.029 C 
HETATM    2  C9  UNL     1       0.127  -0.711  -2.153  1.00  0.00     0.016 C 
HETATM    3  C10 UNL     1       0.371  -2.719  -0.953  1.00  0.00     0.012 C 
HETATM    4  C11 UNL     1       0.094  -3.257   0.393  1.00  0.00     0.033 C 
HETATM    5  C12 UNL     1      -1.080  -2.314   0.719  1.00  0.00     0.129 C 
HETATM    6  C13 UNL     1      -0.544  -0.941   0.259  1.00  0.00     0.018 C 
HETATM    7  C14 UNL     1      -0.061  -0.293   1.518  1.00  0.00     0.021 C 
ENDROOT
BRANCH   1   8
HETATM    8  C7  UNL     1       1.774  -0.707  -0.281  1.00  0.00     0.056 C 
BRANCH   8   9
HETATM    9  C6  UNL     1       3.073  -0.859  -0.917  1.00  0.00     0.121 C 
HETATM   10  C5  UNL     1       4.089  -0.148  -0.027  1.00  0.00     0.161 C 
HETATM   11  C4  UNL     1       3.856   0.842   1.040  1.00  0.00     0.086 C 
HETATM   12  O1  UNL     1       5.257  -0.409  -0.198  1.00  0.00    -0.295 OA
HETATM   13  C3  UNL     1       4.124   2.210   0.409  1.00  0.00     0.041 C 
HETATM   14  C2  UNL     1       4.193   2.047  -1.087  1.00  0.00    -0.089 C 
HETATM   15  C1  UNL     1       5.315   2.537  -1.593  1.00  0.00     0.014 C 
HETATM   16  C25 UNL     1       3.208   1.440  -1.996  1.00  0.00     0.036 C 
HETATM   17  C24 UNL     1       3.276  -0.020  -2.197  1.00  0.00     0.050 C 
BRANCH   9  18
HETATM   18  O6  UNL     1       3.578  -2.075  -1.211  1.00  0.00    -0.377 OA
HETATM   19  C23 UNL     1       3.921  -2.965  -0.255  1.00  0.00     0.203 C 
ENDBRANCH   9  18
ENDBRANCH   8   9
ENDBRANCH   1   8
BRANCH   6  20
HETATM   20  C15 UNL     1      -1.777  -0.178  -0.179  1.00  0.00     0.158 C 
HETATM   21  C16 UNL     1      -1.541   1.172  -0.728  1.00  0.00     0.204 C 
HETATM   22  O3  UNL     1      -2.388   2.162  -0.197  1.00  0.00    -0.353 OA
HETATM   23  C17 UNL     1      -3.647   2.134  -0.815  1.00  0.00     0.160 C 
HETATM   24  C18 UNL     1      -4.452   3.356  -0.504  1.00  0.00     0.078 C 
HETATM   25  C19 UNL     1      -4.295   0.860  -0.393  1.00  0.00     0.105 C 
HETATM   26  C20 UNL     1      -3.813   0.284   0.894  1.00  0.00     0.059 C 
HETATM   27  C21 UNL     1      -4.000   1.266   2.062  1.00  0.00     0.045 C 
HETATM   28  C22 UNL     1      -4.840  -0.828   1.215  1.00  0.00     0.045 C 
HETATM   29  O5  UNL     1      -2.581  -0.210   0.954  1.00  0.00    -0.372 OA
BRANCH  23  30
HETATM   30  O4  UNL     1      -3.524   2.080  -2.223  1.00  0.00    -0.365 OA
ATOM     31  H4  UNL     1      -4.377   2.061  -2.642  1.00  0.00     0.213 HD
ENDBRANCH  23  30
ENDBRANCH   6  20
BRANCH   5  32
HETATM   32  O2  UNL     1      -2.080  -2.763  -0.151  1.00  0.00    -0.395 OA
ATOM     33  H2  UNL     1      -2.804  -2.182   0.050  1.00  0.00     0.210 HD
ENDBRANCH   5  32
TORSDOF 6
