REMARK  4 active torsions:
REMARK  status: ('A' for Active; 'I' for Inactive)
REMARK    1  A    between atoms: C2_2  and  C5_5 
REMARK    2  A    between atoms: C6_9  and  C7_10 
REMARK    3  A    between atoms: C8_13  and  C9_14 
REMARK       I    between atoms: C9_14  and  N3_16 
REMARK    4  A    between atoms: N3_16  and  N4_18 
REMARK       I    between atoms: N4_18  and  C10_20 
ROOT
HETATM    1  C5  UNL     1      -2.693  -0.235   0.349  1.00  0.00     0.078 A 
HETATM    2  N1  UNL     1      -1.720   0.054  -0.480  1.00  0.00    -0.288 N 
ATOM      3  H1  UNL     1      -1.936   0.285  -1.450  1.00  0.00     0.188 HD
HETATM    4  N2  UNL     1      -0.505   0.049  -0.087  1.00  0.00    -0.232 N 
HETATM    5  C6  UNL     1       0.722   0.338  -0.664  1.00  0.00     0.102 A 
HETATM    6  C8  UNL     1       1.718   0.205   0.262  1.00  0.00     0.132 A 
HETATM    7  N6  UNL     1       1.101  -0.173   1.417  1.00  0.00    -0.329 N 
ATOM      8  H6  UNL     1       1.563  -0.360   2.307  1.00  0.00     0.168 HD
HETATM    9  C11 UNL     1      -0.239  -0.259   1.181  1.00  0.00     0.173 A 
HETATM   10  S1  UNL     1      -1.803  -0.544   1.798  1.00  0.00    -0.037 SA
ENDROOT
BRANCH   6  11
HETATM   11  C9  UNL     1       3.172   0.448   0.131  1.00  0.00     0.288 C 
HETATM   12  O1  UNL     1       3.730   0.915  -0.876  1.00  0.00    -0.264 OA
HETATM   13  N3  UNL     1       3.974   0.110   1.275  1.00  0.00    -0.261 N 
ATOM     14  H3  UNL     1       3.559  -0.276   2.123  1.00  0.00     0.190 HD
BRANCH  13  15
HETATM   15  N4  UNL     1       5.347   0.335   1.172  1.00  0.00    -0.251 N 
HETATM   16  C10 UNL     1       6.049  -0.459   0.202  1.00  0.00     0.347 C 
HETATM   17  N5  UNL     1       7.433  -0.259   0.076  1.00  0.00    -0.038 NA
HETATM   18  O2  UNL     1       5.471  -1.304  -0.513  1.00  0.00    -0.249 OA
ATOM     19  H4  UNL     1       5.825   1.024   1.752  1.00  0.00     0.191 HD
ENDBRANCH  13  15
ENDBRANCH   6  11
BRANCH   5  20
HETATM   20  C7  UNL     1       0.895   0.753  -2.097  1.00  0.00     0.232 C 
HETATM   21 CL1  UNL     1       0.605  -0.793  -3.032  1.00  0.00    -0.101 Cl
HETATM   22 CL2  UNL     1      -0.366   1.885  -2.618  1.00  0.00    -0.101 Cl
ENDBRANCH   5  20
BRANCH   1  23
HETATM   23  C2  UNL     1      -4.176  -0.244   0.117  1.00  0.00    -0.001 C 
HETATM   24  C1  UNL     1      -4.389  -0.207  -1.390  1.00  0.00     0.021 C 
HETATM   25  C3  UNL     1      -4.773  -1.434   0.773  1.00  0.00     0.021 C 
HETATM   26  C4  UNL     1      -4.658   1.065   0.756  1.00  0.00     0.021 C 
ENDBRANCH   1  23
TORSDOF 4
