REMARK  4 active torsions:
REMARK  status: ('A' for Active; 'I' for Inactive)
REMARK    1  A    between atoms: C2_2  and  C4_4 
REMARK    2  A    between atoms: C8_10  and  N1_11 
REMARK    3  A    between atoms: C15_23  and  O1_24 
REMARK    4  A    between atoms: C16_26  and  O2_27 
ROOT
HETATM    1  N1  UNL     1      -2.074   0.227  -0.206  1.00  0.00    -0.320 N 
HETATM    2  C9  UNL     1      -2.152   1.108  -1.188  1.00  0.00     0.185 A 
HETATM    3  N2  UNL     1      -3.409   1.484  -1.364  1.00  0.00    -0.348 N 
ATOM      4  H2  UNL     1      -3.750   2.153  -2.054  1.00  0.00     0.167 HD
HETATM    5  C10 UNL     1      -4.152   0.820  -0.464  1.00  0.00     0.100 A 
HETATM    6  C11 UNL     1      -5.443   0.642  -0.007  1.00  0.00     0.090 A 
HETATM    7  C12 UNL     1      -6.629   1.271  -0.483  1.00  0.00     0.103 C 
HETATM    8  N3  UNL     1      -7.593   1.768  -0.883  1.00  0.00    -0.191 NA
HETATM    9  C13 UNL     1      -5.368  -0.277   1.018  1.00  0.00     0.115 A 
HETATM   10  N4  UNL     1      -4.083  -0.645   1.179  1.00  0.00    -0.349 N 
ATOM     11  H4  UNL     1      -3.741  -1.315   1.868  1.00  0.00     0.167 HD
HETATM   12  C14 UNL     1      -3.312   0.020   0.274  1.00  0.00     0.137 A 
ENDROOT
BRANCH   1  13
HETATM   13  C8  UNL     1      -0.929  -0.466   0.349  1.00  0.00     0.124 C 
HETATM   14  C7  UNL     1       0.319   0.395   0.362  1.00  0.00     0.044 C 
HETATM   15  C6  UNL     1       1.432  -0.472  -0.144  1.00  0.00     0.033 A 
HETATM   16  C4  UNL     1       2.843  -0.178   0.065  1.00  0.00     0.043 A 
HETATM   17  C5  UNL     1       2.210  -0.008  -1.316  1.00  0.00     0.129 A 
HETATM   18  C16 UNL     1       0.903  -1.865  -0.033  1.00  0.00     0.161 C 
HETATM   19 CL1  UNL     1       2.557  -1.206  -2.562  1.00  0.00    -0.100 Cl
HETATM   20 CL2  UNL     1       1.852   1.647  -1.869  1.00  0.00    -0.100 Cl
HETATM   21  C15 UNL     1      -0.541  -1.678  -0.508  1.00  0.00     0.171 C 
BRANCH  16  22
HETATM   22  C2  UNL     1       3.367   1.103   0.632  1.00  0.00    -0.015 C 
HETATM   23  C1  UNL     1       3.991   0.916   2.003  1.00  0.00     0.010 C 
HETATM   24  C3  UNL     1       4.411   1.644  -0.322  1.00  0.00     0.010 C 
ENDBRANCH  16  22
BRANCH  18  25
HETATM   25  O2  UNL     1       1.582  -2.799  -0.774  1.00  0.00    -0.392 OA
ATOM     26  H2  UNL     1       1.246  -3.685  -0.703  1.00  0.00     0.210 HD
ENDBRANCH  18  25
BRANCH  21  27
HETATM   27  O1  UNL     1      -1.325  -2.774  -0.237  1.00  0.00    -0.391 OA
ATOM     28  H1  UNL     1      -1.085  -3.524  -0.768  1.00  0.00     0.210 HD
ENDBRANCH  21  27
ENDBRANCH   1  13
TORSDOF 4
