REMARK  2 active torsions:
REMARK  status: ('A' for Active; 'I' for Inactive)
REMARK    1  A    between atoms: C8_18  and  N5_19 
REMARK    2  A    between atoms: N5_19  and  C9_21 
ROOT
HETATM    1  C1  UNL     1       2.886  -1.740  -2.550  1.00  0.00     0.045 C 
HETATM    2  C2  UNL     1       2.929  -0.387  -1.863  1.00  0.00     0.222 C 
HETATM    3  N1  UNL     1       4.046  -0.390  -0.946  1.00  0.00    -0.046 N 
ATOM      4  H11 UNL     1       4.940  -0.407  -1.437  1.00  0.00     0.280 HD
ATOM      5  H12 UNL     1       4.128  -1.278  -0.451  1.00  0.00     0.280 HD
HETATM    6  C3  UNL     1       3.952   0.749  -0.017  1.00  0.00     0.295 C 
HETATM    7  C4  UNL     1       5.274   0.887   0.627  1.00  0.00     0.066 C 
HETATM    8  C5  UNL     1       5.330   1.851   1.778  1.00  0.00     0.086 C 
HETATM    9  S1  UNL     1       4.189   1.282   3.096  1.00  0.00    -0.094 SA
HETATM   10  C6  UNL     1       2.806   0.553   2.234  1.00  0.00     0.143 C 
HETATM   11  N2  UNL     1       1.811   0.070   2.926  1.00  0.00    -0.380 N 
ATOM     12  H21 UNL     1       1.021  -0.347   2.434  1.00  0.00     0.158 HD
ATOM     13  H22 UNL     1       1.791   0.092   3.946  1.00  0.00     0.158 HD
HETATM   14  N3  UNL     1       2.834   0.522   0.825  1.00  0.00    -0.283 N 
HETATM   15  C7  UNL     1       1.577   0.227   0.165  1.00  0.00     0.136 A 
HETATM   16  N4  UNL     1       0.427   0.380   0.807  1.00  0.00    -0.176 N 
ATOM     17  H4  UNL     1       0.419   0.707   1.773  1.00  0.00     0.186 HD
HETATM   18  C8  UNL     1      -0.762   0.094   0.160  1.00  0.00     0.679 A 
HETATM   19  N6  UNL     1      -0.727  -0.335  -1.109  1.00  0.00    -0.201 N 
ATOM     20  H6  UNL     1      -1.600  -0.548  -1.592  1.00  0.00     0.183 HD
HETATM   21  C15 UNL     1       0.442  -0.489  -1.756  1.00  0.00     0.119 A 
HETATM   22  C16 UNL     1       1.650  -0.212  -1.139  1.00  0.00     0.033 A 
ENDROOT
BRANCH  18  23
HETATM   23  N5  UNL     1      -1.801   0.261   0.823  1.00  0.00    -0.221 N 
ATOM     24  H5  UNL     1      -1.589   0.593   1.764  1.00  0.00     0.178 HD
BRANCH  23  25
HETATM   25  C9  UNL     1      -3.174   0.120   0.636  1.00  0.00     0.099 C 
HETATM   26  C10 UNL     1      -3.816   1.060  -0.377  1.00  0.00     0.031 C 
HETATM   27  C11 UNL     1      -5.305   1.061  -0.061  1.00  0.00     0.081 C 
HETATM   28  C12 UNL     1      -5.924  -0.295  -0.074  1.00  0.00     0.243 C 
HETATM   29  F1  UNL     1      -7.138  -0.197   0.619  1.00  0.00    -0.206 F 
HETATM   30  F2  UNL     1      -6.225  -0.645  -1.362  1.00  0.00    -0.206 F 
HETATM   31  C13 UNL     1      -5.124  -1.360   0.640  1.00  0.00     0.081 C 
HETATM   32  C14 UNL     1      -3.654  -1.285   0.256  1.00  0.00     0.031 C 
ENDBRANCH  23  25
ENDBRANCH  18  23
TORSDOF 2
