REMARK  5 active torsions:
REMARK  status: ('A' for Active; 'I' for Inactive)
REMARK    1  A    between atoms: C3_5  and  N2_6 
REMARK    2  A    between atoms: N2_6  and  C4_8 
REMARK    3  A    between atoms: C4_8  and  C5_9 
REMARK    4  A    between atoms: C8_12  and  O1_13 
REMARK    5  A    between atoms: C9_15  and  O2_16 
ROOT
HETATM    1  C4  UNL     1       0.289   0.084  -0.271  1.00  0.00     0.159 C 
ENDROOT
BRANCH   1   2
HETATM    2  N2  UNL     1      -0.366  -1.170  -0.439  1.00  0.00    -0.367 N 
ATOM      3  H2  UNL     1       0.161  -2.011  -0.676  1.00  0.00     0.161 HD
BRANCH   2   4
HETATM    4  C3  UNL     1      -1.674  -1.210  -0.278  1.00  0.00     0.146 A 
HETATM    5  N1  UNL     1      -2.499  -0.214   0.030  1.00  0.00    -0.339 N 
HETATM    6  C2  UNL     1      -3.778  -0.460   0.146  1.00  0.00     0.036 A 
ATOM      7  H1  UNL     1      -2.139   0.729   0.174  1.00  0.00     0.168 HD
HETATM    8  C1  UNL     1      -4.799   0.617   0.496  1.00  0.00     0.070 C 
HETATM    9  C10 UNL     1      -4.195  -1.748  -0.060  1.00  0.00     0.100 A 
HETATM   10  S1  UNL     1      -2.734  -2.550  -0.411  1.00  0.00    -0.040 SA
HETATM   11 CL1  UNL     1      -5.849  -2.386   0.026  1.00  0.00    -0.074 Cl
ENDBRANCH   2   4
ENDBRANCH   1   2
BRANCH   1  12
HETATM   12  C5  UNL     1       1.676   0.144  -0.820  1.00  0.00     0.079 C 
HETATM   13  C6  UNL     1       1.733  -0.106  -2.306  1.00  0.00     0.048 C 
HETATM   14  C7  UNL     1       2.639  -0.739  -0.065  1.00  0.00     0.076 C 
HETATM   15  C8  UNL     1       2.857   0.077   1.204  1.00  0.00     0.176 C 
HETATM   16  C9  UNL     1       2.628   1.474   0.710  1.00  0.00     0.286 C 
HETATM   17  O3  UNL     1       2.188   1.417  -0.586  1.00  0.00    -0.347 OA
BRANCH  15  18
HETATM   18  O1  UNL     1       4.138  -0.029   1.691  1.00  0.00    -0.391 OA
ATOM     19  H1  UNL     1       4.274   0.480   2.482  1.00  0.00     0.210 HD
ENDBRANCH  15  18
BRANCH  16  20
HETATM   20  O2  UNL     1       1.775   2.169   1.566  1.00  0.00    -0.369 OA
ATOM     21  H2  UNL     1       1.630   3.054   1.253  1.00  0.00     0.212 HD
ENDBRANCH  16  20
ENDBRANCH   1  12
TORSDOF 5
