REMARK  4 active torsions:
REMARK  status: ('A' for Active; 'I' for Inactive)
REMARK    1  A    between atoms: N1_1  and  C1_5 
REMARK    2  A    between atoms: C6_15  and  N4_16 
REMARK    3  A    between atoms: N4_16  and  N5_18 
REMARK    4  A    between atoms: C7_20  and  C8_21 
ROOT
HETATM    1  C1  UNL     1      -1.290  -0.946   0.394  1.00  0.00     0.448 C 
HETATM    2  N2  UNL     1      -2.301  -1.378  -0.549  1.00  0.00    -0.039 N 
ATOM      3  H21 UNL     1      -2.385  -2.395  -0.548  1.00  0.00     0.280 HD
ATOM      4  H22 UNL     1      -1.985  -1.235  -1.508  1.00  0.00     0.280 HD
HETATM    5  C2  UNL     1      -3.577  -0.764  -0.340  1.00  0.00     0.235 C 
HETATM    6  C3  UNL     1      -3.979   0.062  -1.553  1.00  0.00     0.029 C 
HETATM    7  C4  UNL     1      -3.256   1.393  -1.577  1.00  0.00     0.021 C 
HETATM    8  C5  UNL     1      -1.842   1.197  -2.109  1.00  0.00     0.121 C 
HETATM    9  N3  UNL     1      -0.890   1.144  -1.015  1.00  0.00    -0.376 N 
ATOM     10  H3  UNL     1      -0.251   1.939  -1.015  1.00  0.00     0.160 HD
HETATM   11  C6  UNL     1      -0.660   0.323  -0.036  1.00  0.00     0.150 C 
ENDROOT
BRANCH  11  12
HETATM   12  N4  UNL     1       0.408   0.680   0.823  1.00  0.00    -0.286 N 
ATOM     13  H4  UNL     1       0.195   0.990   1.771  1.00  0.00     0.188 HD
BRANCH  12  14
HETATM   14  N5  UNL     1       1.743   0.623   0.417  1.00  0.00    -0.309 N 
HETATM   15  C7  UNL     1       2.598   0.094   1.213  1.00  0.00     0.127 C 
ATOM     16  H5  UNL     1       2.031   0.993  -0.489  1.00  0.00     0.186 HD
BRANCH  15  17
HETATM   17  C8  UNL     1       4.027   0.004   0.840  1.00  0.00     0.043 A 
HETATM   18  S1  UNL     1       4.780   0.542  -0.615  1.00  0.00    -0.099 SA
HETATM   19  C9  UNL     1       6.384   0.086  -0.272  1.00  0.00     0.052 A 
HETATM   20  C10 UNL     1       6.284  -0.475   0.972  1.00  0.00     0.032 A 
HETATM   21  C11 UNL     1       5.078  -0.516   1.540  1.00  0.00     0.053 A 
HETATM   22 CL1  UNL     1       4.791  -1.217   3.158  1.00  0.00    -0.083 Cl
ENDBRANCH  15  17
ENDBRANCH  12  14
ENDBRANCH  11  12
BRANCH   1  23
HETATM   23  N1  UNL     1      -1.865  -0.789   1.737  1.00  0.00    -0.043 N 
ATOM     24  H13 UNL     1      -2.670  -0.163   1.733  1.00  0.00     0.277 HD
ATOM     25  H12 UNL     1      -2.334  -1.639   2.049  1.00  0.00     0.277 HD
ATOM     26  H11 UNL     1      -1.153  -0.485   2.401  1.00  0.00     0.277 HD
ENDBRANCH   1  23
TORSDOF 4
