REMARK  8 active torsions:
REMARK  status: ('A' for Active; 'I' for Inactive)
REMARK    1  A    between atoms: C4_4  and  C5_5 
REMARK    2  A    between atoms: C9_10  and  N1_11 
REMARK    3  A    between atoms: C12_16  and  N3_17 
REMARK    4  A    between atoms: N3_17  and  C13_19 
REMARK    5  A    between atoms: C13_19  and  C14_20 
REMARK    6  A    between atoms: C14_20  and  O1_21 
REMARK    7  A    between atoms: C14_20  and  C15_23 
REMARK    8  A    between atoms: C15_23  and  N4_24 
ROOT
HETATM    1  N1  UNL     1       3.223  -1.318   0.027  1.00  0.00    -0.322 N 
HETATM    2  C10 UNL     1       2.978  -0.910   1.308  1.00  0.00     0.185 A 
HETATM    3  N2  UNL     1       1.680  -0.617   1.467  1.00  0.00    -0.346 N 
ATOM      4  H2  UNL     1       1.242  -0.290   2.329  1.00  0.00     0.167 HD
HETATM    5  C11 UNL     1       1.057  -0.826   0.303  1.00  0.00     0.122 A 
HETATM    6  C12 UNL     1      -0.279  -0.691  -0.132  1.00  0.00     0.137 A 
HETATM    7  N5  UNL     1      -0.511  -1.007  -1.415  1.00  0.00    -0.337 N 
ATOM      8  H5  UNL     1      -1.471  -0.918  -1.749  1.00  0.00     0.168 HD
HETATM    9  C22 UNL     1       0.395  -1.425  -2.287  1.00  0.00     0.183 A 
HETATM   10  N6  UNL     1       1.673  -1.553  -1.865  1.00  0.00    -0.336 N 
ATOM     11  H6  UNL     1       2.392  -1.874  -2.514  1.00  0.00     0.168 HD
HETATM   12  C23 UNL     1       2.004  -1.258  -0.586  1.00  0.00     0.141 A 
ENDROOT
BRANCH   6  13
HETATM   13  N3  UNL     1      -1.116  -0.302   0.687  1.00  0.00    -0.351 N 
ATOM     14  H3  UNL     1      -0.644  -0.146   1.578  1.00  0.00     0.166 HD
BRANCH  13  15
HETATM   15  C13 UNL     1      -2.447  -0.001   0.846  1.00  0.00     0.096 C 
BRANCH  15  16
HETATM   16  C14 UNL     1      -3.483  -1.009   0.380  1.00  0.00     0.184 C 
BRANCH  16  17
HETATM   17  O1  UNL     1      -3.484  -1.267  -0.953  1.00  0.00    -0.389 OA
ATOM     18  H1  UNL     1      -4.132  -1.898  -1.244  1.00  0.00     0.210 HD
ENDBRANCH  16  17
BRANCH  16  19
HETATM   19  C15 UNL     1      -4.808  -0.649   0.949  1.00  0.00     0.309 C 
BRANCH  19  20
HETATM   20  N4  UNL     1      -5.460   0.509   0.436  1.00  0.00     0.096 N 
HETATM   21  C16 UNL     1      -6.632   0.831   1.268  1.00  0.00     0.303 C 
HETATM   22  C17 UNL     1      -7.212   2.109   0.724  1.00  0.00     0.146 C 
HETATM   23  C18 UNL     1      -8.285   2.627   1.669  1.00  0.00     0.041 C 
HETATM   24  O2  UNL     1      -7.805   1.829  -0.470  1.00  0.00    -0.378 OA
HETATM   25  C19 UNL     1      -7.283   0.831  -1.227  1.00  0.00     0.146 C 
HETATM   26  C20 UNL     1      -8.197  -0.389  -1.281  1.00  0.00     0.041 C 
HETATM   27  C21 UNL     1      -5.856   0.442  -0.954  1.00  0.00     0.303 C 
ENDBRANCH  19  20
ENDBRANCH  16  19
ENDBRANCH  15  16
ENDBRANCH  13  15
ENDBRANCH   6  13
BRANCH   1  28
HETATM   28  C9  UNL     1       4.449  -1.737  -0.539  1.00  0.00     0.103 C 
HETATM   29  C5  UNL     1       5.387  -0.749  -1.106  1.00  0.00     0.047 C 
HETATM   30  C6  UNL     1       6.651  -1.627  -1.289  1.00  0.00     0.049 C 
HETATM   31  C7  UNL     1       6.609  -2.664  -0.205  1.00  0.00     0.172 C 
HETATM   32  F1  UNL     1       6.793  -3.915  -0.822  1.00  0.00    -0.249 F 
HETATM   33  C8  UNL     1       5.268  -2.578   0.444  1.00  0.00     0.063 C 
BRANCH  29  34
HETATM   34  C4  UNL     1       5.718   0.424  -0.308  1.00  0.00    -0.028 A 
HETATM   35  C3  UNL     1       6.793   0.525   0.549  1.00  0.00     0.034 A 
HETATM   36  C2  UNL     1       6.780   1.752   1.165  1.00  0.00     0.006 A 
HETATM   37  C1  UNL     1       7.762   2.256   2.155  1.00  0.00     0.068 C 
HETATM   38  N7  UNL     1       5.696   2.392   0.678  1.00  0.00    -0.363 N 
HETATM   39  C24 UNL     1       5.042   1.611  -0.211  1.00  0.00     0.012 A 
ATOM     40  H7  UNL     1       5.410   3.334   0.944  1.00  0.00     0.165 HD
HETATM   41  C25 UNL     1       3.833   2.060  -0.943  1.00  0.00     0.068 C 
ENDBRANCH  29  34
ENDBRANCH   1  28
TORSDOF 8
