REMARK  8 active torsions:
REMARK  status: ('A' for Active; 'I' for Inactive)
REMARK    1  A    between atoms: C2_2  and  C3_3 
REMARK    2  A    between atoms: C3_3  and  O1_4 
REMARK    3  A    between atoms: O1_4  and  C4_5 
REMARK    4  A    between atoms: C4_5  and  C5_7 
REMARK    5  A    between atoms: C8_10  and  N1_11 
REMARK    6  A    between atoms: C13_18  and  C14_19 
REMARK    7  A    between atoms: C14_19  and  C15_20 
REMARK    8  A    between atoms: C21_30  and  N2_31 
ROOT
HETATM    1  C5  UNL     1      -0.474  -0.917   0.355  1.00  0.00     0.086 C 
HETATM    2  C6  UNL     1      -0.064   0.368  -0.328  1.00  0.00     0.017 C 
HETATM    3  C7  UNL     1       1.390   0.693  -0.177  1.00  0.00     0.026 C 
HETATM    4  C8  UNL     1       2.048  -0.433   0.592  1.00  0.00     0.087 C 
HETATM    5  C16 UNL     1       1.843  -1.685  -0.247  1.00  0.00     0.026 C 
HETATM    6  C17 UNL     1       0.385  -2.089  -0.020  1.00  0.00     0.017 C 
ENDROOT
BRANCH   1   7
HETATM    7  C4  UNL     1      -1.876  -1.218  -0.115  1.00  0.00     0.266 C 
HETATM    8  O2  UNL     1      -2.151  -2.278  -0.709  1.00  0.00    -0.265 OA
BRANCH   7   9
HETATM    9  O1  UNL     1      -2.839  -0.329   0.113  1.00  0.00    -0.277 OA
BRANCH   9  10
HETATM   10  C3  UNL     1      -4.161  -0.173  -0.131  1.00  0.00     0.217 C 
HETATM   11  O6  UNL     1      -4.876  -1.191   0.543  1.00  0.00    -0.349 OA
HETATM   12  C18 UNL     1      -6.203  -1.218   0.221  1.00  0.00     0.177 C 
HETATM   13  C19 UNL     1      -6.955   0.011   0.604  1.00  0.00     0.075 C 
HETATM   14  C20 UNL     1      -5.977   1.122   0.872  1.00  0.00     0.016 A 
HETATM   15  S1  UNL     1      -6.162   2.658   1.596  1.00  0.00    -0.057 SA
HETATM   16  C22 UNL     1      -4.659   1.110   0.555  1.00  0.00     0.087 A 
HETATM   17  C21 UNL     1      -4.551   3.200   1.456  1.00  0.00     0.143 A 
HETATM   18  N3  UNL     1      -3.943   2.177   0.859  1.00  0.00    -0.335 N 
ATOM     19  H3  UNL     1      -2.947   2.217   0.642  1.00  0.00     0.168 HD
BRANCH  10  20
HETATM   20  C2  UNL     1      -4.566  -0.044  -1.538  1.00  0.00     0.071 C 
HETATM   21  C1  UNL     1      -4.296  -1.150  -2.484  1.00  0.00     0.011 C 
ENDBRANCH  10  20
BRANCH  17  22
HETATM   22  N2  UNL     1      -4.022   4.344   1.838  1.00  0.00    -0.380 N 
ATOM     23  H22 UNL     1      -4.488   5.128   2.295  1.00  0.00     0.158 HD
ATOM     24  H21 UNL     1      -3.059   4.668   1.754  1.00  0.00     0.158 HD
ENDBRANCH  17  22
ENDBRANCH   9  10
ENDBRANCH   7   9
ENDBRANCH   1   7
BRANCH   4  25
HETATM   25  N1  UNL     1       3.455  -0.180   0.818  1.00  0.00    -0.339 N 
HETATM   26  C9  UNL     1       4.054  -0.105   2.106  1.00  0.00     0.260 C 
HETATM   27  O3  UNL     1       3.554   0.228   3.203  1.00  0.00    -0.270 OA
HETATM   28  C10 UNL     1       5.489  -0.520   1.935  1.00  0.00     0.182 C 
HETATM   29  C11 UNL     1       5.766  -1.853   2.574  1.00  0.00     0.062 C 
HETATM   30  F1  UNL     1       6.257   0.483   2.459  1.00  0.00    -0.233 F 
HETATM   31  C12 UNL     1       5.706  -0.629   0.441  1.00  0.00     0.079 C 
HETATM   32  C13 UNL     1       4.491   0.038  -0.189  1.00  0.00     0.101 C 
BRANCH  32  33
HETATM   33  C14 UNL     1       4.723   1.503  -0.427  1.00  0.00     0.138 C 
BRANCH  33  34
HETATM   34  C15 UNL     1       5.756   1.747  -1.452  1.00  0.00     0.174 C 
HETATM   35  O4  UNL     1       6.306   0.791  -2.035  1.00  0.00    -0.648 OA
HETATM   36  O5  UNL     1       6.147   3.035  -1.798  1.00  0.00    -0.648 OA
ENDBRANCH  33  34
ENDBRANCH  32  33
ENDBRANCH   4  25
TORSDOF 8
