REMARK  8 active torsions:
REMARK  status: ('A' for Active; 'I' for Inactive)
REMARK    1  A    between atoms: C5_8  and  C6_9 
REMARK    2  A    between atoms: C6_9  and  C7_10 
REMARK    3  A    between atoms: C7_10  and  C8_11 
REMARK    4  A    between atoms: C13_16  and  O4_17 
REMARK    5  A    between atoms: C13_16  and  C14_19 
REMARK    6  A    between atoms: C14_19  and  O5_20 
REMARK    7  A    between atoms: C15_23  and  C17_25 
REMARK    8  A    between atoms: C17_25  and  O7_26 
ROOT
HETATM    1  C8  UNL     1       1.829   0.515   1.041  1.00  0.00     0.023 C 
HETATM    2  C9  UNL     1       0.935  -0.463   0.311  1.00  0.00     0.015 C 
HETATM    3  C10 UNL     1      -0.527  -0.165   0.542  1.00  0.00     0.020 C 
HETATM    4  C11 UNL     1      -0.766   1.168   1.160  1.00  0.00     0.130 C 
HETATM    5  C12 UNL     1       0.005   1.392   2.434  1.00  0.00     0.073 C 
HETATM    6  C13 UNL     1       1.377   0.763   2.436  1.00  0.00     0.085 C 
HETATM    7  O6  UNL     1      -2.138   1.174   1.397  1.00  0.00    -0.372 OA
HETATM    8  C15 UNL     1      -2.840   1.414   0.187  1.00  0.00     0.083 C 
HETATM    9  C16 UNL     1      -2.273   2.772  -0.286  1.00  0.00     0.049 C 
HETATM   10  C18 UNL     1      -2.608   0.383  -0.834  1.00  0.00     0.036 C 
HETATM   11  C19 UNL     1      -1.233  -0.235  -0.811  1.00  0.00    -0.000 C 
HETATM   12  C20 UNL     1      -1.165  -1.692  -1.142  1.00  0.00     0.007 C 
HETATM   13  C21 UNL     1      -2.008  -2.140  -2.269  1.00  0.00     0.021 C 
HETATM   14  C22 UNL     1      -3.238  -1.341  -2.410  1.00  0.00     0.090 C 
HETATM   15 CL1  UNL     1      -4.527  -2.495  -2.911  1.00  0.00    -0.124 Cl
HETATM   16  C23 UNL     1      -3.684  -0.631  -1.114  1.00  0.00    -0.024 C 
HETATM   17  C24 UNL     1      -3.862  -1.678  -0.093  1.00  0.00     0.016 C 
HETATM   18  C25 UNL     1      -5.003   0.004  -1.559  1.00  0.00     0.016 C 
ENDROOT
BRANCH   1  19
HETATM   19  C7  UNL     1       3.266   0.133   0.913  1.00  0.00     0.009 C 
BRANCH  19  20
HETATM   20  C6  UNL     1       3.725   0.107  -0.536  1.00  0.00     0.020 C 
BRANCH  20  21
HETATM   21  C5  UNL     1       5.172  -0.275  -0.655  1.00  0.00     0.124 C 
HETATM   22  C2  UNL     1       5.553  -0.281  -2.078  1.00  0.00     0.022 C 
HETATM   23  C1  UNL     1       5.762   0.786  -2.833  1.00  0.00     0.026 C 
HETATM   24  C3  UNL     1       5.651  -1.679  -2.477  1.00  0.00     0.296 C 
HETATM   25  O1  UNL     1       5.765  -2.133  -3.665  1.00  0.00    -0.259 OA
HETATM   26  O2  UNL     1       5.599  -2.460  -1.328  1.00  0.00    -0.241 OA
HETATM   27  C4  UNL     1       5.472  -1.640  -0.192  1.00  0.00     0.275 C 
HETATM   28  O3  UNL     1       5.611  -2.099   0.971  1.00  0.00    -0.264 OA
ENDBRANCH  20  21
ENDBRANCH  19  20
ENDBRANCH   1  19
BRANCH   6  29
HETATM   29  O4  UNL     1       2.290   1.669   3.027  1.00  0.00    -0.387 OA
ATOM     30  H4  UNL     1       2.001   1.827   3.918  1.00  0.00     0.210 HD
ENDBRANCH   6  29
BRANCH   6  31
HETATM   31  C14 UNL     1       1.332  -0.427   3.331  1.00  0.00     0.202 C 
BRANCH  31  32
HETATM   32  O5  UNL     1       2.519  -1.081   3.529  1.00  0.00    -0.398 OA
ATOM     33  H5  UNL     1       2.490  -1.840   4.100  1.00  0.00     0.209 HD
ENDBRANCH  31  32
ENDBRANCH   6  31
BRANCH   8  34
HETATM   34  C17 UNL     1      -4.211   1.743   0.643  1.00  0.00     0.202 C 
BRANCH  34  35
HETATM   35  O7  UNL     1      -4.050   2.878   1.504  1.00  0.00    -0.398 OA
ATOM     36  H7  UNL     1      -4.929   3.089   1.796  1.00  0.00     0.209 HD
ENDBRANCH  34  35
ENDBRANCH   8  34
TORSDOF 8
