REMARK  11 active torsions:
REMARK  status: ('A' for Active; 'I' for Inactive)
REMARK    1  A    between atoms: C3_4  and  N2_5 
REMARK    2  A    between atoms: N2_5  and  C4_7 
REMARK    3  A    between atoms: C4_7  and  C5_8 
REMARK    4  A    between atoms: C5_8  and  C6_9 
REMARK    5  A    between atoms: C6_9  and  C7_10 
REMARK    6  A    between atoms: C7_10  and  C8_11 
REMARK    7  A    between atoms: C8_11  and  C9_12 
REMARK    8  A    between atoms: C9_12  and  C10_13 
REMARK    9  A    between atoms: C10_13  and  O1_14 
REMARK   10  A    between atoms: O1_14  and  C11_15 
REMARK   11  A    between atoms: C17_21  and  N3_22 
ROOT
HETATM    1  N1  UNL     1       2.635   1.915   2.714  1.00  0.00    -0.191 NA
HETATM    2  C1  UNL     1       3.313   1.539   1.860  1.00  0.00     0.105 C 
HETATM    3  C2  UNL     1       4.193   1.104   0.796  1.00  0.00     0.117 A 
HETATM    4  C3  UNL     1       3.918   0.054  -0.028  1.00  0.00     0.089 A 
HETATM    5  C17 UNL     1       4.862  -0.250  -1.021  1.00  0.00     0.171 A 
HETATM    6  C18 UNL     1       6.028   0.448  -1.199  1.00  0.00     0.153 A 
HETATM    7  N4  UNL     1       6.936   0.070  -2.240  1.00  0.00    -0.080 NA
HETATM    8  N5  UNL     1       6.270   1.476  -0.373  1.00  0.00    -0.328 N 
ATOM      9  H5  UNL     1       7.127   2.019  -0.475  1.00  0.00     0.168 HD
HETATM   10  C19 UNL     1       5.390   1.793   0.586  1.00  0.00     0.123 A 
HETATM   11  N6  UNL     1       5.635   2.777   1.369  1.00  0.00    -0.384 N 
ATOM     12  H61 UNL     1       6.509   3.280   1.216  1.00  0.00     0.157 HD
ATOM     13  H62 UNL     1       4.965   3.018   2.099  1.00  0.00     0.157 HD
ENDROOT
BRANCH   4  14
HETATM   14  N2  UNL     1       2.757  -0.729   0.078  1.00  0.00    -0.386 N 
ATOM     15  H2  UNL     1       2.646  -1.454  -0.631  1.00  0.00     0.159 HD
BRANCH  14  16
HETATM   16  C4  UNL     1       1.705  -0.645   1.052  1.00  0.00     0.120 C 
BRANCH  16  17
HETATM   17  C5  UNL     1       0.680  -1.761   0.711  1.00  0.00     0.020 C 
BRANCH  17  18
HETATM   18  C6  UNL     1      -0.457  -1.786   1.675  1.00  0.00     0.002 C 
BRANCH  18  19
HETATM   19  C7  UNL     1      -1.215  -0.500   1.700  1.00  0.00     0.000 C 
BRANCH  19  20
HETATM   20  C8  UNL     1      -1.764  -0.197   0.331  1.00  0.00     0.002 C 
BRANCH  20  21
HETATM   21  C9  UNL     1      -2.703  -1.297  -0.135  1.00  0.00     0.027 C 
BRANCH  21  22
HETATM   22  C10 UNL     1      -3.211  -0.897  -1.492  1.00  0.00     0.175 C 
BRANCH  22  23
HETATM   23  O1  UNL     1      -3.899   0.280  -1.567  1.00  0.00    -0.351 OA
BRANCH  23  24
HETATM   24  C11 UNL     1      -5.079   0.674  -1.014  1.00  0.00     0.068 A 
HETATM   25  C12 UNL     1      -5.566   1.978  -1.226  1.00  0.00     0.037 A 
HETATM   26  C13 UNL     1      -6.743   2.405  -0.690  1.00  0.00     0.003 A 
HETATM   27  C14 UNL     1      -7.521   1.577   0.091  1.00  0.00     0.000 A 
HETATM   28  C15 UNL     1      -7.083   0.296   0.323  1.00  0.00     0.003 A 
HETATM   29  C16 UNL     1      -5.869  -0.133  -0.234  1.00  0.00     0.037 A 
ENDBRANCH  23  24
ENDBRANCH  22  23
ENDBRANCH  21  22
ENDBRANCH  20  21
ENDBRANCH  19  20
ENDBRANCH  18  19
ENDBRANCH  17  18
ENDBRANCH  16  17
ENDBRANCH  14  16
ENDBRANCH   4  14
BRANCH   5  30
HETATM   30  N3  UNL     1       4.585  -1.340  -1.882  1.00  0.00    -0.110 N 
HETATM   31  O2  UNL     1       4.727  -2.497  -1.406  1.00  0.00    -0.532 OA
HETATM   32  O3  UNL     1       4.185  -1.222  -3.176  1.00  0.00    -0.532 OA
ENDBRANCH   5  30
TORSDOF 11
