REMARK  12 active torsions:
REMARK  status: ('A' for Active; 'I' for Inactive)
REMARK    1  A    between atoms: C2_3  and  N2_4 
REMARK    2  A    between atoms: C6_12  and  N4_13 
REMARK    3  A    between atoms: N4_13  and  C7_15 
REMARK    4  A    between atoms: C7_15  and  C8_16 
REMARK    5  A    between atoms: C8_16  and  C9_17 
REMARK    6  A    between atoms: C9_17  and  C10_18 
REMARK    7  A    between atoms: C10_18  and  C11_19 
REMARK    8  A    between atoms: C11_19  and  C12_20 
REMARK    9  A    between atoms: C12_20  and  C13_21 
REMARK   10  A    between atoms: C13_21  and  C14_22 
REMARK   11  A    between atoms: C14_22  and  N5_23 
REMARK   12  A    between atoms: N5_23  and  C15_25 
ROOT
HETATM    1  C7  UNL     1      -2.035  -0.183  -1.253  1.00  0.00     0.119 C 
ENDROOT
BRANCH   1   2
HETATM    2  N4  UNL     1      -2.665  -1.494  -1.447  1.00  0.00    -0.390 N 
ATOM      3  H4  UNL     1      -2.136  -2.261  -1.861  1.00  0.00     0.159 HD
BRANCH   2   4
HETATM    4  C6  UNL     1      -4.014  -1.688  -1.055  1.00  0.00     0.030 A 
HETATM    5  C5  UNL     1      -4.643  -2.903  -1.220  1.00  0.00     0.031 A 
HETATM    6  C4  UNL     1      -5.965  -3.103  -0.838  1.00  0.00     0.034 A 
HETATM    7  C3  UNL     1      -6.696  -2.074  -0.276  1.00  0.00     0.076 A 
HETATM    8  N3  UNL     1      -7.950  -1.938   0.186  1.00  0.00    -0.190 N 
HETATM    9  C21 UNL     1      -6.062  -0.860  -0.113  1.00  0.00     0.080 A 
HETATM   10  C2  UNL     1      -8.118  -0.681   0.631  1.00  0.00     0.678 A 
ATOM     11  H3  UNL     1      -8.660  -2.670   0.197  1.00  0.00     0.184 HD
HETATM   12  N1  UNL     1      -6.950  -0.013   0.446  1.00  0.00    -0.186 N 
HETATM   13  C1  UNL     1      -6.674   1.364   0.779  1.00  0.00     0.175 C 
HETATM   14  C20 UNL     1      -4.748  -0.663  -0.493  1.00  0.00     0.061 A 
BRANCH  10  15
HETATM   15  N2  UNL     1      -9.203  -0.177   1.150  1.00  0.00    -0.234 N 
ATOM     16  H22 UNL     1      -9.331   0.777   1.488  1.00  0.00     0.174 HD
ATOM     17  H21 UNL     1     -10.080  -0.679   1.289  1.00  0.00     0.174 HD
ENDBRANCH  10  15
ENDBRANCH   2   4
ENDBRANCH   1   2
BRANCH   1  18
HETATM   18  C8  UNL     1      -0.614  -0.189  -1.732  1.00  0.00     0.020 C 
BRANCH  18  19
HETATM   19  C9  UNL     1       0.049   1.148  -1.549  1.00  0.00     0.002 C 
BRANCH  19  20
HETATM   20  C10 UNL     1       0.108   1.614  -0.134  1.00  0.00     0.000 C 
BRANCH  20  21
HETATM   21  C11 UNL     1       0.852   0.697   0.776  1.00  0.00     0.000 C 
BRANCH  21  22
HETATM   22  C12 UNL     1       2.268   0.487   0.368  1.00  0.00     0.002 C 
BRANCH  22  23
HETATM   23  C13 UNL     1       3.010   1.794   0.366  1.00  0.00     0.020 C 
BRANCH  23  24
HETATM   24  C14 UNL     1       4.466   1.606  -0.037  1.00  0.00     0.121 C 
BRANCH  24  25
HETATM   25  N5  UNL     1       5.155   0.722   0.873  1.00  0.00    -0.375 N 
ATOM     26  H5  UNL     1       4.663   0.313   1.668  1.00  0.00     0.161 HD
BRANCH  25  27
HETATM   27  C15 UNL     1       6.521   0.430   0.648  1.00  0.00     0.125 A 
HETATM   28  N6  UNL     1       7.204   0.960  -0.405  1.00  0.00    -0.351 N 
HETATM   29  C16 UNL     1       8.503   0.689  -0.629  1.00  0.00     0.090 A 
ATOM     30  H6  UNL     1       6.714   1.584  -1.046  1.00  0.00     0.166 HD
HETATM   31  C17 UNL     1       9.155  -0.156   0.245  1.00  0.00     0.019 A 
HETATM   32  C18 UNL     1       8.526  -0.731   1.334  1.00  0.00     0.032 A 
HETATM   33  C19 UNL     1       7.193  -0.414   1.509  1.00  0.00     0.090 A 
HETATM   34  N7  UNL     1       6.499  -0.978   2.613  1.00  0.00    -0.098 NA
ENDBRANCH  25  27
ENDBRANCH  24  25
ENDBRANCH  23  24
ENDBRANCH  22  23
ENDBRANCH  21  22
ENDBRANCH  20  21
ENDBRANCH  19  20
ENDBRANCH  18  19
ENDBRANCH   1  18
TORSDOF 12
