REMARK  13 active torsions:
REMARK  status: ('A' for Active; 'I' for Inactive)
REMARK    1  A    between atoms: C2_2  and  C3_3 
REMARK    2  A    between atoms: C3_3  and  N1_4 
REMARK    3  A    between atoms: C4_5  and  C5_6 
REMARK    4  A    between atoms: C5_6  and  N2_7 
REMARK    5  A    between atoms: N2_7  and  C6_9 
REMARK    6  A    between atoms: C9_12  and  N3_13 
REMARK    7  A    between atoms: N3_13  and  C10_15 
REMARK    8  A    between atoms: C10_15  and  C11_16 
REMARK    9  A    between atoms: C11_16  and  C12_17 
REMARK   10  A    between atoms: C12_17  and  C13_18 
REMARK   11  A    between atoms: C13_18  and  C14_19 
REMARK   12  A    between atoms: C14_19  and  N4_20 
REMARK   13  A    between atoms: C18_29  and  N6_30 
ROOT
HETATM    1  C5  UNL     1      -2.162  -0.117   0.267  1.00  0.00     0.196 C 
ENDROOT
BRANCH   1   2
HETATM    2  C4  UNL     1      -3.499   0.485   0.495  1.00  0.00     0.103 A 
HETATM    3  N1  UNL     1      -4.412   0.693  -0.497  1.00  0.00    -0.319 N 
HETATM    4  C20 UNL     1      -5.511   1.258   0.077  1.00  0.00     0.141 A 
HETATM    5  C17 UNL     1      -5.241   1.385   1.433  1.00  0.00     0.122 A 
HETATM    6  N8  UNL     1      -6.681   1.660  -0.450  1.00  0.00    -0.336 N 
HETATM    7  N5  UNL     1      -4.023   0.912   1.657  1.00  0.00    -0.338 N 
HETATM    8  C18 UNL     1      -6.202   1.940   2.260  1.00  0.00     0.131 A 
ATOM      9  H5  UNL     1      -3.558   0.878   2.564  1.00  0.00     0.167 HD
HETATM   10  N7  UNL     1      -7.351   2.323   1.675  1.00  0.00    -0.337 N 
HETATM   11  C19 UNL     1      -7.606   2.197   0.360  1.00  0.00     0.183 A 
ATOM     12  H7  UNL     1      -8.074   2.735   2.265  1.00  0.00     0.168 HD
ATOM     13  H8  UNL     1      -6.862   1.558  -1.449  1.00  0.00     0.168 HD
BRANCH   3  14
HETATM   14  C3  UNL     1      -4.215   0.377  -1.872  1.00  0.00     0.131 C 
BRANCH  14  15
HETATM   15  C2  UNL     1      -4.604  -1.000  -2.293  1.00  0.00     0.016 C 
HETATM   16  C1  UNL     1      -6.050  -1.305  -2.065  1.00  0.00     0.006 C 
ENDBRANCH  14  15
ENDBRANCH   3  14
BRANCH   8  17
HETATM   17  N6  UNL     1      -6.009   2.085   3.536  1.00  0.00    -0.383 N 
ATOM     18  H62 UNL     1      -5.138   1.795   3.980  1.00  0.00     0.157 HD
ATOM     19  H61 UNL     1      -6.717   2.494   4.145  1.00  0.00     0.157 HD
ENDBRANCH   8  17
ENDBRANCH   1   2
BRANCH   1  20
HETATM   20  N2  UNL     1      -1.174   0.892  -0.067  1.00  0.00    -0.383 N 
ATOM     21  H2  UNL     1      -1.459   1.870  -0.115  1.00  0.00     0.160 HD
BRANCH  20  22
HETATM   22  C6  UNL     1       0.162   0.556  -0.325  1.00  0.00     0.028 A 
HETATM   23  C7  UNL     1       1.061   1.535  -0.647  1.00  0.00     0.031 A 
HETATM   24  C8  UNL     1       2.356   1.213  -0.897  1.00  0.00     0.031 A 
HETATM   25  C9  UNL     1       2.775  -0.119  -0.825  1.00  0.00     0.028 A 
HETATM   26  C15 UNL     1       1.874  -1.096  -0.503  1.00  0.00     0.031 A 
HETATM   27  C16 UNL     1       0.568  -0.753  -0.253  1.00  0.00     0.031 A 
BRANCH  25  28
HETATM   28  N3  UNL     1       4.131  -0.426  -1.111  1.00  0.00    -0.390 N 
ATOM     29  H3  UNL     1       4.724   0.273  -1.559  1.00  0.00     0.159 HD
BRANCH  28  30
HETATM   30  C10 UNL     1       4.675  -1.711  -0.775  1.00  0.00     0.119 C 
BRANCH  30  31
HETATM   31  C11 UNL     1       4.804  -1.925   0.707  1.00  0.00     0.020 C 
BRANCH  31  32
HETATM   32  C12 UNL     1       5.728  -0.885   1.328  1.00  0.00     0.003 C 
BRANCH  32  33
HETATM   33  C13 UNL     1       7.099  -0.979   0.714  1.00  0.00     0.027 C 
BRANCH  33  34
HETATM   34  C14 UNL     1       7.953   0.084   1.385  1.00  0.00     0.229 C 
BRANCH  34  35
HETATM   35  N4  UNL     1       7.344   1.381   1.129  1.00  0.00    -0.079 N 
ATOM     36  H43 UNL     1       7.201   1.560   0.135  1.00  0.00     0.274 HD
ATOM     37  H42 UNL     1       6.366   1.421   1.417  1.00  0.00     0.274 HD
ATOM     38  H41 UNL     1       7.917   2.094   1.579  1.00  0.00     0.274 HD
ENDBRANCH  34  35
ENDBRANCH  33  34
ENDBRANCH  32  33
ENDBRANCH  31  32
ENDBRANCH  30  31
ENDBRANCH  28  30
ENDBRANCH  25  28
ENDBRANCH  20  22
ENDBRANCH   1  20
TORSDOF 13
