REMARK  13 active torsions:
REMARK  status: ('A' for Active; 'I' for Inactive)
REMARK    1  A    between atoms: N2_9  and  C6_10 
REMARK    2  A    between atoms: C6_10  and  C7_11 
REMARK       I    between atoms: C7_11  and  N3_13 
REMARK    3  A    between atoms: N4_18  and  C11_19 
REMARK    4  A    between atoms: C11_19  and  C12_20 
REMARK    5  A    between atoms: C12_20  and  C13_21 
REMARK    6  A    between atoms: C13_21  and  C14_22 
REMARK    7  A    between atoms: C14_22  and  C15_23 
REMARK    8  A    between atoms: C15_23  and  N5_24 
REMARK    9  A    between atoms: C18_27  and  C19_28 
REMARK   10  A    between atoms: C19_28  and  O4_29 
REMARK   11  A    between atoms: C20_31  and  C21_32 
REMARK   12  A    between atoms: C27_38  and  C28_39 
REMARK   13  A    between atoms: C28_39  and  C29_40 
ROOT
HETATM    1  C13 UNL     1       0.968   0.847   0.922  1.00  0.00     0.007 C 
ENDROOT
BRANCH   1   2
HETATM    2  C12 UNL     1       1.021   0.956  -0.593  1.00  0.00     0.021 C 
BRANCH   2   3
HETATM    3  C11 UNL     1       2.289   1.527  -1.159  1.00  0.00     0.137 C 
BRANCH   3   4
HETATM    4  N4  UNL     1       3.420   0.676  -0.799  1.00  0.00    -0.265 N 
HETATM    5  C10 UNL     1       4.259   1.121   0.131  1.00  0.00     0.334 C 
HETATM    6  N2  UNL     1       5.351   0.533   0.688  1.00  0.00    -0.256 N 
HETATM    7  O3  UNL     1       4.041   2.283   0.609  1.00  0.00    -0.246 OA
HETATM    8  C5  UNL     1       5.639  -0.774   0.732  1.00  0.00     0.264 C 
HETATM    9  C4  UNL     1       5.113  -1.803  -0.071  1.00  0.00     0.065 A 
HETATM   10  O1  UNL     1       6.462  -1.204   1.569  1.00  0.00    -0.267 OA
HETATM   11  C3  UNL     1       5.520  -3.094  -0.003  1.00  0.00     0.106 A 
HETATM   12  C36 UNL     1       4.092  -1.687  -1.014  1.00  0.00     0.071 A 
HETATM   13  N1  UNL     1       4.784  -3.799  -0.879  1.00  0.00    -0.368 N 
HETATM   14  C2  UNL     1       3.897  -2.967  -1.514  1.00  0.00     0.022 A 
ATOM     15  H1  UNL     1       4.872  -4.801  -1.046  1.00  0.00     0.165 HD
HETATM   16  C1  UNL     1       2.888  -3.330  -2.544  1.00  0.00     0.069 C 
HETATM   17  C35 UNL     1       3.437  -0.552  -1.385  1.00  0.00     0.264 C 
HETATM   18  O5  UNL     1       2.769  -0.686  -2.427  1.00  0.00    -0.267 OA
BRANCH   6  19
HETATM   19  C6  UNL     1       6.323   1.370   1.362  1.00  0.00     0.240 C 
BRANCH  19  20
HETATM   20  C7  UNL     1       7.460   1.513   0.386  1.00  0.00     0.237 C 
HETATM   21  O2  UNL     1       7.527   0.808  -0.673  1.00  0.00    -0.272 OA
HETATM   22  N3  UNL     1       8.476   2.423   0.643  1.00  0.00    -0.359 N 
HETATM   23  C8  UNL     1       9.618   2.500  -0.234  1.00  0.00     0.152 C 
HETATM   24  C9  UNL     1       8.347   3.324   1.788  1.00  0.00     0.152 C 
ENDBRANCH  19  20
ENDBRANCH   6  19
ENDBRANCH   3   4
ENDBRANCH   2   3
ENDBRANCH   1   2
BRANCH   1  25
HETATM   25  C14 UNL     1      -0.206  -0.095   1.273  1.00  0.00     0.045 C 
BRANCH  25  26
HETATM   26  C15 UNL     1      -1.450   0.382   0.741  1.00  0.00     0.070 C 
BRANCH  26  27
HETATM   27  N5  UNL     1      -2.613  -0.458   0.967  1.00  0.00    -0.329 N 
HETATM   28  C16 UNL     1      -2.637  -1.764   0.980  1.00  0.00     0.021 A 
HETATM   29  C17 UNL     1      -1.524  -2.726   1.188  1.00  0.00     0.069 C 
HETATM   30  C18 UNL     1      -3.935  -2.192   0.905  1.00  0.00     0.001 A 
HETATM   31  C20 UNL     1      -4.715  -1.088   0.845  1.00  0.00     0.012 A 
HETATM   32  C27 UNL     1      -3.885   0.029   0.898  1.00  0.00     0.051 A 
BRANCH  30  33
HETATM   33  C19 UNL     1      -4.361  -3.632   0.777  1.00  0.00     0.205 C 
BRANCH  33  34
HETATM   34  O4  UNL     1      -5.177  -4.039   1.883  1.00  0.00    -0.396 OA
ATOM     35  H4  UNL     1      -5.446  -4.947   1.802  1.00  0.00     0.209 HD
ENDBRANCH  33  34
ENDBRANCH  30  33
BRANCH  31  36
HETATM   36  C21 UNL     1      -6.131  -1.128   0.374  1.00  0.00    -0.023 A 
HETATM   37  C22 UNL     1      -7.213  -1.432   1.033  1.00  0.00     0.012 A 
HETATM   38  C23 UNL     1      -8.454  -1.555   0.386  1.00  0.00     0.001 A 
HETATM   39  C24 UNL     1      -8.506  -1.351  -0.956  1.00  0.00     0.000 A 
HETATM   40  C25 UNL     1      -7.380  -1.022  -1.684  1.00  0.00     0.001 A 
HETATM   41  C26 UNL     1      -6.208  -0.912  -0.995  1.00  0.00     0.012 A 
ENDBRANCH  31  36
BRANCH  32  42
HETATM   42  C28 UNL     1      -4.311   1.435   1.012  1.00  0.00     0.042 C 
BRANCH  42  43
HETATM   43  C29 UNL     1      -4.915   2.155  -0.087  1.00  0.00    -0.034 A 
HETATM   44  C30 UNL     1      -4.245   2.560  -1.214  1.00  0.00     0.011 A 
HETATM   45  C31 UNL     1      -4.811   3.352  -2.173  1.00  0.00     0.001 A 
HETATM   46  C32 UNL     1      -6.126   3.781  -2.033  1.00  0.00     0.000 A 
HETATM   47  C33 UNL     1      -6.843   3.403  -0.930  1.00  0.00     0.001 A 
HETATM   48  C34 UNL     1      -6.254   2.609   0.026  1.00  0.00     0.011 A 
ENDBRANCH  42  43
ENDBRANCH  32  42
ENDBRANCH  26  27
ENDBRANCH  25  26
ENDBRANCH   1  25
TORSDOF 13
