REMARK  14 active torsions:
REMARK  status: ('A' for Active; 'I' for Inactive)
REMARK    1  A    between atoms: C5_5  and  C6_6 
REMARK    2  A    between atoms: C6_6  and  C7_7 
REMARK       I    between atoms: C7_7  and  N1_9 
REMARK    3  A    between atoms: C9_16  and  C10_17 
REMARK    4  A    between atoms: C10_17  and  C11_18 
REMARK    5  A    between atoms: C11_18  and  S1_19 
REMARK    6  A    between atoms: S1_19  and  C12_20 
REMARK    7  A    between atoms: C12_20  and  C13_21 
REMARK    8  A    between atoms: C13_21  and  C14_22 
REMARK    9  A    between atoms: N6_28  and  C16_30 
REMARK   10  A    between atoms: C16_30  and  O2_31 
REMARK   11  A    between atoms: C16_30  and  C17_33 
REMARK   12  A    between atoms: C17_33  and  C18_34 
REMARK   13  A    between atoms: C22_38  and  C23_39 
REMARK   14  A    between atoms: C23_39  and  C24_40 
ROOT
HETATM    1  C14 UNL     1       0.625  -0.798   0.183  1.00  0.00     0.070 A 
HETATM    2  N4  UNL     1      -0.499  -0.404   0.753  1.00  0.00    -0.296 N 
ATOM      3  H4  UNL     1      -0.558  -0.351   1.770  1.00  0.00     0.187 HD
HETATM    4  N5  UNL     1      -1.507  -0.091   0.047  1.00  0.00    -0.279 N 
ATOM      5  H5  UNL     1      -2.370   0.214   0.497  1.00  0.00     0.189 HD
HETATM    6  C15 UNL     1      -1.437  -0.161  -1.278  1.00  0.00     0.166 A 
HETATM    7  N6  UNL     1      -2.259   0.069  -2.221  1.00  0.00    -0.320 N 
ATOM      8  H6  UNL     1      -1.876  -0.084  -3.154  1.00  0.00     0.169 HD
HETATM    9  S2  UNL     1       0.218  -0.718  -1.466  1.00  0.00    -0.038 SA
ENDROOT
BRANCH   1  10
HETATM   10  C13 UNL     1       1.914  -1.215   0.853  1.00  0.00     0.076 C 
BRANCH  10  11
HETATM   11  C12 UNL     1       1.689  -1.104   2.357  1.00  0.00     0.080 C 
BRANCH  11  12
HETATM   12  S1  UNL     1       1.294   0.520   2.897  1.00  0.00    -0.168 SA
BRANCH  12  13
HETATM   13  C11 UNL     1       2.451   1.821   2.753  1.00  0.00     0.080 C 
BRANCH  13  14
HETATM   14  C10 UNL     1       3.628   1.909   3.651  1.00  0.00     0.076 C 
BRANCH  14  15
HETATM   15  C9  UNL     1       4.526   0.740   3.548  1.00  0.00     0.070 A 
HETATM   16  N3  UNL     1       4.582  -0.366   4.275  1.00  0.00    -0.296 N 
HETATM   17  N2  UNL     1       5.432  -1.267   4.035  1.00  0.00    -0.279 N 
ATOM     18  H3  UNL     1       3.924  -0.492   5.045  1.00  0.00     0.187 HD
HETATM   19  C8  UNL     1       6.292  -1.091   3.022  1.00  0.00     0.167 A 
ATOM     20  H2  UNL     1       5.464  -2.114   4.602  1.00  0.00     0.189 HD
HETATM   21  N1  UNL     1       7.233  -1.925   2.636  1.00  0.00    -0.306 N 
HETATM   22  S3  UNL     1       5.817   0.437   2.428  1.00  0.00    -0.038 SA
HETATM   23  C7  UNL     1       8.024  -1.514   1.530  1.00  0.00     0.229 C 
ATOM     24  H1  UNL     1       7.386  -2.818   3.105  1.00  0.00     0.171 HD
HETATM   25  O1  UNL     1       9.246  -1.188   1.710  1.00  0.00    -0.273 OA
BRANCH  23  26
HETATM   26  C6  UNL     1       7.473  -1.451   0.163  1.00  0.00     0.160 C 
BRANCH  26  27
HETATM   27  C5  UNL     1       8.561  -0.984  -0.750  1.00  0.00     0.017 A 
HETATM   28  C4  UNL     1       8.708   0.375  -0.914  1.00  0.00     0.026 A 
HETATM   29  C3  UNL     1       9.693   0.864  -1.736  1.00  0.00     0.010 A 
HETATM   30  C2  UNL     1      10.534  -0.040  -2.395  1.00  0.00    -0.047 A 
HETATM   31  C1  UNL     1      11.612   0.471  -3.291  1.00  0.00     0.049 C 
HETATM   32  C31 UNL     1      10.348  -1.381  -2.200  1.00  0.00     0.094 A 
HETATM   33  N7  UNL     1       9.372  -1.868  -1.385  1.00  0.00    -0.368 N 
ATOM     34  H7  UNL     1       9.253  -2.873  -1.255  1.00  0.00     0.165 HD
ENDBRANCH  26  27
ENDBRANCH  23  26
ENDBRANCH  14  15
ENDBRANCH  13  14
ENDBRANCH  12  13
ENDBRANCH  11  12
ENDBRANCH  10  11
ENDBRANCH   1  10
BRANCH   7  35
HETATM   35  C16 UNL     1      -3.571   0.487  -2.214  1.00  0.00     0.121 C 
BRANCH  35  36
HETATM   36  O2  UNL     1      -4.104   0.572  -3.405  1.00  0.00    -0.349 OA
ATOM     37  H2  UNL     1      -5.009   0.860  -3.400  1.00  0.00     0.219 HD
ENDBRANCH  35  36
BRANCH  35  38
HETATM   38  C17 UNL     1      -4.419   0.841  -1.043  1.00  0.00     0.122 C 
BRANCH  38  39
HETATM   39  C18 UNL     1      -5.772   1.247  -1.573  1.00  0.00    -0.050 A 
HETATM   40  C19 UNL     1      -6.027   2.557  -1.911  1.00  0.00     0.007 A 
HETATM   41  C20 UNL     1      -7.303   2.882  -2.388  1.00  0.00     0.001 A 
HETATM   42  C21 UNL     1      -8.281   1.914  -2.517  1.00  0.00     0.007 A 
HETATM   43  C22 UNL     1      -8.029   0.602  -2.180  1.00  0.00    -0.053 A 
HETATM   44  C30 UNL     1      -6.769   0.307  -1.713  1.00  0.00     0.015 A 
BRANCH  43  45
HETATM   45  C23 UNL     1      -9.075  -0.444  -2.300  1.00  0.00     0.077 C 
BRANCH  45  46
HETATM   46  C24 UNL     1      -9.782  -0.699  -1.051  1.00  0.00    -0.054 A 
HETATM   47  C25 UNL     1     -10.893   0.031  -0.713  1.00  0.00     0.007 A 
HETATM   48  C26 UNL     1     -11.589  -0.181   0.467  1.00  0.00     0.001 A 
HETATM   49  C27 UNL     1     -11.144  -1.163   1.329  1.00  0.00     0.000 A 
HETATM   50  C28 UNL     1     -10.046  -1.909   1.028  1.00  0.00     0.001 A 
HETATM   51  C29 UNL     1      -9.367  -1.668  -0.172  1.00  0.00     0.007 A 
ENDBRANCH  45  46
ENDBRANCH  43  45
ENDBRANCH  38  39
ENDBRANCH  35  38
ENDBRANCH   7  35
TORSDOF 14
