REMARK  16 active torsions:
REMARK  status: ('A' for Active; 'I' for Inactive)
REMARK    1  A    between atoms: N1_1  and  S1_4 
REMARK    2  A    between atoms: S1_4  and  C1_7 
REMARK    3  A    between atoms: C6_12  and  C7_13 
REMARK    4  A    between atoms: C10_16  and  C11_17 
REMARK    5  A    between atoms: C11_17  and  N2_18 
REMARK    6  A    between atoms: C13_24  and  C14_25 
REMARK    7  A    between atoms: C14_25  and  C15_26 
REMARK    8  A    between atoms: C15_26  and  C16_27 
REMARK    9  A    between atoms: C16_27  and  O3_28 
REMARK   10  A    between atoms: C16_27  and  N5_30 
REMARK   11  A    between atoms: N5_30  and  C17_31 
REMARK   12  A    between atoms: C17_31  and  C18_32 
REMARK   13  A    between atoms: C17_31  and  C23_38 
REMARK   14  A    between atoms: C18_32  and  C19_33 
REMARK       I    between atoms: C23_38  and  N6_40 
REMARK   15  A    between atoms: N6_40  and  C24_42 
REMARK   16  A    between atoms: C24_42  and  C25_43 
ROOT
HETATM    1  N2  UNL     1       1.776   0.919   0.735  1.00  0.00    -0.277 N 
HETATM    2  N3  UNL     1       1.886   2.003   1.502  1.00  0.00    -0.240 N 
ATOM      3  H3  UNL     1       2.413   2.057   2.374  1.00  0.00     0.208 HD
HETATM    4  N4  UNL     1       1.207   2.995   0.958  1.00  0.00    -0.295 N 
ATOM      5  H4  UNL     1       1.116   3.942   1.327  1.00  0.00     0.187 HD
HETATM    6  C12 UNL     1       0.644   2.511  -0.202  1.00  0.00     0.135 A 
HETATM    7  C13 UNL     1       1.011   1.207  -0.320  1.00  0.00     0.047 A 
ENDROOT
BRANCH   7   8
HETATM    8  C14 UNL     1       0.629   0.229  -1.348  1.00  0.00     0.069 C 
BRANCH   8   9
HETATM    9  C15 UNL     1      -0.688  -0.487  -0.990  1.00  0.00     0.106 C 
BRANCH   9  10
HETATM   10  C16 UNL     1      -1.843   0.453  -0.969  1.00  0.00     0.190 C 
BRANCH  10  11
HETATM   11  O3  UNL     1      -1.781   1.362  -1.904  1.00  0.00    -0.339 OA
ATOM     12  H3  UNL     1      -2.518   1.962  -1.891  1.00  0.00     0.220 HD
ENDBRANCH  10  11
BRANCH  10  13
HETATM   13  N5  UNL     1      -2.846   0.419  -0.131  1.00  0.00    -0.384 NA
BRANCH  13  14
HETATM   14  C17 UNL     1      -3.772   0.386   0.642  1.00  0.00     0.159 C 
BRANCH  14  15
HETATM   15  C18 UNL     1      -3.958   1.589   1.540  1.00  0.00     0.124 C 
BRANCH  15  16
HETATM   16  C19 UNL     1      -5.087   2.457   1.075  1.00  0.00    -0.011 A 
HETATM   17  C20 UNL     1      -6.317   2.701   1.607  1.00  0.00     0.015 A 
HETATM   18  C21 UNL     1      -7.134   3.538   0.963  1.00  0.00     0.008 A 
HETATM   19  C22 UNL     1      -6.681   4.101  -0.195  1.00  0.00     0.050 A 
HETATM   20  S2  UNL     1      -5.119   3.444  -0.355  1.00  0.00    -0.106 SA
ENDBRANCH  15  16
ENDBRANCH  14  15
BRANCH  14  21
HETATM   21  C23 UNL     1      -4.764  -0.686   0.729  1.00  0.00     0.278 C 
HETATM   22  O4  UNL     1      -4.599  -1.626  -0.140  1.00  0.00    -0.265 OA
HETATM   23  N6  UNL     1      -5.827  -0.809   1.613  1.00  0.00    -0.351 N 
ATOM     24  H6  UNL     1      -5.995  -0.095   2.322  1.00  0.00     0.163 HD
BRANCH  23  25
HETATM   25  C24 UNL     1      -6.707  -1.981   1.513  1.00  0.00     0.161 C 
BRANCH  25  26
HETATM   26  C25 UNL     1      -7.616  -1.884   0.338  1.00  0.00    -0.041 A 
HETATM   27  C26 UNL     1      -8.056  -0.665  -0.119  1.00  0.00     0.009 A 
HETATM   28  C27 UNL     1      -8.891  -0.612  -1.238  1.00  0.00     0.001 A 
HETATM   29  C28 UNL     1      -9.281  -1.753  -1.891  1.00  0.00     0.000 A 
HETATM   30  C29 UNL     1      -8.841  -2.977  -1.435  1.00  0.00     0.001 A 
HETATM   31  C30 UNL     1      -8.023  -3.022  -0.337  1.00  0.00     0.009 A 
ENDBRANCH  25  26
ENDBRANCH  23  25
ENDBRANCH  14  21
ENDBRANCH  13  14
ENDBRANCH  10  13
ENDBRANCH   9  10
ENDBRANCH   8   9
ENDBRANCH   7   8
BRANCH   1  32
HETATM   32  C11 UNL     1       2.475  -0.315   1.000  1.00  0.00     0.189 C 
BRANCH  32  33
HETATM   33  C10 UNL     1       3.893  -0.232   0.607  1.00  0.00    -0.038 A 
HETATM   34  C9  UNL     1       4.811   0.113   1.578  1.00  0.00     0.010 A 
HETATM   35  C8  UNL     1       6.157   0.246   1.307  1.00  0.00     0.013 A 
HETATM   36  C7  UNL     1       6.577   0.022   0.014  1.00  0.00    -0.024 A 
HETATM   37  C32 UNL     1       5.696  -0.318  -0.959  1.00  0.00     0.013 A 
HETATM   38  C31 UNL     1       4.329  -0.447  -0.654  1.00  0.00     0.010 A 
BRANCH  36  39
HETATM   39  C6  UNL     1       7.985   0.203  -0.286  1.00  0.00    -0.003 A 
HETATM   40  C1  UNL     1       8.822  -0.869  -0.332  1.00  0.00     0.090 A 
HETATM   41  C2  UNL     1      10.168  -0.603  -0.626  1.00  0.00     0.026 A 
HETATM   42  C3  UNL     1      10.615   0.678  -0.856  1.00  0.00     0.002 A 
HETATM   43  C4  UNL     1       9.763   1.762  -0.809  1.00  0.00     0.001 A 
HETATM   44  C5  UNL     1       8.448   1.515  -0.523  1.00  0.00     0.014 A 
BRANCH  40  45
HETATM   45  S1  UNL     1       8.300  -2.493  -0.047  1.00  0.00     0.257 S 
HETATM   46  O1  UNL     1       7.746  -2.596   1.367  1.00  0.00    -0.201 OA
HETATM   47  O2  UNL     1       9.529  -3.394  -0.101  1.00  0.00    -0.201 OA
BRANCH  45  48
HETATM   48  N1  UNL     1       7.184  -3.110  -1.170  1.00  0.00    -0.324 N 
ATOM     49  H12 UNL     1       6.273  -3.493  -0.916  1.00  0.00     0.169 HD
ATOM     50  H11 UNL     1       7.555  -3.041  -2.118  1.00  0.00     0.169 HD
ENDBRANCH  45  48
ENDBRANCH  40  45
ENDBRANCH  36  39
ENDBRANCH  32  33
ENDBRANCH   1  32
TORSDOF 16
