REMARK  17 active torsions:
REMARK  status: ('A' for Active; 'I' for Inactive)
REMARK    1  A    between atoms: C2_2  and  C3_3 
REMARK    2  A    between atoms: C4_4  and  C5_5 
REMARK    3  A    between atoms: C5_5  and  C6_6 
REMARK    4  A    between atoms: C6_6  and  C7_7 
REMARK    5  A    between atoms: C6_6  and  C12_12 
REMARK    6  A    between atoms: C7_7  and  C8_8 
REMARK       I    between atoms: C12_12  and  N1_14 
REMARK    7  A    between atoms: N1_14  and  C13_16 
REMARK    8  A    between atoms: C13_16  and  C14_17 
REMARK    9  A    between atoms: C16_19  and  C17_20 
REMARK   10  A    between atoms: C17_20  and  N2_21 
REMARK       I    between atoms: N2_21  and  C18_22 
REMARK   11  A    between atoms: C18_22  and  C19_24 
REMARK   12  A    between atoms: C20_27  and  C21_28 
REMARK   13  A    between atoms: C21_28  and  O3_30 
REMARK   14  A    between atoms: C31_42  and  O4_43 
REMARK   15  A    between atoms: O4_43  and  C32_44 
REMARK       I    between atoms: C32_44  and  N5_46 
REMARK   16  A    between atoms: N5_46  and  C33_47 
REMARK   17  A    between atoms: N5_46  and  C35_49 
ROOT
HETATM    1  C12 UNL     1      -0.645  -2.601   0.510  1.00  0.00     0.255 C 
HETATM    2  O1  UNL     1      -0.664  -3.855   0.457  1.00  0.00    -0.267 OA
HETATM    3  N1  UNL     1       0.412  -2.003   1.243  1.00  0.00    -0.352 N 
ATOM      4  H1  UNL     1       0.450  -0.986   1.307  1.00  0.00     0.163 HD
ENDROOT
BRANCH   1   5
HETATM    5  C6  UNL     1      -1.678  -1.799  -0.173  1.00  0.00     0.055 C 
BRANCH   5   6
HETATM    6  C5  UNL     1      -2.711  -2.821  -0.837  1.00  0.00     0.091 C 
BRANCH   6   7
HETATM    7  C4  UNL     1      -3.788  -2.218  -1.548  1.00  0.00    -0.044 A 
HETATM    8  C3  UNL     1      -4.918  -1.699  -0.927  1.00  0.00    -0.018 A 
HETATM    9  C31 UNL     1      -5.916  -1.030  -1.610  1.00  0.00     0.087 A 
HETATM   10  C30 UNL     1      -5.786  -0.883  -2.957  1.00  0.00     0.038 A 
HETATM   11  C29 UNL     1      -4.677  -1.381  -3.641  1.00  0.00     0.003 A 
HETATM   12  C28 UNL     1      -3.673  -2.059  -2.926  1.00  0.00     0.008 A 
BRANCH   8  13
HETATM   13  C2  UNL     1      -5.185  -1.997   0.477  1.00  0.00     0.037 C 
HETATM   14  C1  UNL     1      -5.974  -3.331   0.474  1.00  0.00     0.010 C 
ENDBRANCH   8  13
BRANCH   9  15
HETATM   15  O4  UNL     1      -7.039  -0.493  -0.916  1.00  0.00    -0.261 OA
BRANCH  15  16
HETATM   16  C32 UNL     1      -6.861   0.901  -0.636  1.00  0.00     0.368 C 
HETATM   17  O5  UNL     1      -5.756   1.412  -1.046  1.00  0.00    -0.238 OA
HETATM   18  N5  UNL     1      -7.762   1.754   0.010  1.00  0.00    -0.328 N 
BRANCH  18  19
HETATM   19  C33 UNL     1      -7.504   3.181   0.215  1.00  0.00     0.123 C 
HETATM   20  C34 UNL     1      -6.781   3.425   1.544  1.00  0.00     0.026 C 
ENDBRANCH  18  19
BRANCH  18  21
HETATM   21  C35 UNL     1      -9.027   1.198   0.505  1.00  0.00     0.123 C 
HETATM   22  C36 UNL     1     -10.058   1.239  -0.557  1.00  0.00     0.026 C 
ENDBRANCH  18  21
ENDBRANCH  15  16
ENDBRANCH   9  15
ENDBRANCH   6   7
ENDBRANCH   5   6
BRANCH   5  23
HETATM   23  C7  UNL     1      -1.825  -0.576  -0.288  1.00  0.00    -0.134 C 
BRANCH  23  24
HETATM   24  C8  UNL     1      -1.700   0.860  -0.222  1.00  0.00     0.005 C 
HETATM   25  C9  UNL     1      -2.641   1.306   0.951  1.00  0.00     0.027 C 
HETATM   26  C10 UNL     1      -0.353   1.391   0.096  1.00  0.00     0.027 C 
HETATM   27  C11 UNL     1      -2.279   1.641  -1.413  1.00  0.00     0.027 C 
ENDBRANCH  23  24
ENDBRANCH   5  23
ENDBRANCH   1   5
BRANCH   3  28
HETATM   28  C13 UNL     1       1.454  -2.793   1.914  1.00  0.00     0.169 C 
BRANCH  28  29
HETATM   29  C14 UNL     1       2.530  -1.858   2.334  1.00  0.00     0.001 A 
HETATM   30  C15 UNL     1       2.854  -0.672   1.654  1.00  0.00     0.026 A 
HETATM   31  C16 UNL     1       3.898   0.075   2.164  1.00  0.00    -0.021 A 
HETATM   32  C27 UNL     1       4.486  -0.449   3.271  1.00  0.00     0.060 A 
HETATM   33  S1  UNL     1       3.670  -1.876   3.583  1.00  0.00    -0.104 SA
BRANCH  31  34
HETATM   34  C17 UNL     1       4.256   1.345   1.518  1.00  0.00     0.261 C 
BRANCH  34  35
HETATM   35  N2  UNL     1       5.700   1.332   0.947  1.00  0.00    -0.407 NA
HETATM   36  C18 UNL     1       6.804   1.324   0.516  1.00  0.00     0.340 C 
HETATM   37  O2  UNL     1       7.938   1.636   0.945  1.00  0.00    -0.253 OA
BRANCH  36  38
HETATM   38  C19 UNL     1       6.985   0.760  -0.949  1.00  0.00     0.430 C 
HETATM   39  N3  UNL     1       7.984   1.428  -1.615  1.00  0.00    -0.351 N 
HETATM   40  C20 UNL     1       9.044   0.741  -1.773  1.00  0.00     0.070 C 
ATOM     41  H3  UNL     1       7.885   2.386  -1.952  1.00  0.00     0.162 HD
HETATM   42  C23 UNL     1       8.839  -0.570  -1.171  1.00  0.00     0.278 C 
HETATM   43  C24 UNL     1       9.718  -0.742   0.071  1.00  0.00     0.044 C 
HETATM   44  N4  UNL     1       7.468  -0.600  -0.792  1.00  0.00     0.132 N 
HETATM   45  C25 UNL     1       8.794  -1.298   1.079  1.00  0.00     0.033 C 
HETATM   46  C26 UNL     1       7.390  -1.146   0.521  1.00  0.00     0.277 C 
BRANCH  40  47
HETATM   47  C21 UNL     1      10.257   1.229  -2.463  1.00  0.00     0.064 C 
HETATM   48  C22 UNL     1      10.448   2.501  -3.143  1.00  0.00     0.078 C 
BRANCH  47  49
HETATM   49  O3  UNL     1      11.273   0.401  -2.445  1.00  0.00    -0.363 OA
ATOM     50  H3  UNL     1      12.052   0.715  -2.888  1.00  0.00     0.217 HD
ENDBRANCH  47  49
ENDBRANCH  40  47
ENDBRANCH  36  38
ENDBRANCH  34  35
ENDBRANCH  31  34
ENDBRANCH  28  29
ENDBRANCH   3  28
TORSDOF 17
