REMARK  13 active torsions:
REMARK  status: ('A' for Active; 'I' for Inactive)
REMARK    1  A    between atoms: N1_1  and  C1_5 
REMARK    2  A    between atoms: C1_5  and  C2_6 
REMARK    3  A    between atoms: C2_6  and  C3_7 
REMARK    4  A    between atoms: C3_7  and  C4_8 
REMARK    5  A    between atoms: C4_8  and  C5_9 
REMARK    6  A    between atoms: C5_9  and  C6_10 
REMARK    7  A    between atoms: C6_10  and  C7_11 
REMARK    8  A    between atoms: C7_11  and  C8_12 
REMARK    9  A    between atoms: C10_14  and  C11_15 
REMARK   10  A    between atoms: C11_15  and  N2_16 
REMARK   11  A    between atoms: N4_19  and  C12_20 
REMARK   12  A    between atoms: C12_20  and  C13_21 
REMARK   13  A    between atoms: C20_35  and  C21_36 
ROOT
HETATM    1  N2  UNL     1      -1.178   0.029  -0.685  1.00  0.00    -0.254 N 
HETATM    2  N3  UNL     1      -0.976   1.345  -1.001  1.00  0.00    -0.225 N 
ATOM      3  H3  UNL     1      -0.498   1.613  -1.861  1.00  0.00     0.209 HD
HETATM    4  N4  UNL     1      -1.437   2.289  -0.124  1.00  0.00    -0.182 N 
HETATM    5  S1  UNL     1      -2.275   1.704   1.230  1.00  0.00     0.341 S 
HETATM    6  O3  UNL     1      -3.440   2.614   1.514  1.00  0.00    -0.181 OA
HETATM    7  O4  UNL     1      -1.352   1.617   2.422  1.00  0.00    -0.181 OA
HETATM    8  N5  UNL     1      -2.931   0.168   0.839  1.00  0.00    -0.249 N 
ATOM      9  H5  UNL     1      -3.764  -0.186   1.309  1.00  0.00     0.182 HD
HETATM   10  C20 UNL     1      -2.333  -0.525  -0.072  1.00  0.00     0.144 C 
ENDROOT
BRANCH   1  11
HETATM   11  C11 UNL     1      -0.087  -0.905  -1.020  1.00  0.00     0.211 C 
BRANCH  11  12
HETATM   12  C10 UNL     1       1.169  -0.512  -0.307  1.00  0.00     0.054 A 
HETATM   13  C9  UNL     1       2.221   0.252  -0.753  1.00  0.00     0.063 A 
HETATM   14  C8  UNL     1       3.165   0.344   0.279  1.00  0.00     0.078 A 
HETATM   15  O5  UNL     1       2.647  -0.344   1.252  1.00  0.00    -0.242 OA
HETATM   16  N6  UNL     1       1.507  -0.851   0.963  1.00  0.00    -0.264 N 
ATOM     17  H6  UNL     1       0.940  -1.422   1.591  1.00  0.00     0.194 HD
BRANCH  14  18
HETATM   18  C7  UNL     1       4.442   1.094   0.163  1.00  0.00     0.067 C 
BRANCH  18  19
HETATM   19  C6  UNL     1       5.266   1.019   1.403  1.00  0.00     0.007 C 
BRANCH  19  20
HETATM   20  C5  UNL     1       5.712  -0.307   1.841  1.00  0.00     0.000 C 
BRANCH  20  21
HETATM   21  C4  UNL     1       6.522  -1.193   1.010  1.00  0.00     0.000 C 
BRANCH  21  22
HETATM   22  C3  UNL     1       7.882  -0.824   0.580  1.00  0.00     0.002 C 
BRANCH  22  23
HETATM   23  C2  UNL     1       7.969   0.361  -0.305  1.00  0.00     0.027 C 
BRANCH  23  24
HETATM   24  C1  UNL     1       9.446   0.603  -0.712  1.00  0.00     0.229 C 
BRANCH  24  25
HETATM   25  N1  UNL     1       9.466   1.756  -1.562  1.00  0.00    -0.079 N 
ATOM     26  H13 UNL     1       8.839   1.674  -2.362  1.00  0.00     0.274 HD
ATOM     27  H12 UNL     1       9.029   2.574  -1.137  1.00  0.00     0.274 HD
ATOM     28  H11 UNL     1      10.437   1.915  -1.830  1.00  0.00     0.274 HD
ENDBRANCH  24  25
ENDBRANCH  23  24
ENDBRANCH  22  23
ENDBRANCH  21  22
ENDBRANCH  20  21
ENDBRANCH  19  20
ENDBRANCH  18  19
ENDBRANCH  14  18
ENDBRANCH  11  12
ENDBRANCH   1  11
BRANCH  10  29
HETATM   29  C21 UNL     1      -2.849  -1.850  -0.448  1.00  0.00     0.011 A 
HETATM   30  C22 UNL     1      -2.738  -2.375  -1.708  1.00  0.00     0.016 A 
HETATM   31  C23 UNL     1      -3.262  -3.625  -1.938  1.00  0.00     0.009 A 
HETATM   32  C24 UNL     1      -3.888  -4.364  -0.959  1.00  0.00    -0.047 A 
HETATM   33  C25 UNL     1      -4.008  -3.850   0.315  1.00  0.00    -0.046 A 
HETATM   34  C34 UNL     1      -4.455  -5.717  -1.209  1.00  0.00     0.078 C 
HETATM   35  C26 UNL     1      -3.476  -2.597   0.521  1.00  0.00     0.023 A 
HETATM   36  C27 UNL     1      -4.685  -4.628   1.407  1.00  0.00     0.078 C 
HETATM   37  C28 UNL     1      -5.886  -5.250   0.787  1.00  0.00    -0.047 A 
HETATM   38  C29 UNL     1      -7.107  -5.310   1.450  1.00  0.00     0.008 A 
HETATM   39  C33 UNL     1      -5.763  -5.774  -0.481  1.00  0.00    -0.047 A 
HETATM   40  C30 UNL     1      -8.217  -5.891   0.863  1.00  0.00     0.001 A 
HETATM   41  C31 UNL     1      -8.094  -6.422  -0.419  1.00  0.00     0.001 A 
HETATM   42  C32 UNL     1      -6.864  -6.347  -1.056  1.00  0.00     0.008 A 
ENDBRANCH  10  29
BRANCH   4  43
HETATM   43  C12 UNL     1      -0.582   3.399   0.101  1.00  0.00     0.203 C 
BRANCH  43  44
HETATM   44  C13 UNL     1      -1.283   4.724  -0.069  1.00  0.00    -0.035 A 
HETATM   45  C14 UNL     1      -1.405   5.309  -1.305  1.00  0.00     0.012 A 
HETATM   46  C15 UNL     1      -2.051   6.518  -1.420  1.00  0.00     0.040 A 
HETATM   47  C16 UNL     1      -2.576   7.146  -0.304  1.00  0.00     0.105 A 
HETATM   48  C17 UNL     1      -2.444   6.545   0.923  1.00  0.00     0.105 A 
HETATM   49  O2  UNL     1      -3.266   8.338  -0.092  1.00  0.00    -0.323 OA
HETATM   50  C18 UNL     1      -1.800   5.339   1.046  1.00  0.00     0.048 A 
HETATM   51  O1  UNL     1      -3.056   7.381   1.869  1.00  0.00    -0.323 OA
HETATM   52  C19 UNL     1      -3.832   8.367   1.185  1.00  0.00     0.352 C 
ENDBRANCH  43  44
ENDBRANCH   4  43
TORSDOF 13
