REMARK  12 active torsions:
REMARK  status: ('A' for Active; 'I' for Inactive)
REMARK    1  A    between atoms: C2_2  and  N1_3 
REMARK    2  A    between atoms: N1_3  and  C4_5 
REMARK    3  A    between atoms: C4_5  and  C5_6 
REMARK    4  A    between atoms: C5_6  and  N2_7 
REMARK       I    between atoms: N2_7  and  C6_9 
REMARK    5  A    between atoms: C6_9  and  C7_11 
REMARK    6  A    between atoms: C10_14  and  C11_15 
REMARK    7  A    between atoms: C11_15  and  N3_16 
REMARK    8  A    between atoms: C16_23  and  N5_24 
REMARK       I    between atoms: N5_24  and  C17_26 
REMARK    9  A    between atoms: C17_26  and  C18_28 
REMARK   10  A    between atoms: C18_28  and  N6_29 
REMARK   11  A    between atoms: C21_32  and  C22_33 
REMARK   12  A    between atoms: C22_33  and  C23_35 
ROOT
HETATM    1  N3  UNL     1      -0.423  -0.538  -1.074  1.00  0.00    -0.299 N 
HETATM    2  C12 UNL     1      -0.112  -1.831  -0.929  1.00  0.00     0.099 C 
HETATM    3  C13 UNL     1       0.579  -2.543   0.037  1.00  0.00     0.020 C 
HETATM    4  C14 UNL     1       1.797  -2.126   0.569  1.00  0.00     0.032 C 
HETATM    5  C15 UNL     1       2.306  -0.824   0.569  1.00  0.00     0.049 A 
HETATM    6  N4  UNL     1       3.523  -0.457   0.991  1.00  0.00    -0.342 N 
ATOM      7  H4  UNL     1       4.239  -1.080   1.364  1.00  0.00     0.167 HD
HETATM    8  C16 UNL     1       3.639   0.887   0.836  1.00  0.00     0.109 A 
HETATM    9  C30 UNL     1       2.478   1.397   0.304  1.00  0.00     0.068 A 
HETATM   10  C31 UNL     1       1.596   0.358   0.112  1.00  0.00     0.063 A 
HETATM   11  C32 UNL     1       0.308   0.434  -0.432  1.00  0.00     0.264 C 
HETATM   12  O4  UNL     1      -0.204   1.532  -0.299  1.00  0.00    -0.267 OA
ENDROOT
BRANCH   1  13
HETATM   13  C11 UNL     1      -1.450  -0.144  -1.961  1.00  0.00     0.112 C 
BRANCH  13  14
HETATM   14  C10 UNL     1      -2.810   0.137  -1.531  1.00  0.00    -0.009 A 
HETATM   15  C9  UNL     1      -3.211   1.437  -1.218  1.00  0.00     0.014 A 
HETATM   16  C8  UNL     1      -4.436   1.754  -0.770  1.00  0.00     0.019 A 
HETATM   17  C7  UNL     1      -5.403   0.792  -0.589  1.00  0.00     0.043 A 
HETATM   18  C38 UNL     1      -5.058  -0.500  -0.884  1.00  0.00    -0.009 A 
HETATM   19  C33 UNL     1      -3.774  -0.834  -1.354  1.00  0.00    -0.013 A 
HETATM   20  C37 UNL     1      -5.976  -1.524  -0.730  1.00  0.00     0.013 A 
HETATM   21  C34 UNL     1      -3.557  -2.165  -1.633  1.00  0.00     0.013 A 
HETATM   22  C35 UNL     1      -4.470  -3.181  -1.483  1.00  0.00     0.001 A 
HETATM   23  C36 UNL     1      -5.712  -2.857  -1.017  1.00  0.00     0.001 A 
BRANCH  17  24
HETATM   24  C6  UNL     1      -6.782   1.148  -0.245  1.00  0.00     0.252 C 
HETATM   25  N2  UNL     1      -7.819   0.809  -1.166  1.00  0.00    -0.355 N 
ATOM     26  H2  UNL     1      -7.542   0.330  -2.023  1.00  0.00     0.162 HD
HETATM   27  O1  UNL     1      -6.980   1.741   0.836  1.00  0.00    -0.268 OA
BRANCH  25  28
HETATM   28  C5  UNL     1      -9.217   1.083  -0.991  1.00  0.00     0.153 C 
BRANCH  28  29
HETATM   29  C4  UNL     1      -9.826   0.368   0.209  1.00  0.00     0.291 C 
BRANCH  29  30
HETATM   30  N1  UNL     1     -11.258   0.717   0.290  1.00  0.00     0.085 N 
HETATM   31  C3  UNL     1     -11.267   2.107   0.763  1.00  0.00     0.309 C 
BRANCH  30  32
HETATM   32  C2  UNL     1     -11.821  -0.101   1.372  1.00  0.00     0.267 C 
HETATM   33  C1  UNL     1     -11.961  -1.544   0.951  1.00  0.00     0.037 C 
ENDBRANCH  30  32
ENDBRANCH  29  30
ENDBRANCH  28  29
ENDBRANCH  25  28
ENDBRANCH  17  24
ENDBRANCH  13  14
ENDBRANCH   1  13
BRANCH   8  34
HETATM   34  N5  UNL     1       4.834   1.635   1.158  1.00  0.00    -0.312 N 
HETATM   35  C17 UNL     1       6.011   0.982   1.584  1.00  0.00     0.241 C 
HETATM   36  O2  UNL     1       6.033  -0.269   1.657  1.00  0.00    -0.271 OA
ATOM     37  H5  UNL     1       4.826   2.652   1.076  1.00  0.00     0.170 HD
BRANCH  35  38
HETATM   38  C18 UNL     1       7.194   1.814   1.934  1.00  0.00     0.230 C 
BRANCH  38  39
HETATM   39  N6  UNL     1       8.333   0.934   2.217  1.00  0.00    -0.357 N 
HETATM   40  C19 UNL     1       8.692   0.368   3.381  1.00  0.00     0.092 A 
HETATM   41  C20 UNL     1       9.821  -0.365   3.157  1.00  0.00     0.034 A 
HETATM   42  C21 UNL     1      10.182  -0.253   1.795  1.00  0.00     0.032 A 
HETATM   43  C29 UNL     1       9.214   0.571   1.261  1.00  0.00     0.106 A 
BRANCH  42  44
HETATM   44  C22 UNL     1      11.316  -0.918   1.186  1.00  0.00     0.193 C 
HETATM   45  O3  UNL     1      11.656  -2.033   1.691  1.00  0.00    -0.287 OA
BRANCH  44  46
HETATM   46  C23 UNL     1      12.047  -0.382   0.069  1.00  0.00     0.015 A 
HETATM   47  C24 UNL     1      12.036   0.936  -0.304  1.00  0.00     0.015 A 
HETATM   48  C25 UNL     1      12.773   1.393  -1.375  1.00  0.00     0.001 A 
HETATM   49  C26 UNL     1      13.555   0.548  -2.118  1.00  0.00     0.000 A 
HETATM   50  C27 UNL     1      13.595  -0.783  -1.774  1.00  0.00     0.001 A 
HETATM   51  C28 UNL     1      12.857  -1.224  -0.709  1.00  0.00     0.015 A 
ENDBRANCH  44  46
ENDBRANCH  42  44
ENDBRANCH  38  39
ENDBRANCH  35  38
ENDBRANCH   8  34
TORSDOF 12
