REMARK  13 active torsions:
REMARK  status: ('A' for Active; 'I' for Inactive)
REMARK    1  A    between atoms: C2_3  and  C3_4 
REMARK    2  A    between atoms: C3_4  and  N2_5 
REMARK    3  A    between atoms: N2_5  and  C4_7 
REMARK    4  A    between atoms: C8_13  and  O1_14 
REMARK    5  A    between atoms: O1_14  and  C9_15 
REMARK    6  A    between atoms: C9_15  and  C10_16 
REMARK    7  A    between atoms: C10_16  and  O2_17 
REMARK    8  A    between atoms: O2_17  and  C11_18 
REMARK    9  A    between atoms: C15_22  and  C16_23 
REMARK   10  A    between atoms: C16_23  and  N4_24 
REMARK   11  A    between atoms: N6_41  and  C28_42 
REMARK   12  A    between atoms: C28_42  and  C29_43 
REMARK   13  A    between atoms: C29_43  and  C30_44 
ROOT
HETATM    1  N1  UNL     1      -8.991  -0.374  -2.143  1.00  0.00    -0.197 NA
HETATM    2  C1  UNL     1      -8.205  -0.961  -2.755  1.00  0.00     0.060 C 
HETATM    3  C2  UNL     1      -7.197  -1.713  -3.507  1.00  0.00     0.144 C 
ENDROOT
BRANCH   3   4
HETATM    4  C3  UNL     1      -6.015  -0.784  -3.815  1.00  0.00     0.152 C 
BRANCH   4   5
HETATM    5  N2  UNL     1      -5.439  -0.314  -2.585  1.00  0.00    -0.225 N 
ATOM      6  H2  UNL     1      -5.757  -0.781  -1.736  1.00  0.00     0.177 HD
BRANCH   5   7
HETATM    7  C4  UNL     1      -4.586   0.607  -2.424  1.00  0.00     0.681 A 
HETATM    8  N3  UNL     1      -4.006   1.372  -3.350  1.00  0.00    -0.190 N 
HETATM    9  C5  UNL     1      -3.155   2.229  -2.733  1.00  0.00     0.076 A 
ATOM     10  H3  UNL     1      -4.174   1.321  -4.355  1.00  0.00     0.184 HD
HETATM   11  C6  UNL     1      -2.339   3.208  -3.193  1.00  0.00     0.035 A 
HETATM   12  C27 UNL     1      -3.230   1.962  -1.372  1.00  0.00     0.081 A 
HETATM   13  C7  UNL     1      -1.557   3.969  -2.298  1.00  0.00     0.039 A 
HETATM   14  C8  UNL     1      -1.614   3.719  -0.926  1.00  0.00     0.071 A 
HETATM   15  C26 UNL     1      -2.447   2.726  -0.506  1.00  0.00     0.069 A 
HETATM   16  N6  UNL     1      -4.105   0.972  -1.193  1.00  0.00    -0.181 N 
BRANCH  14  17
HETATM   17  O1  UNL     1      -0.831   4.501  -0.100  1.00  0.00    -0.349 OA
BRANCH  17  18
HETATM   18  C9  UNL     1      -0.704   4.404   1.271  1.00  0.00     0.202 C 
BRANCH  18  19
HETATM   19  C10 UNL     1      -0.064   3.186   1.838  1.00  0.00     0.202 C 
BRANCH  19  20
HETATM   20  O2  UNL     1       1.292   3.054   1.390  1.00  0.00    -0.349 OA
BRANCH  20  21
HETATM   21  C11 UNL     1       2.026   1.981   1.864  1.00  0.00     0.069 A 
HETATM   22  C12 UNL     1       1.507   1.021   2.732  1.00  0.00     0.037 A 
HETATM   23  C13 UNL     1       2.235  -0.037   3.208  1.00  0.00     0.004 A 
HETATM   24  C14 UNL     1       3.551  -0.181   2.824  1.00  0.00     0.013 A 
HETATM   25  C15 UNL     1       4.122   0.725   1.975  1.00  0.00    -0.017 A 
HETATM   26  C25 UNL     1       3.349   1.783   1.514  1.00  0.00     0.049 A 
BRANCH  25  27
HETATM   27  C16 UNL     1       5.514   0.648   1.591  1.00  0.00     0.122 C 
BRANCH  27  28
HETATM   28  N4  UNL     1       5.908  -0.337   0.618  1.00  0.00    -0.229 N 
HETATM   29  C17 UNL     1       5.661  -0.056  -0.723  1.00  0.00     0.150 A 
HETATM   30  C18 UNL     1       6.199  -0.756  -1.789  1.00  0.00     0.091 A 
HETATM   31  N5  UNL     1       5.322   0.341  -2.065  1.00  0.00    -0.336 N 
HETATM   32  C19 UNL     1       7.087  -1.872  -1.592  1.00  0.00     0.018 A 
HETATM   33  C20 UNL     1       7.711  -2.451  -2.729  1.00  0.00     0.015 A 
HETATM   34  C24 UNL     1       7.478  -2.362  -0.393  1.00  0.00     0.092 A 
HETATM   35  C21 UNL     1       8.653  -3.440  -2.659  1.00  0.00     0.001 A 
HETATM   36  C22 UNL     1       9.019  -3.902  -1.399  1.00  0.00     0.002 A 
HETATM   37  C23 UNL     1       8.419  -3.349  -0.290  1.00  0.00     0.026 A 
HETATM   38  S1  UNL     1       6.700  -1.797   1.062  1.00  0.00     0.271 S 
HETATM   39  O3  UNL     1       5.677  -2.753   1.590  1.00  0.00    -0.200 OA
HETATM   40  O4  UNL     1       7.695  -1.578   2.167  1.00  0.00    -0.200 OA
ATOM     41  H5  UNL     1       4.828   0.948  -2.720  1.00  0.00     0.168 HD
ENDBRANCH  27  28
ENDBRANCH  25  27
ENDBRANCH  20  21
ENDBRANCH  19  20
ENDBRANCH  18  19
ENDBRANCH  17  18
ENDBRANCH  14  17
BRANCH  16  42
HETATM   42  C28 UNL     1      -4.514   0.377   0.054  1.00  0.00     0.152 C 
BRANCH  42  43
HETATM   43  C29 UNL     1      -3.669  -0.815   0.441  1.00  0.00     0.059 C 
BRANCH  43  44
HETATM   44  C30 UNL     1      -4.093  -1.432   1.712  1.00  0.00    -0.057 A 
HETATM   45  C31 UNL     1      -5.072  -2.416   1.737  1.00  0.00     0.007 A 
HETATM   46  C32 UNL     1      -5.447  -2.981   2.935  1.00  0.00     0.001 A 
HETATM   47  C33 UNL     1      -4.836  -2.552   4.084  1.00  0.00     0.000 A 
HETATM   48  C34 UNL     1      -3.870  -1.583   4.069  1.00  0.00     0.001 A 
HETATM   49  C35 UNL     1      -3.484  -1.010   2.893  1.00  0.00     0.007 A 
ENDBRANCH  43  44
ENDBRANCH  42  43
ENDBRANCH  16  42
ENDBRANCH   5   7
ENDBRANCH   4   5
ENDBRANCH   3   4
TORSDOF 13
