REMARK  11 active torsions:
REMARK  status: ('A' for Active; 'I' for Inactive)
REMARK    1  A    between atoms: C2_3  and  N2_4 
REMARK    2  A    between atoms: N2_4  and  C3_5 
REMARK    3  A    between atoms: N2_4  and  C20_26 
REMARK    4  A    between atoms: C3_5  and  C4_6 
REMARK    5  A    between atoms: C4_6  and  S1_7 
REMARK    6  A    between atoms: S1_7  and  C5_10 
REMARK    7  A    between atoms: C5_10  and  C6_11 
REMARK    8  A    between atoms: C6_11  and  N3_12 
REMARK    9  A    between atoms: C20_26  and  C21_27 
REMARK   10  A    between atoms: N5_39  and  C29_40 
REMARK   11  A    between atoms: C29_40  and  C30_41 
ROOT
HETATM    1  N2  UNL     1      -1.683  -0.733   0.533  1.00  0.00    -0.369 N 
ENDROOT
BRANCH   1   2
HETATM    2  C2  UNL     1      -2.701  -1.016  -0.463  1.00  0.00     0.141 A 
HETATM    3  C1  UNL     1      -4.041  -0.814  -0.242  1.00  0.00     0.155 A 
HETATM    4  N1  UNL     1      -4.484  -0.267   0.993  1.00  0.00    -0.080 NA
HETATM    5  N5  UNL     1      -4.993  -1.109  -1.179  1.00  0.00    -0.281 N 
HETATM    6  C28 UNL     1      -4.580  -1.618  -2.358  1.00  0.00     0.331 A 
HETATM    7  N4  UNL     1      -3.267  -1.820  -2.587  1.00  0.00    -0.273 N 
HETATM    8  O4  UNL     1      -5.426  -1.918  -3.267  1.00  0.00    -0.246 OA
HETATM    9  C27 UNL     1      -2.311  -1.535  -1.678  1.00  0.00     0.279 A 
ATOM     10  H4  UNL     1      -2.983  -2.206  -3.488  1.00  0.00     0.173 HD
HETATM   11  O3  UNL     1      -1.098  -1.729  -1.908  1.00  0.00    -0.265 OA
BRANCH   5  12
HETATM   12  C29 UNL     1      -6.374  -0.901  -0.894  1.00  0.00     0.173 C 
BRANCH  12  13
HETATM   13  C30 UNL     1      -6.939   0.415  -1.132  1.00  0.00    -0.040 A 
HETATM   14  C31 UNL     1      -7.255   1.267  -0.081  1.00  0.00     0.009 A 
HETATM   15  C32 UNL     1      -7.781   2.530  -0.309  1.00  0.00     0.001 A 
HETATM   16  C33 UNL     1      -8.008   2.977  -1.575  1.00  0.00     0.000 A 
HETATM   17  C34 UNL     1      -7.710   2.163  -2.638  1.00  0.00     0.001 A 
HETATM   18  C35 UNL     1      -7.180   0.894  -2.388  1.00  0.00     0.009 A 
ENDBRANCH  12  13
ENDBRANCH   5  12
ENDBRANCH   1   2
BRANCH   1  19
HETATM   19  C3  UNL     1      -1.200   0.612   0.561  1.00  0.00     0.138 C 
BRANCH  19  20
HETATM   20  C4  UNL     1       0.111   0.969   0.027  1.00  0.00     0.160 C 
BRANCH  20  21
HETATM   21  S1  UNL     1       1.565   0.282   0.666  1.00  0.00     0.147 S 
HETATM   22  O1  UNL     1       1.706  -1.195   0.305  1.00  0.00    -0.228 OA
HETATM   23  O2  UNL     1       1.811   0.504   2.118  1.00  0.00    -0.228 OA
BRANCH  21  24
HETATM   24  C5  UNL     1       3.021   1.001  -0.171  1.00  0.00     0.160 C 
BRANCH  24  25
HETATM   25  C6  UNL     1       4.206   0.321   0.476  1.00  0.00     0.144 C 
BRANCH  25  26
HETATM   26  N3  UNL     1       5.477   0.719  -0.031  1.00  0.00    -0.345 N 
HETATM   27  C7  UNL     1       5.875   0.242  -1.338  1.00  0.00     0.041 A 
HETATM   28  C8  UNL     1       5.087  -0.618  -2.084  1.00  0.00     0.030 A 
HETATM   29  C12 UNL     1       7.100   0.688  -1.793  1.00  0.00    -0.027 A 
HETATM   30  C9  UNL     1       5.527  -1.049  -3.324  1.00  0.00     0.002 A 
HETATM   31  C10 UNL     1       6.745  -0.617  -3.798  1.00  0.00     0.001 A 
HETATM   32  C11 UNL     1       7.518   0.238  -3.043  1.00  0.00     0.010 A 
HETATM   33  C13 UNL     1       8.012   1.590  -1.082  1.00  0.00     0.082 A 
HETATM   34  C14 UNL     1       7.513   2.006   0.235  1.00  0.00    -0.027 A 
HETATM   35  C15 UNL     1       8.352   2.863   0.954  1.00  0.00     0.010 A 
HETATM   36  C19 UNL     1       6.290   1.591   0.742  1.00  0.00     0.041 A 
HETATM   37  C16 UNL     1       7.988   3.323   2.193  1.00  0.00     0.001 A 
HETATM   38  C17 UNL     1       6.770   2.901   2.681  1.00  0.00     0.002 A 
HETATM   39  C18 UNL     1       5.935   2.060   1.986  1.00  0.00     0.030 A 
ENDBRANCH  25  26
ENDBRANCH  24  25
ENDBRANCH  21  24
ENDBRANCH  20  21
ENDBRANCH  19  20
ENDBRANCH   1  19
BRANCH   1  40
HETATM   40  C20 UNL     1      -1.168  -1.747   1.386  1.00  0.00     0.161 C 
BRANCH  40  41
HETATM   41  C21 UNL     1      -2.142  -2.432   2.258  1.00  0.00    -0.040 A 
HETATM   42  C22 UNL     1      -2.420  -2.051   3.544  1.00  0.00     0.009 A 
HETATM   43  C23 UNL     1      -3.335  -2.736   4.335  1.00  0.00     0.001 A 
HETATM   44  C24 UNL     1      -3.999  -3.835   3.839  1.00  0.00     0.000 A 
HETATM   45  C25 UNL     1      -3.729  -4.228   2.549  1.00  0.00     0.001 A 
HETATM   46  C26 UNL     1      -2.812  -3.531   1.774  1.00  0.00     0.009 A 
ENDBRANCH  40  41
ENDBRANCH   1  40
TORSDOF 11
