REMARK  9 active torsions:
REMARK  status: ('A' for Active; 'I' for Inactive)
REMARK    1  A    between atoms: C2_2  and  O2_4 
REMARK    2  A    between atoms: O2_4  and  C3_5 
REMARK    3  A    between atoms: C5_7  and  C6_8 
REMARK    4  A    between atoms: C7_9  and  C8_10 
REMARK    5  A    between atoms: C8_10  and  C9_11 
REMARK    6  A    between atoms: C9_11  and  O3_12 
REMARK    7  A    between atoms: C20_26  and  C22_28 
REMARK    8  A    between atoms: C23_29  and  C24_30 
REMARK    9  A    between atoms: C24_30  and  N1_31 
ROOT
HETATM    1  C9  UNL     1       1.885  -0.437  -0.578  1.00  0.00     0.176 C 
HETATM    2  O4  UNL     1       1.138  -0.365   0.571  1.00  0.00    -0.342 OA
HETATM    3  C10 UNL     1       0.133  -1.174   0.044  1.00  0.00     0.078 C 
HETATM    4  C11 UNL     1       0.246  -2.597   0.533  1.00  0.00     0.047 C 
HETATM    5  C12 UNL     1      -1.216  -0.548   0.177  1.00  0.00     0.033 C 
HETATM    6  C13 UNL     1      -1.792  -0.724   1.549  1.00  0.00     0.087 C 
HETATM    7  C14 UNL     1      -3.270  -0.543   1.595  1.00  0.00     0.138 C 
HETATM    8  O5  UNL     1      -3.771   0.089   2.492  1.00  0.00    -0.297 OA
HETATM    9  C15 UNL     1      -4.025  -1.158   0.525  1.00  0.00     0.046 C 
HETATM   10  C16 UNL     1      -3.849  -2.656   0.404  1.00  0.00     0.026 C 
HETATM   11  C17 UNL     1      -3.480  -0.557  -0.787  1.00  0.00     0.030 C 
HETATM   12  C18 UNL     1      -4.469  -1.091  -1.727  1.00  0.00    -0.023 C 
HETATM   13  C19 UNL     1      -5.642  -1.220  -1.076  1.00  0.00    -0.007 C 
HETATM   14  C20 UNL     1      -5.452  -0.761   0.357  1.00  0.00     0.052 C 
HETATM   15  C21 UNL     1      -6.400  -1.453   1.284  1.00  0.00     0.035 C 
HETATM   16  C25 UNL     1      -2.088  -1.061  -0.933  1.00  0.00     0.002 C 
HETATM   17  C26 UNL     1      -1.530  -0.511  -2.232  1.00  0.00     0.007 C 
HETATM   18  C27 UNL     1      -0.132   0.047  -2.072  1.00  0.00     0.018 C 
HETATM   19  C28 UNL     1       0.696  -0.937  -1.317  1.00  0.00     0.044 C 
HETATM   20  C29 UNL     1       1.020  -2.163  -2.128  1.00  0.00     0.024 C 
ENDROOT
BRANCH   1  21
HETATM   21  C8  UNL     1       2.499   0.855  -1.059  1.00  0.00     0.096 C 
BRANCH  21  22
HETATM   22  C7  UNL     1       3.513   1.253  -0.034  1.00  0.00    -0.021 C 
HETATM   23  C6  UNL     1       4.777   1.393  -0.330  1.00  0.00    -0.001 C 
BRANCH  23  24
HETATM   24  C5  UNL     1       5.737   1.778   0.673  1.00  0.00     0.032 C 
HETATM   25  C3  UNL     1       7.026   1.933   0.429  1.00  0.00     0.052 C 
HETATM   26  C4  UNL     1       7.552   1.708  -0.946  1.00  0.00     0.077 C 
BRANCH  25  27
HETATM   27  O2  UNL     1       7.932   2.304   1.410  1.00  0.00    -0.284 OA
BRANCH  27  28
HETATM   28  C2  UNL     1       8.618   1.415   2.208  1.00  0.00     0.259 C 
HETATM   29  C1  UNL     1       9.590   1.872   3.258  1.00  0.00     0.126 C 
HETATM   30  O1  UNL     1       8.419   0.191   2.045  1.00  0.00    -0.265 OA
ENDBRANCH  27  28
ENDBRANCH  25  27
ENDBRANCH  23  24
ENDBRANCH  21  22
ENDBRANCH   1  21
BRANCH   1  31
HETATM   31  O3  UNL     1       2.890  -1.402  -0.462  1.00  0.00    -0.364 OA
ATOM     32  H3  UNL     1       2.503  -2.215  -0.159  1.00  0.00     0.213 HD
ENDBRANCH   1  31
BRANCH  14  33
HETATM   33  C22 UNL     1      -5.542   0.699   0.446  1.00  0.00    -0.090 C 
HETATM   34  C23 UNL     1      -5.635   1.901   0.525  1.00  0.00    -0.078 C 
BRANCH  34  35
HETATM   35  C24 UNL     1      -5.746   3.363   0.597  1.00  0.00     0.323 C 
BRANCH  35  36
HETATM   36  N1  UNL     1      -7.118   3.691   0.881  1.00  0.00    -0.069 N 
ATOM     37  H13 UNL     1      -7.769   3.278   0.213  1.00  0.00     0.275 HD
ATOM     38  H12 UNL     1      -7.470   3.227   1.718  1.00  0.00     0.275 HD
ATOM     39  H11 UNL     1      -7.195   4.707   0.931  1.00  0.00     0.275 HD
ENDBRANCH  35  36
ENDBRANCH  34  35
ENDBRANCH  14  33
TORSDOF 9
