REMARK  6 active torsions:
REMARK  status: ('A' for Active; 'I' for Inactive)
REMARK    1  A    between atoms: C2_2  and  O1_3 
REMARK    2  A    between atoms: C2_2  and  C3_5 
REMARK    3  A    between atoms: C2_2  and  C7_11 
REMARK    4  A    between atoms: C10_14  and  C11_15 
REMARK    5  A    between atoms: C22_27  and  O5_28 
REMARK    6  A    between atoms: C26_33  and  C28_35 
ROOT
HETATM    1  C7  UNL     1      -3.076   0.167  -0.214  1.00  0.00     0.036 C 
HETATM    2  C8  UNL     1      -2.699   1.110  -1.379  1.00  0.00     0.009 C 
HETATM    3  C9  UNL     1      -1.566   0.183  -1.888  1.00  0.00     0.007 C 
HETATM    4  C10 UNL     1      -0.662   0.226  -0.615  1.00  0.00     0.006 C 
HETATM    5  C26 UNL     1      -1.720   0.022   0.446  1.00  0.00     0.020 C 
HETATM    6  C27 UNL     1      -1.725  -1.306   1.111  1.00  0.00     0.023 C 
ENDROOT
BRANCH   4   7
HETATM    7  C11 UNL     1       0.389  -0.824  -0.729  1.00  0.00    -0.001 C 
HETATM    8  C12 UNL     1       0.959  -0.809  -2.183  1.00  0.00     0.006 C 
HETATM    9  C13 UNL     1       2.479  -0.853  -2.025  1.00  0.00     0.006 C 
HETATM   10  C14 UNL     1       2.534   0.094  -0.839  1.00  0.00     0.003 C 
HETATM   11  C15 UNL     1       3.859   0.455  -0.371  1.00  0.00    -0.033 C 
HETATM   12  C24 UNL     1       1.626  -0.713   0.071  1.00  0.00    -0.033 C 
HETATM   13  C16 UNL     1       4.074   1.945  -0.756  1.00  0.00     0.016 C 
HETATM   14  C17 UNL     1       4.943  -0.218  -1.231  1.00  0.00     0.017 C 
HETATM   15  C21 UNL     1       4.152   0.376   1.084  1.00  0.00     0.030 C 
HETATM   16  C18 UNL     1       6.325   0.343  -0.911  1.00  0.00     0.079 C 
HETATM   17  C19 UNL     1       6.562   0.137   0.539  1.00  0.00     0.127 C 
HETATM   18  O4  UNL     1       7.638   0.379   1.012  1.00  0.00    -0.298 OA
HETATM   19  C20 UNL     1       5.457  -0.364   1.354  1.00  0.00     0.086 C 
HETATM   20  C22 UNL     1       3.110  -0.279   1.922  1.00  0.00     0.124 C 
HETATM   21  C23 UNL     1       1.687  -0.027   1.360  1.00  0.00     0.042 C 
HETATM   22  C25 UNL     1       2.139  -2.138   0.226  1.00  0.00     0.016 C 
BRANCH  20  23
HETATM   23  O5  UNL     1       3.072   0.260   3.211  1.00  0.00    -0.395 OA
ATOM     24  H5  UNL     1       2.407  -0.158   3.746  1.00  0.00     0.210 HD
ENDBRANCH  20  23
ENDBRANCH   4   7
BRANCH   5  25
HETATM   25  C28 UNL     1      -1.515   1.093   1.466  1.00  0.00     0.241 C 
HETATM   26  O6  UNL     1      -1.493   0.915   2.669  1.00  0.00    -0.306 OA
ENDBRANCH   5  25
BRANCH   1  27
HETATM   27  C2  UNL     1      -4.179   0.715   0.580  1.00  0.00     0.071 C 
HETATM   28  C1  UNL     1      -4.604  -0.195   1.689  1.00  0.00     0.047 C 
BRANCH  27  29
HETATM   29  O1  UNL     1      -3.898   1.950   1.175  1.00  0.00    -0.389 OA
ATOM     30  H1  UNL     1      -3.628   2.528   0.471  1.00  0.00     0.210 HD
ENDBRANCH  27  29
BRANCH  27  31
HETATM   31  C3  UNL     1      -5.390   0.980  -0.311  1.00  0.00     0.122 C 
HETATM   32  C4  UNL     1      -5.967  -0.247  -0.917  1.00  0.00     0.044 C 
HETATM   33  C5  UNL     1      -7.438  -0.278  -0.567  1.00  0.00     0.179 C 
HETATM   34  O2  UNL     1      -7.594   0.672   0.466  1.00  0.00    -0.321 OA
HETATM   35  C6  UNL     1      -6.474   1.498   0.550  1.00  0.00     0.266 C 
HETATM   36  O3  UNL     1      -6.400   2.540   1.262  1.00  0.00    -0.265 OA
ENDBRANCH  27  31
ENDBRANCH   1  27
TORSDOF 6
