REMARK  6 active torsions:
REMARK  status: ('A' for Active; 'I' for Inactive)
REMARK    1  A    between atoms: C2_2  and  C3_3 
REMARK    2  A    between atoms: C3_3  and  O2_5 
REMARK    3  A    between atoms: O2_5  and  C4_6 
REMARK    4  A    between atoms: C4_6  and  C5_7 
REMARK    5  A    between atoms: C19_22  and  O4_23 
REMARK    6  A    between atoms: C24_29  and  O5_30 
ROOT
HETATM    1  C5  UNL     1       3.937  -0.177  -0.913  1.00  0.00     0.081 C 
HETATM    2  C6  UNL     1       4.811  -1.373  -1.266  1.00  0.00     0.048 C 
HETATM    3  C7  UNL     1       2.706  -0.135  -1.803  1.00  0.00     0.048 C 
HETATM    4  C8  UNL     1       1.666  -0.839  -1.035  1.00  0.00     0.032 C 
HETATM    5  C9  UNL     1       0.579  -0.011  -0.394  1.00  0.00    -0.030 C 
HETATM    6  C10 UNL     1       0.800   1.458  -0.804  1.00  0.00     0.016 C 
HETATM    7  C11 UNL     1      -0.751  -0.431  -0.885  1.00  0.00     0.020 C 
HETATM    8  C12 UNL     1      -1.891  -0.221   0.101  1.00  0.00     0.027 C 
HETATM    9  C13 UNL     1      -1.877  -1.389   0.984  1.00  0.00    -0.043 C 
HETATM   10  C14 UNL     1      -2.954  -1.929   1.460  1.00  0.00     0.056 C 
HETATM   11  C15 UNL     1      -4.230  -1.370   1.115  1.00  0.00     0.155 C 
HETATM   12  O3  UNL     1      -5.268  -1.676   1.783  1.00  0.00    -0.293 OA
HETATM   13  C16 UNL     1      -4.418  -0.426  -0.010  1.00  0.00     0.074 C 
HETATM   14  C17 UNL     1      -5.489   0.546   0.417  1.00  0.00     0.022 C 
HETATM   15  C18 UNL     1      -5.250   1.155   1.759  1.00  0.00     0.013 C 
HETATM   16  C19 UNL     1      -5.729   1.634  -0.602  1.00  0.00     0.122 C 
HETATM   17  C20 UNL     1      -4.447   2.298  -1.037  1.00  0.00     0.033 C 
HETATM   18  C21 UNL     1      -3.226   1.734  -0.404  1.00  0.00     0.013 C 
HETATM   19  C22 UNL     1      -3.169   0.197  -0.504  1.00  0.00    -0.025 C 
HETATM   20  C23 UNL     1      -3.121  -0.031  -2.025  1.00  0.00     0.016 C 
HETATM   21  C24 UNL     1      -0.676  -2.107   1.460  1.00  0.00     0.148 C 
HETATM   22  C25 UNL     1       0.294  -1.069   1.912  1.00  0.00     0.044 C 
HETATM   23  C26 UNL     1       1.074  -0.336   0.920  1.00  0.00     0.032 C 
HETATM   24  C27 UNL     1       2.272  -1.041   0.314  1.00  0.00     0.067 C 
HETATM   25  C28 UNL     1       2.461  -2.472   0.634  1.00  0.00     0.047 C 
HETATM   26  O6  UNL     1       3.470  -0.349   0.345  1.00  0.00    -0.367 OA
ENDROOT
BRANCH   1  27
HETATM   27  C4  UNL     1       4.799   1.038  -1.124  1.00  0.00     0.216 C 
BRANCH  27  28
HETATM   28  O2  UNL     1       5.967   1.098  -0.395  1.00  0.00    -0.315 OA
BRANCH  28  29
HETATM   29  C3  UNL     1       6.209   1.193   0.943  1.00  0.00     0.282 C 
HETATM   30  O1  UNL     1       5.213   1.250   1.709  1.00  0.00    -0.260 OA
BRANCH  29  31
HETATM   31  C2  UNL     1       7.578   1.231   1.494  1.00  0.00     0.072 C 
HETATM   32  C1  UNL     1       8.612   1.173   0.699  1.00  0.00     0.017 C 
ENDBRANCH  29  31
ENDBRANCH  28  29
ENDBRANCH  27  28
ENDBRANCH   1  27
BRANCH  21  33
HETATM   33  O5  UNL     1      -1.032  -2.871   2.565  1.00  0.00    -0.391 OA
ATOM     34  H5  UNL     1      -0.260  -3.333   2.871  1.00  0.00     0.210 HD
ENDBRANCH  21  33
BRANCH  16  35
HETATM   35  O4  UNL     1      -6.636   2.531  -0.037  1.00  0.00    -0.395 OA
ATOM     36  H4  UNL     1      -6.787   3.216  -0.678  1.00  0.00     0.210 HD
ENDBRANCH  16  35
TORSDOF 6
