REMARK  8 active torsions:
REMARK  status: ('A' for Active; 'I' for Inactive)
REMARK    1  A    between atoms: S1_2  and  C2_5 
REMARK    2  A    between atoms: C5_10  and  C6_11 
REMARK    3  A    between atoms: C6_11  and  N1_12 
REMARK    4  A    between atoms: N1_12  and  N2_14 
REMARK    5  A    between atoms: N2_14  and  C7_16 
REMARK    6  A    between atoms: C7_16  and  N3_18 
REMARK       I    between atoms: N3_18  and  C8_20 
REMARK    7  A    between atoms: C8_20  and  C9_22 
REMARK    8  A    between atoms: C11_24  and  C12_25 
ROOT
HETATM    1  C7  UNL     1      -0.650  -1.023   0.714  1.00  0.00     0.193 C 
HETATM    2  S3  UNL     1      -2.022  -0.505   1.530  1.00  0.00    -0.039 SA
ENDROOT
BRANCH   1   3
HETATM    3  N2  UNL     1      -0.757  -1.006  -0.682  1.00  0.00    -0.276 N 
ATOM      4  H2  UNL     1       0.052  -1.314  -1.221  1.00  0.00     0.189 HD
BRANCH   3   5
HETATM    5  N1  UNL     1      -1.865  -0.608  -1.376  1.00  0.00    -0.309 N 
ATOM      6  H1  UNL     1      -2.629  -1.275  -1.268  1.00  0.00     0.186 HD
BRANCH   5   7
HETATM    7  C6  UNL     1      -2.196   0.341  -2.100  1.00  0.00     0.120 C 
BRANCH   7   8
HETATM    8  C5  UNL     1      -1.383   1.523  -2.509  1.00  0.00     0.011 A 
HETATM    9  C2  UNL     1      -1.892   2.498  -3.342  1.00  0.00     0.112 A 
HETATM   10  S2  UNL     1      -0.615   3.620  -3.470  1.00  0.00    -0.065 SA
HETATM   11  C3  UNL     1       0.528   2.851  -2.484  1.00  0.00     0.076 A 
HETATM   12 CL1  UNL     1       2.182   3.358  -2.062  1.00  0.00    -0.076 Cl
HETATM   13  C4  UNL     1      -0.118   1.720  -2.068  1.00  0.00     0.046 A 
BRANCH   9  14
HETATM   14  S1  UNL     1      -3.497   2.584  -4.099  1.00  0.00     0.179 S 
HETATM   15  C1  UNL     1      -4.653   3.311  -3.002  1.00  0.00     0.167 C 
HETATM   16  O1  UNL     1      -3.313   3.535  -5.270  1.00  0.00    -0.222 OA
HETATM   17  O2  UNL     1      -3.888   1.240  -4.539  1.00  0.00    -0.222 OA
ENDBRANCH   9  14
ENDBRANCH   7   8
ENDBRANCH   5   7
ENDBRANCH   3   5
ENDBRANCH   1   3
BRANCH   1  18
HETATM   18  N3  UNL     1       0.425  -1.408   1.483  1.00  0.00    -0.297 N 
HETATM   19  C8  UNL     1       1.671  -1.873   1.052  1.00  0.00     0.275 C 
HETATM   20  O3  UNL     1       1.908  -1.978  -0.184  1.00  0.00    -0.266 OA
ATOM     21  H3  UNL     1       0.296  -1.346   2.493  1.00  0.00     0.171 HD
BRANCH  19  22
HETATM   22  C9  UNL     1       2.761  -2.262   1.986  1.00  0.00     0.119 A 
HETATM   23  C10 UNL     1       2.568  -2.172   3.323  1.00  0.00     0.069 A 
HETATM   24  C11 UNL     1       3.611  -2.546   4.181  1.00  0.00     0.093 A 
HETATM   25  N4  UNL     1       4.751  -2.976   3.628  1.00  0.00    -0.285 N 
HETATM   26  N5  UNL     1       4.894  -3.048   2.319  1.00  0.00    -0.242 N 
ATOM     27  H4  UNL     1       5.525  -3.254   4.231  1.00  0.00     0.188 HD
HETATM   28  N6  UNL     1       3.923  -2.700   1.503  1.00  0.00    -0.281 N 
ATOM     29  H5  UNL     1       5.777  -3.381   1.931  1.00  0.00     0.208 HD
ATOM     30  H6  UNL     1       4.060  -2.766   0.494  1.00  0.00     0.188 HD
BRANCH  24  31
HETATM   31  C12 UNL     1       3.423  -2.457   5.669  1.00  0.00     0.404 C 
HETATM   32  F1  UNL     1       3.166  -1.126   5.996  1.00  0.00    -0.207 F 
HETATM   33  F2  UNL     1       2.319  -3.216   6.039  1.00  0.00    -0.207 F 
ENDBRANCH  24  31
ENDBRANCH  19  22
ENDBRANCH   1  18
TORSDOF 8
