REMARK  7 active torsions:
REMARK  status: ('A' for Active; 'I' for Inactive)
REMARK    1  A    between atoms: C2_2  and  N1_4 
REMARK    2  A    between atoms: N1_4  and  C5_6 
REMARK    3  A    between atoms: C5_6  and  O1_7 
REMARK    4  A    between atoms: C5_6  and  C6_9 
REMARK    5  A    between atoms: N2_15  and  S2_16 
REMARK    6  A    between atoms: S2_16  and  C9_19 
REMARK    7  A    between atoms: C15_29  and  O6_30 
ROOT
HETATM    1  C6  UNL     1      -0.851  -0.021  -0.415  1.00  0.00     0.097 A 
HETATM    2  S1  UNL     1      -0.830  -0.709  -1.977  1.00  0.00    -0.038 SA
HETATM    3  C7  UNL     1       0.642  -1.510  -2.299  1.00  0.00     0.282 A 
HETATM    4  O2  UNL     1       0.881  -2.092  -3.391  1.00  0.00    -0.274 OA
HETATM    5  C8  UNL     1       1.545  -1.466  -1.262  1.00  0.00     0.321 A 
HETATM    6  O3  UNL     1       2.649  -2.073  -1.519  1.00  0.00    -0.262 OA
HETATM    7  N2  UNL     1       1.362  -0.870  -0.078  1.00  0.00    -0.174 N 
HETATM    8  C15 UNL     1       0.288  -0.206   0.338  1.00  0.00     0.178 A 
ENDROOT
BRANCH   7   9
HETATM    9  S2  UNL     1       2.706  -0.982   1.035  1.00  0.00     0.277 S 
HETATM   10  O4  UNL     1       3.018  -2.422   1.325  1.00  0.00    -0.199 OA
HETATM   11  O5  UNL     1       2.392  -0.336   2.343  1.00  0.00    -0.199 OA
BRANCH   9  12
HETATM   12  C9  UNL     1       4.118  -0.223   0.393  1.00  0.00     0.125 A 
HETATM   13  C10 UNL     1       5.248  -0.963   0.202  1.00  0.00     0.074 A 
HETATM   14  C11 UNL     1       6.427  -0.446  -0.306  1.00  0.00     0.159 A 
HETATM   15  F1  UNL     1       7.523  -1.246  -0.472  1.00  0.00    -0.203 F 
HETATM   16  C12 UNL     1       6.474   0.879  -0.639  1.00  0.00     0.196 A 
HETATM   17  F2  UNL     1       7.614   1.404  -1.136  1.00  0.00    -0.199 F 
HETATM   18  C13 UNL     1       5.338   1.648  -0.452  1.00  0.00     0.198 A 
HETATM   19  F3  UNL     1       5.387   2.962  -0.783  1.00  0.00    -0.199 F 
HETATM   20  C14 UNL     1       4.171   1.117   0.055  1.00  0.00     0.181 A 
HETATM   21  F4  UNL     1       3.049   1.840   0.249  1.00  0.00    -0.201 F 
ENDBRANCH   9  12
ENDBRANCH   7   9
BRANCH   8  22
HETATM   22  O6  UNL     1       0.267   0.358   1.619  1.00  0.00    -0.344 OA
ATOM     23  H6  UNL     1       1.052   0.230   2.138  1.00  0.00     0.219 HD
ENDBRANCH   8  22
BRANCH   1  24
HETATM   24  C5  UNL     1      -2.011   0.737   0.106  1.00  0.00     0.402 C 
BRANCH  24  25
HETATM   25  N1  UNL     1      -3.193  -0.022  -0.207  1.00  0.00     0.121 N 
HETATM   26  C4  UNL     1      -3.170  -1.354   0.323  1.00  0.00     0.314 C 
BRANCH  25  27
HETATM   27  C2  UNL     1      -4.420   0.665   0.084  1.00  0.00     0.218 C 
HETATM   28  C1  UNL     1      -5.535  -0.129  -0.609  1.00  0.00     0.042 C 
HETATM   29  C3  UNL     1      -4.475   2.052  -0.453  1.00  0.00     0.042 C 
ENDBRANCH  25  27
ENDBRANCH  24  25
BRANCH  24  30
HETATM   30  O1  UNL     1      -1.882   1.082   1.422  1.00  0.00    -0.364 OA
ATOM     31  H1  UNL     1      -1.102   1.583   1.629  1.00  0.00     0.212 HD
ENDBRANCH  24  30
ENDBRANCH   1  24
TORSDOF 7
