REMARK  8 active torsions:
REMARK  status: ('A' for Active; 'I' for Inactive)
REMARK    1  A    between atoms: O1_2  and  S1_3 
REMARK    2  A    between atoms: S1_3  and  N1_6 
REMARK    3  A    between atoms: N1_6  and  C2_8 
REMARK    4  A    between atoms: C3_13  and  S2_14 
REMARK    5  A    between atoms: S2_14  and  C4_15 
REMARK    6  A    between atoms: C4_15  and  C5_16 
REMARK    7  A    between atoms: C5_16  and  C6_18 
REMARK    8  A    between atoms: C12_29  and  N5_30 
ROOT
HETATM    1  C2  UNL     1       2.836   0.677  -0.258  1.00  0.00     0.177 A 
HETATM    2  N2  UNL     1       2.130  -0.029  -1.148  1.00  0.00    -0.280 N 
ATOM      3  H2  UNL     1       2.501  -0.924  -1.466  1.00  0.00     0.188 HD
HETATM    4  N3  UNL     1       0.953   0.392  -1.640  1.00  0.00    -0.277 N 
ATOM      5  H3  UNL     1       0.467  -0.195  -2.318  1.00  0.00     0.189 HD
HETATM    6  C3  UNL     1       0.394   1.549  -1.277  1.00  0.00     0.178 A 
HETATM    7  N4  UNL     1       1.075   2.283  -0.383  1.00  0.00    -0.212 N 
HETATM    8 CL2  UNL     1       0.359   3.794   0.105  1.00  0.00     0.022 Cl
HETATM    9  C12 UNL     1       2.243   1.910   0.132  1.00  0.00     0.165 A 
ENDROOT
BRANCH   6  10
HETATM   10  S2  UNL     1      -1.167   2.126  -1.903  1.00  0.00    -0.083 SA
BRANCH  10  11
HETATM   11  C4  UNL     1      -2.571   1.631  -0.907  1.00  0.00     0.166 C 
BRANCH  11  12
HETATM   12  C5  UNL     1      -2.846   0.201  -0.896  1.00  0.00     0.171 C 
HETATM   13  O4  UNL     1      -2.156  -0.607  -1.526  1.00  0.00    -0.291 OA
BRANCH  12  14
HETATM   14  C6  UNL     1      -3.987  -0.272  -0.103  1.00  0.00     0.035 A 
HETATM   15  C7  UNL     1      -5.249   0.306  -0.276  1.00  0.00     0.020 A 
HETATM   16  C8  UNL     1      -6.345  -0.104   0.453  1.00  0.00     0.046 A 
HETATM   17  C9  UNL     1      -6.219  -1.111   1.384  1.00  0.00     0.156 A 
HETATM   18  F1  UNL     1      -7.331  -1.474   2.067  1.00  0.00    -0.203 F 
HETATM   19  C10 UNL     1      -4.974  -1.695   1.567  1.00  0.00     0.177 A 
HETATM   20  F2  UNL     1      -4.855  -2.686   2.481  1.00  0.00    -0.201 F 
HETATM   21  C11 UNL     1      -3.887  -1.276   0.833  1.00  0.00     0.089 A 
HETATM   22 CL1  UNL     1      -2.297  -1.988   1.033  1.00  0.00    -0.080 Cl
ENDBRANCH  12  14
ENDBRANCH  11  12
ENDBRANCH  10  11
ENDBRANCH   6  10
BRANCH   9  23
HETATM   23  N5  UNL     1       2.886   2.624   1.005  1.00  0.00    -0.381 N 
ATOM     24  H52 UNL     1       3.782   2.338   1.400  1.00  0.00     0.157 HD
ATOM     25  H51 UNL     1       2.461   3.508   1.285  1.00  0.00     0.157 HD
ENDBRANCH   9  23
BRANCH   1  26
HETATM   26  N1  UNL     1       3.962   0.384   0.246  1.00  0.00    -0.243 N 
ATOM     27  H1  UNL     1       4.347   1.050   0.916  1.00  0.00     0.182 HD
BRANCH  26  28
HETATM   28  S1  UNL     1       4.887  -0.979  -0.068  1.00  0.00     0.362 S 
HETATM   29  O2  UNL     1       4.784  -1.373  -1.509  1.00  0.00    -0.175 OA
HETATM   30  O3  UNL     1       4.420  -2.085   0.867  1.00  0.00    -0.175 OA
BRANCH  28  31
HETATM   31  O1  UNL     1       6.546  -0.693   0.204  1.00  0.00    -0.264 OA
HETATM   32  C1  UNL     1       7.089  -1.896   0.618  1.00  0.00     0.227 C 
ENDBRANCH  28  31
ENDBRANCH  26  28
ENDBRANCH   1  26
TORSDOF 8
