REMARK  7 active torsions:
REMARK  status: ('A' for Active; 'I' for Inactive)
REMARK    1  A    between atoms: O1_2  and  N1_3 
REMARK    2  A    between atoms: C2_5  and  O2_6 
REMARK    3  A    between atoms: C2_5  and  C3_8 
REMARK    4  A    between atoms: C3_8  and  O3_10 
REMARK    5  A    between atoms: O3_10  and  C4_11 
REMARK    6  A    between atoms: C6_13  and  O4_14 
REMARK    7  A    between atoms: C8_16  and  C9_17 
ROOT
HETATM    1  C4  UNL     1       2.561  -0.701   0.539  1.00  0.00     0.117 A 
HETATM    2  C5  UNL     1       1.691  -1.584  -0.140  1.00  0.00     0.078 A 
HETATM    3  C6  UNL     1       0.351  -1.355  -0.281  1.00  0.00     0.086 A 
HETATM    4  C8  UNL     1      -0.178  -0.199   0.271  1.00  0.00     0.066 A 
HETATM    5  C17 UNL     1       0.648   0.675   0.936  1.00  0.00     0.172 A 
HETATM    6  F2  UNL     1       0.226   1.849   1.500  1.00  0.00    -0.202 F 
HETATM    7  C18 UNL     1       2.018   0.432   1.076  1.00  0.00     0.189 A 
HETATM    8  F3  UNL     1       2.754   1.373   1.762  1.00  0.00    -0.200 F 
ENDROOT
BRANCH   4   9
HETATM    9  C9  UNL     1      -1.613   0.105   0.109  1.00  0.00     0.051 A 
HETATM   10  C10 UNL     1      -2.344   1.072   0.769  1.00  0.00     0.062 A 
HETATM   11  C11 UNL     1      -3.684   1.008   0.357  1.00  0.00     0.073 A 
HETATM   12  C12 UNL     1      -3.754   0.006  -0.545  1.00  0.00     0.129 A 
HETATM   13  N4  UNL     1      -4.793   1.692   0.668  1.00  0.00    -0.301 N 
HETATM   14  N2  UNL     1      -2.502  -0.519  -0.677  1.00  0.00    -0.349 N 
HETATM   15  C13 UNL     1      -4.982  -0.281  -1.123  1.00  0.00     0.280 A 
ATOM     16  H2  UNL     1      -2.270  -1.293  -1.299  1.00  0.00     0.166 HD
HETATM   17  O5  UNL     1      -5.074  -1.200  -1.959  1.00  0.00    -0.265 OA
HETATM   18  N3  UNL     1      -6.093   0.403  -0.813  1.00  0.00    -0.269 N 
HETATM   19  C14 UNL     1      -7.384   0.112  -1.412  1.00  0.00     0.164 C 
HETATM   20  C15 UNL     1      -5.991   1.395   0.089  1.00  0.00     0.331 A 
HETATM   21  O6  UNL     1      -7.039   2.042   0.383  1.00  0.00    -0.246 OA
HETATM   22  C16 UNL     1      -4.687   2.760   1.639  1.00  0.00     0.161 C 
ENDBRANCH   4   9
BRANCH   3  23
HETATM   23  O4  UNL     1      -0.434  -2.296  -0.973  1.00  0.00    -0.355 OA
HETATM   24  C7  UNL     1       0.214  -3.433  -1.490  1.00  0.00     0.210 C 
ENDBRANCH   3  23
BRANCH   1  25
HETATM   25  O3  UNL     1       3.872  -1.030   0.618  1.00  0.00    -0.305 OA
BRANCH  25  26
HETATM   26  C3  UNL     1       4.986  -0.494   1.149  1.00  0.00     0.389 C 
HETATM   27  F1  UNL     1       5.640  -1.368   2.050  1.00  0.00    -0.210 F 
BRANCH  26  28
HETATM   28  C2  UNL     1       6.067  -0.245   0.108  1.00  0.00     0.197 C 
HETATM   29  N1  UNL     1       6.428   0.972  -0.066  1.00  0.00    -0.245 N 
ATOM     30  H1  UNL     1       5.971   1.687   0.500  1.00  0.00     0.196 HD
BRANCH  29  31
HETATM   31  O1  UNL     1       7.373   1.377  -0.947  1.00  0.00    -0.283 OA
HETATM   32  C1  UNL     1       8.764   1.169  -0.734  1.00  0.00     0.237 C 
ENDBRANCH  29  31
BRANCH  28  33
HETATM   33  O2  UNL     1       6.632  -1.262  -0.611  1.00  0.00    -0.344 OA
ATOM     34  H2  UNL     1       6.364  -2.164  -0.482  1.00  0.00     0.219 HD
ENDBRANCH  28  33
ENDBRANCH  26  28
ENDBRANCH  25  26
ENDBRANCH   1  25
TORSDOF 7
