REMARK  9 active torsions:
REMARK  status: ('A' for Active; 'I' for Inactive)
REMARK    1  A    between atoms: O1_2  and  C2_3 
REMARK    2  A    between atoms: C2_3  and  O3_5 
REMARK    3  A    between atoms: O3_5  and  C3_6 
REMARK    4  A    between atoms: C4_7  and  C5_8 
REMARK    5  A    between atoms: C5_8  and  O4_9 
REMARK    6  A    between atoms: C5_8  and  C6_11 
REMARK    7  A    between atoms: C6_11  and  O5_12 
REMARK    8  A    between atoms: O5_12  and  C7_13 
REMARK    9  A    between atoms: C15_27  and  O8_28 
ROOT
HETATM    1  C3  UNL     1      -1.397   0.855   0.878  1.00  0.00     0.201 C 
HETATM    2  C4  UNL     1      -0.180   0.764  -0.016  1.00  0.00     0.223 C 
HETATM    3  O6  UNL     1      -0.523  -0.098  -1.072  1.00  0.00    -0.229 OA
HETATM    4  O7  UNL     1      -1.692   0.316  -1.546  1.00  0.00    -0.224 OA
HETATM    5  C13 UNL     1      -2.671  -0.332  -0.827  1.00  0.00     0.149 C 
HETATM    6  C14 UNL     1      -4.043   0.255  -1.014  1.00  0.00     0.055 C 
HETATM    7  C15 UNL     1      -2.757  -1.804  -1.169  1.00  0.00     0.186 C 
HETATM    8  C16 UNL     1      -2.062  -2.500  -0.028  1.00  0.00     0.150 C 
HETATM    9  C17 UNL     1      -3.132  -3.241   0.760  1.00  0.00     0.042 C 
HETATM   10  O9  UNL     1      -1.461  -1.509   0.744  1.00  0.00    -0.372 OA
HETATM   11  C18 UNL     1      -2.240  -0.375   0.619  1.00  0.00     0.194 C 
ENDROOT
BRANCH   2  12
HETATM   12  C5  UNL     1       1.026   0.246   0.733  1.00  0.00     0.177 C 
BRANCH  12  13
HETATM   13  O4  UNL     1       1.302   1.150   1.757  1.00  0.00    -0.391 OA
ATOM     14  H4  UNL     1       2.060   0.824   2.228  1.00  0.00     0.210 HD
ENDBRANCH  12  13
BRANCH  12  15
HETATM   15  C6  UNL     1       2.213   0.051  -0.184  1.00  0.00     0.210 C 
BRANCH  15  16
HETATM   16  O5  UNL     1       3.276  -0.441   0.594  1.00  0.00    -0.343 OA
BRANCH  16  17
HETATM   17  C7  UNL     1       4.529  -0.740   0.103  1.00  0.00     0.152 A 
HETATM   18  C8  UNL     1       4.909  -1.961  -0.387  1.00  0.00     0.191 A 
HETATM   19  F1  UNL     1       4.003  -2.956  -0.397  1.00  0.00    -0.200 F 
HETATM   20  C9  UNL     1       6.177  -2.200  -0.865  1.00  0.00     0.160 A 
HETATM   21  F2  UNL     1       6.520  -3.433  -1.346  1.00  0.00    -0.203 F 
HETATM   22  C10 UNL     1       7.119  -1.173  -0.857  1.00  0.00     0.091 A 
HETATM   23  C11 UNL     1       6.748   0.061  -0.366  1.00  0.00     0.160 A 
HETATM   24  F3  UNL     1       7.680   1.049  -0.367  1.00  0.00    -0.203 F 
HETATM   25  C12 UNL     1       5.470   0.278   0.108  1.00  0.00     0.191 A 
HETATM   26  F4  UNL     1       5.168   1.526   0.581  1.00  0.00    -0.200 F 
ENDBRANCH  16  17
ENDBRANCH  15  16
ENDBRANCH  12  15
ENDBRANCH   2  12
BRANCH   1  27
HETATM   27  O3  UNL     1      -2.094   2.036   0.493  1.00  0.00    -0.287 OA
BRANCH  27  28
HETATM   28  C2  UNL     1      -2.327   3.008   1.449  1.00  0.00     0.406 C 
HETATM   29  O2  UNL     1      -1.918   2.814   2.613  1.00  0.00    -0.229 OA
BRANCH  28  30
HETATM   30  O1  UNL     1      -3.006   4.202   1.155  1.00  0.00    -0.303 OA
HETATM   31  C1  UNL     1      -3.220   5.177   2.187  1.00  0.00     0.215 C 
ENDBRANCH  28  30
ENDBRANCH  27  28
ENDBRANCH   1  27
BRANCH   7  32
HETATM   32  O8  UNL     1      -2.106  -2.033  -2.391  1.00  0.00    -0.390 OA
ATOM     33  H8  UNL     1      -2.160  -2.957  -2.606  1.00  0.00     0.210 HD
ENDBRANCH   7  32
TORSDOF 9
