REMARK  7 active torsions:
REMARK  status: ('A' for Active; 'I' for Inactive)
REMARK    1  A    between atoms: O1_2  and  C2_3 
REMARK    2  A    between atoms: C2_3  and  C3_5 
REMARK    3  A    between atoms: C4_6  and  C5_7 
REMARK       I    between atoms: C5_7  and  N1_9 
REMARK       I    between atoms: N1_9  and  C6_11 
REMARK    4  A    between atoms: N5_18  and  C7_19 
REMARK    5  A    between atoms: C7_19  and  C13_29 
REMARK    6  A    between atoms: N6_20  and  O5_22 
REMARK    7  A    between atoms: O5_22  and  C8_23 
ROOT
HETATM    1  C3  UNL     1       0.961  -0.820   0.879  1.00  0.00     0.168 A 
HETATM    2  C4  UNL     1       1.743   0.186   1.396  1.00  0.00     0.152 A 
HETATM    3  N3  UNL     1       1.024   0.623   2.502  1.00  0.00    -0.278 N 
ATOM      4  H3  UNL     1       1.311   1.372   3.132  1.00  0.00     0.189 HD
HETATM    5  N4  UNL     1      -0.074  -0.071   2.611  1.00  0.00    -0.233 N 
ATOM      6  H4  UNL     1      -0.772   0.058   3.343  1.00  0.00     0.209 HD
HETATM    7  N5  UNL     1      -0.158  -0.963   1.644  1.00  0.00    -0.215 N 
ENDROOT
BRANCH   7   8
HETATM    8  C7  UNL     1      -1.219  -1.860   1.486  1.00  0.00     0.180 C 
HETATM    9  N6  UNL     1      -2.133  -1.681   0.598  1.00  0.00    -0.248 N 
ATOM     10  H6  UNL     1      -2.864  -2.391   0.559  1.00  0.00     0.196 HD
BRANCH   9  11
HETATM   11  O5  UNL     1      -2.242  -0.669  -0.287  1.00  0.00    -0.271 OA
BRANCH  11  12
HETATM   12  C8  UNL     1      -3.427  -0.083  -0.728  1.00  0.00     0.186 C 
HETATM   13  C9  UNL     1      -3.608  -0.141  -2.220  1.00  0.00     0.037 C 
HETATM   14  C10 UNL     1      -3.048   1.145  -2.758  1.00  0.00     0.006 C 
HETATM   15  C11 UNL     1      -2.614   1.965  -1.556  1.00  0.00     0.040 C 
HETATM   16  C12 UNL     1      -3.478   1.418  -0.464  1.00  0.00     0.201 C 
HETATM   17  F1  UNL     1      -4.811   1.786  -0.659  1.00  0.00    -0.247 F 
ENDBRANCH  11  12
ENDBRANCH   9  11
BRANCH   8  18
HETATM   18  C13 UNL     1      -1.409  -3.059   2.374  1.00  0.00     0.250 C 
HETATM   19 CL1  UNL     1       0.024  -4.074   2.505  1.00  0.00    -0.075 Cl
HETATM   20 CL2  UNL     1      -1.779  -2.489   4.043  1.00  0.00    -0.075 Cl
HETATM   21 CL3  UNL     1      -2.837  -4.008   1.873  1.00  0.00    -0.075 Cl
ENDBRANCH   8  18
ENDBRANCH   7   8
BRANCH   1  22
HETATM   22  C2  UNL     1       1.264  -1.610  -0.292  1.00  0.00     0.314 C 
HETATM   23  O2  UNL     1       0.466  -2.509  -0.673  1.00  0.00    -0.257 OA
BRANCH  22  24
HETATM   24  O1  UNL     1       2.380  -1.459  -1.046  1.00  0.00    -0.321 OA
HETATM   25  C1  UNL     1       2.629  -2.251  -2.174  1.00  0.00     0.213 C 
ENDBRANCH  22  24
ENDBRANCH   1  22
BRANCH   2  26
HETATM   26  C5  UNL     1       3.011   0.761   1.008  1.00  0.00     0.279 C 
HETATM   27  O3  UNL     1       3.705   0.429   0.044  1.00  0.00    -0.265 OA
HETATM   28  N1  UNL     1       3.533   1.826   1.809  1.00  0.00    -0.276 N 
HETATM   29  C6  UNL     1       4.762   2.430   1.487  1.00  0.00     0.335 C 
ATOM     30  H1  UNL     1       3.009   2.150   2.622  1.00  0.00     0.173 HD
HETATM   31  N2  UNL     1       5.254   3.479   2.295  1.00  0.00    -0.040 NA
HETATM   32  O4  UNL     1       5.430   2.050   0.491  1.00  0.00    -0.251 OA
ENDBRANCH   2  26
TORSDOF 7
