REMARK  2 active torsions:
REMARK  status: ('A' for Active; 'I' for Inactive)
REMARK    1  A    between atoms: C2_2  and  C3_3 
REMARK    2  A    between atoms: C6_8  and  O1_9 
ROOT
HETATM    1  C3  UNL     1       0.534  -0.309   0.079  1.00  0.00     0.029 C 
HETATM    2  C4  UNL     1      -0.453  -1.447   0.377  1.00  0.00     0.048 C 
HETATM    3  C5  UNL     1      -1.651  -0.554   0.750  1.00  0.00     0.138 C 
HETATM    4  N1  UNL     1      -1.288   0.034   2.049  1.00  0.00    -0.169 NA
HETATM    5  S1  UNL     1       0.372   0.592   1.668  1.00  0.00    -0.055 SA
HETATM    6  C6  UNL     1      -1.615   0.524  -0.316  1.00  0.00     0.165 C 
HETATM    7  C7  UNL     1      -1.745   1.828   0.329  1.00  0.00     0.099 C 
HETATM    8  N2  UNL     1      -1.861   2.856   0.845  1.00  0.00    -0.194 NA
HETATM    9  C8  UNL     1      -0.212   0.460  -0.940  1.00  0.00     0.077 C 
ENDROOT
BRANCH   6  10
HETATM   10  O1  UNL     1      -2.593   0.308  -1.281  1.00  0.00    -0.374 OA
ATOM     11  H1  UNL     1      -2.570   0.983  -1.949  1.00  0.00     0.212 HD
ENDBRANCH   6  10
BRANCH   1  12
HETATM   12  C2  UNL     1       1.887  -0.741  -0.224  1.00  0.00     0.017 C 
HETATM   13  C1  UNL     1       2.743   0.480  -0.496  1.00  0.00     0.006 C 
ENDBRANCH   1  12
TORSDOF 2
