REMARK  2 active torsions:
REMARK  status: ('A' for Active; 'I' for Inactive)
REMARK    1  A    between atoms: C7_7  and  C9_9 
REMARK    2  A    between atoms: C9_9  and  O1_10 
ROOT
HETATM    1  C1  UNL     1      -2.909  -0.899   0.298  1.00  0.00     0.045 C 
HETATM    2  C2  UNL     1      -2.134   0.377   0.181  1.00  0.00     0.057 C 
HETATM    3  C3  UNL     1      -3.005   1.607   0.228  1.00  0.00     0.045 C 
HETATM    4  C4  UNL     1      -1.293   0.435  -1.086  1.00  0.00     0.047 C 
HETATM    5  C5  UNL     1      -0.202  -0.557  -0.754  1.00  0.00     0.047 C 
HETATM    6  C6  UNL     1       1.173  -0.014  -0.910  1.00  0.00     0.049 C 
HETATM    7  C7  UNL     1       1.813  -0.207   0.434  1.00  0.00     0.082 C 
HETATM    8  C8  UNL     1       2.313   1.126   0.912  1.00  0.00     0.048 C 
HETATM    9  O2  UNL     1       0.891  -0.705   1.300  1.00  0.00    -0.348 OA
HETATM   10  C10 UNL     1      -0.348  -0.699   0.739  1.00  0.00     0.266 C 
HETATM   11  O3  UNL     1      -1.138   0.392   1.160  1.00  0.00    -0.351 OA
ENDROOT
BRANCH   7  12
HETATM   12  C9  UNL     1       3.003  -1.168   0.328  1.00  0.00     0.201 C 
BRANCH  12  13
HETATM   13  O1  UNL     1       3.898  -0.604  -0.563  1.00  0.00    -0.398 OA
ATOM     14  H1  UNL     1       4.635  -1.199  -0.629  1.00  0.00     0.209 HD
ENDBRANCH  12  13
ENDBRANCH   7  12
TORSDOF 2
