REMARK  9 active torsions:
REMARK  status: ('A' for Active; 'I' for Inactive)
REMARK    1  A    between atoms: C2_2  and  C6_22 
REMARK    2  A    between atoms: N1_3  and  O1_5 
REMARK    3  A    between atoms: O1_5  and  C3_6 
REMARK    4  A    between atoms: C3_6  and  C4_7 
REMARK    5  A    between atoms: C4_7  and  N2_8 
REMARK       I    between atoms: C5_10  and  N3_11 
REMARK       I    between atoms: C5_10  and  N6_17 
REMARK    6  A    between atoms: N3_11  and  N4_13 
REMARK    7  A    between atoms: N4_13  and  N5_14 
REMARK    8  A    between atoms: N6_17  and  N7_19 
REMARK    9  A    between atoms: C10_28  and  N9_29 
ROOT
HETATM    1  C1  UNL     1      -0.490  -0.155  -1.580  1.00  0.00     0.073 C 
HETATM    2  C2  UNL     1      -1.085  -0.699  -0.374  1.00  0.00     0.062 C 
HETATM    3  N1  UNL     1      -0.465  -1.304   0.530  1.00  0.00    -0.269 N 
ATOM      4  H1  UNL     1      -1.067  -1.606   1.295  1.00  0.00     0.194 HD
ENDROOT
BRANCH   3   5
HETATM    5  O1  UNL     1       0.814  -1.638   0.707  1.00  0.00    -0.279 OA
BRANCH   5   6
HETATM    6  C3  UNL     1       1.905  -1.086   0.030  1.00  0.00     0.221 C 
BRANCH   6   7
HETATM    7  C4  UNL     1       3.210  -1.703   0.504  1.00  0.00     0.166 C 
BRANCH   7   8
HETATM    8  N2  UNL     1       4.348  -1.172  -0.158  1.00  0.00    -0.222 N 
HETATM    9  C5  UNL     1       4.970  -0.092   0.135  1.00  0.00     0.710 C 
HETATM   10  N3  UNL     1       4.634   0.793   1.192  1.00  0.00    -0.115 N 
HETATM   11  N6  UNL     1       6.092   0.248  -0.669  1.00  0.00    -0.071 N 
ATOM     12  H3  UNL     1       4.460   0.395   2.115  1.00  0.00     0.203 HD
ATOM     13  H6  UNL     1       6.121   1.106  -1.220  1.00  0.00     0.212 HD
ATOM     14  H2  UNL     1       4.707  -1.706  -0.949  1.00  0.00     0.177 HD
BRANCH  10  15
HETATM   15  N4  UNL     1       4.528   2.172   1.043  1.00  0.00    -0.015 NA
BRANCH  15  16
HETATM   16  N5  UNL     1       5.433   2.888   1.810  1.00  0.00    -0.328 N 
ATOM     17  H52 UNL     1       6.109   2.431   2.423  1.00  0.00     0.174 HD
ATOM     18  H51 UNL     1       5.355   3.899   1.701  1.00  0.00     0.174 HD
ENDBRANCH  15  16
ENDBRANCH  10  15
BRANCH  11  19
HETATM   19  N7  UNL     1       7.167  -0.674  -0.661  1.00  0.00    -0.024 N 
HETATM   20  O2  UNL     1       6.970  -1.880  -0.412  1.00  0.00    -0.516 OA
HETATM   21  O3  UNL     1       8.420  -0.223  -0.930  1.00  0.00    -0.516 OA
ENDBRANCH  11  19
ENDBRANCH   7   8
ENDBRANCH   6   7
ENDBRANCH   5   6
ENDBRANCH   3   5
BRANCH   2  22
HETATM   22  C6  UNL     1      -2.544  -0.540  -0.168  1.00  0.00     0.099 A 
HETATM   23  N8  UNL     1      -3.433   0.041  -0.936  1.00  0.00    -0.348 N 
HETATM   24  C7  UNL     1      -4.688   0.077  -0.573  1.00  0.00     0.050 A 
ATOM     25  H8  UNL     1      -3.145   0.465  -1.818  1.00  0.00     0.166 HD
HETATM   26  C8  UNL     1      -5.732   0.670  -1.307  1.00  0.00     0.033 A 
HETATM   27  C12 UNL     1      -5.023  -0.505   0.616  1.00  0.00     0.036 A 
HETATM   28  C9  UNL     1      -7.004   0.639  -0.815  1.00  0.00     0.038 A 
HETATM   29  C10 UNL     1      -7.371   0.055   0.386  1.00  0.00     0.104 A 
HETATM   30  C11 UNL     1      -6.338  -0.524   1.100  1.00  0.00     0.057 A 
HETATM   31  S1  UNL     1      -3.503  -1.078   1.152  1.00  0.00    -0.068 SA
BRANCH  29  32
HETATM   32  N9  UNL     1      -8.684   0.047   0.851  1.00  0.00    -0.116 N 
HETATM   33  O4  UNL     1      -9.590   0.576   0.186  1.00  0.00    -0.532 OA
HETATM   34  O5  UNL     1      -8.984  -0.547   2.049  1.00  0.00    -0.532 OA
ENDBRANCH  29  32
ENDBRANCH   2  22
TORSDOF 9
