REMARK  12 active torsions:
REMARK  status: ('A' for Active; 'I' for Inactive)
REMARK    1  A    between atoms: C2_2  and  O1_3 
REMARK    2  A    between atoms: O1_3  and  C3_4 
REMARK       I    between atoms: C3_4  and  N1_6 
REMARK    3  A    between atoms: N1_6  and  N2_8 
REMARK    4  A    between atoms: N2_8  and  C4_10 
REMARK    5  A    between atoms: C4_10  and  C5_11 
REMARK    6  A    between atoms: C5_11  and  S1_12 
REMARK    7  A    between atoms: N3_16  and  O6_18 
REMARK    8  A    between atoms: O6_18  and  N4_19 
REMARK    9  A    between atoms: C6_21  and  C8_23 
REMARK   10  A    between atoms: C8_23  and  O7_24 
REMARK   11  A    between atoms: N5_26  and  O8_28 
REMARK   12  A    between atoms: O8_28  and  C9_29 
ROOT
HETATM    1  C4  UNL     1      -0.600  -0.600   0.050  1.00  0.00     0.135 C 
HETATM    2  N3  UNL     1       0.509  -0.537   0.662  1.00  0.00    -0.227 N 
ATOM      3  H3  UNL     1       0.447  -0.859   1.628  1.00  0.00     0.198 HD
ENDROOT
BRANCH   2   4
HETATM    4  O6  UNL     1       1.724  -0.149   0.330  1.00  0.00    -0.155 OA
BRANCH   4   5
HETATM    5  N4  UNL     1       2.425  -0.196  -0.800  1.00  0.00    -0.242 N 
HETATM    6  C6  UNL     1       3.676  -0.131  -0.916  1.00  0.00     0.083 C 
HETATM    7  C7  UNL     1       4.232  -0.204  -2.309  1.00  0.00     0.075 C 
ATOM      8  H4  UNL     1       1.892  -0.295  -1.664  1.00  0.00     0.196 HD
BRANCH   6   9
HETATM    9  C8  UNL     1       4.573   0.013   0.230  1.00  0.00     0.185 C 
HETATM   10  N5  UNL     1       5.829   0.063  -0.032  1.00  0.00    -0.232 N 
ATOM     11  H5  UNL     1       6.124   0.001  -1.007  1.00  0.00     0.197 HD
BRANCH   9  12
HETATM   12  O7  UNL     1       4.146   0.097   1.542  1.00  0.00    -0.343 OA
ATOM     13  H7  UNL     1       4.729   0.191   2.286  1.00  0.00     0.219 HD
ENDBRANCH   9  12
BRANCH  10  14
HETATM   14  O8  UNL     1       6.791   0.195   0.930  1.00  0.00    -0.171 OA
BRANCH  14  15
HETATM   15  C9  UNL     1       7.435  -0.949   1.442  1.00  0.00     0.355 C 
HETATM   16  O9  UNL     1       7.093  -2.055   0.985  1.00  0.00    -0.622 OA
HETATM   17  O10 UNL     1       8.390  -0.834   2.400  1.00  0.00    -0.622 OA
ENDBRANCH  14  15
ENDBRANCH  10  14
ENDBRANCH   6   9
ENDBRANCH   4   5
ENDBRANCH   2   4
BRANCH   1  18
HETATM   18  N2  UNL     1      -1.754  -1.088   0.748  1.00  0.00    -0.282 N 
ATOM     19  H2  UNL     1      -1.672  -1.297   1.743  1.00  0.00     0.188 HD
BRANCH  18  20
HETATM   20  N1  UNL     1      -2.979  -1.288   0.124  1.00  0.00    -0.244 N 
HETATM   21  C3  UNL     1      -4.197  -0.703   0.623  1.00  0.00     0.379 C 
HETATM   22  O2  UNL     1      -4.140   0.012   1.670  1.00  0.00    -0.237 OA
ATOM     23  H1  UNL     1      -3.017  -1.868  -0.714  1.00  0.00     0.192 HD
BRANCH  21  24
HETATM   24  O1  UNL     1      -5.425  -0.851   0.056  1.00  0.00    -0.303 OA
BRANCH  24  25
HETATM   25  C2  UNL     1      -6.635  -0.308   0.464  1.00  0.00     0.176 C 
HETATM   26  C1  UNL     1      -7.119  -0.629   1.823  1.00  0.00     0.034 C 
ENDBRANCH  24  25
ENDBRANCH  21  24
ENDBRANCH  18  20
ENDBRANCH   1  18
BRANCH   1  27
HETATM   27  C5  UNL     1      -0.711  -0.162  -1.350  1.00  0.00     0.244 C 
BRANCH  27  28
HETATM   28  S1  UNL     1      -1.041   1.572  -1.456  1.00  0.00     0.108 S 
HETATM   29  O3  UNL     1      -2.356   1.938  -0.861  1.00  0.00    -0.595 OA
HETATM   30  O4  UNL     1       0.046   2.390  -0.831  1.00  0.00    -0.595 OA
HETATM   31  O5  UNL     1      -1.126   2.054  -3.092  1.00  0.00    -0.595 OA
ENDBRANCH  27  28
ENDBRANCH   1  27
TORSDOF 12
