REMARK  11 active torsions:
REMARK  status: ('A' for Active; 'I' for Inactive)
REMARK    1  A    between atoms: C2_2  and  O1_3 
REMARK    2  A    between atoms: C2_2  and  N1_5 
REMARK    3  A    between atoms: N1_5  and  N2_7 
REMARK    4  A    between atoms: C5_13  and  N4_14 
REMARK    5  A    between atoms: N4_14  and  O3_16 
REMARK    6  A    between atoms: C6_18  and  N5_19 
REMARK    7  A    between atoms: N5_19  and  N6_21 
REMARK    8  A    between atoms: N6_21  and  C7_23 
REMARK    9  A    between atoms: C7_23  and  C8_24 
REMARK   10  A    between atoms: C13_29  and  S1_30 
REMARK   11  A    between atoms: S1_30  and  N7_31 
ROOT
HETATM    1  N2  UNL     1      -2.756  -0.246  -0.169  1.00  0.00    -0.187 N 
HETATM    2  C3  UNL     1      -3.920  -0.655  -0.696  1.00  0.00     0.347 A 
HETATM    3  O2  UNL     1      -4.885   0.119  -0.970  1.00  0.00    -0.245 OA
HETATM    4  N3  UNL     1      -4.145  -1.971  -0.981  1.00  0.00    -0.315 N 
ATOM      5  H3  UNL     1      -5.040  -2.251  -1.382  1.00  0.00     0.170 HD
HETATM    6  C4  UNL     1      -3.215  -2.896  -0.744  1.00  0.00     0.128 A 
HETATM    7  C5  UNL     1      -2.028  -2.497  -0.210  1.00  0.00     0.117 A 
HETATM    8  C6  UNL     1      -1.762  -1.149   0.095  1.00  0.00     0.176 A 
ENDROOT
BRANCH   8   9
HETATM    9  N5  UNL     1      -0.652  -0.922   0.577  1.00  0.00    -0.286 N 
ATOM     10  H5  UNL     1      -0.173  -1.820   0.635  1.00  0.00     0.188 HD
BRANCH   9  11
HETATM   11  N6  UNL     1       0.190  -0.015   1.053  1.00  0.00    -0.330 N 
ATOM     12  H6  UNL     1      -0.029   0.380   1.967  1.00  0.00     0.180 HD
BRANCH  11  13
HETATM   13  C7  UNL     1       1.406   0.476   0.394  1.00  0.00     0.179 C 
BRANCH  13  14
HETATM   14  C8  UNL     1       2.452  -0.532   0.232  1.00  0.00    -0.016 A 
HETATM   15  C9  UNL     1       2.357  -1.833   0.683  1.00  0.00     0.010 A 
HETATM   16  C10 UNL     1       3.367  -2.765   0.522  1.00  0.00     0.001 A 
HETATM   17  C11 UNL     1       4.505  -2.335  -0.123  1.00  0.00     0.002 A 
HETATM   18  C12 UNL     1       4.613  -1.035  -0.578  1.00  0.00     0.026 A 
HETATM   19  C13 UNL     1       3.613  -0.100  -0.423  1.00  0.00     0.087 A 
BRANCH  19  20
HETATM   20  S1  UNL     1       3.848   1.497  -1.023  1.00  0.00     0.257 S 
HETATM   21  O4  UNL     1       2.859   1.889  -2.074  1.00  0.00    -0.201 OA
HETATM   22  O5  UNL     1       5.207   1.596  -1.654  1.00  0.00    -0.201 OA
BRANCH  20  23
HETATM   23  N7  UNL     1       3.807   2.682   0.234  1.00  0.00    -0.324 N 
ATOM     24  H72 UNL     1       3.659   2.446   1.215  1.00  0.00     0.169 HD
ATOM     25  H71 UNL     1       3.946   3.628  -0.121  1.00  0.00     0.169 HD
ENDBRANCH  20  23
ENDBRANCH  19  20
ENDBRANCH  13  14
ENDBRANCH  11  13
ENDBRANCH   9  11
ENDBRANCH   8   9
BRANCH   1  26
HETATM   26  N1  UNL     1      -2.545   1.105   0.127  1.00  0.00    -0.296 N 
ATOM     27  H1  UNL     1      -1.627   1.360   0.491  1.00  0.00     0.183 HD
BRANCH  26  28
HETATM   28  C2  UNL     1      -3.503   2.170  -0.034  1.00  0.00     0.229 C 
HETATM   29  C1  UNL     1      -2.771   3.499   0.293  1.00  0.00     0.064 C 
BRANCH  28  30
HETATM   30  O1  UNL     1      -4.549   2.105   0.916  1.00  0.00    -0.376 OA
ATOM     31  H1  UNL     1      -4.997   1.292   0.716  1.00  0.00     0.212 HD
ENDBRANCH  28  30
ENDBRANCH  26  28
ENDBRANCH   1  26
BRANCH   7  32
HETATM   32  N4  UNL     1      -1.016  -3.495   0.049  1.00  0.00    -0.264 N 
ATOM     33  H4  UNL     1      -0.076  -3.414  -0.339  1.00  0.00     0.194 HD
BRANCH  32  34
HETATM   34  O3  UNL     1      -1.339  -4.450   0.761  1.00  0.00    -0.289 OA
ATOM     35  H3  UNL     1      -0.674  -5.106   0.931  1.00  0.00     0.244 HD
ENDBRANCH  32  34
ENDBRANCH   7  32
TORSDOF 11
