REMARK  11 active torsions:
REMARK  status: ('A' for Active; 'I' for Inactive)
REMARK    1  A    between atoms: C2_3  and  O4_35 
REMARK    2  A    between atoms: N2_4  and  N3_6 
REMARK    3  A    between atoms: C4_13  and  C5_14 
REMARK    4  A    between atoms: N6_15  and  N7_17 
REMARK    5  A    between atoms: C6_19  and  C7_20 
REMARK    6  A    between atoms: C11_26  and  O1_27 
REMARK    7  A    between atoms: O1_27  and  O2_28 
REMARK    8  A    between atoms: C12_30  and  O3_31 
REMARK    9  A    between atoms: O4_35  and  C13_36 
REMARK   10  A    between atoms: C13_36  and  C14_37 
REMARK   11  A    between atoms: C14_37  and  N10_38 
ROOT
HETATM    1  N1  UNL     1       4.713  -0.787   3.104  1.00  0.00    -0.188 NA
HETATM    2  C1  UNL     1       4.846  -0.556   1.973  1.00  0.00     0.145 C 
HETATM    3  C2  UNL     1       5.006  -0.265   0.590  1.00  0.00     0.241 C 
HETATM    4  N2  UNL     1       4.341  -0.923  -0.299  1.00  0.00    -0.257 N 
ATOM      5  H2  UNL     1       4.461  -0.708  -1.289  1.00  0.00     0.190 HD
ENDROOT
BRANCH   3   6
HETATM    6  O4  UNL     1       5.869   0.726   0.118  1.00  0.00    -0.325 OA
BRANCH   6   7
HETATM    7  C13 UNL     1       6.405   0.547  -1.179  1.00  0.00     0.205 C 
BRANCH   7   8
HETATM    8  C14 UNL     1       7.307   1.752  -1.457  1.00  0.00     0.256 C 
BRANCH   8   9
HETATM    9  N10 UNL     1       8.371   1.848  -0.506  1.00  0.00    -0.077 N 
ATOM     10 3H10 UNL     1       8.015   1.863   0.450  1.00  0.00     0.274 HD
ATOM     11 2H10 UNL     1       8.910   0.983  -0.462  1.00  0.00     0.274 HD
ATOM     12 1H10 UNL     1       8.972   2.651  -0.691  1.00  0.00     0.274 HD
ENDBRANCH   8   9
ENDBRANCH   7   8
ENDBRANCH   6   7
ENDBRANCH   3   6
BRANCH   4  13
HETATM   13  N3  UNL     1       3.461  -1.925   0.094  1.00  0.00    -0.128 N 
HETATM   14  C3  UNL     1       2.210  -1.673   0.166  1.00  0.00     0.713 A 
HETATM   15  N4  UNL     1       1.746  -0.372  -0.157  1.00  0.00    -0.130 N 
HETATM   16  N9  UNL     1       1.238  -2.631   0.556  1.00  0.00    -0.166 N 
HETATM   17  N5  UNL     1       0.376  -0.087  -0.080  1.00  0.00    -0.281 N 
ATOM     18  H4  UNL     1       2.405   0.352  -0.444  1.00  0.00     0.205 HD
HETATM   19  C4  UNL     1      -0.570  -1.068   0.314  1.00  0.00     0.116 A 
ATOM     20  H5  UNL     1       0.050   0.851  -0.314  1.00  0.00     0.188 HD
HETATM   21  C12 UNL     1      -0.135  -2.282   0.615  1.00  0.00     0.185 A 
ATOM     22  H9  UNL     1       1.530  -3.579   0.796  1.00  0.00     0.186 HD
ATOM     23  H3  UNL     1       3.811  -2.855   0.323  1.00  0.00     0.205 HD
BRANCH  19  24
HETATM   24  C5  UNL     1      -2.013  -0.744   0.388  1.00  0.00     0.142 C 
HETATM   25  N6  UNL     1      -2.375   0.451   0.084  1.00  0.00    -0.310 N 
ATOM     26  H6  UNL     1      -1.684   1.146  -0.197  1.00  0.00     0.186 HD
BRANCH  25  27
HETATM   27  N7  UNL     1      -3.726   0.781   0.145  1.00  0.00    -0.311 N 
HETATM   28  C6  UNL     1      -4.591  -0.079  -0.243  1.00  0.00     0.122 C 
ATOM     29  H7  UNL     1      -4.022   1.693   0.493  1.00  0.00     0.186 HD
BRANCH  28  30
HETATM   30  C7  UNL     1      -6.002   0.248  -0.186  1.00  0.00     0.035 A 
HETATM   31  C8  UNL     1      -6.982  -0.652  -0.614  1.00  0.00     0.018 A 
HETATM   32  C9  UNL     1      -8.323  -0.333  -0.569  1.00  0.00     0.018 A 
HETATM   33  C10 UNL     1      -8.693   0.906  -0.088  1.00  0.00     0.090 A 
HETATM   34  N8  UNL     1      -7.762   1.779   0.327  1.00  0.00    -0.344 N 
HETATM   35  C11 UNL     1      -6.431   1.462   0.282  1.00  0.00     0.189 A 
ATOM     36  H8  UNL     1      -8.050   2.691   0.681  1.00  0.00     0.167 HD
BRANCH  35  37
HETATM   37  O1  UNL     1      -5.509   2.405   0.726  1.00  0.00    -0.181 OA
BRANCH  37  38
HETATM   38  O2  UNL     1      -5.300   2.413   2.071  1.00  0.00    -0.243 OA
ATOM     39  H2  UNL     1      -4.671   3.057   2.374  1.00  0.00     0.254 HD
ENDBRANCH  37  38
ENDBRANCH  35  37
ENDBRANCH  28  30
ENDBRANCH  25  27
ENDBRANCH  19  24
BRANCH  21  40
HETATM   40  O3  UNL     1      -1.088  -3.239   1.002  1.00  0.00    -0.344 OA
ATOM     41  H3  UNL     1      -0.776  -4.110   1.218  1.00  0.00     0.219 HD
ENDBRANCH  21  40
ENDBRANCH   4  13
TORSDOF 11
