REMARK  8 active torsions:
REMARK  status: ('A' for Active; 'I' for Inactive)
REMARK    1  A    between atoms: O1_2  and  N1_3 
REMARK    2  A    between atoms: C2_5  and  C3_6 
REMARK    3  A    between atoms: C2_5  and  C19_32 
REMARK    4  A    between atoms: C8_13  and  N2_14 
REMARK       I    between atoms: N2_14  and  C9_16 
REMARK       I    between atoms: C9_16  and  N3_18 
REMARK    5  A    between atoms: N3_18  and  C10_20 
REMARK    6  A    between atoms: C11_21  and  O3_22 
REMARK    7  A    between atoms: C14_25  and  O4_26 
REMARK    8  A    between atoms: C17_29  and  O5_30 
ROOT
HETATM    1  N2  UNL     1      -0.905  -0.159   0.365  1.00  0.00    -0.308 N 
ATOM      2  H2  UNL     1      -1.292   0.347  -0.431  1.00  0.00     0.170 HD
HETATM    3  C9  UNL     1       0.374   0.211   0.829  1.00  0.00     0.325 C 
HETATM    4  O2  UNL     1       0.941  -0.341   1.770  1.00  0.00    -0.247 OA
HETATM    5  N3  UNL     1       1.068   1.295   0.173  1.00  0.00    -0.304 N 
ATOM      6  H3  UNL     1       0.622   1.771  -0.611  1.00  0.00     0.171 HD
ENDROOT
BRANCH   1   7
HETATM    7  C8  UNL     1      -1.675  -1.183   0.935  1.00  0.00     0.051 A 
HETATM    8  C3  UNL     1      -2.660  -1.879   0.230  1.00  0.00     0.019 A 
HETATM    9  C4  UNL     1      -3.473  -2.743   0.918  1.00  0.00     0.061 A 
HETATM   10  C5  UNL     1      -3.334  -2.947   2.303  1.00  0.00     0.155 A 
HETATM   11  F1  UNL     1      -4.171  -3.812   2.895  1.00  0.00    -0.203 F 
HETATM   12  C6  UNL     1      -2.379  -2.281   2.993  1.00  0.00     0.157 A 
HETATM   13  F2  UNL     1      -2.266  -2.501   4.333  1.00  0.00    -0.203 F 
HETATM   14  C7  UNL     1      -1.561  -1.411   2.318  1.00  0.00     0.076 A 
BRANCH   8  15
HETATM   15  C2  UNL     1      -2.761  -1.790  -1.230  1.00  0.00     0.052 C 
HETATM   16  N1  UNL     1      -1.888  -1.106  -1.841  1.00  0.00    -0.270 N 
ATOM     17  H1  UNL     1      -1.220  -0.703  -1.184  1.00  0.00     0.194 HD
BRANCH  16  18
HETATM   18  O1  UNL     1      -1.595  -0.767  -3.063  1.00  0.00    -0.285 OA
HETATM   19  C1  UNL     1      -1.075   0.455  -3.481  1.00  0.00     0.237 C 
ENDBRANCH  16  18
BRANCH  15  20
HETATM   20  C19 UNL     1      -3.811  -2.468  -2.020  1.00  0.00    -0.006 C 
HETATM   21  C20 UNL     1      -3.726  -3.973  -1.952  1.00  0.00     0.021 C 
HETATM   22  C21 UNL     1      -3.767  -2.100  -3.492  1.00  0.00     0.021 C 
HETATM   23  C22 UNL     1      -5.215  -2.048  -1.579  1.00  0.00     0.021 C 
ENDBRANCH  15  20
ENDBRANCH   8  15
ENDBRANCH   1   7
BRANCH   5  24
HETATM   24  C10 UNL     1       2.345   1.708   0.592  1.00  0.00     0.103 A 
HETATM   25  C11 UNL     1       2.447   2.697   1.565  1.00  0.00     0.100 A 
HETATM   26  C13 UNL     1       3.718   3.111   1.985  1.00  0.00     0.076 A 
HETATM   27  C14 UNL     1       4.825   2.523   1.419  1.00  0.00     0.073 A 
HETATM   28  C16 UNL     1       4.694   1.546   0.457  1.00  0.00     0.076 A 
HETATM   29  C17 UNL     1       3.456   1.126   0.031  1.00  0.00     0.100 A 
BRANCH  25  30
HETATM   30  O3  UNL     1       1.290   3.248   2.095  1.00  0.00    -0.353 OA
HETATM   31  C12 UNL     1       1.438   4.251   3.082  1.00  0.00     0.210 C 
ENDBRANCH  25  30
BRANCH  27  32
HETATM   32  O4  UNL     1       6.096   2.899   1.802  1.00  0.00    -0.356 OA
HETATM   33  C15 UNL     1       6.271   3.885   2.772  1.00  0.00     0.210 C 
ENDBRANCH  27  32
BRANCH  29  34
HETATM   34  O5  UNL     1       3.302   0.150  -0.929  1.00  0.00    -0.353 OA
HETATM   35  C18 UNL     1       4.464  -0.434  -1.491  1.00  0.00     0.210 C 
ENDBRANCH  29  34
ENDBRANCH   5  24
TORSDOF 8
