REMARK  10 active torsions:
REMARK  status: ('A' for Active; 'I' for Inactive)
REMARK    1  A    between atoms: C2_2  and  O1_3 
REMARK    2  A    between atoms: O1_3  and  C3_4 
REMARK       I    between atoms: C3_4  and  N1_6 
REMARK    3  A    between atoms: N1_6  and  O3_7 
REMARK    4  A    between atoms: N1_6  and  C4_9 
REMARK    5  A    between atoms: C4_9  and  N2_10 
REMARK    6  A    between atoms: C4_9  and  C11_19 
REMARK    7  A    between atoms: N2_10  and  C5_12 
REMARK    8  A    between atoms: C14_22  and  C15_23 
REMARK    9  A    between atoms: C15_23  and  C17_26 
REMARK       I    between atoms: N3_30  and  C21_31 
REMARK   10  A    between atoms: C21_31  and  O5_33 
ROOT
HETATM    1  C4  UNL     1       1.419  -0.125   0.145  1.00  0.00     0.167 C 
ENDROOT
BRANCH   1   2
HETATM    2  N1  UNL     1       1.778   0.933  -0.723  1.00  0.00    -0.147 N 
HETATM    3  C3  UNL     1       2.662   1.974  -0.252  1.00  0.00     0.393 C 
HETATM    4  O2  UNL     1       3.025   2.915  -0.991  1.00  0.00    -0.236 OA
BRANCH   3   5
HETATM    5  O1  UNL     1       3.139   1.956   1.042  1.00  0.00    -0.302 OA
BRANCH   5   6
HETATM    6  C2  UNL     1       3.988   2.860   1.654  1.00  0.00     0.176 C 
HETATM    7  C1  UNL     1       5.352   3.017   1.077  1.00  0.00     0.034 C 
ENDBRANCH   5   6
ENDBRANCH   3   5
BRANCH   2   8
HETATM    8  O3  UNL     1       1.345   1.027  -1.964  1.00  0.00    -0.277 OA
ATOM      9  H3  UNL     1       0.764   0.342  -2.274  1.00  0.00     0.245 HD
ENDBRANCH   2   8
ENDBRANCH   1   2
BRANCH   1  10
HETATM   10  N2  UNL     1       1.727  -1.471  -0.122  1.00  0.00    -0.339 N 
ATOM     11  H2  UNL     1       1.033  -2.116   0.255  1.00  0.00     0.167 HD
BRANCH  10  12
HETATM   12  C5  UNL     1       2.762  -2.123  -0.783  1.00  0.00     0.033 A 
HETATM   13  C6  UNL     1       2.848  -3.494  -0.782  1.00  0.00     0.032 A 
HETATM   14  C7  UNL     1       3.805  -4.212  -1.462  1.00  0.00     0.044 A 
HETATM   15  C8  UNL     1       4.741  -3.542  -2.192  1.00  0.00     0.116 A 
HETATM   16  F1  UNL     1       5.706  -4.232  -2.890  1.00  0.00    -0.206 F 
HETATM   17  C9  UNL     1       4.691  -2.171  -2.217  1.00  0.00     0.044 A 
HETATM   18  C10 UNL     1       3.702  -1.459  -1.513  1.00  0.00     0.032 A 
ENDBRANCH  10  12
ENDBRANCH   1  10
BRANCH   1  19
HETATM   19  C11 UNL     1       0.000   0.069   0.619  1.00  0.00     0.091 A 
HETATM   20  C12 UNL     1      -0.256   0.885   1.724  1.00  0.00     0.036 A 
HETATM   21  C13 UNL     1      -1.607   0.938   1.947  1.00  0.00     0.031 A 
HETATM   22  C14 UNL     1      -2.192   0.147   0.966  1.00  0.00     0.062 A 
HETATM   23  N3  UNL     1      -1.179  -0.366   0.177  1.00  0.00    -0.255 N 
HETATM   24  C21 UNL     1      -1.433  -1.184  -0.935  1.00  0.00     0.371 C 
HETATM   25  O4  UNL     1      -2.586  -1.616  -1.215  1.00  0.00    -0.238 OA
BRANCH  22  26
HETATM   26  C15 UNL     1      -3.638  -0.007   0.872  1.00  0.00     0.146 C 
HETATM   27  C16 UNL     1      -4.058  -1.342   1.401  1.00  0.00     0.059 C 
HETATM   28  F2  UNL     1      -4.173   0.205  -0.393  1.00  0.00    -0.236 F 
BRANCH  26  29
HETATM   29  C17 UNL     1      -4.315   1.035   1.755  1.00  0.00     0.035 A 
HETATM   30  C18 UNL     1      -3.991   2.477   1.336  1.00  0.00     0.013 A 
HETATM   31  C19 UNL     1      -5.399   1.896   1.313  1.00  0.00    -0.010 A 
HETATM   32  C20 UNL     1      -6.146   1.773   0.024  1.00  0.00     0.010 C 
ENDBRANCH  26  29
ENDBRANCH  22  26
BRANCH  24  33
HETATM   33  O5  UNL     1      -0.522  -1.640  -1.881  1.00  0.00    -0.308 OA
HETATM   34  C22 UNL     1      -0.862  -2.461  -2.981  1.00  0.00     0.215 C 
ENDBRANCH  24  33
ENDBRANCH   1  19
TORSDOF 10
