REMARK  7 active torsions:
REMARK  status: ('A' for Active; 'I' for Inactive)
REMARK    1  A    between atoms: O1_2  and  C2_3 
REMARK    2  A    between atoms: C4_5  and  N1_6 
REMARK    3  A    between atoms: N1_6  and  C5_7 
REMARK    4  A    between atoms: C14_21  and  C15_22 
REMARK    5  A    between atoms: C15_22  and  C16_23 
REMARK    6  A    between atoms: C23_31  and  O2_32 
REMARK    7  A    between atoms: C25_34  and  O3_35 
ROOT
HETATM    1  C16 UNL     1       5.584   1.528   2.646  1.00  0.00     0.128 C 
HETATM    2  C17 UNL     1       6.709   2.355   3.108  1.00  0.00     0.059 C 
HETATM    3  N4  UNL     1       7.579   3.012   3.479  1.00  0.00    -0.197 NA
ENDROOT
BRANCH   1   4
HETATM    4  C15 UNL     1       5.030   2.192   1.394  1.00  0.00     0.055 C 
BRANCH   4   5
HETATM    5  C14 UNL     1       3.881   1.401   0.879  1.00  0.00    -0.027 A 
HETATM    6  C13 UNL     1       4.066   0.213   0.203  1.00  0.00     0.068 A 
HETATM    7  C12 UNL     1       2.994  -0.542  -0.288  1.00  0.00     0.069 A 
HETATM    8 CL2  UNL     1       5.679  -0.398  -0.076  1.00  0.00    -0.081 Cl
HETATM    9  N3  UNL     1       3.193  -1.700  -0.941  1.00  0.00    -0.353 N 
HETATM   10  C21 UNL     1       1.711  -0.099  -0.100  1.00  0.00     0.035 A 
HETATM   11  C11 UNL     1       2.210  -2.466  -1.429  1.00  0.00     0.048 A 
ATOM     12  H3  UNL     1       4.154  -2.015  -1.073  1.00  0.00     0.166 HD
HETATM   13  C6  UNL     1       0.911  -2.059  -1.262  1.00  0.00     0.034 A 
HETATM   14  C10 UNL     1       2.469  -3.663  -2.099  1.00  0.00     0.056 A 
HETATM   15  C5  UNL     1       0.626  -0.853  -0.586  1.00  0.00     0.132 A 
HETATM   16  C7  UNL     1      -0.104  -2.838  -1.756  1.00  0.00     0.045 A 
HETATM   17  C8  UNL     1       0.122  -4.025  -2.421  1.00  0.00     0.069 A 
HETATM   18  N2  UNL     1      -0.986  -4.777  -2.899  1.00  0.00    -0.101 NA
HETATM   19  C9  UNL     1       1.436  -4.427  -2.584  1.00  0.00     0.060 A 
HETATM   20 CL1  UNL     1       1.801  -5.917  -3.417  1.00  0.00    -0.082 Cl
HETATM   21  C20 UNL     1       1.507   1.099   0.582  1.00  0.00     0.024 A 
HETATM   22  C18 UNL     1       2.570   1.838   1.064  1.00  0.00    -0.053 A 
HETATM   23  C19 UNL     1       2.382   3.120   1.800  1.00  0.00     0.049 C 
BRANCH  15  24
HETATM   24  N1  UNL     1      -0.480  -0.473  -0.450  1.00  0.00    -0.404 NA
BRANCH  24  25
HETATM   25  C4  UNL     1      -1.680   0.032  -0.248  1.00  0.00     0.113 A 
HETATM   26  C3  UNL     1      -2.292   1.016  -1.038  1.00  0.00     0.084 A 
HETATM   27  C2  UNL     1      -3.547   1.513  -0.801  1.00  0.00     0.107 A 
HETATM   28  C25 UNL     1      -4.267   1.032   0.267  1.00  0.00     0.135 A 
HETATM   29  C23 UNL     1      -3.728   0.067   1.085  1.00  0.00     0.107 A 
HETATM   30  C22 UNL     1      -2.464  -0.422   0.833  1.00  0.00     0.084 A 
BRANCH  27  31
HETATM   31  O1  UNL     1      -4.111   2.482  -1.604  1.00  0.00    -0.353 OA
HETATM   32  C1  UNL     1      -3.452   3.042  -2.724  1.00  0.00     0.210 C 
ENDBRANCH  27  31
BRANCH  28  33
HETATM   33  O3  UNL     1      -5.549   1.501   0.555  1.00  0.00    -0.351 OA
HETATM   34  C26 UNL     1      -6.711   0.951   0.017  1.00  0.00     0.210 C 
ENDBRANCH  28  33
BRANCH  29  35
HETATM   35  O2  UNL     1      -4.508  -0.366   2.141  1.00  0.00    -0.353 OA
HETATM   36  C24 UNL     1      -4.100  -1.326   3.047  1.00  0.00     0.210 C 
ENDBRANCH  29  35
ENDBRANCH  24  25
ENDBRANCH  15  24
ENDBRANCH   4   5
ENDBRANCH   1   4
TORSDOF 7
