REMARK  8 active torsions:
REMARK  status: ('A' for Active; 'I' for Inactive)
REMARK    1  A    between atoms: C2_2  and  C3_3 
REMARK    2  A    between atoms: N1_5  and  C5_6 
REMARK    3  A    between atoms: C5_6  and  C6_7 
REMARK    4  A    between atoms: C7_9  and  C8_10 
REMARK    5  A    between atoms: C11_14  and  O2_15 
REMARK    6  A    between atoms: C12_17  and  C13_18 
REMARK    7  A    between atoms: C15_22  and  C16_23 
REMARK    8  A    between atoms: C16_23  and  O5_25 
ROOT
HETATM    1  C6  UNL     1       0.443   1.220  -1.013  1.00  0.00     0.079 A 
HETATM    2  O1  UNL     1      -0.459   0.351  -1.290  1.00  0.00    -0.311 OA
HETATM    3  C7  UNL     1      -1.661   0.645  -0.792  1.00  0.00     0.103 A 
HETATM    4  C15 UNL     1      -1.523   1.829  -0.122  1.00  0.00     0.082 A 
HETATM    5  C18 UNL     1      -0.172   2.189  -0.269  1.00  0.00    -0.011 A 
HETATM    6  C19 UNL     1       0.402   3.431   0.301  1.00  0.00     0.052 C 
ENDROOT
BRANCH   1   7
HETATM    7  C5  UNL     1       1.881   1.233  -1.389  1.00  0.00     0.194 C 
BRANCH   7   8
HETATM    8  N1  UNL     1       2.781   0.787  -0.374  1.00  0.00    -0.349 N 
HETATM    9  C4  UNL     1       3.447   1.427   0.606  1.00  0.00     0.099 A 
HETATM   10  C3  UNL     1       4.222   0.559   1.340  1.00  0.00    -0.030 A 
HETATM   11  C26 UNL     1       4.005  -0.674   0.764  1.00  0.00     0.000 A 
HETATM   12  C20 UNL     1       3.122  -0.542  -0.287  1.00  0.00     0.046 A 
HETATM   13  C25 UNL     1       4.496  -1.943   1.046  1.00  0.00     0.038 A 
HETATM   14  C21 UNL     1       2.769  -1.663  -1.006  1.00  0.00     0.039 A 
HETATM   15  C22 UNL     1       3.260  -2.928  -0.723  1.00  0.00    -0.038 A 
HETATM   16  C23 UNL     1       2.825  -4.103  -1.560  1.00  0.00     0.050 C 
HETATM   17  C24 UNL     1       4.132  -3.056   0.317  1.00  0.00     0.041 A 
HETATM   18 CL2  UNL     1       4.764  -4.647   0.689  1.00  0.00    -0.084 Cl
BRANCH  10  19
HETATM   19  C2  UNL     1       5.116   0.853   2.509  1.00  0.00     0.036 C 
HETATM   20  C1  UNL     1       6.567   0.845   2.089  1.00  0.00     0.010 C 
ENDBRANCH  10  19
ENDBRANCH   7   8
ENDBRANCH   1   7
BRANCH   3  21
HETATM   21  C8  UNL     1      -2.822  -0.219  -0.995  1.00  0.00     0.002 A 
HETATM   22  C9  UNL     1      -2.652  -1.384  -1.717  1.00  0.00     0.041 A 
HETATM   23  C10 UNL     1      -3.679  -2.267  -1.964  1.00  0.00     0.069 A 
HETATM   24 CL1  UNL     1      -3.435  -3.735  -2.880  1.00  0.00    -0.081 Cl
HETATM   25  C11 UNL     1      -4.944  -2.016  -1.489  1.00  0.00     0.102 A 
HETATM   26  C12 UNL     1      -5.119  -0.865  -0.773  1.00  0.00     0.065 A 
HETATM   27  C14 UNL     1      -4.069   0.041  -0.519  1.00  0.00     0.033 A 
BRANCH  25  28
HETATM   28  O2  UNL     1      -5.997  -2.908  -1.735  1.00  0.00    -0.358 OA
ATOM     29  H2  UNL     1      -6.871  -2.735  -1.407  1.00  0.00     0.217 HD
ENDBRANCH  25  28
BRANCH  26  30
HETATM   30  C13 UNL     1      -6.444  -0.576  -0.252  1.00  0.00     0.267 C 
HETATM   31  N2  UNL     1      -7.551  -1.435  -0.453  1.00  0.00    -0.057 NA
HETATM   32  O3  UNL     1      -6.622   0.477   0.406  1.00  0.00    -0.271 OA
ENDBRANCH  26  30
ENDBRANCH   3  21
BRANCH   4  33
HETATM   33  C16 UNL     1      -2.512   2.605   0.595  1.00  0.00     0.296 C 
HETATM   34  O4  UNL     1      -3.138   3.489  -0.086  1.00  0.00    -0.259 OA
BRANCH  33  35
HETATM   35  O5  UNL     1      -2.809   2.447   1.949  1.00  0.00    -0.322 OA
HETATM   36  C17 UNL     1      -3.823   3.313   2.480  1.00  0.00     0.213 C 
ENDBRANCH  33  35
ENDBRANCH   4  33
TORSDOF 8
