REMARK  1 active torsions:
REMARK  status: ('A' for Active; 'I' for Inactive)
REMARK    1  A    between atoms: N3_4  and  N4_6 
ROOT
HETATM    1  N4  UNL     1       0.182  -0.128   0.461  1.00  0.00    -0.269 N 
ATOM      2  H4  UNL     1      -0.207  -0.280   1.392  1.00  0.00     0.190 HD
HETATM    3  C2  UNL     1       1.441   0.060   0.366  1.00  0.00     0.206 A 
HETATM    4  N5  UNL     1       2.503   0.113   1.297  1.00  0.00    -0.279 N 
ATOM      5  H5  UNL     1       2.584   0.018   2.309  1.00  0.00     0.173 HD
HETATM    6  C3  UNL     1       3.425   0.357   0.214  1.00  0.00     0.329 A 
HETATM    7  O1  UNL     1       4.663   0.534   0.194  1.00  0.00    -0.246 OA
HETATM    8  N6  UNL     1       2.341   0.299  -0.703  1.00  0.00    -0.279 N 
ATOM      9  H6  UNL     1       2.248   0.391  -1.715  1.00  0.00     0.173 HD
ENDROOT
BRANCH   1  10
HETATM   10  N3  UNL     1      -0.681  -0.140  -0.601  1.00  0.00    -0.273 N 
HETATM   11  C1  UNL     1      -1.956   0.002  -0.378  1.00  0.00     0.215 C 
HETATM   12  N1  UNL     1      -2.396   0.162   0.955  1.00  0.00    -0.065 NA
HETATM   13  N2  UNL     1      -2.862  -0.009  -1.482  1.00  0.00    -0.065 NA
ATOM     14  H3  UNL     1      -0.331  -0.258  -1.552  1.00  0.00     0.189 HD
ENDBRANCH   1  10
TORSDOF 1
