REMARK  1 active torsions:
REMARK  status: ('A' for Active; 'I' for Inactive)
REMARK       I    between atoms: C1_4  and  N3_6 
REMARK    1  A    between atoms: N5_13  and  N6_14 
ROOT
HETATM    1  N1  UNL     1       2.374  -0.104   1.071  1.00  0.00    -0.373 N 
ATOM      2  H11 UNL     1       2.281   0.740   1.636  1.00  0.00     0.158 HD
ATOM      3  H12 UNL     1       2.916  -0.908   1.388  1.00  0.00     0.158 HD
HETATM    4  C1  UNL     1       1.794  -0.158  -0.069  1.00  0.00     0.188 C 
HETATM    5  N2  UNL     1       1.924  -1.338  -0.858  1.00  0.00    -0.064 NA
HETATM    6  N3  UNL     1       1.045   0.954  -0.508  1.00  0.00    -0.301 N 
ATOM      7  H3  UNL     1       1.511   1.753  -0.938  1.00  0.00     0.171 HD
HETATM    8  C2  UNL     1      -0.233   0.948  -0.359  1.00  0.00     0.215 A 
HETATM    9  N4  UNL     1      -1.279   1.857  -0.668  1.00  0.00    -0.277 N 
ATOM     10  H4  UNL     1      -1.329   2.781  -1.098  1.00  0.00     0.173 HD
HETATM   11  C3  UNL     1      -2.225   0.949  -0.131  1.00  0.00     0.350 A 
HETATM   12  O1  UNL     1      -3.471   0.939   0.016  1.00  0.00    -0.244 OA
HETATM   13  N5  UNL     1      -1.193   0.050   0.175  1.00  0.00    -0.179 N 
ENDROOT
BRANCH  13  14
HETATM   14  N6  UNL     1      -1.065  -1.211   0.756  1.00  0.00    -0.332 N 
ATOM     15  H62 UNL     1      -0.314  -1.865   0.979  1.00  0.00     0.177 HD
ATOM     16  H61 UNL     1      -1.755  -1.857   1.140  1.00  0.00     0.177 HD
ENDBRANCH  13  14
TORSDOF 1
