REMARK  11 active torsions:
REMARK  status: ('A' for Active; 'I' for Inactive)
REMARK    1  A    between atoms: O1_2  and  C2_3 
REMARK    2  A    between atoms: C2_3  and  C3_5 
REMARK    3  A    between atoms: C3_5  and  C4_6 
REMARK    4  A    between atoms: C4_6  and  C5_7 
REMARK    5  A    between atoms: C5_7  and  C6_8 
REMARK    6  A    between atoms: C6_8  and  C7_9 
REMARK    7  A    between atoms: C9_11  and  S1_12 
REMARK    8  A    between atoms: S1_12  and  N1_15 
REMARK    9  A    between atoms: N1_15  and  C10_17 
REMARK   10  A    between atoms: C10_17  and  C13_20 
REMARK   11  A    between atoms: C17_24  and  N2_25 
ROOT
HETATM    1  C7  UNL     1       1.489  -0.040  -0.309  1.00  0.00    -0.015 A 
HETATM    2  C8  UNL     1       0.339  -0.751  -0.042  1.00  0.00     0.039 A 
HETATM    3  C9  UNL     1      -0.471  -0.405   1.047  1.00  0.00     0.123 A 
HETATM    4  C17 UNL     1      -0.015   0.673   1.788  1.00  0.00     0.123 A 
HETATM    5  N3  UNL     1       1.110   1.352   1.506  1.00  0.00    -0.330 N 
ATOM      6  H3  UNL     1       1.376   2.137   2.101  1.00  0.00     0.168 HD
HETATM    7  C18 UNL     1       1.897   1.029   0.463  1.00  0.00     0.124 A 
HETATM    8  N4  UNL     1       3.077   1.783   0.212  1.00  0.00    -0.082 NA
ENDROOT
BRANCH   3   9
HETATM    9  S1  UNL     1      -1.927  -1.289   1.421  1.00  0.00     0.263 S 
HETATM   10  O3  UNL     1      -1.919  -2.509   0.533  1.00  0.00    -0.200 OA
HETATM   11  O4  UNL     1      -1.814  -1.866   2.846  1.00  0.00    -0.200 OA
BRANCH   9  12
HETATM   12  N1  UNL     1      -3.335  -0.387   1.359  1.00  0.00    -0.305 N 
ATOM     13  H1  UNL     1      -3.899  -0.266   2.201  1.00  0.00     0.173 HD
BRANCH  12  14
HETATM   14  C10 UNL     1      -3.747   0.209   0.142  1.00  0.00     0.040 C 
HETATM   15  C11 UNL     1      -3.863  -0.844  -0.960  1.00  0.00     0.039 C 
HETATM   16  C12 UNL     1      -2.864   1.342  -0.296  1.00  0.00     0.039 C 
BRANCH  14  17
HETATM   17  C13 UNL     1      -5.163   0.741   0.386  1.00  0.00    -0.026 C 
HETATM   18  C14 UNL     1      -5.704   1.405  -0.843  1.00  0.00     0.017 C 
HETATM   19  C15 UNL     1      -5.125   1.777   1.513  1.00  0.00     0.017 C 
HETATM   20  C16 UNL     1      -6.097  -0.362   0.801  1.00  0.00     0.017 C 
ENDBRANCH  14  17
ENDBRANCH  12  14
ENDBRANCH   9  12
ENDBRANCH   3   9
BRANCH   4  21
HETATM   21  N2  UNL     1      -0.733   1.026   2.818  1.00  0.00    -0.384 N 
ATOM     22  H22 UNL     1      -1.587   0.511   3.032  1.00  0.00     0.157 HD
ATOM     23  H21 UNL     1      -0.397   1.820   3.364  1.00  0.00     0.157 HD
ENDBRANCH   4  21
BRANCH   1  24
HETATM   24  C6  UNL     1       2.353  -0.397  -1.458  1.00  0.00     0.042 C 
BRANCH  24  25
HETATM   25  C5  UNL     1       3.603  -1.132  -1.008  1.00  0.00     0.005 C 
BRANCH  25  26
HETATM   26  C4  UNL     1       4.477  -1.494  -2.185  1.00  0.00     0.010 C 
BRANCH  26  27
HETATM   27  C3  UNL     1       5.691  -2.224  -1.698  1.00  0.00     0.111 C 
BRANCH  27  28
HETATM   28  C2  UNL     1       6.522  -1.461  -0.773  1.00  0.00     0.258 C 
HETATM   29  O2  UNL     1       6.277  -1.492   0.461  1.00  0.00    -0.265 OA
BRANCH  28  30
HETATM   30  O1  UNL     1       7.604  -0.673  -1.156  1.00  0.00    -0.326 OA
HETATM   31  C1  UNL     1       8.362   0.039  -0.187  1.00  0.00     0.213 C 
ENDBRANCH  28  30
ENDBRANCH  27  28
ENDBRANCH  26  27
ENDBRANCH  25  26
ENDBRANCH  24  25
ENDBRANCH   1  24
TORSDOF 11
