REMARK  14 active torsions:
REMARK  status: ('A' for Active; 'I' for Inactive)
REMARK    1  A    between atoms: C2_2  and  C5_5 
REMARK    2  A    between atoms: C6_6  and  C7_7 
REMARK    3  A    between atoms: C8_8  and  O1_9 
REMARK    4  A    between atoms: C10_12  and  O2_13 
REMARK    5  A    between atoms: C11_15  and  C13_17 
REMARK    6  A    between atoms: C13_17  and  O3_18 
REMARK    7  A    between atoms: O3_18  and  C14_19 
REMARK    8  A    between atoms: C14_19  and  O4_20 
REMARK    9  A    between atoms: C14_19  and  O5_22 
REMARK   10  A    between atoms: C14_19  and  C15_24 
REMARK   11  A    between atoms: C16_25  and  C17_26 
REMARK   12  A    between atoms: C18_27  and  C19_28 
REMARK       I    between atoms: C19_28  and  N1_30 
REMARK   13  A    between atoms: N1_30  and  N2_32 
REMARK   14  A    between atoms: N2_32  and  N3_33 
ROOT
HETATM    1  O3  UNL     1       1.447   0.484  -0.478  1.00  0.00    -0.329 OA
ENDROOT
BRANCH   1   2
HETATM    2  C13 UNL     1       0.309  -0.168   0.007  1.00  0.00     0.186 C 
BRANCH   2   3
HETATM    3  C11 UNL     1      -0.539  -0.523  -1.172  1.00  0.00     0.013 C 
HETATM    4  C7  UNL     1      -1.812  -1.237  -0.810  1.00  0.00     0.049 C 
HETATM    5  C8  UNL     1      -1.332  -2.585  -0.334  1.00  0.00     0.129 C 
HETATM    6  C9  UNL     1      -0.129  -2.866  -1.170  1.00  0.00     0.065 C 
HETATM    7  C10 UNL     1       0.193  -1.618  -1.955  1.00  0.00     0.131 C 
HETATM    8  C12 UNL     1      -0.768   0.696  -2.006  1.00  0.00     0.021 C 
BRANCH   4   9
HETATM    9  C6  UNL     1      -2.640  -0.530   0.161  1.00  0.00    -0.022 C 
HETATM   10  C5  UNL     1      -3.869  -0.166  -0.152  1.00  0.00    -0.022 C 
BRANCH  10  11
HETATM   11  C2  UNL     1      -4.763   0.555   0.789  1.00  0.00    -0.034 C 
HETATM   12  C1  UNL     1      -6.151  -0.035   0.842  1.00  0.00     0.018 C 
HETATM   13  C3  UNL     1      -4.179   0.483   2.181  1.00  0.00     0.018 C 
HETATM   14  C4  UNL     1      -4.876   1.994   0.388  1.00  0.00     0.018 C 
ENDBRANCH  10  11
ENDBRANCH   4   9
BRANCH   5  15
HETATM   15  O1  UNL     1      -1.129  -2.660   1.020  1.00  0.00    -0.395 OA
ATOM     16  H1  UNL     1      -0.827  -3.509   1.320  1.00  0.00     0.210 HD
ENDBRANCH   5  15
BRANCH   7  17
HETATM   17  O2  UNL     1      -0.268  -1.664  -3.256  1.00  0.00    -0.395 OA
ATOM     18  H2  UNL     1      -0.065  -0.878  -3.750  1.00  0.00     0.210 HD
ENDBRANCH   7  17
ENDBRANCH   2   3
ENDBRANCH   1   2
BRANCH   1  19
HETATM   19  C14 UNL     1       2.313   0.862   0.545  1.00  0.00     0.299 C 
BRANCH  19  20
HETATM   20  O4  UNL     1       1.631   1.731   1.404  1.00  0.00    -0.340 OA
ATOM     21  H4  UNL     1       2.222   1.989   2.102  1.00  0.00     0.216 HD
ENDBRANCH  19  20
BRANCH  19  22
HETATM   22  O5  UNL     1       2.747  -0.228   1.297  1.00  0.00    -0.340 OA
ATOM     23  H5  UNL     1       3.338   0.030   1.995  1.00  0.00     0.216 HD
ENDBRANCH  19  22
BRANCH  19  24
HETATM   24  C15 UNL     1       3.468   1.530  -0.062  1.00  0.00     0.073 C 
HETATM   25  C16 UNL     1       4.687   1.415   0.508  1.00  0.00     0.004 C 
BRANCH  25  26
HETATM   26  C17 UNL     1       5.826   2.067  -0.081  1.00  0.00     0.005 C 
HETATM   27  C18 UNL     1       7.055   2.084   0.298  1.00  0.00     0.076 C 
BRANCH  27  28
HETATM   28  C19 UNL     1       7.629   1.441   1.438  1.00  0.00     0.271 C 
HETATM   29  O6  UNL     1       8.901   1.602   1.619  1.00  0.00    -0.266 OA
HETATM   30  N1  UNL     1       6.909   0.663   2.352  1.00  0.00    -0.180 N 
ATOM     31  H1  UNL     1       5.977   0.985   2.614  1.00  0.00     0.207 HD
BRANCH  30  32
HETATM   32  N2  UNL     1       7.315  -0.379   2.863  1.00  0.00    -0.241 NA
BRANCH  32  33
HETATM   33  N3  UNL     1       7.807  -1.465   3.219  1.00  0.00    -0.260 N 
ATOM     34  H32 UNL     1       8.206  -1.522   2.282  1.00  0.00     0.193 HD
ATOM     35  H31 UNL     1       8.144  -2.329   3.643  1.00  0.00     0.193 HD
ENDBRANCH  32  33
ENDBRANCH  30  32
ENDBRANCH  27  28
ENDBRANCH  25  26
ENDBRANCH  19  24
ENDBRANCH   1  19
TORSDOF 14
