REMARK  14 active torsions:
REMARK  status: ('A' for Active; 'I' for Inactive)
REMARK    1  A    between atoms: C2_2  and  O2_4 
REMARK    2  A    between atoms: O2_4  and  C3_5 
REMARK    3  A    between atoms: C3_5  and  C4_6 
REMARK    4  A    between atoms: C4_6  and  C5_7 
REMARK    5  A    between atoms: C5_7  and  C6_8 
REMARK    6  A    between atoms: C6_8  and  C7_9 
REMARK    7  A    between atoms: C11_13  and  C12_14 
REMARK    8  A    between atoms: C13_15  and  O3_16 
REMARK    9  A    between atoms: C14_18  and  O4_19 
REMARK   10  A    between atoms: C19_25  and  C20_26 
REMARK   11  A    between atoms: C20_26  and  C21_27 
REMARK   12  A    between atoms: C21_27  and  O5_28 
REMARK   13  A    between atoms: C21_27  and  C22_30 
REMARK   14  A    between atoms: C22_30  and  O6_31 
ROOT
HETATM    1  C7  UNL     1       0.165  -0.052  -0.599  1.00  0.00    -0.005 C 
HETATM    2  C8  UNL     1      -0.031   1.357  -0.999  1.00  0.00     0.014 C 
HETATM    3  C9  UNL     1      -0.185   2.345   0.132  1.00  0.00     0.014 C 
HETATM    4  C10 UNL     1       0.931   2.235   1.142  1.00  0.00     0.015 C 
HETATM    5  C11 UNL     1      -1.515   2.219   0.695  1.00  0.00    -0.040 C 
HETATM    6  C14 UNL     1      -2.068   1.023   1.348  1.00  0.00     0.089 C 
HETATM    7  C15 UNL     1      -3.545   0.915   0.937  1.00  0.00     0.044 C 
HETATM    8  C16 UNL     1      -3.291  -0.576   0.965  1.00  0.00     0.016 C 
HETATM    9  C17 UNL     1      -1.758  -0.337   0.985  1.00  0.00    -0.005 C 
HETATM   10  C18 UNL     1      -1.090  -1.035   2.194  1.00  0.00     0.019 C 
HETATM   11  C19 UNL     1      -1.185  -0.734  -0.281  1.00  0.00     0.004 C 
ENDROOT
BRANCH   1  12
HETATM   12  C6  UNL     1       0.864  -0.789  -1.711  1.00  0.00     0.031 C 
BRANCH  12  13
HETATM   13  C5  UNL     1       2.188  -0.261  -2.100  1.00  0.00    -0.028 C 
BRANCH  13  14
HETATM   14  C4  UNL     1       3.264  -0.996  -2.022  1.00  0.00    -0.004 C 
BRANCH  14  15
HETATM   15  C3  UNL     1       4.589  -0.501  -2.400  1.00  0.00     0.206 C 
BRANCH  15  16
HETATM   16  O2  UNL     1       5.462  -0.563  -1.297  1.00  0.00    -0.318 OA
BRANCH  16  17
HETATM   17  C2  UNL     1       5.250   0.101  -0.126  1.00  0.00     0.255 C 
HETATM   18  C1  UNL     1       6.188   0.008   1.000  1.00  0.00     0.126 C 
HETATM   19  O1  UNL     1       4.224   0.813  -0.004  1.00  0.00    -0.266 OA
ENDBRANCH  16  17
ENDBRANCH  15  16
ENDBRANCH  14  15
ENDBRANCH  13  14
ENDBRANCH  12  13
ENDBRANCH   1  12
BRANCH  11  20
HETATM   20  C20 UNL     1      -1.017  -2.173  -0.523  1.00  0.00     0.039 C 
BRANCH  20  21
HETATM   21  C21 UNL     1      -2.051  -3.197  -0.315  1.00  0.00     0.142 C 
BRANCH  21  22
HETATM   22  O5  UNL     1      -2.544  -3.415   0.951  1.00  0.00    -0.393 OA
ATOM     23  H5  UNL     1      -3.212  -4.077   1.085  1.00  0.00     0.210 HD
ENDBRANCH  21  22
BRANCH  21  24
HETATM   24  C22 UNL     1      -1.501  -4.601  -0.692  1.00  0.00     0.195 C 
BRANCH  24  25
HETATM   25  O6  UNL     1      -0.529  -4.997   0.189  1.00  0.00    -0.398 OA
ATOM     26  H6  UNL     1      -0.193  -5.855  -0.041  1.00  0.00     0.209 HD
ENDBRANCH  24  25
ENDBRANCH  21  24
ENDBRANCH  20  21
ENDBRANCH  11  20
BRANCH   5  27
HETATM   27  C12 UNL     1      -2.346   3.229   0.671  1.00  0.00     0.030 C 
HETATM   28  C13 UNL     1      -2.306   4.591   0.183  1.00  0.00     0.131 C 
BRANCH  28  29
HETATM   29  O3  UNL     1      -1.225   5.112  -0.420  1.00  0.00    -0.373 OA
ATOM     30  H3  UNL     1      -1.199   6.006  -0.740  1.00  0.00     0.216 HD
ENDBRANCH  28  29
ENDBRANCH   5  27
BRANCH   6  31
HETATM   31  O4  UNL     1      -2.074   1.268   2.749  1.00  0.00    -0.384 OA
ATOM     32  H4  UNL     1      -2.431   0.495   3.171  1.00  0.00     0.211 HD
ENDBRANCH   6  31
TORSDOF 14
