REMARK  16 active torsions:
REMARK  status: ('A' for Active; 'I' for Inactive)
REMARK    1  A    between atoms: C2_2  and  C4_4 
REMARK    2  A    between atoms: C11_11  and  O1_12 
REMARK    3  A    between atoms: C11_11  and  C12_14 
REMARK    4  A    between atoms: C12_14  and  C13_15 
REMARK    5  A    between atoms: C13_15  and  C14_16 
REMARK    6  A    between atoms: C14_16  and  C15_17 
REMARK    7  A    between atoms: C15_17  and  C16_18 
REMARK    8  A    between atoms: C16_18  and  C17_19 
REMARK    9  A    between atoms: C17_19  and  C18_20 
REMARK   10  A    between atoms: C18_20  and  C19_21 
REMARK   11  A    between atoms: C19_21  and  O2_22 
REMARK   12  A    between atoms: C19_21  and  C20_24 
REMARK   13  A    between atoms: C21_26  and  C22_27 
REMARK   14  A    between atoms: C22_27  and  O4_28 
REMARK   15  A    between atoms: C23_30  and  O5_31 
REMARK   16  A    between atoms: C24_33  and  O6_34 
ROOT
HETATM    1  C15 UNL     1       1.458  -1.581   2.638  1.00  0.00     0.000 C 
ENDROOT
BRANCH   1   2
HETATM    2  C14 UNL     1       0.389  -1.853   1.559  1.00  0.00     0.000 C 
BRANCH   2   3
HETATM    3  C13 UNL     1      -0.552  -0.654   1.565  1.00  0.00     0.003 C 
BRANCH   3   4
HETATM    4  C12 UNL     1      -1.594  -0.913   0.519  1.00  0.00     0.038 C 
BRANCH   4   5
HETATM    5  C11 UNL     1      -2.586   0.208   0.397  1.00  0.00     0.062 C 
HETATM    6  C10 UNL     1      -3.308   0.421   1.671  1.00  0.00     0.042 C 
HETATM    7  C9  UNL     1      -4.201  -0.735   2.061  1.00  0.00     0.036 C 
HETATM    8  C7  UNL     1      -4.755  -1.418   0.851  1.00  0.00    -0.085 C 
HETATM    9  C6  UNL     1      -4.795  -0.667  -0.407  1.00  0.00     0.021 C 
HETATM   10  C8  UNL     1      -5.189  -2.674   0.962  1.00  0.00     0.014 C 
HETATM   11  C5  UNL     1      -5.836   0.414  -0.432  1.00  0.00     0.018 C 
HETATM   12  C25 UNL     1      -3.506  -0.014  -0.783  1.00  0.00     0.029 C 
HETATM   13  C4  UNL     1      -5.356   1.286  -1.573  1.00  0.00     0.014 C 
HETATM   14  C26 UNL     1      -3.847   1.275  -1.498  1.00  0.00     0.017 C 
BRANCH  13  15
HETATM   15  C2  UNL     1      -5.940   2.632  -1.552  1.00  0.00    -0.089 C 
HETATM   16  C1  UNL     1      -6.677   3.032  -2.575  1.00  0.00     0.014 C 
HETATM   17  C3  UNL     1      -5.751   3.593  -0.428  1.00  0.00     0.043 C 
ENDBRANCH  13  15
BRANCH   5  18
HETATM   18  O1  UNL     1      -1.850   1.372   0.121  1.00  0.00    -0.389 OA
ATOM     19  H1  UNL     1      -1.386   1.235  -0.697  1.00  0.00     0.210 HD
ENDBRANCH   5  18
ENDBRANCH   4   5
ENDBRANCH   3   4
ENDBRANCH   2   3
ENDBRANCH   1   2
BRANCH   1  20
HETATM   20  C16 UNL     1       2.387  -2.734   2.653  1.00  0.00     0.000 C 
BRANCH  20  21
HETATM   21  C17 UNL     1       3.131  -2.999   1.416  1.00  0.00     0.002 C 
BRANCH  21  22
HETATM   22  C18 UNL     1       4.161  -2.066   0.994  1.00  0.00     0.034 C 
BRANCH  22  23
HETATM   23  C19 UNL     1       3.946  -0.649   0.661  1.00  0.00     0.149 C 
BRANCH  23  24
HETATM   24  O2  UNL     1       3.049  -0.393  -0.370  1.00  0.00    -0.393 OA
ATOM     25  H2  UNL     1       2.910   0.522  -0.585  1.00  0.00     0.210 HD
ENDBRANCH  23  24
BRANCH  23  26
HETATM   26  C20 UNL     1       5.346  -0.143   0.180  1.00  0.00     0.182 C 
HETATM   27  O3  UNL     1       5.285   1.202  -0.084  1.00  0.00    -0.371 OA
HETATM   28  C21 UNL     1       6.458   1.461  -0.754  1.00  0.00     0.177 C 
HETATM   29  C23 UNL     1       6.754   0.292  -1.637  1.00  0.00     0.180 C 
HETATM   30  C24 UNL     1       5.716  -0.737  -1.151  1.00  0.00     0.180 C 
BRANCH  28  31
HETATM   31  C22 UNL     1       6.365   2.701  -1.623  1.00  0.00     0.198 C 
BRANCH  31  32
HETATM   32  O4  UNL     1       6.075   3.799  -0.850  1.00  0.00    -0.398 OA
ATOM     33  H4  UNL     1       6.017   4.576  -1.394  1.00  0.00     0.209 HD
ENDBRANCH  31  32
ENDBRANCH  28  31
BRANCH  29  34
HETATM   34  O5  UNL     1       6.625   0.553  -2.979  1.00  0.00    -0.390 OA
ATOM     35  H5  UNL     1       6.813  -0.190  -3.540  1.00  0.00     0.210 HD
ENDBRANCH  29  34
BRANCH  30  36
HETATM   36  O6  UNL     1       4.682  -0.673  -2.050  1.00  0.00    -0.390 OA
ATOM     37  H6  UNL     1       4.916  -1.048  -2.891  1.00  0.00     0.210 HD
ENDBRANCH  30  36
ENDBRANCH  23  26
ENDBRANCH  22  23
ENDBRANCH  21  22
ENDBRANCH  20  21
ENDBRANCH   1  20
TORSDOF 16
