REMARK  12 active torsions:
REMARK  status: ('A' for Active; 'I' for Inactive)
REMARK    1  A    between atoms: O1_2  and  C2_3 
REMARK    2  A    between atoms: C2_3  and  C3_4 
REMARK    3  A    between atoms: C3_4  and  O2_5 
REMARK    4  A    between atoms: O2_5  and  C4_6 
REMARK    5  A    between atoms: C7_9  and  O3_10 
REMARK    6  A    between atoms: O3_10  and  C8_11 
REMARK    7  A    between atoms: C8_11  and  C9_12 
REMARK    8  A    between atoms: C9_12  and  N1_13 
REMARK    9  A    between atoms: N1_13  and  C10_16 
REMARK   10  A    between atoms: C10_16  and  C11_17 
REMARK   11  A    between atoms: C12_18  and  C13_19 
REMARK   12  A    between atoms: C20_35  and  N6_36 
ROOT
HETATM    1  C11 UNL     1      -3.679  -0.797   0.472  1.00  0.00     0.008 A 
HETATM    2  C12 UNL     1      -4.342   0.450   0.290  1.00  0.00     0.024 A 
HETATM    3  N2  UNL     1      -5.506   0.160  -0.263  1.00  0.00    -0.344 N 
ATOM      4  H2  UNL     1      -6.205   0.856  -0.522  1.00  0.00     0.167 HD
HETATM    5  C18 UNL     1      -5.659  -1.178  -0.445  1.00  0.00     0.136 A 
HETATM    6  N3  UNL     1      -6.691  -1.966  -0.864  1.00  0.00    -0.176 N 
ATOM      7  H3  UNL     1      -7.531  -1.511  -1.222  1.00  0.00     0.186 HD
HETATM    8  C19 UNL     1      -6.661  -3.302  -0.831  1.00  0.00     0.679 A 
HETATM    9  N4  UNL     1      -7.674  -4.007  -1.297  1.00  0.00    -0.234 N 
ATOM     10  H41 UNL     1      -7.651  -5.026  -1.272  1.00  0.00     0.174 HD
ATOM     11  H42 UNL     1      -8.513  -3.545  -1.647  1.00  0.00     0.174 HD
HETATM   12  N5  UNL     1      -5.530  -3.925  -0.359  1.00  0.00    -0.176 N 
ATOM     13  H5  UNL     1      -5.483  -4.943  -0.326  1.00  0.00     0.186 HD
HETATM   14  C20 UNL     1      -4.479  -3.184   0.062  1.00  0.00     0.129 A 
HETATM   15  C21 UNL     1      -4.514  -1.776   0.024  1.00  0.00     0.062 A 
ENDROOT
BRANCH   1  16
HETATM   16  C10 UNL     1      -2.404  -0.853   1.161  1.00  0.00     0.274 C 
BRANCH  16  17
HETATM   17  N1  UNL     1      -1.423  -1.577   0.239  1.00  0.00    -0.069 N 
ATOM     18  H12 UNL     1      -1.816  -2.141  -0.515  1.00  0.00     0.277 HD
ATOM     19  H11 UNL     1      -0.906  -2.365   0.629  1.00  0.00     0.277 HD
BRANCH  17  20
HETATM   20  C9  UNL     1      -0.618  -0.330  -0.156  1.00  0.00     0.259 C 
BRANCH  20  21
HETATM   21  C8  UNL     1       0.210   0.102   1.044  1.00  0.00     0.203 C 
BRANCH  21  22
HETATM   22  O3  UNL     1       1.181  -0.966   1.170  1.00  0.00    -0.349 OA
BRANCH  22  23
HETATM   23  C7  UNL     1       2.480  -0.594   0.795  1.00  0.00     0.069 A 
HETATM   24  C6  UNL     1       3.421  -1.575   0.692  1.00  0.00     0.039 A 
HETATM   25  C5  UNL     1       4.728  -1.331   0.343  1.00  0.00     0.040 A 
HETATM   26  C4  UNL     1       5.106  -0.010   0.078  1.00  0.00     0.074 A 
HETATM   27  C23 UNL     1       4.140   1.030   0.189  1.00  0.00    -0.026 A 
HETATM   28  C22 UNL     1       2.874   0.693   0.535  1.00  0.00     0.046 A 
HETATM   29  C24 UNL     1       4.642   2.425   0.032  1.00  0.00     0.051 C 
BRANCH  26  30
HETATM   30  O2  UNL     1       6.320   0.263  -0.278  1.00  0.00    -0.349 OA
BRANCH  30  31
HETATM   31  C3  UNL     1       7.575   0.208  -0.627  1.00  0.00     0.201 C 
BRANCH  31  32
HETATM   32  C2  UNL     1       8.250  -1.166  -0.509  1.00  0.00     0.193 C 
BRANCH  32  33
HETATM   33  O1  UNL     1       9.562  -1.181  -0.914  1.00  0.00    -0.394 OA
HETATM   34  C1  UNL     1      10.427  -0.363  -0.225  1.00  0.00     0.201 C 
ENDBRANCH  32  33
ENDBRANCH  31  32
ENDBRANCH  30  31
ENDBRANCH  26  30
ENDBRANCH  22  23
ENDBRANCH  21  22
ENDBRANCH  20  21
ENDBRANCH  17  20
ENDBRANCH  16  17
ENDBRANCH   1  16
BRANCH   2  35
HETATM   35  C13 UNL     1      -3.762   1.778   0.640  1.00  0.00     0.036 C 
HETATM   36  C14 UNL     1      -4.940   2.659   1.132  1.00  0.00     0.011 C 
HETATM   37  C15 UNL     1      -5.295   3.563   0.037  1.00  0.00     0.001 C 
HETATM   38  C16 UNL     1      -4.095   3.672  -0.870  1.00  0.00     0.001 C 
HETATM   39  C17 UNL     1      -3.136   2.602  -0.429  1.00  0.00     0.011 C 
ENDBRANCH   2  35
BRANCH  14  40
HETATM   40  N6  UNL     1      -3.490  -3.753   0.617  1.00  0.00    -0.384 N 
ATOM     41  H62 UNL     1      -3.465  -4.772   0.645  1.00  0.00     0.157 HD
ATOM     42  H61 UNL     1      -2.698  -3.194   0.934  1.00  0.00     0.157 HD
ENDBRANCH  14  40
TORSDOF 12
