REMARK  11 active torsions:
REMARK  status: ('A' for Active; 'I' for Inactive)
REMARK    1  A    between atoms: C2_2  and  N1_3 
REMARK    2  A    between atoms: N1_3  and  C4_5 
REMARK    3  A    between atoms: N1_3  and  C6_7 
REMARK    4  A    between atoms: C6_7  and  C7_8 
REMARK    5  A    between atoms: C7_8  and  C8_9 
REMARK    6  A    between atoms: C8_9  and  C9_10 
REMARK    7  A    between atoms: C9_10  and  C10_11 
REMARK    8  A    between atoms: C10_11  and  N2_12 
REMARK    9  A    between atoms: N2_12  and  C11_14 
REMARK   10  A    between atoms: C23_31  and  C24_32 
REMARK   11  A    between atoms: C24_32  and  N6_33 
ROOT
HETATM    1  C11 UNL     1       1.935  -0.331   1.271  1.00  0.00     0.118 A 
HETATM    2  C12 UNL     1       1.214  -0.017   0.146  1.00  0.00     0.139 A 
HETATM    3  N3  UNL     1      -0.006  -0.578  -0.016  1.00  0.00    -0.354 N 
HETATM    4  C13 UNL     1      -0.823  -0.290  -1.179  1.00  0.00     0.156 C 
HETATM    5  C14 UNL     1      -0.491  -1.422   0.912  1.00  0.00     0.087 A 
HETATM    6  C15 UNL     1      -1.674  -2.139   1.035  1.00  0.00    -0.000 A 
HETATM    7  C16 UNL     1      -1.648  -2.870   2.228  1.00  0.00     0.024 A 
HETATM    8  N4  UNL     1      -0.479  -2.607   2.817  1.00  0.00    -0.343 N 
ATOM      9  H4  UNL     1      -0.170  -2.997   3.707  1.00  0.00     0.167 HD
HETATM   10  C17 UNL     1       0.237  -1.742   2.053  1.00  0.00     0.135 A 
HETATM   11  N5  UNL     1       1.449  -1.175   2.197  1.00  0.00    -0.326 N 
ATOM     12  H5  UNL     1       2.008  -1.389   3.023  1.00  0.00     0.169 HD
HETATM   13  C18 UNL     1      -2.814  -3.734   2.620  1.00  0.00     0.097 C 
HETATM   14  C19 UNL     1      -4.041  -2.904   2.313  1.00  0.00    -0.045 A 
HETATM   15  C20 UNL     1      -5.117  -2.830   3.165  1.00  0.00     0.008 A 
HETATM   16  C21 UNL     1      -6.230  -2.057   2.867  1.00  0.00     0.001 A 
HETATM   17  C22 UNL     1      -6.231  -1.350   1.675  1.00  0.00     0.009 A 
HETATM   18  C23 UNL     1      -5.164  -1.408   0.804  1.00  0.00    -0.033 A 
HETATM   19  C32 UNL     1      -4.072  -2.184   1.125  1.00  0.00    -0.039 A 
HETATM   20  C33 UNL     1      -2.882  -2.294   0.225  1.00  0.00     0.082 C 
ENDROOT
BRANCH   1  21
HETATM   21  N2  UNL     1       3.091   0.166   1.470  1.00  0.00    -0.375 N 
ATOM     22  H2  UNL     1       3.560  -0.119   2.330  1.00  0.00     0.161 HD
BRANCH  21  23
HETATM   23  C10 UNL     1       3.810   1.074   0.635  1.00  0.00     0.121 C 
BRANCH  23  24
HETATM   24  C9  UNL     1       4.529   0.393  -0.496  1.00  0.00     0.020 C 
BRANCH  24  25
HETATM   25  C8  UNL     1       5.533  -0.644  -0.051  1.00  0.00     0.003 C 
BRANCH  25  26
HETATM   26  C7  UNL     1       6.591  -0.030   0.799  1.00  0.00     0.028 C 
BRANCH  26  27
HETATM   27  C6  UNL     1       7.439   1.019   0.197  1.00  0.00     0.237 C 
BRANCH  27  28
HETATM   28  N1  UNL     1       8.311   0.696  -0.867  1.00  0.00    -0.072 N 
HETATM   29  C3  UNL     1       8.352  -0.663  -1.310  1.00  0.00     0.272 C 
BRANCH  28  30
HETATM   30  C2  UNL     1       9.687   1.102  -0.486  1.00  0.00     0.232 C 
HETATM   31  C1  UNL     1      10.354   0.050   0.345  1.00  0.00     0.035 C 
ENDBRANCH  28  30
BRANCH  28  32
HETATM   32  C4  UNL     1       8.017   1.530  -2.023  1.00  0.00     0.232 C 
HETATM   33  C5  UNL     1       8.166   2.996  -1.687  1.00  0.00     0.035 C 
ENDBRANCH  28  32
ENDBRANCH  27  28
ENDBRANCH  26  27
ENDBRANCH  25  26
ENDBRANCH  24  25
ENDBRANCH  23  24
ENDBRANCH  21  23
ENDBRANCH   1  21
BRANCH  18  34
HETATM   34  C24 UNL     1      -5.130  -0.669  -0.486  1.00  0.00     0.165 C 
BRANCH  34  35
HETATM   35  N6  UNL     1      -6.358   0.106  -0.648  1.00  0.00    -0.346 N 
HETATM   36  C25 UNL     1      -6.534   1.472  -0.201  1.00  0.00     0.133 C 
HETATM   37  C26 UNL     1      -7.568   2.012  -1.166  1.00  0.00     0.034 C 
HETATM   38  C27 UNL     1      -8.339   3.072  -0.518  1.00  0.00     0.021 C 
HETATM   39  C29 UNL     1      -8.401   0.825  -1.485  1.00  0.00     0.120 C 
HETATM   40  C28 UNL     1      -9.465   2.538   0.283  1.00  0.00     0.110 C 
HETATM   41  S1  UNL     1      -9.784   0.896  -0.376  1.00  0.00     0.033 S 
HETATM   42  O1  UNL     1     -11.244   0.923  -1.203  1.00  0.00    -0.257 OA
HETATM   43  C30 UNL     1      -8.934   0.934  -2.898  1.00  0.00     0.040 C 
HETATM   44  C31 UNL     1      -7.549  -0.350  -1.260  1.00  0.00     0.241 C 
HETATM   45  O2  UNL     1      -7.836  -1.561  -1.564  1.00  0.00    -0.271 OA
ENDBRANCH  34  35
ENDBRANCH  18  34
TORSDOF 11
