REMARK  11 active torsions:
REMARK  status: ('A' for Active; 'I' for Inactive)
REMARK    1  A    between atoms: C2_2  and  C3_3 
REMARK    2  A    between atoms: C5_5  and  C6_6 
REMARK    3  A    between atoms: C6_6  and  C7_7 
REMARK    4  A    between atoms: C7_7  and  C8_8 
REMARK    5  A    between atoms: C8_8  and  C9_9 
REMARK    6  A    between atoms: C9_9  and  N1_10 
REMARK    7  A    between atoms: N2_17  and  C16_18 
REMARK    8  A    between atoms: C20_22  and  S1_23 
REMARK    9  A    between atoms: C22_27  and  C23_28 
REMARK   10  A    between atoms: C27_34  and  C28_35 
REMARK   11  A    between atoms: C28_35  and  C29_36 
ROOT
HETATM    1  C16 UNL     1      -0.919  -2.558  -1.390  1.00  0.00     0.050 A 
HETATM    2  C17 UNL     1      -0.370  -3.463  -2.267  1.00  0.00     0.031 A 
HETATM    3  C18 UNL     1      -1.218  -4.313  -2.991  1.00  0.00     0.004 A 
HETATM    4  C19 UNL     1      -2.591  -4.239  -2.822  1.00  0.00     0.024 A 
HETATM    5  C20 UNL     1      -3.142  -3.320  -1.933  1.00  0.00     0.071 A 
HETATM    6  C22 UNL     1      -2.282  -2.501  -1.238  1.00  0.00     0.015 A 
ENDROOT
BRANCH   1   7
HETATM    7  N2  UNL     1      -0.096  -1.701  -0.635  1.00  0.00    -0.331 N 
HETATM    8  C15 UNL     1       0.778  -0.836  -1.177  1.00  0.00     0.103 A 
HETATM    9  C5  UNL     1       1.596   0.005  -0.421  1.00  0.00    -0.042 A 
HETATM   10  C4  UNL     1       1.512  -0.043   0.944  1.00  0.00     0.017 A 
HETATM   11  C3  UNL     1       0.612  -0.933   1.536  1.00  0.00    -0.042 A 
HETATM   12  C33 UNL     1      -0.142  -1.712   0.721  1.00  0.00     0.103 A 
BRANCH   9  13
HETATM   13  C6  UNL     1       2.546   0.932  -1.099  1.00  0.00     0.040 C 
BRANCH  13  14
HETATM   14  C7  UNL     1       3.866   0.305  -1.388  1.00  0.00     0.006 C 
BRANCH  14  15
HETATM   15  C8  UNL     1       4.662  -0.165  -0.235  1.00  0.00     0.021 C 
BRANCH  15  16
HETATM   16  C9  UNL     1       5.120   0.863   0.741  1.00  0.00     0.128 C 
BRANCH  16  17
HETATM   17  N1  UNL     1       5.995   1.869   0.180  1.00  0.00    -0.366 N 
HETATM   18  C10 UNL     1       7.338   1.655   0.169  1.00  0.00     0.090 A 
HETATM   19  C11 UNL     1       8.219   2.557  -0.331  1.00  0.00     0.017 A 
HETATM   20  C12 UNL     1       7.765   3.743  -0.853  1.00  0.00     0.003 A 
HETATM   21  C13 UNL     1       6.411   3.982  -0.851  1.00  0.00     0.017 A 
HETATM   22  C14 UNL     1       5.552   3.024  -0.327  1.00  0.00     0.090 A 
ENDBRANCH  16  17
ENDBRANCH  15  16
ENDBRANCH  14  15
ENDBRANCH  13  14
ENDBRANCH   9  13
BRANCH  11  23
HETATM   23  C2  UNL     1       0.525  -0.980   3.024  1.00  0.00     0.035 C 
HETATM   24  C1  UNL     1       1.548  -2.034   3.469  1.00  0.00     0.010 C 
ENDBRANCH  11  23
ENDBRANCH   1   7
BRANCH   6  25
HETATM   25  C23 UNL     1      -2.826  -1.528  -0.313  1.00  0.00     0.045 C 
HETATM   26  C24 UNL     1      -3.004  -0.269  -0.712  1.00  0.00     0.043 A 
HETATM   27  N3  UNL     1      -2.737   0.270  -1.929  1.00  0.00    -0.365 N 
HETATM   28  C27 UNL     1      -3.505   0.762   0.050  1.00  0.00    -0.006 A 
HETATM   29  C25 UNL     1      -3.041   1.564  -1.965  1.00  0.00     0.089 A 
ATOM     30  H3  UNL     1      -2.352  -0.252  -2.716  1.00  0.00     0.165 HD
HETATM   31  C26 UNL     1      -3.529   1.899  -0.724  1.00  0.00     0.030 A 
BRANCH  28  32
HETATM   32  C28 UNL     1      -3.900   0.702   1.303  1.00  0.00     0.045 C 
BRANCH  32  33
HETATM   33  C29 UNL     1      -4.416   1.865   2.015  1.00  0.00     0.059 A 
HETATM   34  N4  UNL     1      -5.684   2.195   2.299  1.00  0.00    -0.307 N 
HETATM   35  C30 UNL     1      -5.685   3.355   2.973  1.00  0.00     0.325 A 
ATOM     36  H4  UNL     1      -6.511   1.654   2.045  1.00  0.00     0.170 HD
HETATM   37  O3  UNL     1      -6.751   3.919   3.378  1.00  0.00    -0.247 OA
HETATM   38  N5  UNL     1      -4.424   3.802   3.141  1.00  0.00    -0.311 N 
HETATM   39  C31 UNL     1      -3.643   2.880   2.549  1.00  0.00     0.036 A 
ATOM     40  H5  UNL     1      -4.126   4.655   3.615  1.00  0.00     0.170 HD
HETATM   41  C32 UNL     1      -2.179   2.954   2.487  1.00  0.00     0.070 C 
ENDBRANCH  32  33
ENDBRANCH  28  32
ENDBRANCH   6  25
BRANCH   5  42
HETATM   42  S1  UNL     1      -4.869  -3.263  -1.727  1.00  0.00     0.172 S 
HETATM   43  C21 UNL     1      -5.670  -4.471  -2.776  1.00  0.00     0.167 C 
HETATM   44  O1  UNL     1      -5.461  -1.936  -2.029  1.00  0.00    -0.223 OA
HETATM   45  O2  UNL     1      -5.239  -3.651  -0.302  1.00  0.00    -0.223 OA
ENDBRANCH   5  42
TORSDOF 11
