REMARK  13 active torsions:
REMARK  status: ('A' for Active; 'I' for Inactive)
REMARK    1  A    between atoms: C4_4  and  C5_5 
REMARK    2  A    between atoms: C7_9  and  N2_10 
REMARK    3  A    between atoms: N4_18  and  C11_19 
REMARK    4  A    between atoms: C11_19  and  C12_20 
REMARK    5  A    between atoms: C12_20  and  C13_21 
REMARK    6  A    between atoms: C13_21  and  C14_22 
REMARK    7  A    between atoms: C15_23  and  C16_24 
REMARK    8  A    between atoms: N5_27  and  C19_28 
REMARK    9  A    between atoms: C19_28  and  C20_29 
REMARK       I    between atoms: C20_29  and  N6_31 
REMARK   10  A    between atoms: N6_31  and  C21_33 
REMARK   11  A    between atoms: C24_36  and  C25_37 
REMARK   12  A    between atoms: C25_37  and  N7_38 
REMARK   13  A    between atoms: C28_41  and  N8_42 
ROOT
HETATM    1  C1  UNL     1     -12.477   2.037  -2.121  1.00  0.00     0.017 C 
HETATM    2  C2  UNL     1     -11.547   2.290  -1.388  1.00  0.00    -0.089 C 
HETATM    3  C3  UNL     1     -10.458   2.612  -0.565  1.00  0.00     0.066 C 
HETATM    4  C4  UNL     1      -9.572   1.937   0.058  1.00  0.00     0.041 C 
ENDROOT
BRANCH   4   5
HETATM    5  C5  UNL     1      -9.317   0.521   0.190  1.00  0.00     0.064 A 
HETATM    6  C6  UNL     1     -10.232  -0.495   0.223  1.00  0.00     0.103 A 
HETATM    7  N1  UNL     1     -11.571  -0.467   0.380  1.00  0.00    -0.188 N 
HETATM    8  C8  UNL     1      -9.834  -1.829   0.157  1.00  0.00     0.080 A 
HETATM    9  C7  UNL     1     -11.997  -1.759   0.402  1.00  0.00     0.677 A 
ATOM     10  H1  UNL     1     -12.154   0.365   0.466  1.00  0.00     0.184 HD
HETATM   11  N3  UNL     1     -10.959  -2.561   0.268  1.00  0.00    -0.190 N 
ATOM     12  H3  UNL     1     -11.002  -3.580   0.251  1.00  0.00     0.184 HD
HETATM   13  C9  UNL     1      -8.497  -2.169   0.058  1.00  0.00     0.050 A 
HETATM   14  C10 UNL     1      -7.614  -1.122   0.034  1.00  0.00     0.093 A 
HETATM   15  N4  UNL     1      -7.972   0.161   0.095  1.00  0.00    -0.355 N 
BRANCH   9  16
HETATM   16  N2  UNL     1     -13.227  -2.103   0.534  1.00  0.00    -0.234 N 
ATOM     17  H22 UNL     1     -14.030  -1.483   0.638  1.00  0.00     0.174 HD
ATOM     18  H21 UNL     1     -13.546  -3.072   0.550  1.00  0.00     0.174 HD
ENDBRANCH   9  16
BRANCH  15  19
HETATM   19  C11 UNL     1      -6.970   1.189   0.102  1.00  0.00     0.129 C 
BRANCH  19  20
HETATM   20  C12 UNL     1      -6.681   1.798  -1.227  1.00  0.00     0.032 C 
BRANCH  20  21
HETATM   21  C13 UNL     1      -6.123   0.811  -2.204  1.00  0.00     0.096 C 
BRANCH  21  22
HETATM   22  C14 UNL     1      -4.831   0.319  -1.720  1.00  0.00    -0.101 C 
HETATM   23  C15 UNL     1      -3.778  -0.098  -1.305  1.00  0.00    -0.067 C 
BRANCH  23  24
HETATM   24  C16 UNL     1      -2.536  -0.612  -0.792  1.00  0.00     0.020 A 
HETATM   25  C17 UNL     1      -2.245  -0.491   0.569  1.00  0.00     0.038 A 
HETATM   26  C18 UNL     1      -1.053  -0.990   1.043  1.00  0.00     0.092 A 
HETATM   27  N5  UNL     1      -0.134  -1.600   0.246  1.00  0.00    -0.358 N 
HETATM   28  C35 UNL     1      -0.394  -1.726  -1.068  1.00  0.00     0.092 A 
HETATM   29  C36 UNL     1      -1.584  -1.232  -1.561  1.00  0.00     0.038 A 
BRANCH  27  30
HETATM   30  C19 UNL     1       1.070  -2.082   0.844  1.00  0.00     0.230 C 
BRANCH  30  31
HETATM   31  C20 UNL     1       2.168  -1.045   0.846  1.00  0.00     0.240 C 
HETATM   32  O1  UNL     1       1.875   0.040   0.326  1.00  0.00    -0.271 OA
HETATM   33  N6  UNL     1       3.391  -1.393   1.421  1.00  0.00    -0.326 N 
ATOM     34  H6  UNL     1       3.467  -2.332   1.811  1.00  0.00     0.169 HD
BRANCH  33  35
HETATM   35  C21 UNL     1       4.533  -0.568   1.514  1.00  0.00     0.034 A 
HETATM   36  C22 UNL     1       5.586  -0.974   2.338  1.00  0.00     0.030 A 
HETATM   37  C23 UNL     1       6.738  -0.252   2.483  1.00  0.00     0.011 A 
HETATM   38  C24 UNL     1       6.910   0.937   1.804  1.00  0.00    -0.040 A 
HETATM   39  C33 UNL     1       5.881   1.346   0.990  1.00  0.00     0.011 A 
HETATM   40  C34 UNL     1       4.711   0.612   0.843  1.00  0.00     0.030 A 
BRANCH  38  41
HETATM   41  C25 UNL     1       8.157   1.738   1.948  1.00  0.00     0.166 C 
BRANCH  41  42
HETATM   42  N7  UNL     1       9.162   1.306   0.982  1.00  0.00    -0.362 N 
HETATM   43  C26 UNL     1      10.043   0.322   1.310  1.00  0.00     0.093 A 
HETATM   44  C27 UNL     1      11.000  -0.091   0.388  1.00  0.00     0.046 A 
HETATM   45  C28 UNL     1      11.086   0.472  -0.863  1.00  0.00     0.032 A 
HETATM   46  C31 UNL     1      10.187   1.466  -1.175  1.00  0.00     0.046 A 
HETATM   47  C32 UNL     1       9.232   1.866  -0.235  1.00  0.00     0.093 A 
BRANCH  45  48
HETATM   48  N8  UNL     1      12.071   0.032  -1.786  1.00  0.00    -0.389 N 
HETATM   49  C29 UNL     1      11.736  -1.049  -2.711  1.00  0.00     0.149 C 
HETATM   50  C30 UNL     1      13.403   0.589  -1.872  1.00  0.00     0.149 C 
ENDBRANCH  45  48
ENDBRANCH  41  42
ENDBRANCH  38  41
ENDBRANCH  33  35
ENDBRANCH  30  31
ENDBRANCH  27  30
ENDBRANCH  23  24
ENDBRANCH  21  22
ENDBRANCH  20  21
ENDBRANCH  19  20
ENDBRANCH  15  19
ENDBRANCH   4   5
TORSDOF 13
