REMARK  16 active torsions:
REMARK  status: ('A' for Active; 'I' for Inactive)
REMARK    1  A    between atoms: C2_2  and  C3_3 
REMARK    2  A    between atoms: C3_3  and  C4_4 
REMARK    3  A    between atoms: C4_4  and  N1_5 
REMARK    4  A    between atoms: C8_9  and  C9_10 
REMARK    5  A    between atoms: C9_10  and  O1_11 
REMARK    6  A    between atoms: O1_11  and  C10_12 
REMARK    7  A    between atoms: C10_12  and  C12_14 
REMARK    8  A    between atoms: C16_19  and  C17_20 
REMARK    9  A    between atoms: C19_22  and  O2_23 
REMARK   10  A    between atoms: C19_22  and  C20_25 
REMARK   11  A    between atoms: C22_27  and  O3_28 
REMARK   12  A    between atoms: C23_32  and  C24_33 
REMARK   13  A    between atoms: C24_33  and  C25_34 
REMARK   14  A    between atoms: C25_34  and  C26_35 
REMARK   15  A    between atoms: C25_34  and  C32_42 
REMARK   16  A    between atoms: C26_35  and  N4_36 
ROOT
HETATM    1  C12 UNL     1       2.909   0.410   0.599  1.00  0.00     0.003 A 
HETATM    2  C13 UNL     1       3.056   1.625  -0.154  1.00  0.00     0.034 A 
HETATM    3  C14 UNL     1       2.067   1.949  -0.962  1.00  0.00     0.117 A 
HETATM    4  N2  UNL     1       0.883   1.255  -1.172  1.00  0.00    -0.268 N 
HETATM    5  C15 UNL     1       0.742   0.097  -0.461  1.00  0.00     0.083 A 
HETATM    6  C16 UNL     1       1.750  -0.328   0.419  1.00  0.00    -0.018 A 
HETATM    7  C19 UNL     1      -0.556  -0.653  -0.524  1.00  0.00     0.166 C 
HETATM    8  C22 UNL     1      -1.182  -0.663  -1.840  1.00  0.00     0.159 C 
HETATM    9  N3  UNL     1      -2.435  -0.496  -2.366  1.00  0.00    -0.324 N 
ATOM     10  H3  UNL     1      -2.557  -0.999  -3.245  1.00  0.00     0.169 HD
HETATM   11  C23 UNL     1      -3.627   0.223  -1.973  1.00  0.00     0.107 C 
HETATM   12  N6  UNL     1      -3.577   1.528  -1.816  1.00  0.00    -0.351 N 
ATOM     13  H6  UNL     1      -4.461   1.946  -1.525  1.00  0.00     0.166 HD
HETATM   14  C40 UNL     1      -2.540   2.446  -1.974  1.00  0.00     0.108 C 
HETATM   15  C41 UNL     1      -1.248   2.530  -2.053  1.00  0.00     0.124 C 
HETATM   16  N7  UNL     1      -0.040   1.878  -2.041  1.00  0.00    -0.304 N 
ATOM     17  H7  UNL     1       0.316   1.825  -2.995  1.00  0.00     0.186 HD
ENDROOT
BRANCH  11  18
HETATM   18  C24 UNL     1      -4.885  -0.519  -1.998  1.00  0.00     0.062 C 
BRANCH  18  19
HETATM   19  C25 UNL     1      -5.956  -0.540  -0.998  1.00  0.00    -0.004 C 
BRANCH  19  20
HETATM   20  C26 UNL     1      -7.048  -1.458  -1.438  1.00  0.00     0.108 C 
BRANCH  20  21
HETATM   21  N4  UNL     1      -8.108  -1.784  -0.577  1.00  0.00    -0.342 N 
HETATM   22  C27 UNL     1      -9.314  -1.353  -0.509  1.00  0.00     0.096 A 
HETATM   23  C28 UNL     1     -10.256  -1.688   0.424  1.00  0.00     0.018 A 
HETATM   24  C29 UNL     1      -9.951  -2.570   1.416  1.00  0.00     0.003 A 
HETATM   25  C30 UNL     1      -8.637  -3.080   1.386  1.00  0.00     0.018 A 
HETATM   26  C31 UNL     1      -7.742  -2.705   0.428  1.00  0.00     0.096 A 
ENDBRANCH  20  21
ENDBRANCH  19  20
BRANCH  19  27
HETATM   27  C32 UNL     1      -6.143   0.499  -0.024  1.00  0.00     0.004 A 
HETATM   28  C33 UNL     1      -5.447   0.670   1.196  1.00  0.00     0.101 A 
HETATM   29  N5  UNL     1      -5.998   1.598   1.962  1.00  0.00    -0.364 N 
HETATM   30  C34 UNL     1      -7.059   2.089   1.327  1.00  0.00     0.043 A 
ATOM     31  H5  UNL     1      -5.666   1.887   2.882  1.00  0.00     0.165 HD
HETATM   32  C35 UNL     1      -7.925   3.106   1.749  1.00  0.00     0.030 A 
HETATM   33  C39 UNL     1      -7.174   1.443   0.117  1.00  0.00     0.003 A 
HETATM   34  C36 UNL     1      -8.941   3.467   0.891  1.00  0.00     0.002 A 
HETATM   35  C37 UNL     1      -9.088   2.847  -0.332  1.00  0.00     0.001 A 
HETATM   36  C38 UNL     1      -8.216   1.863  -0.687  1.00  0.00     0.014 A 
ENDBRANCH  19  27
ENDBRANCH  18  19
ENDBRANCH  11  18
BRANCH   8  37
HETATM   37  O3  UNL     1      -0.265  -0.915  -2.774  1.00  0.00    -0.347 OA
ATOM     38  H3  UNL     1      -0.673  -0.922  -3.632  1.00  0.00     0.219 HD
ENDBRANCH   8  37
BRANCH   7  39
HETATM   39  O2  UNL     1      -0.190  -2.093  -0.477  1.00  0.00    -0.375 OA
ATOM     40  H2  UNL     1      -1.012  -2.568  -0.517  1.00  0.00     0.211 HD
ENDBRANCH   7  39
BRANCH   7  41
HETATM   41  C20 UNL     1      -1.348  -0.541   0.706  1.00  0.00     0.049 C 
HETATM   42  C21 UNL     1      -1.601   0.832   1.273  1.00  0.00     0.009 C 
ENDBRANCH   7  41
BRANCH   6  43
HETATM   43  C17 UNL     1       1.657  -1.527   1.253  1.00  0.00     0.037 C 
HETATM   44  C18 UNL     1       2.439  -2.753   0.839  1.00  0.00     0.010 C 
ENDBRANCH   6  43
BRANCH   1  45
HETATM   45  C10 UNL     1       4.077   0.145   1.448  1.00  0.00     0.053 C 
HETATM   46  C11 UNL     1       4.335   1.501   2.257  1.00  0.00     0.077 C 
BRANCH  45  47
HETATM   47  O1  UNL     1       4.416  -0.897   2.117  1.00  0.00    -0.350 OA
BRANCH  47  48
HETATM   48  C9  UNL     1       5.743  -1.230   2.189  1.00  0.00     0.215 C 
BRANCH  48  49
HETATM   49  C8  UNL     1       6.493  -1.345   0.947  1.00  0.00    -0.018 A 
HETATM   50  C7  UNL     1       6.224  -2.329   0.046  1.00  0.00     0.012 A 
HETATM   51  C6  UNL     1       6.987  -2.429  -1.111  1.00  0.00     0.018 A 
HETATM   52  C5  UNL     1       7.999  -1.544  -1.333  1.00  0.00     0.090 A 
HETATM   53  N1  UNL     1       8.294  -0.544  -0.445  1.00  0.00    -0.366 N 
HETATM   54  C42 UNL     1       7.551  -0.464   0.652  1.00  0.00     0.099 A 
BRANCH  53  55
HETATM   55  C4  UNL     1       9.433   0.328  -0.750  1.00  0.00     0.128 C 
BRANCH  55  56
HETATM   56  C3  UNL     1      10.631  -0.300  -0.047  1.00  0.00     0.020 C 
BRANCH  56  57
HETATM   57  C2  UNL     1      11.920   0.399  -0.325  1.00  0.00    -0.003 C 
HETATM   58  C1  UNL     1      11.917   1.863   0.006  1.00  0.00     0.005 C 
ENDBRANCH  56  57
ENDBRANCH  55  56
ENDBRANCH  53  55
ENDBRANCH  48  49
ENDBRANCH  47  48
ENDBRANCH  45  47
ENDBRANCH   1  45
TORSDOF 16
