REMARK  16 active torsions:
REMARK  status: ('A' for Active; 'I' for Inactive)
REMARK    1  A    between atoms: N1_2  and  C4_5 
REMARK    2  A    between atoms: C7_8  and  C8_9 
REMARK    3  A    between atoms: C10_11  and  N2_12 
REMARK    4  A    between atoms: N2_12  and  C11_13 
REMARK    5  A    between atoms: N2_12  and  S1_33 
REMARK    6  A    between atoms: C11_13  and  C12_14 
REMARK    7  A    between atoms: C13_15  and  C14_16 
REMARK    8  A    between atoms: C14_16  and  N3_17 
REMARK       I    between atoms: N3_17  and  C15_19 
REMARK       I    between atoms: C15_19  and  N5_23 
REMARK    9  A    between atoms: N5_23  and  C16_25 
REMARK   10  A    between atoms: C16_25  and  C17_26 
REMARK   11  A    between atoms: C17_26  and  C18_27 
REMARK   12  A    between atoms: N6_39  and  C27_40 
REMARK   13  A    between atoms: C27_40  and  N7_41 
REMARK   14  A    between atoms: N8_43  and  C28_45 
REMARK   15  A    between atoms: C28_45  and  C29_46 
REMARK   16  A    between atoms: C29_46  and  C30_47 
ROOT
HETATM    1  C8  UNL     1      -1.668  -2.297   1.073  1.00  0.00     0.072 A 
HETATM    2  C9  UNL     1      -0.525  -2.629   0.321  1.00  0.00     0.063 A 
HETATM    3  C10 UNL     1       0.719  -2.135   0.503  1.00  0.00     0.049 A 
HETATM    4  C25 UNL     1       0.856  -1.206   1.541  1.00  0.00     0.047 A 
HETATM    5  C26 UNL     1      -0.222  -0.858   2.288  1.00  0.00     0.095 A 
HETATM    6  N6  UNL     1      -1.470  -1.415   2.037  1.00  0.00    -0.337 N 
ENDROOT
BRANCH   3   7
HETATM    7  N2  UNL     1       1.890  -2.465  -0.196  1.00  0.00    -0.265 N 
BRANCH   7   8
HETATM    8  C11 UNL     1       2.322  -1.687  -1.323  1.00  0.00     0.235 C 
BRANCH   8   9
HETATM    9  C12 UNL     1       3.237  -0.609  -0.913  1.00  0.00    -0.084 C 
HETATM   10  C13 UNL     1       3.993   0.289  -0.597  1.00  0.00    -0.085 C 
BRANCH  10  11
HETATM   11  C14 UNL     1       4.915   1.404  -0.237  1.00  0.00     0.232 C 
BRANCH  11  12
HETATM   12  N3  UNL     1       5.097   1.453   1.181  1.00  0.00    -0.216 N 
HETATM   13  C15 UNL     1       5.884   2.381   1.831  1.00  0.00     0.668 C 
HETATM   14  N4  UNL     1       5.719   2.558   3.129  1.00  0.00    -0.235 N 
HETATM   15  N5  UNL     1       6.873   3.182   1.227  1.00  0.00    -0.227 N 
ATOM     16  H42 UNL     1       5.003   1.978   3.566  1.00  0.00     0.174 HD
ATOM     17  H41 UNL     1       6.301   3.244   3.610  1.00  0.00     0.174 HD
ATOM     18  H5  UNL     1       7.826   3.105   1.583  1.00  0.00     0.177 HD
ATOM     19  H3  UNL     1       4.614   0.757   1.748  1.00  0.00     0.178 HD
BRANCH  15  20
HETATM   20  C16 UNL     1       6.640   4.094   0.153  1.00  0.00     0.142 C 
BRANCH  20  21
HETATM   21  C17 UNL     1       7.836   4.955  -0.119  1.00  0.00     0.058 C 
BRANCH  21  22
HETATM   22  C18 UNL     1       9.032   4.188  -0.498  1.00  0.00    -0.057 A 
HETATM   23  C19 UNL     1      10.011   3.851   0.422  1.00  0.00     0.007 A 
HETATM   24  C20 UNL     1      11.135   3.139   0.090  1.00  0.00     0.001 A 
HETATM   25  C21 UNL     1      11.324   2.731  -1.211  1.00  0.00     0.000 A 
HETATM   26  C22 UNL     1      10.343   3.071  -2.126  1.00  0.00     0.001 A 
HETATM   27  C23 UNL     1       9.215   3.779  -1.810  1.00  0.00     0.007 A 
ENDBRANCH  21  22
ENDBRANCH  20  21
ENDBRANCH  15  20
ENDBRANCH  11  12
ENDBRANCH  10  11
ENDBRANCH   8   9
ENDBRANCH   7   8
BRANCH   7  28
HETATM   28  S1  UNL     1       2.826  -3.814   0.329  1.00  0.00     0.230 S 
HETATM   29  C24 UNL     1       1.783  -5.248   0.171  1.00  0.00     0.186 C 
HETATM   30  O1  UNL     1       4.133  -3.940  -0.349  1.00  0.00    -0.206 OA
HETATM   31  O2  UNL     1       3.123  -3.699   1.824  1.00  0.00    -0.206 OA
ENDBRANCH   7  28
ENDBRANCH   3   7
BRANCH   1  32
HETATM   32  C7  UNL     1      -2.919  -3.009   0.773  1.00  0.00     0.104 A 
HETATM   33  C6  UNL     1      -4.200  -2.886   1.131  1.00  0.00     0.044 A 
HETATM   34  C5  UNL     1      -4.931  -3.901   0.491  1.00  0.00     0.067 A 
HETATM   35  C4  UNL     1      -4.010  -4.606  -0.249  1.00  0.00     0.248 A 
HETATM   36  O3  UNL     1      -2.875  -4.062  -0.059  1.00  0.00    -0.285 OA
BRANCH  35  37
HETATM   37  N1  UNL     1      -4.268  -5.746  -1.083  1.00  0.00    -0.027 N 
HETATM   38  C1  UNL     1      -3.417  -5.747  -2.247  1.00  0.00     0.281 C 
HETATM   39  C2  UNL     1      -5.652  -5.830  -1.444  1.00  0.00     0.281 C 
HETATM   40  C3  UNL     1      -3.919  -6.936  -0.288  1.00  0.00     0.281 C 
ENDBRANCH  35  37
ENDBRANCH   1  32
BRANCH   6  41
HETATM   41  C27 UNL     1      -2.518  -0.947   2.896  1.00  0.00     0.268 C 
BRANCH  41  42
HETATM   42  N7  UNL     1      -3.128   0.271   2.405  1.00  0.00    -0.322 N 
HETATM   43  N8  UNL     1      -3.167   0.620   1.253  1.00  0.00    -0.339 N 
ATOM     44  H8  UNL     1      -2.724  -0.026   0.600  1.00  0.00     0.179 HD
ATOM     45  H7  UNL     1      -3.562   0.886   3.094  1.00  0.00     0.181 HD
BRANCH  43  46
HETATM   46  C28 UNL     1      -3.723   1.774   0.652  1.00  0.00     0.143 C 
BRANCH  46  47
HETATM   47  C29 UNL     1      -4.744   1.409  -0.379  1.00  0.00     0.060 C 
BRANCH  47  48
HETATM   48  C30 UNL     1      -5.371   2.554  -1.056  1.00  0.00    -0.045 A 
HETATM   49  C31 UNL     1      -4.935   2.902  -2.337  1.00  0.00     0.008 A 
HETATM   50  C32 UNL     1      -5.461   3.959  -3.039  1.00  0.00     0.001 A 
HETATM   51  C33 UNL     1      -6.454   4.729  -2.499  1.00  0.00     0.012 A 
HETATM   52  C34 UNL     1      -6.907   4.411  -1.235  1.00  0.00    -0.025 A 
HETATM   53  C35 UNL     1      -7.913   5.185  -0.694  1.00  0.00     0.012 A 
HETATM   54  C39 UNL     1      -6.367   3.343  -0.540  1.00  0.00    -0.020 A 
HETATM   55  C36 UNL     1      -8.383   4.883   0.559  1.00  0.00     0.001 A 
HETATM   56  C37 UNL     1      -7.849   3.826   1.246  1.00  0.00     0.001 A 
HETATM   57  C38 UNL     1      -6.846   3.050   0.715  1.00  0.00     0.013 A 
ENDBRANCH  47  48
ENDBRANCH  46  47
ENDBRANCH  43  46
ENDBRANCH  41  42
ENDBRANCH   6  41
TORSDOF 16
