REMARK  11 active torsions:
REMARK  status: ('A' for Active; 'I' for Inactive)
REMARK    1  A    between atoms: C2_2  and  C4_4 
REMARK    2  A    between atoms: C4_4  and  C5_5 
REMARK    3  A    between atoms: C5_5  and  N1_7 
REMARK    4  A    between atoms: N1_7  and  C7_9 
REMARK    5  A    between atoms: C8_11  and  C9_12 
REMARK    6  A    between atoms: C9_12  and  C10_14 
REMARK    7  A    between atoms: C10_14  and  O3_15 
REMARK    8  A    between atoms: C10_14  and  C11_17 
REMARK    9  A    between atoms: C11_17  and  O4_18 
REMARK   10  A    between atoms: C12_20  and  O5_21 
REMARK   11  A    between atoms: C13_23  and  O6_24 
ROOT
HETATM    1  C7  UNL     1      -0.223  -0.447  -0.323  1.00  0.00     0.224 C 
HETATM    2  O1  UNL     1       0.756   0.451   0.189  1.00  0.00    -0.351 OA
HETATM    3  C8  UNL     1       2.007   0.108  -0.335  1.00  0.00     0.227 C 
HETATM    4  C12 UNL     1       2.500  -1.150   0.314  1.00  0.00     0.183 C 
HETATM    5  C13 UNL     1       1.367  -1.815   1.041  1.00  0.00     0.157 C 
HETATM    6  C14 UNL     1       0.100  -1.814   0.187  1.00  0.00     0.061 C 
HETATM    7  C15 UNL     1       0.289  -2.877  -0.840  1.00  0.00     0.017 C 
ENDROOT
BRANCH   1   8
HETATM    8  N1  UNL     1      -1.459   0.070   0.073  1.00  0.00    -0.392 N 
ATOM      9  H1  UNL     1      -1.480   0.878   0.695  1.00  0.00     0.156 HD
BRANCH   8  10
HETATM   10  C5  UNL     1      -2.678  -0.490  -0.360  1.00  0.00     0.075 C 
HETATM   11  C6  UNL     1      -2.644  -1.323  -1.592  1.00  0.00     0.032 C 
BRANCH  10  12
HETATM   12  C4  UNL     1      -3.583   0.717  -0.701  1.00  0.00     0.028 C 
BRANCH  12  13
HETATM   13  C2  UNL     1      -3.703   1.632   0.493  1.00  0.00    -0.021 C 
HETATM   14  C1  UNL     1      -4.587   2.792   0.088  1.00  0.00     0.009 C 
HETATM   15  C3  UNL     1      -4.441   0.902   1.617  1.00  0.00     0.009 C 
ENDBRANCH  12  13
ENDBRANCH  10  12
ENDBRANCH   8  10
ENDBRANCH   1   8
BRANCH   3  16
HETATM   16  C9  UNL     1       2.927   1.221  -0.044  1.00  0.00     0.188 C 
HETATM   17  O2  UNL     1       2.519   2.147   0.658  1.00  0.00    -0.292 OA
BRANCH  16  18
HETATM   18  C10 UNL     1       4.326   1.297  -0.554  1.00  0.00     0.213 C 
BRANCH  18  19
HETATM   19  O3  UNL     1       4.732   0.227  -1.297  1.00  0.00    -0.386 OA
ATOM     20  H3  UNL     1       5.623   0.275  -1.622  1.00  0.00     0.210 HD
ENDBRANCH  18  19
BRANCH  18  21
HETATM   21  C11 UNL     1       5.261   1.579   0.596  1.00  0.00     0.203 C 
BRANCH  21  22
HETATM   22  O4  UNL     1       6.554   1.859   0.152  1.00  0.00    -0.398 OA
ATOM     23  H4  UNL     1       7.143   2.037   0.876  1.00  0.00     0.209 HD
ENDBRANCH  21  22
ENDBRANCH  18  21
ENDBRANCH  16  18
ENDBRANCH   3  16
BRANCH   5  24
HETATM   24  O6  UNL     1       1.179  -1.184   2.259  1.00  0.00    -0.392 OA
ATOM     25  H6  UNL     1       0.462  -1.605   2.719  1.00  0.00     0.210 HD
ENDBRANCH   5  24
BRANCH   4  26
HETATM   26  O5  UNL     1       3.055  -1.963  -0.659  1.00  0.00    -0.390 OA
ATOM     27  H5  UNL     1       3.367  -2.760  -0.248  1.00  0.00     0.210 HD
ENDBRANCH   4  26
TORSDOF 11
