REMARK  10 active torsions:
REMARK  status: ('A' for Active; 'I' for Inactive)
REMARK    1  A    between atoms: C2_2  and  C3_3 
REMARK    2  A    between atoms: C3_3  and  N1_4 
REMARK    3  A    between atoms: N1_4  and  C4_7 
REMARK    4  A    between atoms: C9_12  and  O1_13 
REMARK    5  A    between atoms: O1_13  and  C10_14 
REMARK    6  A    between atoms: C11_16  and  C12_17 
REMARK    7  A    between atoms: C12_17  and  O3_18 
REMARK    8  A    between atoms: C13_20  and  O4_21 
REMARK    9  A    between atoms: C14_23  and  O5_24 
REMARK   10  A    between atoms: C15_26  and  O6_27 
ROOT
HETATM    1  C10 UNL     1      -1.186   0.937  -0.537  1.00  0.00     0.292 C 
HETATM    2  O2  UNL     1      -1.245   1.014   0.837  1.00  0.00    -0.348 OA
HETATM    3  C11 UNL     1      -2.193   0.294   1.458  1.00  0.00     0.179 C 
HETATM    4  C13 UNL     1      -3.552   0.762   1.031  1.00  0.00     0.180 C 
HETATM    5  C14 UNL     1      -3.715   0.805  -0.442  1.00  0.00     0.183 C 
HETATM    6  C15 UNL     1      -2.466   0.885  -1.257  1.00  0.00     0.204 C 
ENDROOT
BRANCH   1   7
HETATM    7  O1  UNL     1      -0.268  -0.063  -0.832  1.00  0.00    -0.351 OA
BRANCH   7   8
HETATM    8  C9  UNL     1       0.911   0.363  -1.366  1.00  0.00     0.155 C 
HETATM    9  C4  UNL     1       2.136  -0.013  -0.555  1.00  0.00     0.215 C 
HETATM   10  C5  UNL     1       2.235  -1.490  -0.323  1.00  0.00     0.036 C 
HETATM   11  C6  UNL     1       1.801  -2.270  -1.565  1.00  0.00     0.002 C 
HETATM   12  C7  UNL     1       2.148  -1.360  -2.730  1.00  0.00     0.003 C 
HETATM   13  C8  UNL     1       1.100  -0.254  -2.731  1.00  0.00     0.034 C 
BRANCH   9  14
HETATM   14  N1  UNL     1       2.223   0.660   0.712  1.00  0.00    -0.065 N 
ATOM     15  H12 UNL     1       1.455   0.421   1.339  1.00  0.00     0.278 HD
ATOM     16  H11 UNL     1       2.036   1.660   0.641  1.00  0.00     0.278 HD
BRANCH  14  17
HETATM   17  C3  UNL     1       3.524   0.372   1.283  1.00  0.00     0.259 C 
BRANCH  17  18
HETATM   18  C2  UNL     1       3.654   1.102   2.575  1.00  0.00    -0.010 C 
HETATM   19  C1  UNL     1       3.855   0.477   3.730  1.00  0.00     0.008 C 
ENDBRANCH  17  18
ENDBRANCH  14  17
ENDBRANCH   9  14
ENDBRANCH   7   8
ENDBRANCH   1   7
BRANCH   6  20
HETATM   20  O6  UNL     1      -2.443  -0.214  -2.120  1.00  0.00    -0.388 OA
ATOM     21  H6  UNL     1      -3.270  -0.248  -2.585  1.00  0.00     0.210 HD
ENDBRANCH   6  20
BRANCH   3  22
HETATM   22  C12 UNL     1      -2.081  -1.200   1.364  1.00  0.00     0.198 C 
BRANCH  22  23
HETATM   23  O3  UNL     1      -3.135  -1.794   2.059  1.00  0.00    -0.398 OA
ATOM     24  H3  UNL     1      -3.064  -2.739   2.000  1.00  0.00     0.209 HD
ENDBRANCH  22  23
ENDBRANCH   3  22
BRANCH   5  25
HETATM   25  O5  UNL     1      -4.590   1.889  -0.714  1.00  0.00    -0.390 OA
ATOM     26  H5  UNL     1      -4.694   1.917  -1.658  1.00  0.00     0.210 HD
ENDBRANCH   5  25
BRANCH   4  27
HETATM   27  O4  UNL     1      -3.778   1.996   1.647  1.00  0.00    -0.390 OA
ATOM     28  H4  UNL     1      -4.639   2.293   1.376  1.00  0.00     0.210 HD
ENDBRANCH   4  27
TORSDOF 10
