REMARK  17 active torsions:
REMARK  status: ('A' for Active; 'I' for Inactive)
REMARK    1  A    between atoms: C4_4  and  C5_5 
REMARK    2  A    between atoms: C5_5  and  C7_7 
REMARK    3  A    between atoms: C8_8  and  C9_9 
REMARK    4  A    between atoms: C10_10  and  O1_11 
REMARK    5  A    between atoms: C12_14  and  O2_15 
REMARK    6  A    between atoms: C14_18  and  C15_19 
REMARK    7  A    between atoms: C15_19  and  C16_20 
REMARK    8  A    between atoms: C17_21  and  C18_22 
REMARK    9  A    between atoms: C18_22  and  C19_23 
REMARK   10  A    between atoms: C19_23  and  C20_24 
REMARK   11  A    between atoms: C20_24  and  C21_25 
REMARK   12  A    between atoms: C21_25  and  C22_26 
REMARK   13  A    between atoms: C22_26  and  C23_27 
REMARK   14  A    between atoms: C23_27  and  O3_28 
REMARK   15  A    between atoms: C23_27  and  C24_30 
REMARK   16  A    between atoms: C26_33  and  O5_34 
REMARK   17  A    between atoms: C27_36  and  O6_37 
ROOT
HETATM    1  C15 UNL     1      -1.214   1.044  -2.113  1.00  0.00     0.032 C 
ENDROOT
BRANCH   1   2
HETATM    2  C14 UNL     1      -2.328   1.992  -1.703  1.00  0.00     0.001 C 
HETATM    3  C9  UNL     1      -2.804   1.765  -0.322  1.00  0.00     0.041 C 
HETATM    4  C10 UNL     1      -2.808   2.990   0.555  1.00  0.00     0.128 C 
HETATM    5  C11 UNL     1      -1.749   3.986   0.325  1.00  0.00     0.064 C 
HETATM    6  C12 UNL     1      -0.957   3.856  -0.935  1.00  0.00     0.121 C 
HETATM    7  C13 UNL     1      -1.911   3.392  -2.015  1.00  0.00     0.037 C 
BRANCH   3   8
HETATM    8  C8  UNL     1      -4.133   1.102  -0.299  1.00  0.00    -0.022 C 
HETATM    9  C7  UNL     1      -4.304  -0.062   0.283  1.00  0.00    -0.022 C 
BRANCH   9  10
HETATM   10  C5  UNL     1      -5.582  -0.803   0.360  1.00  0.00     0.026 C 
HETATM   11  C6  UNL     1      -6.704  -0.042  -0.331  1.00  0.00     0.018 C 
BRANCH  10  12
HETATM   12  C4  UNL     1      -5.513  -2.133  -0.265  1.00  0.00    -0.017 C 
HETATM   13  C2  UNL     1      -5.753  -3.213   0.466  1.00  0.00    -0.091 C 
HETATM   14  C1  UNL     1      -5.693  -4.571  -0.131  1.00  0.00     0.042 C 
HETATM   15  C3  UNL     1      -6.095  -3.110   1.920  1.00  0.00     0.042 C 
ENDBRANCH  10  12
ENDBRANCH   9  10
ENDBRANCH   3   8
BRANCH   4  16
HETATM   16  O1  UNL     1      -4.055   3.594   0.393  1.00  0.00    -0.395 OA
ATOM     17  H1  UNL     1      -4.058   4.366   0.946  1.00  0.00     0.210 HD
ENDBRANCH   4  16
BRANCH   6  18
HETATM   18  O2  UNL     1      -0.459   5.134  -1.244  1.00  0.00    -0.395 OA
ATOM     19  H2  UNL     1       0.045   5.051  -2.045  1.00  0.00     0.210 HD
ENDBRANCH   6  18
ENDBRANCH   1   2
BRANCH   1  20
HETATM   20  C16 UNL     1      -1.591  -0.368  -2.069  1.00  0.00    -0.030 C 
HETATM   21  C17 UNL     1      -1.018  -1.287  -1.355  1.00  0.00    -0.031 C 
BRANCH  21  22
HETATM   22  C18 UNL     1       0.128  -1.039  -0.461  1.00  0.00     0.027 C 
BRANCH  22  23
HETATM   23  C19 UNL     1       1.260  -1.923  -0.972  1.00  0.00     0.004 C 
BRANCH  23  24
HETATM   24  C20 UNL     1       2.516  -1.790  -0.148  1.00  0.00     0.000 C 
BRANCH  24  25
HETATM   25  C21 UNL     1       3.040  -0.393  -0.143  1.00  0.00     0.002 C 
BRANCH  25  26
HETATM   26  C22 UNL     1       4.303  -0.244   0.679  1.00  0.00     0.034 C 
BRANCH  26  27
HETATM   27  C23 UNL     1       5.421  -1.105   0.172  1.00  0.00     0.149 C 
BRANCH  27  28
HETATM   28  O3  UNL     1       5.770  -0.799  -1.143  1.00  0.00    -0.393 OA
ATOM     29  H3  UNL     1       6.478  -1.345  -1.464  1.00  0.00     0.210 HD
ENDBRANCH  27  28
BRANCH  27  30
HETATM   30  C24 UNL     1       6.664  -0.990   1.012  1.00  0.00     0.181 C 
HETATM   31  O4  UNL     1       6.452  -1.265   2.357  1.00  0.00    -0.378 OA
HETATM   32  C25 UNL     1       7.691  -0.980   2.910  1.00  0.00     0.202 C 
HETATM   33  C26 UNL     1       7.957   0.424   2.392  1.00  0.00     0.173 C 
HETATM   34  C27 UNL     1       7.272   0.384   1.035  1.00  0.00     0.180 C 
BRANCH  33  35
HETATM   35  O5  UNL     1       9.331   0.568   2.285  1.00  0.00    -0.391 OA
ATOM     36  H5  UNL     1       9.497   1.446   1.961  1.00  0.00     0.210 HD
ENDBRANCH  33  35
BRANCH  34  37
HETATM   37  O6  UNL     1       8.291   0.498   0.074  1.00  0.00    -0.390 OA
ATOM     38  H6  UNL     1       8.675   1.367   0.089  1.00  0.00     0.210 HD
ENDBRANCH  34  37
ENDBRANCH  27  30
ENDBRANCH  26  27
ENDBRANCH  25  26
ENDBRANCH  24  25
ENDBRANCH  23  24
ENDBRANCH  22  23
ENDBRANCH  21  22
ENDBRANCH   1  20
TORSDOF 17
