REMARK  12 active torsions:
REMARK  status: ('A' for Active; 'I' for Inactive)
REMARK    1  A    between atoms: C2_2  and  C3_3 
REMARK    2  A    between atoms: C3_3  and  C4_4 
REMARK    3  A    between atoms: C4_4  and  N1_5 
REMARK    4  A    between atoms: N1_5  and  C5_6 
REMARK    5  A    between atoms: N1_5  and  C16_24 
REMARK    6  A    between atoms: C5_6  and  C6_7 
REMARK    7  A    between atoms: C6_7  and  N2_8 
REMARK    8  A    between atoms: C9_14  and  C10_15 
REMARK    9  A    between atoms: C16_24  and  C17_25 
REMARK   10  A    between atoms: C17_25  and  O1_26 
REMARK   11  A    between atoms: O1_26  and  C18_27 
REMARK   12  A    between atoms: C25_34  and  N6_35 
ROOT
HETATM    1  N1  UNL     1      -0.636  -2.024  -0.260  1.00  0.00     0.095 N 
ENDROOT
BRANCH   1   2
HETATM    2  C4  UNL     1       0.094  -2.924   0.545  1.00  0.00     0.273 C 
BRANCH   2   3
HETATM    3  C3  UNL     1       0.816  -4.003  -0.180  1.00  0.00     0.030 C 
BRANCH   3   4
HETATM    4  C2  UNL     1      -0.028  -4.968  -0.912  1.00  0.00    -0.003 C 
HETATM    5  C1  UNL     1      -0.910  -5.753  -0.011  1.00  0.00     0.005 C 
ENDBRANCH   3   4
ENDBRANCH   2   3
ENDBRANCH   1   2
BRANCH   1   6
HETATM    6  C5  UNL     1      -0.438  -0.623  -0.051  1.00  0.00     0.317 C 
BRANCH   6   7
HETATM    7  C6  UNL     1       0.914  -0.159  -0.543  1.00  0.00     0.109 C 
BRANCH   7   8
HETATM    8  N2  UNL     1       1.974  -0.772   0.099  1.00  0.00    -0.204 N 
HETATM    9  C7  UNL     1       3.208  -0.485   0.263  1.00  0.00     0.682 A 
HETATM   10  N3  UNL     1       4.065  -1.289   0.962  1.00  0.00    -0.199 N 
HETATM   11  N5  UNL     1       3.953   0.558  -0.146  1.00  0.00    -0.190 N 
HETATM   12  C8  UNL     1       5.270  -0.730   0.958  1.00  0.00     0.137 A 
ATOM     13  H3  UNL     1       3.820  -2.171   1.412  1.00  0.00     0.183 HD
HETATM   14  C9  UNL     1       5.221   0.454   0.254  1.00  0.00     0.075 A 
ATOM     15  H5  UNL     1       3.591   1.336  -0.697  1.00  0.00     0.184 HD
ATOM     16  H2  UNL     1       1.711  -1.653   0.542  1.00  0.00     0.183 HD
BRANCH  14  17
HETATM   17  C10 UNL     1       6.370   1.308   0.057  1.00  0.00    -0.007 A 
HETATM   18  C11 UNL     1       7.614   1.014   0.566  1.00  0.00     0.015 A 
HETATM   19  C12 UNL     1       8.727   1.804   0.393  1.00  0.00     0.027 A 
HETATM   20  C13 UNL     1       8.595   2.983  -0.345  1.00  0.00     0.046 A 
HETATM   21  N4  UNL     1       9.745   3.799  -0.527  1.00  0.00    -0.102 NA
HETATM   22  C14 UNL     1       7.369   3.298  -0.863  1.00  0.00     0.027 A 
HETATM   23  C15 UNL     1       6.264   2.473  -0.666  1.00  0.00     0.015 A 
ENDBRANCH  14  17
ENDBRANCH   7   8
ENDBRANCH   6   7
ENDBRANCH   1   6
BRANCH   1  24
HETATM   24  C16 UNL     1      -2.060  -2.339  -0.342  1.00  0.00     0.299 C 
BRANCH  24  25
HETATM   25  C17 UNL     1      -2.827  -2.207   0.911  1.00  0.00     0.206 C 
BRANCH  25  26
HETATM   26  O1  UNL     1      -2.958  -1.012   1.551  1.00  0.00    -0.349 OA
BRANCH  26  27
HETATM   27  C18 UNL     1      -3.592   0.149   1.229  1.00  0.00     0.069 A 
HETATM   28  C19 UNL     1      -3.468   1.195   2.159  1.00  0.00     0.039 A 
HETATM   29  C20 UNL     1      -4.082   2.412   1.920  1.00  0.00     0.032 A 
HETATM   30  C21 UNL     1      -4.820   2.622   0.776  1.00  0.00     0.034 A 
HETATM   31  C22 UNL     1      -4.949   1.612  -0.139  1.00  0.00    -0.027 A 
HETATM   32  N7  UNL     1      -5.471   3.846   0.503  1.00  0.00    -0.387 N 
HETATM   33  C23 UNL     1      -4.338   0.384   0.087  1.00  0.00     0.046 A 
HETATM   34  C24 UNL     1      -5.725   1.811  -1.359  1.00  0.00     0.075 C 
HETATM   35  C25 UNL     1      -6.864   2.763  -1.224  1.00  0.00     0.205 C 
HETATM   36  C26 UNL     1      -6.706   3.855  -0.232  1.00  0.00     0.153 C 
ATOM     37  H7  UNL     1      -5.064   4.723   0.828  1.00  0.00     0.159 HD
BRANCH  35  38
HETATM   38  N6  UNL     1      -8.085   2.020  -0.863  1.00  0.00    -0.073 N 
ATOM     39  H63 UNL     1      -8.287   1.268  -1.521  1.00  0.00     0.274 HD
ATOM     40  H62 UNL     1      -7.957   1.451  -0.026  1.00  0.00     0.274 HD
ATOM     41  H61 UNL     1      -8.864   2.671  -0.771  1.00  0.00     0.274 HD
ENDBRANCH  35  38
ENDBRANCH  26  27
ENDBRANCH  25  26
ENDBRANCH  24  25
ENDBRANCH   1  24
TORSDOF 12
