REMARK  14 active torsions:
REMARK  status: ('A' for Active; 'I' for Inactive)
REMARK    1  A    between atoms: N1_1  and  C1_5 
REMARK    2  A    between atoms: C2_6  and  C3_7 
REMARK    3  A    between atoms: C3_7  and  C4_8 
REMARK    4  A    between atoms: C5_9  and  C6_10 
REMARK    5  A    between atoms: C6_10  and  C7_11 
REMARK    6  A    between atoms: C7_11  and  C8_12 
REMARK    7  A    between atoms: C8_12  and  C9_13 
REMARK    8  A    between atoms: C9_13  and  C10_14 
REMARK    9  A    between atoms: C10_14  and  S1_15 
REMARK   10  A    between atoms: S1_15  and  C11_16 
REMARK   11  A    between atoms: C15_22  and  C16_23 
REMARK   12  A    between atoms: C16_23  and  O1_24 
REMARK   13  A    between atoms: C17_26  and  O2_27 
REMARK   14  A    between atoms: C18_29  and  O3_30 
ROOT
HETATM    1  C1  UNL     1      -3.873   0.473   0.873  1.00  0.00     0.236 C 
HETATM    2  C2  UNL     1      -3.225   0.900  -0.412  1.00  0.00     0.113 C 
HETATM    3  N2  UNL     1      -3.593  -0.067  -1.425  1.00  0.00    -0.406 N 
ATOM      4  H2  UNL     1      -2.887  -0.583  -1.950  1.00  0.00     0.154 HD
HETATM    5  C15 UNL     1      -4.967  -0.264  -1.654  1.00  0.00     0.132 C 
HETATM    6  C17 UNL     1      -5.846  -0.236  -0.446  1.00  0.00     0.173 C 
HETATM    7  C18 UNL     1      -5.388   0.653   0.643  1.00  0.00     0.181 C 
ENDROOT
BRANCH   2   8
HETATM    8  C3  UNL     1      -1.708   0.878  -0.372  1.00  0.00     0.053 C 
BRANCH   8   9
HETATM    9  C4  UNL     1      -1.138   1.748   0.644  1.00  0.00    -0.029 C 
HETATM   10  C5  UNL     1      -0.357   1.412   1.637  1.00  0.00    -0.031 C 
BRANCH  10  11
HETATM   11  C6  UNL     1       0.085   0.043   1.891  1.00  0.00     0.027 C 
BRANCH  11  12
HETATM   12  C7  UNL     1       1.600  -0.095   1.840  1.00  0.00     0.004 C 
BRANCH  12  13
HETATM   13  C8  UNL     1       2.125   0.305   0.498  1.00  0.00     0.001 C 
BRANCH  13  14
HETATM   14  C9  UNL     1       3.630   0.164   0.475  1.00  0.00     0.010 C 
BRANCH  14  15
HETATM   15  C10 UNL     1       4.090  -1.245   0.737  1.00  0.00     0.074 C 
BRANCH  15  16
HETATM   16  S1  UNL     1       5.877  -1.314   0.694  1.00  0.00    -0.164 SA
BRANCH  16  17
HETATM   17  C11 UNL     1       6.599  -0.980  -0.911  1.00  0.00     0.047 C 
HETATM   18  C12 UNL     1       8.125  -1.139  -0.805  1.00  0.00     0.015 C 
HETATM   19  C13 UNL     1       8.172   0.313  -0.383  1.00  0.00     0.002 C 
HETATM   20  C14 UNL     1       6.893   0.496  -1.210  1.00  0.00     0.015 C 
ENDBRANCH  16  17
ENDBRANCH  15  16
ENDBRANCH  14  15
ENDBRANCH  13  14
ENDBRANCH  12  13
ENDBRANCH  11  12
ENDBRANCH  10  11
ENDBRANCH   8   9
ENDBRANCH   2   8
BRANCH   1  21
HETATM   21  N1  UNL     1      -3.481   1.268   2.024  1.00  0.00    -0.070 N 
ATOM     22  H13 UNL     1      -2.466   1.281   2.122  1.00  0.00     0.274 HD
ATOM     23  H12 UNL     1      -3.650   2.259   1.849  1.00  0.00     0.274 HD
ATOM     24  H11 UNL     1      -3.921   0.978   2.897  1.00  0.00     0.274 HD
ENDBRANCH   1  21
BRANCH   7  25
HETATM   25  O3  UNL     1      -6.070   0.376   1.826  1.00  0.00    -0.391 OA
ATOM     26  H3  UNL     1      -7.003   0.487   1.684  1.00  0.00     0.210 HD
ENDBRANCH   7  25
BRANCH   5  27
HETATM   27  C16 UNL     1      -5.160  -1.610  -2.329  1.00  0.00     0.191 C 
BRANCH  27  28
HETATM   28  O1  UNL     1      -4.656  -2.625  -1.484  1.00  0.00    -0.399 OA
ATOM     29  H1  UNL     1      -4.777  -3.467  -1.906  1.00  0.00     0.209 HD
ENDBRANCH  27  28
ENDBRANCH   5  27
BRANCH   6  30
HETATM   30  O2  UNL     1      -6.081  -1.511   0.055  1.00  0.00    -0.391 OA
ATOM     31  H2  UNL     1      -6.640  -1.493   0.823  1.00  0.00     0.210 HD
ENDBRANCH   6  30
TORSDOF 14
