REMARK  13 active torsions:
REMARK  status: ('A' for Active; 'I' for Inactive)
REMARK    1  A    between atoms: C2_2  and  C3_3 
REMARK    2  A    between atoms: C3_3  and  C4_4 
REMARK    3  A    between atoms: C4_4  and  C5_5 
REMARK    4  A    between atoms: C5_5  and  C6_6 
REMARK    5  A    between atoms: C6_6  and  C7_7 
REMARK    6  A    between atoms: C7_7  and  C8_8 
REMARK    7  A    between atoms: C8_8  and  C9_9 
REMARK    8  A    between atoms: C9_9  and  C10_10 
REMARK    9  A    between atoms: N3_16  and  C12_17 
REMARK   10  A    between atoms: C13_19  and  C14_20 
REMARK   11  A    between atoms: C14_20  and  O2_21 
REMARK   12  A    between atoms: C15_23  and  O3_24 
REMARK   13  A    between atoms: C16_26  and  O4_27 
ROOT
HETATM    1  C10 UNL     1       0.085   0.341  -0.482  1.00  0.00     0.084 A 
HETATM    2  N1  UNL     1      -0.276   1.616  -0.558  1.00  0.00    -0.328 N 
ATOM      3  H1  UNL     1       0.348   2.393  -0.775  1.00  0.00     0.169 HD
HETATM    4  C11 UNL     1      -1.592   1.725  -0.304  1.00  0.00     0.168 A 
HETATM    5  N2  UNL     1      -2.846   2.165  -0.102  1.00  0.00    -0.276 N 
ATOM      6  H2  UNL     1      -3.285   3.085  -0.121  1.00  0.00     0.189 HD
HETATM    7  N3  UNL     1      -3.289   0.941   0.131  1.00  0.00    -0.239 N 
HETATM    8  C17 UNL     1      -2.044   0.454  -0.065  1.00  0.00     0.172 A 
HETATM    9  N4  UNL     1      -0.989  -0.372  -0.182  1.00  0.00    -0.328 N 
ATOM     10  H4  UNL     1      -1.013  -1.384  -0.059  1.00  0.00     0.169 HD
ENDROOT
BRANCH   7  11
HETATM   11  C12 UNL     1      -4.544   0.298   0.460  1.00  0.00     0.278 C 
HETATM   12  O1  UNL     1      -5.405   1.177   1.145  1.00  0.00    -0.352 OA
HETATM   13  C13 UNL     1      -6.643   0.537   1.074  1.00  0.00     0.179 C 
HETATM   14  C15 UNL     1      -6.740  -0.041  -0.310  1.00  0.00     0.182 C 
HETATM   15  C16 UNL     1      -5.301   0.061  -0.809  1.00  0.00     0.200 C 
BRANCH  13  16
HETATM   16  C14 UNL     1      -7.797   1.464   1.312  1.00  0.00     0.198 C 
BRANCH  16  17
HETATM   17  O2  UNL     1      -8.965   0.738   1.220  1.00  0.00    -0.398 OA
ATOM     18  H2  UNL     1      -9.696   1.325   1.371  1.00  0.00     0.209 HD
ENDBRANCH  16  17
ENDBRANCH  13  16
BRANCH  14  19
HETATM   19  O3  UNL     1      -7.092  -1.397  -0.158  1.00  0.00    -0.390 OA
ATOM     20  H3  UNL     1      -7.153  -1.762  -1.033  1.00  0.00     0.210 HD
ENDBRANCH  14  19
BRANCH  15  21
HETATM   21  O4  UNL     1      -5.134   1.132  -1.670  1.00  0.00    -0.388 OA
ATOM     22  H4  UNL     1      -5.615   0.982  -2.476  1.00  0.00     0.210 HD
ENDBRANCH  15  21
ENDBRANCH   7  11
BRANCH   1  23
HETATM   23  C9  UNL     1       1.496  -0.114  -0.715  1.00  0.00     0.076 C 
BRANCH  23  24
HETATM   24  C8  UNL     1       1.617  -1.604  -0.566  1.00  0.00     0.007 C 
BRANCH  24  25
HETATM   25  C7  UNL     1       3.017  -2.101  -0.796  1.00  0.00     0.000 C 
BRANCH  25  26
HETATM   26  C6  UNL     1       3.976  -1.477   0.195  1.00  0.00     0.000 C 
BRANCH  26  27
HETATM   27  C5  UNL     1       5.389  -1.968  -0.017  1.00  0.00     0.000 C 
BRANCH  27  28
HETATM   28  C4  UNL     1       6.327  -1.343   0.982  1.00  0.00     0.000 C 
BRANCH  28  29
HETATM   29  C3  UNL     1       6.325   0.156   0.855  1.00  0.00    -0.000 C 
BRANCH  29  30
HETATM   30  C2  UNL     1       6.756   0.557  -0.518  1.00  0.00    -0.005 C 
HETATM   31  C1  UNL     1       6.777   2.064  -0.689  1.00  0.00     0.005 C 
ENDBRANCH  29  30
ENDBRANCH  28  29
ENDBRANCH  27  28
ENDBRANCH  26  27
ENDBRANCH  25  26
ENDBRANCH  24  25
ENDBRANCH  23  24
ENDBRANCH   1  23
TORSDOF 13
