REMARK  14 active torsions:
REMARK  status: ('A' for Active; 'I' for Inactive)
REMARK    1  A    between atoms: O1_1  and  C1_3 
REMARK    2  A    between atoms: C1_3  and  C2_4 
REMARK    3  A    between atoms: C2_4  and  C3_5 
REMARK    4  A    between atoms: C6_8  and  C7_9 
REMARK    5  A    between atoms: C7_9  and  C8_10 
REMARK    6  A    between atoms: C9_11  and  C10_12 
REMARK    7  A    between atoms: C10_12  and  C11_13 
REMARK    8  A    between atoms: C11_13  and  C12_14 
REMARK    9  A    between atoms: C12_14  and  C13_15 
REMARK   10  A    between atoms: C14_16  and  O2_17 
REMARK   11  A    between atoms: C15_20  and  C16_21 
REMARK   12  A    between atoms: C16_21  and  O4_22 
REMARK   13  A    between atoms: C17_24  and  O5_25 
REMARK   14  A    between atoms: C18_27  and  O6_28 
ROOT
HETATM    1  C13 UNL     1      -3.336  -0.861   1.935  1.00  0.00     0.072 C 
HETATM    2  C14 UNL     1      -4.268  -1.855   1.367  1.00  0.00     0.264 C 
HETATM    3  O3  UNL     1      -5.448  -1.326   0.862  1.00  0.00    -0.351 OA
HETATM    4  C15 UNL     1      -5.300  -0.250   0.031  1.00  0.00     0.179 C 
HETATM    5  C17 UNL     1      -4.811   0.903   0.858  1.00  0.00     0.178 C 
HETATM    6  C18 UNL     1      -3.811   0.568   1.900  1.00  0.00     0.158 C 
ENDROOT
BRANCH   1   7
HETATM    7  C12 UNL     1      -1.915  -0.923   1.469  1.00  0.00     0.012 C 
BRANCH   7   8
HETATM    8  C11 UNL     1      -1.616  -0.741   0.057  1.00  0.00     0.004 C 
BRANCH   8   9
HETATM    9  C10 UNL     1      -0.100  -0.861  -0.164  1.00  0.00     0.027 C 
BRANCH   9  10
HETATM   10  C9  UNL     1       0.664   0.148   0.587  1.00  0.00    -0.031 C 
HETATM   11  C8  UNL     1       1.435   1.048   0.039  1.00  0.00    -0.030 C 
BRANCH  11  12
HETATM   12  C7  UNL     1       1.659   1.194  -1.392  1.00  0.00     0.031 C 
BRANCH  12  13
HETATM   13  C6  UNL     1       3.124   1.020  -1.776  1.00  0.00    -0.011 C 
HETATM   14  C5  UNL     1       4.033   2.008  -1.125  1.00  0.00     0.005 C 
HETATM   15  C4  UNL     1       5.392   1.392  -1.197  1.00  0.00     0.005 C 
HETATM   16  C3  UNL     1       5.163  -0.083  -1.194  1.00  0.00    -0.012 C 
HETATM   17  C19 UNL     1       3.664  -0.321  -1.314  1.00  0.00     0.009 C 
BRANCH  16  18
HETATM   18  C2  UNL     1       5.692  -0.720   0.056  1.00  0.00     0.030 C 
BRANCH  18  19
HETATM   19  C1  UNL     1       7.170  -0.507   0.186  1.00  0.00     0.164 C 
BRANCH  19  20
HETATM   20  O1  UNL     1       7.860  -1.053  -0.902  1.00  0.00    -0.401 OA
ATOM     21  H1  UNL     1       8.797  -0.918  -0.820  1.00  0.00     0.209 HD
ENDBRANCH  19  20
ENDBRANCH  18  19
ENDBRANCH  16  18
ENDBRANCH  12  13
ENDBRANCH  11  12
ENDBRANCH   9  10
ENDBRANCH   8   9
ENDBRANCH   7   8
ENDBRANCH   1   7
BRANCH   2  22
HETATM   22  O2  UNL     1      -3.744  -2.711   0.404  1.00  0.00    -0.371 OA
ATOM     23  H2  UNL     1      -4.344  -3.351   0.038  1.00  0.00     0.212 HD
ENDBRANCH   2  22
BRANCH   6  24
HETATM   24  O6  UNL     1      -2.722   1.461   1.763  1.00  0.00    -0.392 OA
ATOM     25  H6  UNL     1      -3.022   2.362   1.741  1.00  0.00     0.210 HD
ENDBRANCH   6  24
BRANCH   5  26
HETATM   26  O5  UNL     1      -5.976   1.485   1.421  1.00  0.00    -0.390 OA
ATOM     27  H5  UNL     1      -5.666   2.215   1.944  1.00  0.00     0.210 HD
ENDBRANCH   5  26
BRANCH   4  28
HETATM   28  C16 UNL     1      -6.681   0.103  -0.506  1.00  0.00     0.198 C 
BRANCH  28  29
HETATM   29  O4  UNL     1      -6.622   1.202  -1.373  1.00  0.00    -0.398 OA
ATOM     30  H4  UNL     1      -7.483   1.422  -1.708  1.00  0.00     0.209 HD
ENDBRANCH  28  29
ENDBRANCH   4  28
TORSDOF 14
