REMARK  10 active torsions:
REMARK  status: ('A' for Active; 'I' for Inactive)
REMARK    1  A    between atoms: N1_1  and  C1_4 
REMARK    2  A    between atoms: C2_9  and  C3_10 
REMARK    3  A    between atoms: C3_10  and  C4_11 
REMARK    4  A    between atoms: C4_11  and  C5_12 
REMARK    5  A    between atoms: C5_12  and  C6_13 
REMARK    6  A    between atoms: C6_13  and  C7_14 
REMARK    7  A    between atoms: C7_14  and  C8_15 
REMARK    8  A    between atoms: C8_15  and  C9_16 
REMARK    9  A    between atoms: C9_16  and  C10_17 
REMARK   10  A    between atoms: C10_17  and  N4_18 
ROOT
HETATM    1  C7  UNL     1       0.297  -0.105   1.539  1.00  0.00     0.000 C 
ENDROOT
BRANCH   1   2
HETATM    2  C6  UNL     1       1.380   0.896   1.550  1.00  0.00     0.000 C 
BRANCH   2   3
HETATM    3  C5  UNL     1       1.908   1.433   0.280  1.00  0.00     0.000 C 
BRANCH   3   4
HETATM    4  C4  UNL     1       3.101   2.363   0.495  1.00  0.00     0.006 C 
BRANCH   4   5
HETATM    5  C3  UNL     1       4.282   1.725   1.123  1.00  0.00     0.064 C 
BRANCH   5   6
HETATM    6  C2  UNL     1       4.879   0.628   0.379  1.00  0.00     0.094 A 
HETATM    7  N3  UNL     1       4.703  -0.641   0.756  1.00  0.00    -0.285 N 
HETATM    8  N2  UNL     1       5.234  -1.670   0.110  1.00  0.00    -0.132 N 
ATOM      9  H3  UNL     1       4.133  -0.828   1.581  1.00  0.00     0.187 HD
HETATM   10  C1  UNL     1       5.991  -1.477  -0.980  1.00  0.00     0.693 A 
ATOM     11  H2  UNL     1       5.065  -2.618   0.446  1.00  0.00     0.205 HD
HETATM   12  N9  UNL     1       6.197  -0.215  -1.397  1.00  0.00    -0.153 N 
HETATM   13  C16 UNL     1       5.656   0.843  -0.739  1.00  0.00     0.283 A 
ATOM     14  H9  UNL     1       6.771  -0.049  -2.224  1.00  0.00     0.187 HD
HETATM   15  O1  UNL     1       5.893   1.992  -1.190  1.00  0.00    -0.265 OA
BRANCH  10  16
HETATM   16  N1  UNL     1       6.500  -2.498  -1.596  1.00  0.00    -0.233 N 
ATOM     17  H12 UNL     1       6.344  -3.455  -1.280  1.00  0.00     0.174 HD
ATOM     18  H11 UNL     1       7.076  -2.351  -2.425  1.00  0.00     0.174 HD
ENDBRANCH  10  16
ENDBRANCH   5   6
ENDBRANCH   4   5
ENDBRANCH   3   4
ENDBRANCH   2   3
ENDBRANCH   1   2
BRANCH   1  19
HETATM   19  C8  UNL     1      -1.003   0.178   0.899  1.00  0.00     0.002 C 
BRANCH  19  20
HETATM   20  C9  UNL     1      -1.026   0.342  -0.567  1.00  0.00     0.020 C 
BRANCH  20  21
HETATM   21  C10 UNL     1      -2.489   0.631  -0.996  1.00  0.00     0.121 C 
BRANCH  21  22
HETATM   22  N4  UNL     1      -3.292  -0.497  -0.586  1.00  0.00    -0.374 N 
HETATM   23  C11 UNL     1      -4.560  -0.426  -0.516  1.00  0.00     0.133 A 
HETATM   24  N5  UNL     1      -5.262   0.685  -0.811  1.00  0.00    -0.337 N 
HETATM   25  C15 UNL     1      -5.267  -1.550  -0.114  1.00  0.00     0.122 A 
HETATM   26  C12 UNL     1      -6.611   0.732  -0.728  1.00  0.00     0.183 A 
ATOM     27  H5  UNL     1      -4.758   1.521  -1.108  1.00  0.00     0.168 HD
HETATM   28  N6  UNL     1      -7.304  -0.332  -0.346  1.00  0.00    -0.337 N 
HETATM   29  C13 UNL     1      -6.628  -1.468  -0.041  1.00  0.00     0.138 A 
ATOM     30  H6  UNL     1      -8.321  -0.297  -0.283  1.00  0.00     0.168 HD
HETATM   31  N7  UNL     1      -7.076  -2.654   0.361  1.00  0.00    -0.337 N 
HETATM   32  C14 UNL     1      -6.032  -3.464   0.538  1.00  0.00     0.182 A 
ATOM     33  H7  UNL     1      -8.054  -2.902   0.509  1.00  0.00     0.168 HD
HETATM   34  N8  UNL     1      -4.917  -2.783   0.245  1.00  0.00    -0.346 N 
ATOM     35  H8  UNL     1      -3.965  -3.146   0.289  1.00  0.00     0.167 HD
ATOM     36  H4  UNL     1      -2.830  -1.374  -0.346  1.00  0.00     0.161 HD
ENDBRANCH  21  22
ENDBRANCH  20  21
ENDBRANCH  19  20
ENDBRANCH   1  19
TORSDOF 10
