REMARK  15 active torsions:
REMARK  status: ('A' for Active; 'I' for Inactive)
REMARK    1  A    between atoms: C4_4  and  N1_5 
REMARK    2  A    between atoms: N1_5  and  C5_7 
REMARK    3  A    between atoms: C5_7  and  C6_8 
REMARK    4  A    between atoms: C6_8  and  C7_9 
REMARK    5  A    between atoms: C7_9  and  C8_10 
REMARK    6  A    between atoms: C8_10  and  C9_11 
REMARK    7  A    between atoms: C9_11  and  C10_12 
REMARK    8  A    between atoms: C10_12  and  C11_13 
REMARK    9  A    between atoms: C11_13  and  C12_14 
REMARK   10  A    between atoms: C12_14  and  C13_15 
REMARK   11  A    between atoms: C13_15  and  C14_16 
REMARK   12  A    between atoms: C14_16  and  N2_17 
REMARK   13  A    between atoms: N2_17  and  C15_19 
REMARK   14  A    between atoms: C21_27  and  O2_28 
REMARK   15  A    between atoms: C22_32  and  N4_33 
ROOT
HETATM    1  C9  UNL     1       1.105  -0.130  -1.424  1.00  0.00     0.000 C 
ENDROOT
BRANCH   1   2
HETATM    2  C8  UNL     1       2.340  -0.781  -0.963  1.00  0.00     0.000 C 
BRANCH   2   3
HETATM    3  C7  UNL     1       3.560  -0.077  -0.574  1.00  0.00     0.002 C 
BRANCH   3   4
HETATM    4  C6  UNL     1       3.593   0.842   0.587  1.00  0.00     0.020 C 
BRANCH   4   5
HETATM    5  C5  UNL     1       5.040   1.376   0.789  1.00  0.00     0.121 C 
BRANCH   5   6
HETATM    6  N1  UNL     1       5.935   0.293   1.031  1.00  0.00    -0.376 N 
ATOM      7  H1  UNL     1       5.535  -0.518   1.502  1.00  0.00     0.161 HD
BRANCH   6   8
HETATM    8  C4  UNL     1       7.168   0.210   0.734  1.00  0.00     0.118 A 
HETATM    9  C3  UNL     1       7.914  -0.915   1.035  1.00  0.00     0.073 A 
HETATM   10  C2  UNL     1       9.238  -1.025   0.725  1.00  0.00     0.026 A 
HETATM   11  C1  UNL     1      10.061  -2.221   1.036  1.00  0.00     0.069 C 
HETATM   12  N5  UNL     1       9.844   0.001   0.102  1.00  0.00    -0.196 N 
HETATM   13  C22 UNL     1       9.140   1.094  -0.195  1.00  0.00     0.677 A 
ATOM     14  H5  UNL     1      10.833  -0.056  -0.141  1.00  0.00     0.184 HD
HETATM   15  N3  UNL     1       7.824   1.202   0.113  1.00  0.00    -0.177 N 
ATOM     16  H3  UNL     1       7.322   2.055  -0.133  1.00  0.00     0.185 HD
BRANCH  13  17
HETATM   17  N4  UNL     1       9.686   2.095  -0.791  1.00  0.00    -0.234 N 
ATOM     18  H42 UNL     1       9.148   2.931  -1.018  1.00  0.00     0.174 HD
ATOM     19  H41 UNL     1      10.676   2.014  -1.023  1.00  0.00     0.174 HD
ENDBRANCH  13  17
ENDBRANCH   6   8
ENDBRANCH   5   6
ENDBRANCH   4   5
ENDBRANCH   3   4
ENDBRANCH   2   3
ENDBRANCH   1   2
BRANCH   1  20
HETATM   20  C10 UNL     1       0.450   0.766  -0.434  1.00  0.00     0.000 C 
BRANCH  20  21
HETATM   21  C11 UNL     1      -0.870   1.325  -1.014  1.00  0.00     0.000 C 
BRANCH  21  22
HETATM   22  C12 UNL     1      -1.822   0.242  -1.330  1.00  0.00     0.002 C 
BRANCH  22  23
HETATM   23  C13 UNL     1      -2.193  -0.621  -0.154  1.00  0.00     0.019 C 
BRANCH  23  24
HETATM   24  C14 UNL     1      -2.847   0.152   0.966  1.00  0.00     0.114 C 
BRANCH  24  25
HETATM   25  N2  UNL     1      -4.048   0.801   0.592  1.00  0.00    -0.413 N 
ATOM     26  H2  UNL     1      -4.120   1.817   0.543  1.00  0.00     0.153 HD
BRANCH  25  27
HETATM   27  C15 UNL     1      -5.149  -0.047   0.289  1.00  0.00     0.133 C 
HETATM   28  C16 UNL     1      -5.634  -0.897   1.418  1.00  0.00     0.197 C 
HETATM   29  O1  UNL     1      -6.846  -1.378   0.904  1.00  0.00    -0.364 OA
HETATM   30  C17 UNL     1      -7.457  -0.269   0.380  1.00  0.00     0.136 C 
HETATM   31  C18 UNL     1      -8.422  -0.594  -0.742  1.00  0.00     0.053 C 
HETATM   32  S1  UNL     1      -8.647   0.380   1.618  1.00  0.00    -0.129 SA
HETATM   33  C21 UNL     1      -6.426   0.743  -0.008  1.00  0.00     0.187 C 
HETATM   34  C19 UNL     1      -9.567  -1.323  -0.107  1.00  0.00     0.014 C 
HETATM   35  C20 UNL     1     -10.154  -0.457   0.977  1.00  0.00     0.077 C 
BRANCH  33  36
HETATM   36  O2  UNL     1      -6.467   1.836   0.840  1.00  0.00    -0.390 OA
ATOM     37  H2  UNL     1      -7.260   2.326   0.656  1.00  0.00     0.210 HD
ENDBRANCH  33  36
ENDBRANCH  25  27
ENDBRANCH  24  25
ENDBRANCH  23  24
ENDBRANCH  22  23
ENDBRANCH  21  22
ENDBRANCH  20  21
ENDBRANCH   1  20
TORSDOF 15
