REMARK  17 active torsions:
REMARK  status: ('A' for Active; 'I' for Inactive)
REMARK    1  A    between atoms: C2_2  and  O1_3 
REMARK    2  A    between atoms: C2_2  and  C3_5 
REMARK    3  A    between atoms: C2_2  and  C4_8 
REMARK    4  A    between atoms: C3_5  and  O2_6 
REMARK    5  A    between atoms: C4_8  and  C5_9 
REMARK    6  A    between atoms: C5_9  and  O3_10 
REMARK    7  A    between atoms: C5_9  and  C6_12 
REMARK    8  A    between atoms: C6_12  and  C7_13 
REMARK    9  A    between atoms: C7_13  and  C8_14 
REMARK   10  A    between atoms: C12_18  and  C14_20 
REMARK   11  A    between atoms: C14_20  and  C15_21 
REMARK   12  A    between atoms: C16_22  and  C17_23 
REMARK   13  A    between atoms: C17_23  and  C18_24 
REMARK   14  A    between atoms: C18_24  and  C19_25 
REMARK   15  A    between atoms: C19_25  and  C20_26 
REMARK   16  A    between atoms: C21_27  and  O4_28 
REMARK   17  A    between atoms: C23_32  and  O6_33 
ROOT
HETATM    1  C8  UNL     1       2.090   0.819   1.678  1.00  0.00     0.168 C 
HETATM    2  C9  UNL     1       1.693  -0.474   1.162  1.00  0.00     0.005 C 
HETATM    3  C10 UNL     1       0.903  -0.504   0.056  1.00  0.00    -0.025 C 
HETATM    4  C11 UNL     1       0.531   0.817  -0.495  1.00  0.00     0.065 C 
HETATM    5  C12 UNL     1       0.101   1.626   0.713  1.00  0.00     0.065 C 
HETATM    6  C13 UNL     1      -0.860   0.825   1.584  1.00  0.00     0.046 C 
HETATM    7  O7  UNL     1       1.205   1.876   1.462  1.00  0.00    -0.367 OA
ENDROOT
BRANCH   5   8
HETATM    8  C14 UNL     1      -0.561   2.916   0.365  1.00  0.00     0.065 C 
BRANCH   8   9
HETATM    9  C15 UNL     1      -1.806   2.876  -0.383  1.00  0.00    -0.028 C 
HETATM   10  C16 UNL     1      -2.511   1.845  -0.795  1.00  0.00    -0.031 C 
BRANCH  10  11
HETATM   11  C17 UNL     1      -3.784   2.106  -1.566  1.00  0.00     0.027 C 
BRANCH  11  12
HETATM   12  C18 UNL     1      -4.923   1.512  -0.805  1.00  0.00     0.004 C 
BRANCH  12  13
HETATM   13  C19 UNL     1      -4.787   0.037  -0.618  1.00  0.00     0.012 C 
BRANCH  13  14
HETATM   14  C20 UNL     1      -5.973  -0.540   0.148  1.00  0.00     0.071 C 
HETATM   15  C21 UNL     1      -5.775  -2.017   0.302  1.00  0.00     0.150 C 
HETATM   16  C22 UNL     1      -7.107  -2.600  -0.035  1.00  0.00     0.203 C 
HETATM   17  O5  UNL     1      -7.952  -1.608  -0.434  1.00  0.00    -0.358 OA
HETATM   18  C23 UNL     1      -7.220  -0.461  -0.680  1.00  0.00     0.263 C 
BRANCH  15  19
HETATM   19  O4  UNL     1      -5.471  -2.374   1.634  1.00  0.00    -0.393 OA
ATOM     20  H4  UNL     1      -5.345  -3.311   1.732  1.00  0.00     0.210 HD
ENDBRANCH  15  19
BRANCH  18  21
HETATM   21  O6  UNL     1      -6.875  -0.338  -2.015  1.00  0.00    -0.371 OA
ATOM     22  H6  UNL     1      -7.665  -0.288  -2.540  1.00  0.00     0.212 HD
ENDBRANCH  18  21
ENDBRANCH  13  14
ENDBRANCH  12  13
ENDBRANCH  11  12
ENDBRANCH  10  11
ENDBRANCH   8   9
ENDBRANCH   5   8
BRANCH   1  23
HETATM   23  C7  UNL     1       3.489   1.211   1.330  1.00  0.00     0.011 C 
BRANCH  23  24
HETATM   24  C6  UNL     1       4.666   0.509   1.774  1.00  0.00     0.035 C 
BRANCH  24  25
HETATM   25  C5  UNL     1       5.052  -0.871   1.599  1.00  0.00     0.064 C 
BRANCH  25  26
HETATM   26  C4  UNL     1       5.251  -1.583   0.350  1.00  0.00     0.049 C 
BRANCH  26  27
HETATM   27  C2  UNL     1       6.003  -1.059  -0.793  1.00  0.00     0.096 C 
HETATM   28  C1  UNL     1       5.462   0.177  -1.409  1.00  0.00     0.052 C 
BRANCH  27  29
HETATM   29  O1  UNL     1       7.360  -0.809  -0.467  1.00  0.00    -0.384 OA
ATOM     30  H1  UNL     1       7.707  -1.601  -0.072  1.00  0.00     0.211 HD
ENDBRANCH  27  29
BRANCH  27  31
HETATM   31  C3  UNL     1       6.092  -2.093  -1.934  1.00  0.00     0.205 C 
BRANCH  31  32
HETATM   32  O2  UNL     1       6.813  -1.467  -2.949  1.00  0.00    -0.398 OA
ATOM     33  H2  UNL     1       6.868  -2.104  -3.652  1.00  0.00     0.209 HD
ENDBRANCH  31  32
ENDBRANCH  27  31
ENDBRANCH  26  27
ENDBRANCH  25  26
BRANCH  25  34
HETATM   34  O3  UNL     1       4.332  -1.741   2.490  1.00  0.00    -0.361 OA
ATOM     35  H3  UNL     1       4.202  -1.275   3.308  1.00  0.00     0.217 HD
ENDBRANCH  25  34
ENDBRANCH  24  25
ENDBRANCH  23  24
ENDBRANCH   1  23
TORSDOF 17
