REMARK  15 active torsions:
REMARK  status: ('A' for Active; 'I' for Inactive)
REMARK    1  A    between atoms: C3_4  and  C4_5 
REMARK    2  A    between atoms: C4_5  and  C5_6 
REMARK    3  A    between atoms: C6_7  and  C7_8 
REMARK    4  A    between atoms: C7_8  and  C8_9 
REMARK    5  A    between atoms: C9_10  and  C10_11 
REMARK    6  A    between atoms: C10_11  and  C11_12 
REMARK    7  A    between atoms: C11_12  and  C12_13 
REMARK    8  A    between atoms: C12_13  and  C13_14 
REMARK    9  A    between atoms: C13_14  and  C14_15 
REMARK   10  A    between atoms: C14_15  and  C15_16 
REMARK   11  A    between atoms: C15_16  and  O2_17 
REMARK   12  A    between atoms: C15_16  and  C16_19 
REMARK   13  A    between atoms: C17_20  and  C18_21 
REMARK   14  A    between atoms: C21_27  and  O3_28 
REMARK   15  A    between atoms: C22_30  and  O4_31 
ROOT
HETATM    1  C14 UNL     1      -3.451  -0.797  -0.366  1.00  0.00     0.036 C 
ENDROOT
BRANCH   1   2
HETATM    2  C13 UNL     1      -1.933  -0.881  -0.422  1.00  0.00     0.003 C 
BRANCH   2   3
HETATM    3  C12 UNL     1      -1.482  -1.609  -1.665  1.00  0.00     0.000 C 
BRANCH   3   4
HETATM    4  C11 UNL     1       0.012  -1.689  -1.678  1.00  0.00     0.004 C 
BRANCH   4   5
HETATM    5  C10 UNL     1       0.631  -0.326  -1.677  1.00  0.00     0.027 C 
BRANCH   5   6
HETATM    6  C9  UNL     1       2.102  -0.497  -1.707  1.00  0.00    -0.030 C 
HETATM    7  C8  UNL     1       2.842  -0.021  -0.736  1.00  0.00    -0.027 C 
BRANCH   7   8
HETATM    8  C7  UNL     1       4.317  -0.204  -0.786  1.00  0.00     0.053 C 
BRANCH   8   9
HETATM    9  C6  UNL     1       4.917   1.147  -0.790  1.00  0.00    -0.027 C 
HETATM   10  C5  UNL     1       5.745   1.605   0.120  1.00  0.00    -0.026 C 
BRANCH  10  11
HETATM   11  C4  UNL     1       6.248   0.913   1.308  1.00  0.00     0.087 C 
BRANCH  11  12
HETATM   12  C3  UNL     1       7.745   0.770   1.337  1.00  0.00     0.264 C 
HETATM   13  O1  UNL     1       8.253   0.064   0.276  1.00  0.00    -0.354 OA
HETATM   14  C2  UNL     1       9.638   0.105   0.559  1.00  0.00     0.149 C 
HETATM   15  C1  UNL     1       9.857  -0.916   1.660  1.00  0.00     0.042 C 
HETATM   16  C23 UNL     1       9.756   1.524   1.101  1.00  0.00     0.149 C 
HETATM   17  O5  UNL     1       8.424   1.964   1.280  1.00  0.00    -0.354 OA
HETATM   18  C24 UNL     1      10.482   2.344   0.076  1.00  0.00     0.042 C 
ENDBRANCH  11  12
ENDBRANCH  10  11
ENDBRANCH   8   9
ENDBRANCH   7   8
ENDBRANCH   5   6
ENDBRANCH   4   5
ENDBRANCH   3   4
ENDBRANCH   2   3
ENDBRANCH   1   2
BRANCH   1  19
HETATM   19  C15 UNL     1      -4.014  -0.066  -1.548  1.00  0.00     0.140 C 
BRANCH  19  20
HETATM   20  O2  UNL     1      -3.470   1.238  -1.534  1.00  0.00    -0.392 OA
ATOM     21  H2  UNL     1      -3.827   1.701  -2.283  1.00  0.00     0.210 HD
ENDBRANCH  19  20
BRANCH  19  22
HETATM   22  C16 UNL     1      -5.480   0.109  -1.401  1.00  0.00     0.002 C 
HETATM   23  C17 UNL     1      -6.162  -0.512  -0.472  1.00  0.00     0.007 C 
BRANCH  23  24
HETATM   24  C18 UNL     1      -7.624  -0.380  -0.275  1.00  0.00     0.239 C 
HETATM   25  N1  UNL     1      -8.234  -1.691  -0.216  1.00  0.00    -0.065 N 
HETATM   26  C19 UNL     1      -9.457  -1.722   0.546  1.00  0.00     0.235 C 
ATOM     27  H12 UNL     1      -8.384  -2.062  -1.154  1.00  0.00     0.278 HD
ATOM     28  H11 UNL     1      -7.572  -2.382   0.136  1.00  0.00     0.278 HD
HETATM   29  C20 UNL     1     -10.233  -0.453   0.488  1.00  0.00     0.062 C 
HETATM   30  C21 UNL     1      -9.428   0.761   0.882  1.00  0.00     0.150 C 
HETATM   31  C22 UNL     1      -7.959   0.337   1.017  1.00  0.00     0.181 C 
BRANCH  30  32
HETATM   32  O3  UNL     1      -9.883   1.381   2.020  1.00  0.00    -0.393 OA
ATOM     33  H3  UNL     1      -9.376   2.145   2.268  1.00  0.00     0.210 HD
ENDBRANCH  30  32
BRANCH  31  34
HETATM   34  O4  UNL     1      -7.148   1.438   1.237  1.00  0.00    -0.391 OA
ATOM     35  H4  UNL     1      -7.358   1.888   2.047  1.00  0.00     0.210 HD
ENDBRANCH  31  34
ENDBRANCH  23  24
ENDBRANCH  19  22
ENDBRANCH   1  19
TORSDOF 15
