REMARK  14 active torsions:
REMARK  status: ('A' for Active; 'I' for Inactive)
REMARK    1  A    between atoms: N1_1  and  C1_5 
REMARK    2  A    between atoms: C1_5  and  C2_6 
REMARK    3  A    between atoms: C2_6  and  O1_7 
REMARK    4  A    between atoms: O1_7  and  C3_8 
REMARK    5  A    between atoms: C3_8  and  C4_9 
REMARK    6  A    between atoms: C4_9  and  C5_10 
REMARK    7  A    between atoms: C5_10  and  C6_11 
REMARK    8  A    between atoms: C6_11  and  C7_12 
REMARK    9  A    between atoms: C7_12  and  C8_13 
REMARK   10  A    between atoms: C8_13  and  C9_14 
REMARK       I    between atoms: C9_14  and  N2_16 
REMARK   11  A    between atoms: N2_16  and  C10_18 
REMARK   12  A    between atoms: C11_21  and  N4_22 
REMARK   13  A    between atoms: N4_22  and  C12_24 
REMARK   14  A    between atoms: C14_26  and  C15_27 
ROOT
HETATM    1  C10 UNL     1      -0.099  -3.568   2.952  1.00  0.00     0.687 A 
HETATM    2  N3  UNL     1      -0.237  -3.011   1.736  1.00  0.00    -0.176 N 
ATOM      3  H3  UNL     1       0.602  -2.788   1.201  1.00  0.00     0.186 HD
HETATM    4  C11 UNL     1      -1.421  -2.741   1.205  1.00  0.00     0.125 A 
HETATM    5  C21 UNL     1      -2.585  -3.037   1.914  1.00  0.00     0.094 A 
HETATM    6  C22 UNL     1      -2.427  -3.604   3.152  1.00  0.00     0.135 A 
HETATM    7  N7  UNL     1      -3.582  -3.935   3.931  1.00  0.00    -0.082 NA
HETATM    8  N8  UNL     1      -1.211  -3.860   3.651  1.00  0.00    -0.178 N 
ATOM      9  H8  UNL     1      -1.126  -4.283   4.575  1.00  0.00     0.185 HD
ENDROOT
BRANCH   1  10
HETATM   10  N2  UNL     1       1.081  -3.821   3.442  1.00  0.00    -0.159 N 
HETATM   11  C9  UNL     1       2.208  -3.489   2.653  1.00  0.00     0.235 C 
HETATM   12  O2  UNL     1       2.724  -4.399   1.974  1.00  0.00    -0.273 OA
ATOM     13  H2  UNL     1       1.189  -4.244   4.364  1.00  0.00     0.187 HD
BRANCH  11  14
HETATM   14  C8  UNL     1       2.768  -2.130   2.620  1.00  0.00     0.103 C 
BRANCH  14  15
HETATM   15  C7  UNL     1       3.791  -1.986   1.555  1.00  0.00     0.009 C 
BRANCH  15  16
HETATM   16  C6  UNL     1       3.317  -2.175   0.143  1.00  0.00     0.001 C 
BRANCH  16  17
HETATM   17  C5  UNL     1       4.380  -2.023  -0.869  1.00  0.00     0.002 C 
BRANCH  17  18
HETATM   18  C4  UNL     1       5.018  -0.685  -1.017  1.00  0.00     0.026 C 
BRANCH  18  19
HETATM   19  C3  UNL     1       4.161   0.423  -1.505  1.00  0.00     0.167 C 
BRANCH  19  20
HETATM   20  O1  UNL     1       3.125   0.899  -0.809  1.00  0.00    -0.389 OA
BRANCH  20  21
HETATM   21  C2  UNL     1       3.327   1.588   0.346  1.00  0.00     0.194 C 
BRANCH  21  22
HETATM   22  C1  UNL     1       4.181   2.835   0.055  1.00  0.00     0.255 C 
BRANCH  22  23
HETATM   23  N1  UNL     1       3.516   3.686  -0.896  1.00  0.00    -0.077 N 
ATOM     24  H13 UNL     1       3.272   3.184  -1.750  1.00  0.00     0.274 HD
ATOM     25  H12 UNL     1       2.574   3.933  -0.592  1.00  0.00     0.274 HD
ATOM     26  H11 UNL     1       4.082   4.512  -1.089  1.00  0.00     0.274 HD
ENDBRANCH  22  23
ENDBRANCH  21  22
ENDBRANCH  20  21
ENDBRANCH  19  20
ENDBRANCH  18  19
ENDBRANCH  17  18
ENDBRANCH  16  17
ENDBRANCH  15  16
ENDBRANCH  14  15
ENDBRANCH  11  14
ENDBRANCH   1  10
BRANCH   4  27
HETATM   27  N4  UNL     1      -1.517  -2.159  -0.072  1.00  0.00    -0.327 N 
ATOM     28  H4  UNL     1      -1.117  -2.662  -0.864  1.00  0.00     0.169 HD
BRANCH  27  29
HETATM   29  C12 UNL     1      -2.075  -1.041  -0.290  1.00  0.00     0.123 A 
HETATM   30  C13 UNL     1      -2.181  -0.449  -1.546  1.00  0.00     0.076 A 
HETATM   31  C14 UNL     1      -2.830   0.730  -1.399  1.00  0.00     0.033 A 
HETATM   32  N5  UNL     1      -3.119   0.866  -0.092  1.00  0.00    -0.303 N 
HETATM   33  N6  UNL     1      -2.669  -0.186   0.558  1.00  0.00    -0.285 N 
ATOM     34  H5  UNL     1      -3.608   1.657   0.327  1.00  0.00     0.186 HD
ATOM     35  H6  UNL     1      -2.759  -0.331   1.564  1.00  0.00     0.188 HD
BRANCH  31  36
HETATM   36  C15 UNL     1      -3.171   1.703  -2.464  1.00  0.00     0.037 C 
HETATM   37  C16 UNL     1      -2.543   3.038  -2.201  1.00  0.00     0.011 C 
HETATM   38  C17 UNL     1      -3.521   4.094  -1.787  1.00  0.00     0.001 C 
HETATM   39  C18 UNL     1      -4.674   4.257  -2.738  1.00  0.00     0.000 C 
HETATM   40  C19 UNL     1      -5.174   2.953  -3.298  1.00  0.00     0.001 C 
HETATM   41  C20 UNL     1      -4.685   1.769  -2.510  1.00  0.00     0.011 C 
ENDBRANCH  31  36
ENDBRANCH  27  29
ENDBRANCH   4  27
TORSDOF 14
