REMARK  17 active torsions:
REMARK  status: ('A' for Active; 'I' for Inactive)
REMARK    1  A    between atoms: C2_2  and  C3_3 
REMARK    2  A    between atoms: C3_3  and  C4_4 
REMARK    3  A    between atoms: C4_4  and  C5_5 
REMARK    4  A    between atoms: C5_5  and  C6_6 
REMARK    5  A    between atoms: C6_6  and  C7_7 
REMARK    6  A    between atoms: C7_7  and  C8_8 
REMARK    7  A    between atoms: C8_8  and  O1_9 
REMARK    8  A    between atoms: C8_8  and  C9_11 
REMARK    9  A    between atoms: C10_12  and  C11_13 
REMARK   10  A    between atoms: C13_15  and  O2_16 
REMARK   11  A    between atoms: C14_18  and  O3_19 
REMARK   12  A    between atoms: C16_22  and  C17_23 
REMARK   13  A    between atoms: C17_23  and  C18_24 
REMARK   14  A    between atoms: C18_24  and  C19_25 
REMARK   15  A    between atoms: C20_27  and  C21_28 
REMARK   16  A    between atoms: C21_28  and  O5_29 
REMARK   17  A    between atoms: C22_31  and  O6_32 
ROOT
HETATM    1  C11 UNL     1       0.158   0.606  -0.584  1.00  0.00     0.014 C 
HETATM    2  C12 UNL     1       0.745   1.778  -1.328  1.00  0.00     0.043 C 
HETATM    3  C13 UNL     1       0.081   3.053  -0.948  1.00  0.00     0.147 C 
HETATM    4  C14 UNL     1      -1.399   2.891  -1.203  1.00  0.00     0.147 C 
HETATM    5  C15 UNL     1      -1.701   1.518  -1.792  1.00  0.00     0.039 C 
HETATM    6  C16 UNL     1      -1.379   0.526  -0.692  1.00  0.00    -0.004 C 
ENDROOT
BRANCH   6   7
HETATM    7  C17 UNL     1      -1.826  -0.840  -0.924  1.00  0.00     0.008 C 
BRANCH   7   8
HETATM    8  C18 UNL     1      -3.206  -1.295  -1.031  1.00  0.00     0.033 C 
BRANCH   8   9
HETATM    9  C19 UNL     1      -4.119  -1.213   0.129  1.00  0.00     0.128 C 
HETATM   10  O4  UNL     1      -5.399  -1.790  -0.200  1.00  0.00    -0.375 OA
HETATM   11  C20 UNL     1      -6.081  -1.677   1.014  1.00  0.00     0.174 C 
HETATM   12  C22 UNL     1      -5.690  -0.375   1.630  1.00  0.00     0.155 C 
HETATM   13  C23 UNL     1      -4.617   0.102   0.615  1.00  0.00     0.042 C 
HETATM   14  C24 UNL     1      -5.257   0.970  -0.416  1.00  0.00     0.015 C 
BRANCH  11  15
HETATM   15  C21 UNL     1      -7.570  -1.763   0.895  1.00  0.00     0.198 C 
BRANCH  15  16
HETATM   16  O5  UNL     1      -8.040  -0.768   0.080  1.00  0.00    -0.398 OA
ATOM     17  H5  UNL     1      -8.985  -0.823   0.004  1.00  0.00     0.209 HD
ENDBRANCH  15  16
ENDBRANCH  11  15
BRANCH  12  18
HETATM   18  O6  UNL     1      -6.692   0.567   1.697  1.00  0.00    -0.392 OA
ATOM     19  H6  UNL     1      -6.443   1.396   2.089  1.00  0.00     0.210 HD
ENDBRANCH  12  18
ENDBRANCH   8   9
ENDBRANCH   7   8
ENDBRANCH   6   7
BRANCH   1  20
HETATM   20  C10 UNL     1       0.825  -0.585  -1.139  1.00  0.00    -0.023 C 
HETATM   21  C9  UNL     1       1.585  -1.331  -0.377  1.00  0.00     0.001 C 
BRANCH  21  22
HETATM   22  C8  UNL     1       1.869  -1.101   1.060  1.00  0.00     0.140 C 
BRANCH  22  23
HETATM   23  C7  UNL     1       3.125  -1.846   1.433  1.00  0.00     0.036 C 
BRANCH  23  24
HETATM   24  C6  UNL     1       4.242  -1.308   0.500  1.00  0.00     0.003 C 
BRANCH  24  25
HETATM   25  C5  UNL     1       5.471  -2.060   0.896  1.00  0.00     0.000 C 
BRANCH  25  26
HETATM   26  C4  UNL     1       6.698  -1.780   0.152  1.00  0.00     0.000 C 
BRANCH  26  27
HETATM   27  C3  UNL     1       7.370  -0.485   0.152  1.00  0.00    -0.000 C 
BRANCH  27  28
HETATM   28  C2  UNL     1       6.704   0.739  -0.331  1.00  0.00    -0.005 C 
HETATM   29  C1  UNL     1       7.794   1.858  -0.234  1.00  0.00     0.005 C 
ENDBRANCH  27  28
ENDBRANCH  26  27
ENDBRANCH  25  26
ENDBRANCH  24  25
ENDBRANCH  23  24
ENDBRANCH  22  23
BRANCH  22  30
HETATM   30  O1  UNL     1       0.793  -1.503   1.859  1.00  0.00    -0.392 OA
ATOM     31  H1  UNL     1       0.001  -1.033   1.624  1.00  0.00     0.210 HD
ENDBRANCH  22  30
ENDBRANCH  21  22
ENDBRANCH   1  20
BRANCH   4  32
HETATM   32  O3  UNL     1      -2.064   2.957   0.039  1.00  0.00    -0.393 OA
ATOM     33  H3  UNL     1      -2.995   2.855  -0.121  1.00  0.00     0.210 HD
ENDBRANCH   4  32
BRANCH   3  34
HETATM   34  O2  UNL     1       0.543   4.104  -1.737  1.00  0.00    -0.393 OA
ATOM     35  H2  UNL     1       0.119   4.919  -1.494  1.00  0.00     0.210 HD
ENDBRANCH   3  34
TORSDOF 17
