REMARK  12 active torsions:
REMARK  status: ('A' for Active; 'I' for Inactive)
REMARK    1  A    between atoms: C2_2  and  C3_3 
REMARK    2  A    between atoms: C3_3  and  C4_4 
REMARK    3  A    between atoms: C4_4  and  C5_5 
REMARK    4  A    between atoms: C5_5  and  N1_6 
REMARK    5  A    between atoms: C8_10  and  C9_11 
REMARK    6  A    between atoms: C9_11  and  N2_12 
REMARK    7  A    between atoms: N2_12  and  C10_13 
REMARK    8  A    between atoms: N2_12  and  C14_17 
REMARK    9  A    between atoms: C10_13  and  C11_14 
REMARK   10  A    between atoms: C11_14  and  C12_15 
REMARK   11  A    between atoms: C17_22  and  N4_23 
REMARK   12  A    between atoms: C20_35  and  C21_36 
ROOT
HETATM    1  C14 UNL     1      -2.383   0.566   0.498  1.00  0.00     0.055 A 
HETATM    2  C15 UNL     1      -2.020   1.913   0.238  1.00  0.00     0.064 A 
HETATM    3  C16 UNL     1      -2.723   2.953   0.739  1.00  0.00     0.082 A 
HETATM    4  N3  UNL     1      -2.373   4.231   0.488  1.00  0.00    -0.190 N 
ATOM      5  H3  UNL     1      -1.557   4.415  -0.095  1.00  0.00     0.184 HD
HETATM    6  C17 UNL     1      -3.070   5.272   0.985  1.00  0.00     0.678 A 
HETATM    7  N5  UNL     1      -4.143   5.006   1.751  1.00  0.00    -0.175 N 
ATOM      8  H5  UNL     1      -4.682   5.783   2.135  1.00  0.00     0.186 HD
HETATM    9  C18 UNL     1      -4.530   3.738   2.028  1.00  0.00     0.144 A 
HETATM   10  N6  UNL     1      -5.569   3.477   2.769  1.00  0.00    -0.383 N 
ATOM     11  H61 UNL     1      -5.860   2.522   2.978  1.00  0.00     0.157 HD
ATOM     12  H62 UNL     1      -6.091   4.270   3.142  1.00  0.00     0.157 HD
HETATM   13  C19 UNL     1      -3.819   2.659   1.521  1.00  0.00     0.104 A 
HETATM   14  N7  UNL     1      -4.165   1.393   1.767  1.00  0.00    -0.353 N 
ATOM     15  H7  UNL     1      -4.983   1.219   2.351  1.00  0.00     0.166 HD
HETATM   16  C20 UNL     1      -3.474   0.311   1.273  1.00  0.00     0.036 A 
ENDROOT
BRANCH   1  17
HETATM   17  N2  UNL     1      -1.547  -0.439  -0.026  1.00  0.00    -0.374 N 
BRANCH  17  18
HETATM   18  C9  UNL     1      -1.180  -0.253  -1.449  1.00  0.00     0.180 C 
BRANCH  18  19
HETATM   19  C8  UNL     1       0.262  -0.322  -1.682  1.00  0.00     0.031 A 
HETATM   20  C7  UNL     1       1.247   0.346  -1.011  1.00  0.00     0.075 A 
HETATM   21  C6  UNL     1       2.607   0.211  -1.314  1.00  0.00     0.107 A 
HETATM   22  N1  UNL     1       3.402   0.885  -0.618  1.00  0.00    -0.356 N 
HETATM   23  N9  UNL     1       2.928  -0.615  -2.309  1.00  0.00    -0.339 N 
ATOM     24  H1  UNL     1       2.912   1.443   0.081  1.00  0.00     0.166 HD
HETATM   25  C23 UNL     1       1.982  -1.275  -2.974  1.00  0.00     0.182 A 
ATOM     26  H9  UNL     1       3.907  -0.743  -2.564  1.00  0.00     0.168 HD
HETATM   27  N8  UNL     1       0.686  -1.149  -2.689  1.00  0.00    -0.354 N 
ATOM     28  H8  UNL     1      -0.001  -1.676  -3.229  1.00  0.00     0.166 HD
BRANCH  22  29
HETATM   29  C5  UNL     1       4.790   1.071  -0.551  1.00  0.00     0.063 C 
BRANCH  29  30
HETATM   30  C4  UNL     1       5.527   0.069  -1.385  1.00  0.00     0.048 C 
BRANCH  30  31
HETATM   31  C3  UNL     1       7.012   0.211  -1.300  1.00  0.00     0.031 C 
BRANCH  31  32
HETATM   32  C2  UNL     1       7.545  -0.115   0.030  1.00  0.00    -0.037 C 
HETATM   33  C1  UNL     1       6.871  -0.748   0.952  1.00  0.00     0.007 C 
ENDBRANCH  31  32
ENDBRANCH  30  31
ENDBRANCH  29  30
ENDBRANCH  22  29
ENDBRANCH  18  19
ENDBRANCH  17  18
BRANCH  17  34
HETATM   34  C10 UNL     1      -0.918  -1.557   0.595  1.00  0.00     0.123 C 
BRANCH  34  35
HETATM   35  C11 UNL     1      -1.233  -2.914   0.092  1.00  0.00     0.019 C 
BRANCH  35  36
HETATM   36  C12 UNL     1      -0.477  -4.004   0.835  1.00  0.00    -0.003 C 
HETATM   37  C13 UNL     1      -0.900  -5.334   0.211  1.00  0.00     0.005 C 
ENDBRANCH  35  36
ENDBRANCH  34  35
ENDBRANCH  17  34
ENDBRANCH   1  17
BRANCH  16  38
HETATM   38  C21 UNL     1      -4.025  -1.049   1.562  1.00  0.00     0.055 C 
HETATM   39  C22 UNL     1      -4.853  -1.544   0.381  1.00  0.00     0.011 C 
ENDBRANCH  16  38
BRANCH   6  40
HETATM   40  N4  UNL     1      -2.736   6.473   0.746  1.00  0.00    -0.234 N 
ATOM     41  H42 UNL     1      -1.922   6.675   0.165  1.00  0.00     0.174 HD
ATOM     42  H41 UNL     1      -3.263   7.261   1.122  1.00  0.00     0.174 HD
ENDBRANCH   6  40
TORSDOF 12
