REMARK  17 active torsions:
REMARK  status: ('A' for Active; 'I' for Inactive)
REMARK    1  A    between atoms: C6_6  and  C7_7 
REMARK    2  A    between atoms: C7_7  and  C8_8 
REMARK    3  A    between atoms: C8_8  and  C9_9 
REMARK    4  A    between atoms: C9_9  and  C10_10 
REMARK    5  A    between atoms: C10_10  and  C11_11 
REMARK    6  A    between atoms: C11_11  and  C12_12 
REMARK    7  A    between atoms: C12_12  and  C13_13 
REMARK    8  A    between atoms: C13_13  and  C14_14 
REMARK    9  A    between atoms: C14_14  and  C15_15 
REMARK   10  A    between atoms: C15_15  and  C16_16 
REMARK   11  A    between atoms: C16_16  and  O1_17 
REMARK   12  A    between atoms: O1_17  and  C17_18 
REMARK   13  A    between atoms: C18_19  and  O2_20 
REMARK   14  A    between atoms: C19_22  and  O3_23 
REMARK   15  A    between atoms: C20_25  and  O4_26 
REMARK   16  A    between atoms: C21_28  and  O5_29 
REMARK   17  A    between atoms: C22_31  and  O6_32 
ROOT
HETATM    1  C16 UNL     1      -4.028  -2.123  -0.657  1.00  0.00     0.168 C 
ENDROOT
BRANCH   1   2
HETATM    2  C15 UNL     1      -3.068  -1.375  -1.545  1.00  0.00     0.026 C 
BRANCH   2   3
HETATM    3  C14 UNL     1      -1.660  -1.841  -1.308  1.00  0.00     0.002 C 
BRANCH   3   4
HETATM    4  C13 UNL     1      -1.172  -1.641   0.104  1.00  0.00     0.000 C 
BRANCH   4   5
HETATM    5  C12 UNL     1       0.268  -2.165   0.140  1.00  0.00     0.000 C 
BRANCH   5   6
HETATM    6  C11 UNL     1       0.877  -2.026   1.509  1.00  0.00     0.000 C 
BRANCH   6   7
HETATM    7  C10 UNL     1       0.919  -0.597   1.963  1.00  0.00     0.000 C 
BRANCH   7   8
HETATM    8  C9  UNL     1       1.714   0.242   1.023  1.00  0.00     0.000 C 
BRANCH   8   9
HETATM    9  C8  UNL     1       3.130  -0.239   0.928  1.00  0.00     0.000 C 
BRANCH   9  10
HETATM   10  C7  UNL     1       3.936   0.640  -0.037  1.00  0.00     0.005 C 
BRANCH  10  11
HETATM   11  C6  UNL     1       5.351   0.055  -0.048  1.00  0.00    -0.009 C 
HETATM   12  C5  UNL     1       6.305   0.781  -0.942  1.00  0.00    -0.002 C 
HETATM   13  C4  UNL     1       7.368  -0.118  -1.558  1.00  0.00     0.010 C 
HETATM   14  C24 UNL     1       6.957   1.391   0.279  1.00  0.00     0.018 C 
HETATM   15  C3  UNL     1       8.679   0.572  -1.158  1.00  0.00     0.034 C 
HETATM   16  C2  UNL     1       8.381   0.989   0.228  1.00  0.00    -0.085 C 
HETATM   17  C1  UNL     1       9.229   1.001   1.232  1.00  0.00     0.014 C 
HETATM   18  C23 UNL     1       6.096   0.533   1.183  1.00  0.00     0.014 C 
ENDBRANCH  10  11
ENDBRANCH   9  10
ENDBRANCH   8   9
ENDBRANCH   7   8
ENDBRANCH   6   7
ENDBRANCH   5   6
ENDBRANCH   4   5
ENDBRANCH   3   4
ENDBRANCH   2   3
ENDBRANCH   1   2
BRANCH   1  19
HETATM   19  O1  UNL     1      -5.354  -1.761  -0.815  1.00  0.00    -0.381 OA
BRANCH  19  20
HETATM   20  C17 UNL     1      -5.543  -0.456  -0.490  1.00  0.00     0.183 C 
HETATM   21  C18 UNL     1      -6.098   0.378  -1.628  1.00  0.00     0.181 C 
HETATM   22  C19 UNL     1      -6.048   1.826  -1.259  1.00  0.00     0.180 C 
HETATM   23  C20 UNL     1      -6.643   2.152   0.069  1.00  0.00     0.180 C 
HETATM   24  C21 UNL     1      -6.395   1.131   1.131  1.00  0.00     0.180 C 
HETATM   25  C22 UNL     1      -6.556  -0.282   0.654  1.00  0.00     0.181 C 
BRANCH  21  26
HETATM   26  O2  UNL     1      -7.405   0.002  -1.902  1.00  0.00    -0.390 OA
ATOM     27  H2  UNL     1      -7.753   0.525  -2.615  1.00  0.00     0.210 HD
ENDBRANCH  21  26
BRANCH  22  28
HETATM   28  O3  UNL     1      -6.792   2.526  -2.233  1.00  0.00    -0.390 OA
ATOM     29  H3  UNL     1      -6.760   3.446  -1.999  1.00  0.00     0.210 HD
ENDBRANCH  22  28
BRANCH  23  30
HETATM   30  O4  UNL     1      -6.078   3.359   0.508  1.00  0.00    -0.390 OA
ATOM     31  H4  UNL     1      -6.457   3.567   1.354  1.00  0.00     0.210 HD
ENDBRANCH  23  30
BRANCH  24  32
HETATM   32  O5  UNL     1      -5.126   1.234   1.709  1.00  0.00    -0.390 OA
ATOM     33  H5  UNL     1      -4.968   0.585   2.384  1.00  0.00     0.210 HD
ENDBRANCH  24  32
BRANCH  25  34
HETATM   34  O6  UNL     1      -6.322  -1.165   1.677  1.00  0.00    -0.390 OA
ATOM     35  H6  UNL     1      -6.948  -1.058   2.384  1.00  0.00     0.210 HD
ENDBRANCH  25  34
ENDBRANCH  19  20
ENDBRANCH   1  19
TORSDOF 17
