REMARK  11 active torsions:
REMARK  status: ('A' for Active; 'I' for Inactive)
REMARK    1  A    between atoms: C7_7  and  O1_8 
REMARK    2  A    between atoms: C8_10  and  C9_11 
REMARK    3  A    between atoms: C9_11  and  O2_12 
REMARK    4  A    between atoms: C14_18  and  C15_19 
REMARK    5  A    between atoms: C14_18  and  C16_22 
REMARK    6  A    between atoms: C16_22  and  O5_23 
REMARK    7  A    between atoms: C16_22  and  C17_25 
REMARK    8  A    between atoms: C17_25  and  C18_26 
REMARK    9  A    between atoms: C18_26  and  C19_27 
REMARK   10  A    between atoms: C19_27  and  C20_28 
REMARK   11  A    between atoms: C20_28  and  O6_29 
ROOT
HETATM    1  C1  UNL     1      -0.990  -1.052  -1.815  1.00  0.00     0.017 C 
HETATM    2  C2  UNL     1      -0.740  -0.589  -0.429  1.00  0.00    -0.016 C 
HETATM    3  C3  UNL     1      -1.229  -1.614   0.513  1.00  0.00     0.012 C 
HETATM    4  C4  UNL     1      -2.719  -1.758   0.141  1.00  0.00     0.006 C 
HETATM    5  C5  UNL     1      -3.517  -0.550   0.340  1.00  0.00     0.002 A 
HETATM    6  C6  UNL     1      -4.562  -0.234  -0.736  1.00  0.00     0.038 A 
HETATM    7  C7  UNL     1      -3.832   1.075  -0.956  1.00  0.00     0.130 A 
HETATM    8  C8  UNL     1      -2.838   0.796   0.095  1.00  0.00     0.019 A 
HETATM    9  C10 UNL     1      -1.398   0.743  -0.062  1.00  0.00    -0.023 C 
HETATM   10  C11 UNL     1      -0.773   1.287   1.219  1.00  0.00     0.017 C 
HETATM   11  C12 UNL     1      -0.698   1.535  -1.129  1.00  0.00     0.012 C 
HETATM   12  C13 UNL     1       0.762   1.051  -1.001  1.00  0.00     0.025 C 
HETATM   13  C14 UNL     1       0.748  -0.310  -0.419  1.00  0.00     0.082 C 
ENDROOT
BRANCH  13  14
HETATM   14  C15 UNL     1       1.479  -1.192  -1.434  1.00  0.00     0.185 C 
HETATM   15  O3  UNL     1       2.073  -0.691  -2.425  1.00  0.00    -0.647 OA
HETATM   16  O4  UNL     1       1.534  -2.563  -1.331  1.00  0.00    -0.647 OA
ENDBRANCH  13  14
BRANCH  13  17
HETATM   17  C16 UNL     1       1.509  -0.651   0.769  1.00  0.00     0.138 C 
BRANCH  17  18
HETATM   18  O5  UNL     1       1.406  -2.042   0.984  1.00  0.00    -0.394 OA
ATOM     19  H5  UNL     1       1.904  -2.265   1.762  1.00  0.00     0.210 HD
ENDBRANCH  17  18
BRANCH  17  20
HETATM   20  C17 UNL     1       3.009  -0.427   0.468  1.00  0.00     0.033 C 
BRANCH  20  21
HETATM   21  C18 UNL     1       3.827  -0.759   1.672  1.00  0.00     0.004 C 
BRANCH  21  22
HETATM   22  C19 UNL     1       5.277  -0.610   1.439  1.00  0.00     0.026 C 
BRANCH  22  23
HETATM   23  C20 UNL     1       5.802   0.730   1.067  1.00  0.00     0.164 C 
BRANCH  23  24
HETATM   24  O6  UNL     1       5.357   1.275  -0.098  1.00  0.00    -0.401 OA
ATOM     25  H6  UNL     1       5.693   2.131  -0.336  1.00  0.00     0.209 HD
ENDBRANCH  23  24
ENDBRANCH  22  23
ENDBRANCH  21  22
ENDBRANCH  20  21
ENDBRANCH  17  20
ENDBRANCH  13  17
BRANCH   8  26
HETATM   26  C9  UNL     1      -3.318   1.673   1.300  1.00  0.00     0.177 C 
BRANCH  26  27
HETATM   27  O2  UNL     1      -4.738   1.702   1.249  1.00  0.00    -0.400 OA
ATOM     28  H2  UNL     1      -5.029   2.234   1.980  1.00  0.00     0.209 HD
ENDBRANCH  26  27
ENDBRANCH   8  26
BRANCH   7  29
HETATM   29  O1  UNL     1      -3.468   1.388  -2.246  1.00  0.00    -0.395 OA
ATOM     30  H1  UNL     1      -3.010   2.209  -2.384  1.00  0.00     0.210 HD
ENDBRANCH   7  29
TORSDOF 11
