REMARK  5 active torsions:
REMARK  status: ('A' for Active; 'I' for Inactive)
REMARK    1  A    between atoms: C4_4  and  C5_5 
REMARK    2  A    between atoms: N1_8  and  C6_9 
REMARK    3  A    between atoms: C7_10  and  O3_11 
REMARK    4  A    between atoms: C7_10  and  N2_13 
REMARK       I    between atoms: N2_13  and  C8_15 
REMARK       I    between atoms: C8_15  and  N3_16 
REMARK       I    between atoms: C8_15  and  N4_20 
REMARK    5  A    between atoms: C15_30  and  C16_31 
ROOT
HETATM    1  C1  UNL     1      -1.344  -0.708   3.557  1.00  0.00     0.036 C 
HETATM    2  C2  UNL     1      -0.367  -0.298   2.545  1.00  0.00    -0.025 C 
HETATM    3  C3  UNL     1      -0.612   0.236   1.241  1.00  0.00    -0.039 C 
HETATM    4  C4  UNL     1       0.864   0.497   0.724  1.00  0.00     0.215 C 
HETATM    5  N1  UNL     1       0.928   0.000  -0.530  1.00  0.00    -0.362 N 
HETATM    6  C9  UNL     1      -0.412  -0.170  -1.064  1.00  0.00     0.099 C 
HETATM    7  C10 UNL     1      -0.594   0.943  -2.005  1.00  0.00     0.027 C 
HETATM    8  C11 UNL     1      -1.561   1.847  -1.377  1.00  0.00     0.012 C 
HETATM    9  C12 UNL     1      -2.340   1.001  -0.362  1.00  0.00    -0.033 C 
HETATM   10  C13 UNL     1      -3.632   0.749  -0.981  1.00  0.00     0.016 C 
HETATM   11  C14 UNL     1      -2.678   2.008   0.730  1.00  0.00     0.016 C 
HETATM   12  C15 UNL     1      -1.404  -0.118   0.081  1.00  0.00     0.019 C 
ENDROOT
BRANCH   5  13
HETATM   13  C6  UNL     1       1.825  -0.983  -0.960  1.00  0.00     0.143 C 
HETATM   14  C7  UNL     1       3.221  -0.820  -1.139  1.00  0.00     0.154 C 
BRANCH  14  15
HETATM   15  O3  UNL     1       3.843  -1.910  -1.538  1.00  0.00    -0.345 OA
ATOM     16  H3  UNL     1       4.779  -1.801  -1.658  1.00  0.00     0.219 HD
ENDBRANCH  14  15
BRANCH  14  17
HETATM   17  N2  UNL     1       4.093   0.264  -0.982  1.00  0.00    -0.321 N 
HETATM   18  C8  UNL     1       5.540   0.144  -1.245  1.00  0.00     0.482 C 
HETATM   19  N3  UNL     1       6.215   0.336   0.028  1.00  0.00    -0.033 N 
HETATM   20  N4  UNL     1       6.006   1.164  -2.150  1.00  0.00    -0.033 N 
ATOM     21  H33 UNL     1       5.961   1.209   0.490  1.00  0.00     0.278 HD
ATOM     22  H32 UNL     1       5.885  -0.296   0.757  1.00  0.00     0.278 HD
ATOM     23  H31 UNL     1       7.215   0.253  -0.154  1.00  0.00     0.278 HD
ATOM     24  H43 UNL     1       5.470   1.164  -3.018  1.00  0.00     0.278 HD
ATOM     25  H42 UNL     1       5.766   2.097  -1.814  1.00  0.00     0.278 HD
ATOM     26  H41 UNL     1       7.006   1.081  -2.332  1.00  0.00     0.278 HD
ATOM     27  H2  UNL     1       3.717   1.162  -0.677  1.00  0.00     0.165 HD
ENDBRANCH  14  17
ENDBRANCH   5  13
BRANCH   4  28
HETATM   28  C5  UNL     1       1.250   1.889   0.898  1.00  0.00     0.201 C 
HETATM   29  O1  UNL     1       1.593   2.713   0.013  1.00  0.00    -0.646 OA
HETATM   30  O2  UNL     1       1.272   2.477   2.195  1.00  0.00    -0.646 OA
ENDBRANCH   4  28
BRANCH  12  31
HETATM   31  C16 UNL     1      -2.146  -1.442  -0.015  1.00  0.00    -0.037 C 
HETATM   32  C17 UNL     1      -3.234  -1.701   0.957  1.00  0.00     0.015 C 
HETATM   33  C18 UNL     1      -2.635  -1.815  -1.381  1.00  0.00     0.015 C 
HETATM   34  C19 UNL     1      -1.164  -2.620   0.258  1.00  0.00     0.015 C 
ENDBRANCH  12  31
TORSDOF 5
