REMARK  7 active torsions:
REMARK  status: ('A' for Active; 'I' for Inactive)
REMARK    1  A    between atoms: C8_13  and  C9_14 
REMARK       I    between atoms: C9_14  and  N3_16 
REMARK    2  A    between atoms: N3_16  and  C10_18 
REMARK    3  A    between atoms: C10_18  and  C11_19 
REMARK    4  A    between atoms: C11_19  and  C12_20 
REMARK    5  A    between atoms: C12_20  and  N4_21 
REMARK    6  A    between atoms: N4_21  and  C13_23 
REMARK    7  A    between atoms: N5_24  and  N6_26 
ROOT
HETATM    1  C9  UNL     1      -1.611   0.296  -0.288  1.00  0.00     0.229 C 
HETATM    2  O1  UNL     1      -1.632   1.479   0.058  1.00  0.00    -0.273 OA
HETATM    3  N3  UNL     1      -0.706  -0.611   0.294  1.00  0.00    -0.360 N 
ATOM      4  H3  UNL     1      -0.744  -1.575  -0.036  1.00  0.00     0.162 HD
ENDROOT
BRANCH   3   5
HETATM    5  C10 UNL     1       0.268  -0.310   1.309  1.00  0.00     0.124 C 
BRANCH   5   6
HETATM    6  C11 UNL     1       1.237   0.718   0.834  1.00  0.00     0.039 C 
BRANCH   6   7
HETATM    7  C12 UNL     1       2.255   0.993   1.942  1.00  0.00     0.122 C 
BRANCH   7   8
HETATM    8  N4  UNL     1       3.167   1.986   1.446  1.00  0.00    -0.385 N 
ATOM      9  H4  UNL     1       3.171   2.925   1.845  1.00  0.00     0.160 HD
BRANCH   8  10
HETATM   10  C13 UNL     1       4.058   1.652   0.402  1.00  0.00     0.192 C 
HETATM   11  N5  UNL     1       4.330   0.450   0.026  1.00  0.00    -0.295 N 
ATOM     12  H5  UNL     1       3.878  -0.328   0.506  1.00  0.00     0.187 HD
BRANCH  11  13
HETATM   13  N6  UNL     1       5.216   0.173  -1.010  1.00  0.00    -0.279 N 
HETATM   14  C14 UNL     1       6.465  -0.022  -0.773  1.00  0.00     0.154 C 
HETATM   15  N7  UNL     1       7.516  -0.313  -1.684  1.00  0.00    -0.369 N 
HETATM   16  S1  UNL     1       7.305   0.007   0.837  1.00  0.00    -0.091 SA
HETATM   17  C15 UNL     1       8.553  -1.108  -1.128  1.00  0.00     0.132 C 
ATOM     18  H7  UNL     1       7.525   0.019  -2.649  1.00  0.00     0.161 HD
HETATM   19  C16 UNL     1       8.952  -0.538   0.221  1.00  0.00     0.102 C 
ATOM     20  H6  UNL     1       4.871   0.124  -1.969  1.00  0.00     0.189 HD
ENDBRANCH  11  13
ENDBRANCH   8  10
ENDBRANCH   7   8
ENDBRANCH   6   7
ENDBRANCH   5   6
ENDBRANCH   3   5
BRANCH   1  21
HETATM   21  C8  UNL     1      -2.549  -0.159  -1.319  1.00  0.00     0.147 C 
HETATM   22  C1  UNL     1      -3.388   0.941  -1.857  1.00  0.00     0.084 C 
HETATM   23  N1  UNL     1      -2.975   2.140  -2.177  1.00  0.00    -0.388 N 
HETATM   24  N2  UNL     1      -4.709   0.428  -1.952  1.00  0.00    -0.370 N 
ATOM     25  H12 UNL     1      -3.552   2.896  -2.547  1.00  0.00     0.157 HD
ATOM     26  H11 UNL     1      -2.026   2.508  -2.109  1.00  0.00     0.157 HD
HETATM   27  C2  UNL     1      -4.912  -0.436  -0.823  1.00  0.00     0.032 C 
ATOM     28  H2  UNL     1      -5.387   0.635  -2.685  1.00  0.00     0.161 HD
HETATM   29  C3  UNL     1      -5.976  -1.468  -0.991  1.00  0.00     0.031 C 
HETATM   30  C6  UNL     1      -5.302   0.434   0.346  1.00  0.00     0.031 C 
HETATM   31  C7  UNL     1      -3.548  -1.079  -0.647  1.00  0.00     0.052 C 
HETATM   32  C4  UNL     1      -6.985  -1.190   0.087  1.00  0.00     0.002 C 
HETATM   33  C5  UNL     1      -6.172  -0.467   1.165  1.00  0.00     0.002 C 
ENDBRANCH   1  21
TORSDOF 7
