REMARK  8 active torsions:
REMARK  status: ('A' for Active; 'I' for Inactive)
REMARK    1  A    between atoms: C2_2  and  N1_4 
REMARK    2  A    between atoms: N1_4  and  C4_6 
REMARK    3  A    between atoms: C7_10  and  N2_11 
REMARK       I    between atoms: N2_11  and  C8_13 
REMARK    4  A    between atoms: C8_13  and  C9_15 
REMARK    5  A    between atoms: C11_17  and  C12_18 
REMARK    6  A    between atoms: C15_24  and  N3_25 
REMARK    7  A    between atoms: C23_33  and  N4_34 
REMARK    8  A    between atoms: N5_37  and  C26_38 
ROOT
HETATM    1  C4  UNL     1       1.887   3.558   0.388  1.00  0.00     0.105 A 
HETATM    2  C5  UNL     1       0.592   3.932   0.176  1.00  0.00     0.092 A 
HETATM    3  C6  UNL     1      -0.339   2.981  -0.082  1.00  0.00     0.150 A 
HETATM    4  F1  UNL     1      -1.600   3.400  -0.274  1.00  0.00    -0.203 F 
HETATM    5  C7  UNL     1      -0.057   1.578  -0.154  1.00  0.00     0.118 A 
HETATM    6  C23 UNL     1       1.237   1.286   0.074  1.00  0.00     0.135 A 
HETATM    7  N6  UNL     1       2.210   2.262   0.343  1.00  0.00    -0.327 N 
ATOM      8  H6  UNL     1       3.176   1.978   0.506  1.00  0.00     0.169 HD
ENDROOT
BRANCH   5   9
HETATM    9  N2  UNL     1      -1.051   0.784  -0.608  1.00  0.00    -0.317 N 
HETATM   10  C8  UNL     1      -1.454  -0.454  -1.090  1.00  0.00     0.258 C 
HETATM   11  O1  UNL     1      -0.822  -1.467  -1.235  1.00  0.00    -0.267 OA
ATOM     12  H2  UNL     1      -1.893   1.359  -0.587  1.00  0.00     0.169 HD
BRANCH  10  13
HETATM   13  C9  UNL     1      -2.914  -0.514  -1.541  1.00  0.00     0.059 A 
HETATM   14  C10 UNL     1      -3.049  -0.227  -2.905  1.00  0.00     0.035 A 
HETATM   15  C11 UNL     1      -4.281   0.138  -3.414  1.00  0.00     0.049 A 
HETATM   16  C13 UNL     1      -5.363   0.202  -2.528  1.00  0.00     0.018 A 
HETATM   17  C14 UNL     1      -5.179  -0.094  -1.208  1.00  0.00     0.031 A 
HETATM   18  C15 UNL     1      -3.906  -0.477  -0.660  1.00  0.00     0.046 A 
BRANCH  15  19
HETATM   19  C12 UNL     1      -4.378   0.453  -4.857  1.00  0.00     0.417 C 
HETATM   20  F2  UNL     1      -5.601   0.945  -5.225  1.00  0.00    -0.166 F 
HETATM   21  F3  UNL     1      -4.131  -0.693  -5.621  1.00  0.00    -0.166 F 
HETATM   22  F4  UNL     1      -3.381   1.360  -5.226  1.00  0.00    -0.166 F 
ENDBRANCH  15  19
BRANCH  18  23
HETATM   23  N3  UNL     1      -3.928  -0.855   0.657  1.00  0.00    -0.380 N 
HETATM   24  C16 UNL     1      -3.055  -1.779   1.327  1.00  0.00     0.123 C 
HETATM   25  C17 UNL     1      -3.626  -3.186   1.294  1.00  0.00     0.024 C 
HETATM   26  C18 UNL     1      -4.989  -3.397   1.767  1.00  0.00    -0.012 C 
HETATM   27  C19 UNL     1      -5.952  -2.725   0.760  1.00  0.00     0.011 C 
HETATM   28  C21 UNL     1      -5.621  -2.529   2.777  1.00  0.00     0.011 C 
HETATM   29  C20 UNL     1      -6.016  -1.580   1.662  1.00  0.00     0.004 C 
HETATM   30  C22 UNL     1      -5.061  -0.422   1.460  1.00  0.00     0.127 C 
ENDBRANCH  18  23
ENDBRANCH  10  13
ENDBRANCH   5   9
BRANCH   6  31
HETATM   31  N4  UNL     1       1.769  -0.006   0.096  1.00  0.00    -0.362 N 
HETATM   32  C24 UNL     1       1.650  -1.027   1.096  1.00  0.00     0.154 C 
HETATM   33  C25 UNL     1       3.036  -1.429   1.602  1.00  0.00     0.292 C 
HETATM   34  N5  UNL     1       4.008  -1.542   0.514  1.00  0.00     0.096 N 
HETATM   35  C31 UNL     1       3.325  -1.645  -0.773  1.00  0.00     0.292 C 
HETATM   36  C32 UNL     1       2.622  -0.341  -1.055  1.00  0.00     0.154 C 
BRANCH  34  37
HETATM   37  C26 UNL     1       4.868  -2.696   0.736  1.00  0.00     0.223 C 
HETATM   38  C27 UNL     1       4.966  -3.645  -0.409  1.00  0.00     0.036 C 
HETATM   39  C28 UNL     1       6.287  -3.327  -1.098  1.00  0.00     0.002 C 
HETATM   40  C29 UNL     1       6.929  -2.229  -0.314  1.00  0.00     0.002 C 
HETATM   41  C30 UNL     1       6.287  -2.329   1.058  1.00  0.00     0.036 C 
ENDBRANCH  34  37
ENDBRANCH   6  31
BRANCH   1  42
HETATM   42  N1  UNL     1       2.872   4.589   0.504  1.00  0.00    -0.372 N 
ATOM     43  H1  UNL     1       3.850   4.326   0.628  1.00  0.00     0.161 HD
BRANCH  42  44
HETATM   44  C2  UNL     1       2.525   5.992   0.451  1.00  0.00     0.075 C 
HETATM   45  C1  UNL     1       1.817   6.471   1.676  1.00  0.00     0.031 C 
HETATM   46  C3  UNL     1       3.638   6.893  -0.015  1.00  0.00     0.031 C 
ENDBRANCH  42  44
ENDBRANCH   1  42
TORSDOF 8
