REMARK  9 active torsions:
REMARK  status: ('A' for Active; 'I' for Inactive)
REMARK    1  A    between atoms: C2_2  and  C3_3 
REMARK    2  A    between atoms: C3_3  and  O1_4 
REMARK    3  A    between atoms: C6_10  and  C7_11 
REMARK    4  A    between atoms: C7_11  and  C8_14 
REMARK    5  A    between atoms: C14_21  and  O4_22 
REMARK    6  A    between atoms: O4_22  and  C15_23 
REMARK    7  A    between atoms: C15_23  and  C16_25 
REMARK    8  A    between atoms: C16_25  and  N1_26 
REMARK    9  A    between atoms: C30_40  and  C31_41 
ROOT
HETATM    1  C3  UNL     1      -1.827  -2.583  -1.009  1.00  0.00     0.067 C 
HETATM    2  C4  UNL     1      -0.721  -2.274   0.006  1.00  0.00     0.148 C 
HETATM    3  C5  UNL     1       0.616  -2.700  -0.386  1.00  0.00     0.262 C 
HETATM    4  O2  UNL     1       0.779  -3.739  -1.089  1.00  0.00    -0.265 OA
HETATM    5  O3  UNL     1       1.788  -2.037  -0.040  1.00  0.00    -0.307 OA
HETATM    6  C6  UNL     1       1.849  -1.041   0.974  1.00  0.00     0.238 C 
HETATM    7  C14 UNL     1       1.861   0.283   0.146  1.00  0.00     0.167 C 
HETATM    8  C19 UNL     1       1.569   1.475   0.955  1.00  0.00     0.035 C 
HETATM    9  C20 UNL     1       0.317   2.176   0.468  1.00  0.00     0.003 C 
HETATM   10  C21 UNL     1       0.431   3.682   0.651  1.00  0.00     0.000 C 
HETATM   11  C22 UNL     1      -0.570   4.188   1.638  1.00  0.00     0.000 C 
HETATM   12  C23 UNL     1      -1.692   4.945   0.987  1.00  0.00     0.000 C 
HETATM   13  C24 UNL     1      -2.625   4.067   0.217  1.00  0.00     0.000 C 
HETATM   14  C25 UNL     1      -3.699   3.419   1.098  1.00  0.00     0.004 C 
HETATM   15  C26 UNL     1      -4.885   3.165   0.202  1.00  0.00     0.027 C 
HETATM   16  C27 UNL     1      -5.590   1.893   0.506  1.00  0.00    -0.031 C 
HETATM   17  C28 UNL     1      -5.116   0.702   0.259  1.00  0.00    -0.030 C 
HETATM   18  C29 UNL     1      -3.807   0.402  -0.360  1.00  0.00     0.042 C 
HETATM   19  C30 UNL     1      -3.846  -0.974  -1.072  1.00  0.00     0.093 C 
HETATM   20  C32 UNL     1      -2.504  -1.357  -1.488  1.00  0.00     0.054 C 
ENDROOT
BRANCH   6  21
HETATM   21  C7  UNL     1       3.128  -1.156   1.772  1.00  0.00     0.299 C 
HETATM   22  F1  UNL     1       4.253  -0.955   0.951  1.00  0.00    -0.198 F 
HETATM   23  F2  UNL     1       3.194  -0.241   2.783  1.00  0.00    -0.198 F 
BRANCH  21  24
HETATM   24  C8  UNL     1       3.274  -2.560   2.301  1.00  0.00     0.016 A 
HETATM   25  C9  UNL     1       2.309  -3.186   3.045  1.00  0.00     0.016 A 
HETATM   26  C10 UNL     1       2.476  -4.491   3.510  1.00  0.00     0.043 A 
HETATM   27  C11 UNL     1       3.622  -5.171   3.226  1.00  0.00     0.116 A 
HETATM   28  F3  UNL     1       3.818  -6.444   3.660  1.00  0.00    -0.206 F 
HETATM   29  C12 UNL     1       4.613  -4.564   2.477  1.00  0.00     0.043 A 
HETATM   30  C13 UNL     1       4.426  -3.290   2.035  1.00  0.00     0.016 A 
ENDBRANCH  21  24
ENDBRANCH   6  21
BRANCH   7  31
HETATM   31  O4  UNL     1       3.062   0.322  -0.591  1.00  0.00    -0.312 OA
BRANCH  31  32
HETATM   32  C15 UNL     1       3.205   0.018  -1.923  1.00  0.00     0.287 C 
HETATM   33  O5  UNL     1       2.211  -0.330  -2.579  1.00  0.00    -0.263 OA
BRANCH  32  34
HETATM   34  C16 UNL     1       4.579   0.119  -2.513  1.00  0.00     0.381 C 
BRANCH  34  35
HETATM   35  N1  UNL     1       5.171   1.377  -2.097  1.00  0.00     0.089 N 
HETATM   36  C17 UNL     1       4.487   2.483  -2.749  1.00  0.00     0.310 C 
HETATM   37  C18 UNL     1       6.588   1.426  -2.197  1.00  0.00     0.310 C 
ENDBRANCH  34  35
ENDBRANCH  32  34
ENDBRANCH  31  32
ENDBRANCH   7  31
BRANCH   1  38
HETATM   38  C2  UNL     1      -2.618  -3.764  -0.625  1.00  0.00     0.034 C 
HETATM   39  C1  UNL     1      -3.457  -3.729   0.589  1.00  0.00     0.008 C 
ENDBRANCH   1  38
BRANCH   1  40
HETATM   40  O1  UNL     1      -1.110  -3.015  -2.187  1.00  0.00    -0.389 OA
ATOM     41  H1  UNL     1      -0.600  -2.253  -2.435  1.00  0.00     0.210 HD
ENDBRANCH   1  40
BRANCH  19  42
HETATM   42  C31 UNL     1      -4.757  -0.688  -2.259  1.00  0.00     0.177 C 
HETATM   43  O6  UNL     1      -5.803  -1.358  -2.459  1.00  0.00    -0.648 OA
HETATM   44  O7  UNL     1      -4.463   0.316  -3.162  1.00  0.00    -0.648 OA
ENDBRANCH  19  42
TORSDOF 9
