REMARK  9 active torsions:
REMARK  status: ('A' for Active; 'I' for Inactive)
REMARK    1  A    between atoms: C4_4  and  C5_5 
REMARK       I    between atoms: C5_5  and  N1_7 
REMARK    2  A    between atoms: C8_10  and  O2_11 
REMARK    3  A    between atoms: C8_10  and  C9_13 
REMARK    4  A    between atoms: C9_13  and  N2_14 
REMARK    5  A    between atoms: N2_14  and  C10_17 
REMARK    6  A    between atoms: N3_23  and  C16_24 
REMARK    7  A    between atoms: C16_24  and  C17_25 
REMARK    8  A    between atoms: C24_35  and  O3_36 
REMARK    9  A    between atoms: O3_36  and  C25_37 
ROOT
HETATM    1  C5  UNL     1       4.550  -0.429  -2.350  1.00  0.00     0.257 C 
HETATM    2  O1  UNL     1       4.945   0.162  -3.386  1.00  0.00    -0.267 OA
HETATM    3  N1  UNL     1       3.409   0.078  -1.680  1.00  0.00    -0.348 N 
HETATM    4  C6  UNL     1       2.733   1.280  -2.218  1.00  0.00     0.129 C 
HETATM    5  C7  UNL     1       2.469   2.306  -1.169  1.00  0.00     0.059 C 
HETATM    6  C8  UNL     1       1.805   1.693   0.058  1.00  0.00     0.084 C 
HETATM    7  C22 UNL     1       2.555   0.504   0.551  1.00  0.00     0.059 C 
HETATM    8  C23 UNL     1       2.821  -0.504  -0.507  1.00  0.00     0.129 C 
ENDROOT
BRANCH   6   9
HETATM    9  O2  UNL     1       1.824   2.704   1.034  1.00  0.00    -0.388 OA
ATOM     10  H2  UNL     1       1.410   2.322   1.799  1.00  0.00     0.210 HD
ENDBRANCH   6   9
BRANCH   6  11
HETATM   11  C9  UNL     1       0.389   1.418  -0.304  1.00  0.00     0.270 C 
BRANCH  11  12
HETATM   12  N2  UNL     1      -0.456   0.977   0.769  1.00  0.00    -0.068 N 
ATOM     13  H22 UNL     1      -0.106   0.128   1.213  1.00  0.00     0.277 HD
ATOM     14  H21 UNL     1      -0.406   1.594   1.579  1.00  0.00     0.277 HD
BRANCH  12  15
HETATM   15  C10 UNL     1      -1.782   0.826   0.288  1.00  0.00     0.186 C 
HETATM   16  C11 UNL     1      -1.977  -0.209  -0.793  1.00  0.00     0.034 C 
HETATM   17  C12 UNL     1      -3.505  -0.096  -0.952  1.00  0.00     0.011 C 
HETATM   18  C13 UNL     1      -4.009   0.163   0.452  1.00  0.00    -0.035 C 
HETATM   19  C14 UNL     1      -4.833  -1.015   0.858  1.00  0.00     0.040 C 
HETATM   20  C20 UNL     1      -4.759   1.469   0.566  1.00  0.00     0.044 C 
HETATM   21  C21 UNL     1      -2.762   0.308   1.331  1.00  0.00     0.042 C 
HETATM   22  C15 UNL     1      -6.169  -0.948   0.157  1.00  0.00     0.274 C 
HETATM   23  N3  UNL     1      -6.899   0.245   0.423  1.00  0.00     0.101 N 
HETATM   24  C18 UNL     1      -6.149   1.261   1.111  1.00  0.00     0.220 C 
HETATM   25  C19 UNL     1      -6.185   1.084   2.597  1.00  0.00     0.043 C 
BRANCH  23  26
HETATM   26  C16 UNL     1      -7.662   0.755  -0.678  1.00  0.00     0.389 C 
BRANCH  26  27
HETATM   27  C17 UNL     1      -8.837  -0.161  -1.034  1.00  0.00     0.413 C 
HETATM   28  F1  UNL     1      -8.412  -1.418  -1.391  1.00  0.00    -0.169 F 
HETATM   29  F2  UNL     1      -9.684  -0.278   0.071  1.00  0.00    -0.169 F 
HETATM   30  F3  UNL     1      -9.581   0.372  -2.056  1.00  0.00    -0.169 F 
ENDBRANCH  26  27
ENDBRANCH  23  26
ENDBRANCH  12  15
ENDBRANCH  11  12
ENDBRANCH   6  11
BRANCH   1  31
HETATM   31  C4  UNL     1       5.318  -1.621  -1.914  1.00  0.00     0.074 A 
HETATM   32  C3  UNL     1       4.966  -2.871  -2.305  1.00  0.00     0.034 A 
HETATM   33  C2  UNL     1       5.743  -3.905  -1.870  1.00  0.00    -0.018 A 
HETATM   34  C1  UNL     1       5.559  -5.379  -2.167  1.00  0.00     0.056 C 
HETATM   35  S1  UNL     1       6.936  -3.132  -0.936  1.00  0.00    -0.069 SA
HETATM   36  C24 UNL     1       6.426  -1.518  -1.116  1.00  0.00     0.133 A 
BRANCH  36  37
HETATM   37  O3  UNL     1       6.988  -0.334  -0.580  1.00  0.00    -0.302 OA
BRANCH  37  38
HETATM   38  C25 UNL     1       6.754   0.106   0.692  1.00  0.00     0.076 A 
HETATM   39  C26 UNL     1       6.091  -0.727   1.578  1.00  0.00     0.039 A 
HETATM   40  C27 UNL     1       5.860  -0.273   2.857  1.00  0.00     0.026 A 
HETATM   41  C28 UNL     1       6.273   0.991   3.270  1.00  0.00     0.034 A 
HETATM   42 CL1  UNL     1       5.923   1.453   4.910  1.00  0.00    -0.084 Cl
HETATM   43  C29 UNL     1       6.924   1.785   2.367  1.00  0.00     0.026 A 
HETATM   44  C30 UNL     1       7.171   1.359   1.081  1.00  0.00     0.039 A 
ENDBRANCH  37  38
ENDBRANCH  36  37
ENDBRANCH   1  31
TORSDOF 9
