REMARK  9 active torsions:
REMARK  status: ('A' for Active; 'I' for Inactive)
REMARK    1  A    between atoms: C1_2  and  O1_4 
REMARK    2  A    between atoms: O1_4  and  C2_5 
REMARK    3  A    between atoms: C7_11  and  C8_12 
REMARK    4  A    between atoms: C13_23  and  N4_24 
REMARK    5  A    between atoms: N4_24  and  C14_26 
REMARK    6  A    between atoms: C14_26  and  N5_28 
REMARK    7  A    between atoms: N5_28  and  C15_30 
REMARK    8  A    between atoms: N6_33  and  C18_34 
REMARK    9  A    between atoms: C18_34  and  C19_35 
ROOT
HETATM    1  C8  UNL     1      -4.834  -0.186  -1.039  1.00  0.00     0.093 A 
HETATM    2  N1  UNL     1      -5.481   0.193  -2.144  1.00  0.00    -0.336 N 
ATOM      3  H1  UNL     1      -6.490   0.125  -2.274  1.00  0.00     0.168 HD
HETATM    4  C9  UNL     1      -4.637   0.671  -3.053  1.00  0.00     0.147 A 
HETATM    5  C10 UNL     1      -4.828   1.178  -4.316  1.00  0.00     0.058 A 
HETATM    6 BR1  UNL     1      -6.590   1.267  -5.055  1.00  0.00    -0.047 Br
HETATM    7  C11 UNL     1      -3.754   1.623  -5.055  1.00  0.00     0.041 A 
HETATM    8  C12 UNL     1      -2.506   1.531  -4.467  1.00  0.00     0.109 A 
HETATM    9  N2  UNL     1      -2.362   1.036  -3.246  1.00  0.00    -0.302 N 
ATOM     10  H2  UNL     1      -1.425   0.986  -2.847  1.00  0.00     0.186 HD
HETATM   11  N3  UNL     1      -3.374   0.607  -2.528  1.00  0.00    -0.220 N 
HETATM   12  C13 UNL     1      -3.462   0.077  -1.270  1.00  0.00     0.159 A 
ENDROOT
BRANCH  12  13
HETATM   13  N4  UNL     1      -2.487  -0.155  -0.291  1.00  0.00    -0.316 N 
ATOM     14  H4  UNL     1      -2.888  -0.421   0.609  1.00  0.00     0.170 HD
BRANCH  13  15
HETATM   15  C14 UNL     1      -1.089  -0.105  -0.266  1.00  0.00     0.173 C 
HETATM   16  S1  UNL     1      -0.209   0.226  -1.568  1.00  0.00    -0.041 SA
BRANCH  15  17
HETATM   17  N5  UNL     1      -0.415  -0.402   0.991  1.00  0.00    -0.362 N 
ATOM     18  H5  UNL     1      -0.988  -0.635   1.802  1.00  0.00     0.162 HD
BRANCH  17  19
HETATM   19  C15 UNL     1       0.994  -0.385   1.149  1.00  0.00     0.090 C 
HETATM   20  C16 UNL     1       1.660   0.934   0.893  1.00  0.00     0.069 C 
HETATM   21  C17 UNL     1       2.992   0.705   0.218  1.00  0.00     0.065 C 
HETATM   22  N6  UNL     1       3.757  -0.346   0.756  1.00  0.00    -0.373 N 
HETATM   23  C24 UNL     1       3.103  -1.577   1.021  1.00  0.00     0.129 C 
HETATM   24  C25 UNL     1       1.711  -1.458   0.374  1.00  0.00     0.045 C 
BRANCH  22  25
HETATM   25  C18 UNL     1       4.996  -0.091   1.352  1.00  0.00     0.067 C 
BRANCH  25  26
HETATM   26  C19 UNL     1       6.088   0.361   0.436  1.00  0.00     0.024 C 
HETATM   27  C20 UNL     1       7.392   0.608   1.200  1.00  0.00     0.010 C 
HETATM   28  C21 UNL     1       8.462   0.545   0.099  1.00  0.00     0.001 C 
HETATM   29  C22 UNL     1       7.837  -0.241  -1.030  1.00  0.00     0.001 C 
HETATM   30  C23 UNL     1       6.559  -0.807  -0.443  1.00  0.00     0.010 C 
ENDBRANCH  25  26
ENDBRANCH  22  25
ENDBRANCH  17  19
ENDBRANCH  15  17
ENDBRANCH  13  15
ENDBRANCH  12  13
BRANCH   1  31
HETATM   31  C7  UNL     1      -5.392  -0.758   0.176  1.00  0.00     0.030 A 
HETATM   32  C2  UNL     1      -6.385  -0.031   0.869  1.00  0.00     0.087 A 
HETATM   33  C3  UNL     1      -6.951  -0.532   2.005  1.00  0.00     0.039 A 
HETATM   34  C4  UNL     1      -6.556  -1.772   2.500  1.00  0.00     0.026 A 
HETATM   35  C5  UNL     1      -5.597  -2.494   1.846  1.00  0.00     0.035 A 
HETATM   36 CL1  UNL     1      -5.113  -4.059   2.488  1.00  0.00    -0.084 Cl
HETATM   37  C6  UNL     1      -5.041  -1.972   0.706  1.00  0.00     0.040 A 
BRANCH  32  38
HETATM   38  O1  UNL     1      -6.751   1.181   0.360  1.00  0.00    -0.289 OA
BRANCH  38  39
HETATM   39  C1  UNL     1      -7.701   2.024   0.889  1.00  0.00     0.505 C 
HETATM   40  F1  UNL     1      -8.585   2.358  -0.133  1.00  0.00    -0.184 F 
HETATM   41  F2  UNL     1      -7.125   3.241   1.330  1.00  0.00    -0.184 F 
ENDBRANCH  38  39
ENDBRANCH  32  38
ENDBRANCH   1  31
TORSDOF 9
