REMARK  9 active torsions:
REMARK  status: ('A' for Active; 'I' for Inactive)
REMARK       I    between atoms: C1_2  and  N1_3 
REMARK    1  A    between atoms: C1_2  and  C4_10 
REMARK    2  A    between atoms: N1_3  and  C2_5 
REMARK    3  A    between atoms: C2_5  and  C3_6 
REMARK    4  A    between atoms: C4_10  and  C5_11 
REMARK    5  A    between atoms: C4_10  and  O2_17 
REMARK    6  A    between atoms: C5_11  and  C6_12 
REMARK    7  A    between atoms: O2_17  and  C11_18 
REMARK    8  A    between atoms: C15_24  and  C16_25 
REMARK    9  A    between atoms: C26_36  and  O6_37 
ROOT
HETATM    1  C11 UNL     1      -1.691   0.303   0.297  1.00  0.00     0.096 A 
HETATM    2  C12 UNL     1      -0.939   0.428  -0.917  1.00  0.00     0.077 A 
HETATM    3  C13 UNL     1       0.416   0.503  -0.961  1.00  0.00     0.095 A 
HETATM    4  O3  UNL     1       1.085   0.617  -2.082  1.00  0.00    -0.274 OA
HETATM    5  C14 UNL     1       2.373   0.684  -2.133  1.00  0.00     0.298 A 
HETATM    6  O4  UNL     1       2.931   0.796  -3.263  1.00  0.00    -0.259 OA
HETATM    7  C15 UNL     1       3.218   0.639  -0.997  1.00  0.00     0.063 A 
HETATM    8  C26 UNL     1       2.533   0.527   0.183  1.00  0.00     0.091 A 
HETATM    9  C27 UNL     1       1.131   0.457   0.228  1.00  0.00     0.033 A 
HETATM   10  C28 UNL     1       0.439   0.344   1.399  1.00  0.00     0.039 A 
HETATM   11  C29 UNL     1      -0.974   0.266   1.453  1.00  0.00     0.045 A 
HETATM   12 BR1  UNL     1      -1.786   0.199   3.194  1.00  0.00    -0.048 Br
ENDROOT
BRANCH   1  13
HETATM   13  O2  UNL     1      -3.030   0.231   0.169  1.00  0.00    -0.308 OA
BRANCH  13  14
HETATM   14  C4  UNL     1      -4.167   0.071   0.898  1.00  0.00     0.121 C 
BRANCH  14  15
HETATM   15  C1  UNL     1      -5.220   1.083   0.787  1.00  0.00     0.271 C 
HETATM   16  O1  UNL     1      -6.173   0.946   1.659  1.00  0.00    -0.266 OA
HETATM   17  N1  UNL     1      -5.324   2.153  -0.115  1.00  0.00    -0.347 N 
ATOM     18  H1  UNL     1      -4.615   2.299  -0.833  1.00  0.00     0.163 HD
BRANCH  17  19
HETATM   19  C2  UNL     1      -6.474   3.057  -0.003  1.00  0.00     0.240 C 
BRANCH  19  20
HETATM   20  C3  UNL     1      -6.510   4.097  -1.067  1.00  0.00     0.403 C 
HETATM   21  F1  UNL     1      -6.609   3.564  -2.340  1.00  0.00    -0.169 F 
HETATM   22  F2  UNL     1      -5.297   4.816  -1.082  1.00  0.00    -0.169 F 
HETATM   23  F3  UNL     1      -7.540   4.967  -0.830  1.00  0.00    -0.169 F 
ENDBRANCH  19  20
ENDBRANCH  17  19
ENDBRANCH  14  15
BRANCH  14  24
HETATM   24  C5  UNL     1      -4.654  -1.372   0.867  1.00  0.00     0.075 C 
BRANCH  24  25
HETATM   25  C6  UNL     1      -5.364  -1.899  -0.288  1.00  0.00    -0.008 C 
HETATM   26  C7  UNL     1      -6.682  -1.362  -0.712  1.00  0.00     0.005 C 
HETATM   27  C8  UNL     1      -7.657  -2.031   0.244  1.00  0.00     0.000 C 
HETATM   28  C9  UNL     1      -7.024  -3.337   0.637  1.00  0.00     0.000 C 
HETATM   29  C10 UNL     1      -5.670  -3.381   0.008  1.00  0.00     0.005 C 
ENDBRANCH  24  25
ENDBRANCH  14  24
ENDBRANCH  13  14
ENDBRANCH   1  13
BRANCH   8  30
HETATM   30  O6  UNL     1       3.211   0.492   1.352  1.00  0.00    -0.359 OA
ATOM     31  H6  UNL     1       2.736   0.414   2.171  1.00  0.00     0.217 HD
ENDBRANCH   8  30
BRANCH   7  32
HETATM   32  C16 UNL     1       4.651   0.818  -1.211  1.00  0.00     0.102 C 
HETATM   33  C17 UNL     1       5.071   2.133  -0.520  1.00  0.00     0.136 C 
HETATM   34  O5  UNL     1       4.544   3.147  -0.880  1.00  0.00    -0.297 OA
HETATM   35  C18 UNL     1       6.084   2.143   0.546  1.00  0.00     0.079 C 
HETATM   36  C19 UNL     1       7.308   1.295   0.215  1.00  0.00     0.012 C 
HETATM   37  C20 UNL     1       7.006   0.390  -0.955  1.00  0.00    -0.009 C 
HETATM   38  C21 UNL     1       8.004  -0.688  -1.128  1.00  0.00     0.005 C 
HETATM   39  C25 UNL     1       5.617  -0.226  -0.815  1.00  0.00     0.005 C 
HETATM   40  C22 UNL     1       7.853  -1.840  -0.187  1.00  0.00     0.000 C 
HETATM   41  C23 UNL     1       6.482  -2.268   0.131  1.00  0.00     0.000 C 
HETATM   42  C24 UNL     1       5.514  -1.068   0.356  1.00  0.00     0.006 C 
ENDBRANCH   7  32
TORSDOF 9
