REMARK  13 active torsions:
REMARK  status: ('A' for Active; 'I' for Inactive)
REMARK    1  A    between atoms: C1_2  and  O2_4 
REMARK    2  A    between atoms: O2_4  and  C2_5 
REMARK    3  A    between atoms: C2_5  and  C3_7 
REMARK    4  A    between atoms: C5_10  and  O4_11 
REMARK    5  A    between atoms: O4_11  and  C6_12 
REMARK    6  A    between atoms: C8_14  and  C9_15 
REMARK    7  A    between atoms: C9_15  and  C10_16 
REMARK    8  A    between atoms: C10_16  and  C11_17 
REMARK    9  A    between atoms: C11_17  and  C12_18 
REMARK   10  A    between atoms: C12_18  and  C13_19 
REMARK   11  A    between atoms: C19_27  and  N3_28 
REMARK       I    between atoms: N3_28  and  C20_29 
REMARK   12  A    between atoms: C20_29  and  C21_31 
REMARK   13  A    between atoms: C25_36  and  C26_37 
ROOT
HETATM    1  C6  UNL     1      -1.997  -0.012  -1.089  1.00  0.00     0.084 A 
HETATM    2  C7  UNL     1      -0.805  -0.586  -0.726  1.00  0.00     0.076 A 
HETATM    3  C8  UNL     1       0.000   0.084   0.163  1.00  0.00     0.091 A 
HETATM    4  N2  UNL     1      -0.346   1.262   0.672  1.00  0.00    -0.324 N 
ATOM      5  H2  UNL     1       0.277   1.732   1.329  1.00  0.00     0.169 HD
HETATM    6  C19 UNL     1      -1.534   1.850   0.321  1.00  0.00     0.186 A 
HETATM    7  C28 UNL     1      -2.381   1.199  -0.582  1.00  0.00     0.101 A 
ENDROOT
BRANCH   6   8
HETATM    8  N3  UNL     1      -1.841   2.917   0.788  1.00  0.00    -0.348 NA
HETATM    9  C20 UNL     1      -2.155   4.072   1.304  1.00  0.00     0.328 C 
HETATM   10  O5  UNL     1      -2.139   4.272   2.575  1.00  0.00    -0.251 OA
BRANCH   9  11
HETATM   11  C21 UNL     1      -2.549   5.227   0.492  1.00  0.00     0.047 A 
HETATM   12  C22 UNL     1      -2.603   5.140  -0.882  1.00  0.00     0.021 A 
HETATM   13  C23 UNL     1      -2.977   6.236  -1.614  1.00  0.00     0.044 A 
HETATM   14  C24 UNL     1      -3.303   7.435  -0.979  1.00  0.00     0.131 A 
HETATM   15  F1  UNL     1      -3.677   8.537  -1.691  1.00  0.00    -0.205 F 
HETATM   16  C25 UNL     1      -3.254   7.540   0.401  1.00  0.00     0.087 A 
HETATM   17  C27 UNL     1      -2.873   6.413   1.089  1.00  0.00     0.037 A 
BRANCH  16  18
HETATM   18  C26 UNL     1      -3.604   8.825   1.075  1.00  0.00     0.420 C 
HETATM   19  F2  UNL     1      -4.894   9.185   0.783  1.00  0.00    -0.166 F 
HETATM   20  F3  UNL     1      -2.730   9.814   0.699  1.00  0.00    -0.166 F 
HETATM   21  F4  UNL     1      -3.451   8.604   2.442  1.00  0.00    -0.166 F 
ENDBRANCH  16  18
ENDBRANCH   9  11
ENDBRANCH   6   8
BRANCH   3  22
HETATM   22  C9  UNL     1       1.266  -0.539   0.539  1.00  0.00    -0.049 C 
BRANCH  22  23
HETATM   23  C10 UNL     1       2.304  -1.063   0.840  1.00  0.00    -0.100 C 
BRANCH  23  24
HETATM   24  C11 UNL     1       3.578  -1.712   1.209  1.00  0.00     0.095 C 
BRANCH  24  25
HETATM   25  C12 UNL     1       4.358  -2.103  -0.012  1.00  0.00     0.017 C 
BRANCH  25  26
HETATM   26  C13 UNL     1       5.647  -2.763   0.357  1.00  0.00    -0.014 C 
HETATM   27  C14 UNL     1       6.574  -1.926   1.173  1.00  0.00     0.005 C 
HETATM   28  C15 UNL     1       7.048  -0.691   0.441  1.00  0.00     0.000 C 
HETATM   29  C16 UNL     1       7.571  -1.015  -0.935  1.00  0.00     0.000 C 
HETATM   30  C17 UNL     1       6.772  -2.028  -1.682  1.00  0.00     0.000 C 
HETATM   31  C18 UNL     1       6.415  -3.237  -0.858  1.00  0.00     0.005 C 
ENDBRANCH  25  26
ENDBRANCH  24  25
ENDBRANCH  23  24
ENDBRANCH  22  23
ENDBRANCH   3  22
BRANCH   1  32
HETATM   32  O4  UNL     1      -2.884  -0.624  -1.991  1.00  0.00    -0.303 OA
BRANCH  32  33
HETATM   33  C5  UNL     1      -3.848  -1.468  -1.395  1.00  0.00     0.117 A 
HETATM   34  S1  UNL     1      -5.453  -1.134  -0.931  1.00  0.00    -0.076 SA
HETATM   35  C4  UNL     1      -5.882  -2.664  -0.315  1.00  0.00     0.070 A 
HETATM   36  C3  UNL     1      -4.739  -3.403  -0.493  1.00  0.00     0.049 A 
HETATM   37  C29 UNL     1      -3.693  -2.781  -1.050  1.00  0.00     0.063 A 
BRANCH  36  38
HETATM   38  C2  UNL     1      -4.703  -4.833  -0.071  1.00  0.00     0.302 C 
HETATM   39  O3  UNL     1      -3.666  -5.538  -0.222  1.00  0.00    -0.259 OA
BRANCH  38  40
HETATM   40  O2  UNL     1      -5.787  -5.453   0.500  1.00  0.00    -0.226 OA
BRANCH  40  41
HETATM   41  C1  UNL     1      -5.716  -6.774   0.876  1.00  0.00     0.380 C 
HETATM   42  N1  UNL     1      -6.859  -7.379   1.463  1.00  0.00    -0.032 NA
HETATM   43  O1  UNL     1      -4.688  -7.455   0.721  1.00  0.00    -0.242 OA
ENDBRANCH  40  41
ENDBRANCH  38  40
ENDBRANCH  36  38
ENDBRANCH  32  33
ENDBRANCH   1  32
TORSDOF 13
