REMARK  2 active torsions:
REMARK  status: ('A' for Active; 'I' for Inactive)
REMARK    1  A    between atoms: C2_2  and  O2_4 
REMARK    2  A    between atoms: O2_4  and  C3_5 
ROOT
HETATM    1  C3  UNL     1       1.591  -0.678   0.099  1.00  0.00     0.149 C 
HETATM    2  C4  UNL     1       1.280  -1.072  -1.317  1.00  0.00     0.146 C 
HETATM    3  N1  UNL     1       0.050  -1.774  -1.479  1.00  0.00    -0.414 N 
ATOM      4  H1  UNL     1      -0.062  -2.527  -2.157  1.00  0.00     0.153 HD
HETATM    5  C5  UNL     1      -1.005  -1.354  -0.634  1.00  0.00     0.081 C 
HETATM    6  C6  UNL     1      -2.327  -1.156  -1.294  1.00  0.00     0.026 C 
HETATM    7  C7  UNL     1      -3.072  -0.394  -0.196  1.00  0.00     0.011 C 
HETATM    8  C8  UNL     1      -2.005   0.508   0.381  1.00  0.00    -0.042 C 
HETATM    9  C9  UNL     1      -2.305   1.912  -0.141  1.00  0.00     0.015 C 
HETATM   10  C10 UNL     1      -2.033   0.526   1.890  1.00  0.00     0.015 C 
HETATM   11  C11 UNL     1      -0.697   0.084  -0.192  1.00  0.00     0.018 C 
HETATM   12  C12 UNL     1       0.424   0.000   0.788  1.00  0.00     0.041 C 
ENDROOT
BRANCH   1  13
HETATM   13  O2  UNL     1       2.642   0.297   0.023  1.00  0.00    -0.315 OA
BRANCH  13  14
HETATM   14  C2  UNL     1       3.883   0.111   0.566  1.00  0.00     0.255 C 
HETATM   15  C1  UNL     1       4.969   1.128   0.483  1.00  0.00     0.126 C 
HETATM   16  O1  UNL     1       4.136  -0.957   1.164  1.00  0.00    -0.266 OA
ENDBRANCH  13  14
ENDBRANCH   1  13
TORSDOF 2
