REMARK  2 active torsions:
REMARK  status: ('A' for Active; 'I' for Inactive)
REMARK    1  A    between atoms: O1_2  and  C2_3 
REMARK    2  A    between atoms: N1_9  and  O2_11 
ROOT
HETATM    1  C2  UNL     1       1.910  -0.184  -0.125  1.00  0.00     0.138 C 
HETATM    2  C3  UNL     1       0.718   0.185   0.234  1.00  0.00    -0.043 C 
HETATM    3  C4  UNL     1       0.517   1.525   0.856  1.00  0.00     0.038 C 
HETATM    4  C5  UNL     1      -0.520   2.321   0.069  1.00  0.00     0.010 C 
HETATM    5  C6  UNL     1      -1.773   1.538  -0.159  1.00  0.00     0.056 C 
HETATM    6  C7  UNL     1      -1.420   0.216  -0.766  1.00  0.00     0.023 C 
HETATM    7  N1  UNL     1      -1.884  -0.103  -1.910  1.00  0.00    -0.276 N 
ATOM      8  H1  UNL     1      -1.647  -1.002  -2.330  1.00  0.00     0.193 HD
HETATM    9  C8  UNL     1      -0.509  -0.614   0.065  1.00  0.00     0.033 C 
HETATM   10  C9  UNL     1      -0.460  -2.053  -0.102  1.00  0.00     0.005 C 
HETATM   11  C10 UNL     1      -0.079  -2.145   1.369  1.00  0.00     0.012 C 
HETATM   12  C11 UNL     1      -1.168  -1.105   1.325  1.00  0.00     0.005 C 
HETATM   13  C12 UNL     1      -1.871  -2.097   0.438  1.00  0.00     0.012 C 
ENDROOT
BRANCH   7  14
HETATM   14  O2  UNL     1      -2.703   0.774  -2.568  1.00  0.00    -0.290 OA
ATOM     15  H2  UNL     1      -3.049   0.536  -3.420  1.00  0.00     0.244 HD
ENDBRANCH   7  14
BRANCH   1  16
HETATM   16  O1  UNL     1       3.018   0.627   0.050  1.00  0.00    -0.368 OA
HETATM   17  C1  UNL     1       4.185   0.467  -0.732  1.00  0.00     0.208 C 
ENDBRANCH   1  16
TORSDOF 2
