REMARK  3 active torsions:
REMARK  status: ('A' for Active; 'I' for Inactive)
REMARK    1  A    between atoms: C2_2  and  O1_5 
REMARK    2  A    between atoms: O1_5  and  C5_6 
REMARK       I    between atoms: C5_6  and  N1_8 
REMARK    3  A    between atoms: N1_8  and  C6_10 
ROOT
HETATM    1  C5  UNL     1       0.719  -0.163   0.039  1.00  0.00     0.361 C 
HETATM    2  O2  UNL     1       0.806   1.005   0.485  1.00  0.00    -0.238 OA
HETATM    3  N1  UNL     1      -0.461  -0.923  -0.031  1.00  0.00    -0.327 N 
ATOM      4  H1  UNL     1      -0.404  -1.864  -0.421  1.00  0.00     0.165 HD
ENDROOT
BRANCH   3   5
HETATM    5  C6  UNL     1      -1.730  -0.456   0.410  1.00  0.00     0.038 C 
HETATM    6  C7  UNL     1      -2.879  -1.434   0.163  1.00  0.00     0.031 C 
HETATM    7  C8  UNL     1      -3.960  -0.650  -0.527  1.00  0.00     0.003 C 
HETATM    8  C9  UNL     1      -3.291   0.595  -1.040  1.00  0.00     0.007 C 
HETATM    9  C10 UNL     1      -2.201   0.887  -0.030  1.00  0.00     0.014 C 
HETATM   10  C11 UNL     1      -2.701   1.143   1.370  1.00  0.00     0.009 C 
HETATM   11  C12 UNL     1      -1.762   0.063   1.855  1.00  0.00     0.032 C 
ENDBRANCH   3   5
BRANCH   1  12
HETATM   12  O1  UNL     1       1.918  -0.713  -0.413  1.00  0.00    -0.294 OA
BRANCH  12  13
HETATM   13  C2  UNL     1       3.146  -0.061  -0.396  1.00  0.00     0.061 C 
HETATM   14  C1  UNL     1       4.177  -1.036  -0.984  1.00  0.00     0.046 C 
HETATM   15  C3  UNL     1       3.198   1.170  -1.272  1.00  0.00     0.046 C 
HETATM   16  C4  UNL     1       3.607   0.302   0.984  1.00  0.00     0.046 C 
ENDBRANCH  12  13
ENDBRANCH   1  12
TORSDOF 3
