REMARK  1 active torsions:
REMARK  status: ('A' for Active; 'I' for Inactive)
REMARK    1  A    between atoms: C4_4  and  N1_5 
ROOT
HETATM    1  C1  UNL     1       3.731  -0.363  -0.255  1.00  0.00     0.027 C 
HETATM    2  C2  UNL     1       2.954  -1.587  -0.669  1.00  0.00     0.004 C 
HETATM    3  C3  UNL     1       1.714  -1.790   0.168  1.00  0.00     0.027 C 
HETATM    4  C4  UNL     1       0.838  -0.556   0.175  1.00  0.00     0.107 C 
HETATM    5  C10 UNL     1       1.439   0.433   1.118  1.00  0.00     0.257 C 
HETATM    6  N2  UNL     1       2.222   1.448   0.454  1.00  0.00    -0.073 N 
ATOM      7  H21 UNL     1       2.784   1.971   1.125  1.00  0.00     0.277 HD
ATOM      8  H22 UNL     1       1.626   2.202   0.112  1.00  0.00     0.277 HD
HETATM    9  C11 UNL     1       3.048   0.920  -0.610  1.00  0.00     0.232 C 
ENDROOT
BRANCH   4  10
HETATM   10  N1  UNL     1      -0.438  -0.954   0.702  1.00  0.00    -0.382 N 
HETATM   11  C5  UNL     1      -1.474  -0.301   0.375  1.00  0.00     0.042 C 
HETATM   12  C6  UNL     1      -2.828  -0.665   0.889  1.00  0.00     0.064 C 
HETATM   13  S1  UNL     1      -1.374   1.102  -0.729  1.00  0.00    -0.117 SA
HETATM   14  C7  UNL     1      -3.827  -0.384  -0.192  1.00  0.00     0.007 C 
HETATM   15  C8  UNL     1      -4.105   1.096  -0.307  1.00  0.00     0.011 C 
HETATM   16  C9  UNL     1      -2.987   1.829  -1.004  1.00  0.00     0.080 C 
ATOM     17  H1  UNL     1      -0.509  -1.753   1.332  1.00  0.00     0.160 HD
ENDBRANCH   4  10
TORSDOF 1
