REMARK  2 active torsions:
REMARK  status: ('A' for Active; 'I' for Inactive)
REMARK    1  A    between atoms: C2_4  and  C4_6 
REMARK    2  A    between atoms: C12_15  and  O1_16 
ROOT
HETATM    1  C4  UNL     1       0.440  -0.427  -0.564  1.00  0.00     0.112 C 
HETATM    2  C5  UNL     1       0.476  -1.119  -1.877  1.00  0.00     0.078 C 
HETATM    3  N2  UNL     1       0.513  -1.643  -2.909  1.00  0.00    -0.196 NA
HETATM    4  C6  UNL     1      -0.084   0.966  -0.797  1.00  0.00     0.033 C 
HETATM    5  C7  UNL     1      -1.381   1.032  -1.495  1.00  0.00     0.002 C 
HETATM    6  C8  UNL     1      -2.608   1.120  -0.698  1.00  0.00     0.000 C 
HETATM    7  C9  UNL     1      -2.482   1.229   0.774  1.00  0.00     0.000 C 
HETATM    8  C10 UNL     1      -2.383  -0.175   1.376  1.00  0.00     0.002 C 
HETATM    9  C11 UNL     1      -0.909  -0.478   1.560  1.00  0.00     0.034 C 
HETATM   10  C12 UNL     1      -0.389  -1.250   0.364  1.00  0.00     0.146 C 
ENDROOT
BRANCH   1  11
HETATM   11  C2  UNL     1       1.857  -0.317  -0.131  1.00  0.00     0.003 C 
HETATM   12  N1  UNL     1       2.378   0.831   0.077  1.00  0.00    -0.399 N 
HETATM   13  C1  UNL     1       3.730   1.019   0.494  1.00  0.00     0.145 C 
ATOM     14  H1  UNL     1       1.797   1.657  -0.062  1.00  0.00     0.158 HD
HETATM   15  C3  UNL     1       2.738  -1.496   0.083  1.00  0.00     0.065 C 
ENDBRANCH   1  11
BRANCH  10  16
HETATM   16  O1  UNL     1      -1.420  -1.934  -0.226  1.00  0.00    -0.393 OA
ATOM     17  H1  UNL     1      -1.948  -2.458   0.365  1.00  0.00     0.210 HD
ENDBRANCH  10  16
TORSDOF 2
