REMARK  14 active torsions:
REMARK  status: ('A' for Active; 'I' for Inactive)
REMARK    1  A    between atoms: C2_2  and  C3_3 
REMARK    2  A    between atoms: C3_3  and  N1_4 
REMARK       I    between atoms: N1_4  and  C4_5 
REMARK    3  A    between atoms: N1_4  and  C16_20 
REMARK    4  A    between atoms: C4_5  and  C5_7 
REMARK       I    between atoms: N2_11  and  C9_12 
REMARK    5  A    between atoms: C9_12  and  C10_14 
REMARK    6  A    between atoms: C16_20  and  C17_21 
REMARK    7  A    between atoms: C16_20  and  C19_23 
REMARK       I    between atoms: C19_23  and  N3_25 
REMARK    8  A    between atoms: N3_25  and  C20_27 
REMARK    9  A    between atoms: C20_27  and  C21_28 
REMARK   10  A    between atoms: C20_27  and  C25_36 
REMARK   11  A    between atoms: C21_28  and  C22_29 
REMARK   12  A    between atoms: C22_29  and  C23_30 
REMARK   13  A    between atoms: C23_30  and  N4_31 
REMARK   14  A    between atoms: C25_36  and  N7_37 
ROOT
HETATM    1  C16 UNL     1       0.079   0.666   0.944  1.00  0.00     0.178 C 
ENDROOT
BRANCH   1   2
HETATM    2  N1  UNL     1       1.118   0.406  -0.117  1.00  0.00    -0.337 N 
HETATM    3  C4  UNL     1       1.965  -0.686   0.150  1.00  0.00     0.243 C 
HETATM    4  O1  UNL     1       1.744  -1.352   1.229  1.00  0.00    -0.271 OA
BRANCH   2   5
HETATM    5  C3  UNL     1       1.175   1.283  -1.231  1.00  0.00     0.126 C 
BRANCH   5   6
HETATM    6  C2  UNL     1       0.367   1.053  -2.434  1.00  0.00     0.015 C 
HETATM    7  C1  UNL     1       0.574  -0.175  -3.222  1.00  0.00     0.006 C 
ENDBRANCH   5   6
ENDBRANCH   2   5
BRANCH   3   8
HETATM    8  C5  UNL     1       3.101  -1.184  -0.642  1.00  0.00     0.179 C 
HETATM    9  C6  UNL     1       2.702  -2.492  -1.265  1.00  0.00     0.037 C 
HETATM   10  C7  UNL     1       3.032  -3.513  -0.230  1.00  0.00     0.022 C 
HETATM   11  C8  UNL     1       4.361  -2.967   0.281  1.00  0.00     0.127 C 
HETATM   12  N2  UNL     1       4.211  -1.552   0.269  1.00  0.00    -0.338 N 
HETATM   13  C9  UNL     1       4.996  -0.635   1.021  1.00  0.00     0.224 C 
HETATM   14  O2  UNL     1       4.711   0.612   0.890  1.00  0.00    -0.273 OA
BRANCH  13  15
HETATM   15  C10 UNL     1       6.083  -1.047   1.911  1.00  0.00     0.078 C 
HETATM   16  C11 UNL     1       6.641   0.126   2.700  1.00  0.00     0.014 C 
HETATM   17  C12 UNL     1       7.426   1.068   1.826  1.00  0.00     0.001 C 
HETATM   18  C13 UNL     1       8.304   0.416   0.817  1.00  0.00     0.000 C 
HETATM   19  C14 UNL     1       7.617  -0.736   0.072  1.00  0.00     0.001 C 
HETATM   20  C15 UNL     1       7.211  -1.713   1.153  1.00  0.00     0.014 C 
ENDBRANCH  13  15
ENDBRANCH   3   8
ENDBRANCH   1   2
BRANCH   1  21
HETATM   21  C17 UNL     1       0.266   1.992   1.546  1.00  0.00     0.030 C 
HETATM   22  C18 UNL     1      -0.670   2.352   2.671  1.00  0.00     0.007 C 
ENDBRANCH   1  21
BRANCH   1  23
HETATM   23  C19 UNL     1      -1.235   0.348   0.395  1.00  0.00     0.241 C 
HETATM   24  O3  UNL     1      -1.302  -0.778  -0.237  1.00  0.00    -0.271 OA
HETATM   25  N3  UNL     1      -2.407   1.079   0.453  1.00  0.00    -0.353 N 
ATOM     26  H3  UNL     1      -2.413   1.979   0.933  1.00  0.00     0.163 HD
BRANCH  25  27
HETATM   27  C20 UNL     1      -3.641   0.583  -0.163  1.00  0.00     0.102 C 
BRANCH  27  28
HETATM   28  C21 UNL     1      -4.730   0.434   0.869  1.00  0.00     0.028 C 
BRANCH  28  29
HETATM   29  C22 UNL     1      -6.020  -0.068   0.289  1.00  0.00     0.022 C 
BRANCH  29  30
HETATM   30  C23 UNL     1      -5.830  -1.407  -0.341  1.00  0.00     0.122 C 
BRANCH  30  31
HETATM   31  N4  UNL     1      -7.111  -1.839  -0.877  1.00  0.00    -0.367 N 
HETATM   32  C24 UNL     1      -7.922  -2.507  -0.104  1.00  0.00     0.196 C 
HETATM   33  N5  UNL     1      -9.179  -2.931  -0.629  1.00  0.00    -0.067 NA
HETATM   34  N6  UNL     1      -7.600  -2.827   1.235  1.00  0.00    -0.067 NA
ATOM     35  H4  UNL     1      -7.371  -1.624  -1.840  1.00  0.00     0.161 HD
ENDBRANCH  30  31
ENDBRANCH  29  30
ENDBRANCH  28  29
ENDBRANCH  27  28
BRANCH  27  36
HETATM   36  C25 UNL     1      -4.087   1.503  -1.277  1.00  0.00     0.147 C 
BRANCH  36  37
HETATM   37  N7  UNL     1      -4.344   2.840  -0.805  1.00  0.00    -0.365 N 
HETATM   38  C26 UNL     1      -5.134   3.659  -1.409  1.00  0.00     0.197 C 
HETATM   39  N8  UNL     1      -5.336   4.962  -0.880  1.00  0.00    -0.067 NA
HETATM   40  N9  UNL     1      -5.820   3.310  -2.594  1.00  0.00    -0.067 NA
ATOM     41  H7  UNL     1      -3.879   3.153   0.047  1.00  0.00     0.161 HD
ENDBRANCH  36  37
ENDBRANCH  27  36
ENDBRANCH  25  27
ENDBRANCH   1  23
TORSDOF 14
