REMARK  19 active torsions:
REMARK  status: ('A' for Active; 'I' for Inactive)
REMARK    1  A    between atoms: C2_2  and  C4_4 
REMARK    2  A    between atoms: C4_4  and  C5_5 
REMARK    3  A    between atoms: C4_4  and  N1_7 
REMARK       I    between atoms: N1_7  and  C6_9 
REMARK       I    between atoms: C6_9  and  N3_14 
REMARK    4  A    between atoms: N2_10  and  O2_12 
REMARK    5  A    between atoms: C10_18  and  C11_19 
REMARK       I    between atoms: C11_19  and  N4_21 
REMARK    6  A    between atoms: N4_21  and  C12_23 
REMARK    7  A    between atoms: C12_23  and  C13_24 
REMARK    8  A    between atoms: C13_24  and  C14_25 
REMARK    9  A    between atoms: C14_25  and  C15_26 
REMARK   10  A    between atoms: C15_26  and  C16_27 
REMARK   11  A    between atoms: C16_27  and  C17_28 
REMARK   12  A    between atoms: C16_27  and  N7_34 
REMARK   13  A    between atoms: C17_28  and  N5_29 
REMARK   14  A    between atoms: C18_36  and  C19_37 
REMARK   15  A    between atoms: C19_37  and  N8_38 
REMARK   16  A    between atoms: N8_38  and  C20_39 
REMARK   17  A    between atoms: N8_38  and  C22_41 
REMARK   18  A    between atoms: C22_41  and  O4_42 
REMARK   19  A    between atoms: C22_41  and  N9_44 
ROOT
HETATM    1  C13 UNL     1      -0.562  -2.379   2.429  1.00  0.00     0.020 C 
ENDROOT
BRANCH   1   2
HETATM    2  C12 UNL     1      -1.638  -1.438   2.002  1.00  0.00     0.122 C 
BRANCH   2   3
HETATM    3  N4  UNL     1      -2.695  -2.142   1.335  1.00  0.00    -0.359 N 
HETATM    4  C11 UNL     1      -3.849  -1.435   0.839  1.00  0.00     0.241 C 
HETATM    5  O3  UNL     1      -3.884  -0.206   1.013  1.00  0.00    -0.271 OA
ATOM      6  H4  UNL     1      -2.629  -3.152   1.211  1.00  0.00     0.162 HD
BRANCH   4   7
HETATM    7  C10 UNL     1      -4.939  -2.167   0.151  1.00  0.00     0.194 C 
HETATM    8  N3  UNL     1      -6.090  -1.421  -0.175  1.00  0.00    -0.203 N 
HETATM    9  C6  UNL     1      -6.706  -0.253   0.367  1.00  0.00     0.697 C 
HETATM   10  C7  UNL     1      -6.737  -2.093  -1.328  1.00  0.00     0.142 C 
HETATM   11  N1  UNL     1      -7.045   0.800  -0.520  1.00  0.00    -0.210 N 
HETATM   12  N2  UNL     1      -6.963  -0.185   1.599  1.00  0.00    -0.099 N 
ATOM     13  H1  UNL     1      -7.939   0.703  -1.001  1.00  0.00     0.179 HD
ATOM     14  H2  UNL     1      -7.425   0.672   1.903  1.00  0.00     0.213 HD
HETATM   15  C8  UNL     1      -5.772  -3.166  -1.778  1.00  0.00     0.023 C 
HETATM   16  C9  UNL     1      -4.442  -2.682  -1.208  1.00  0.00     0.037 C 
BRANCH  11  17
HETATM   17  C4  UNL     1      -6.310   1.962  -0.825  1.00  0.00     0.189 C 
BRANCH  17  18
HETATM   18  C2  UNL     1      -6.986   2.820  -1.826  1.00  0.00    -0.064 C 
HETATM   19  C1  UNL     1      -8.288   2.806  -1.986  1.00  0.00     0.016 C 
HETATM   20  C3  UNL     1      -6.142   3.763  -2.663  1.00  0.00     0.045 C 
ENDBRANCH  17  18
BRANCH  17  21
HETATM   21  C5  UNL     1      -5.774   2.762   0.296  1.00  0.00     0.261 C 
HETATM   22  O1  UNL     1      -5.907   2.535   1.475  1.00  0.00    -0.304 OA
ENDBRANCH  17  21
ENDBRANCH  11  17
BRANCH  12  23
HETATM   23  O2  UNL     1      -6.714  -1.086   2.575  1.00  0.00    -0.276 OA
ATOM     24  H2  UNL     1      -6.908  -1.035   3.504  1.00  0.00     0.245 HD
ENDBRANCH  12  23
ENDBRANCH   4   7
ENDBRANCH   2   3
ENDBRANCH   1   2
BRANCH   1  25
HETATM   25  C14 UNL     1       0.063  -3.101   1.275  1.00  0.00     0.004 C 
BRANCH  25  26
HETATM   26  C15 UNL     1       0.716  -2.196   0.264  1.00  0.00     0.027 C 
BRANCH  26  27
HETATM   27  C16 UNL     1       1.818  -1.363   0.847  1.00  0.00     0.100 C 
BRANCH  27  28
HETATM   28  C17 UNL     1       2.927  -2.203   1.440  1.00  0.00     0.163 C 
BRANCH  28  29
HETATM   29  N5  UNL     1       3.518  -3.052   0.426  1.00  0.00    -0.341 N 
HETATM   30  N6  UNL     1       4.495  -3.718   0.763  1.00  0.00    -0.349 N 
ATOM     31  H62 UNL     1       4.859  -3.664   1.714  1.00  0.00     0.176 HD
ATOM     32  H61 UNL     1       4.911  -4.316   0.049  1.00  0.00     0.176 HD
ATOM     33  H5  UNL     1       3.142  -3.095  -0.521  1.00  0.00     0.179 HD
ENDBRANCH  28  29
ENDBRANCH  27  28
BRANCH  27  34
HETATM   34  N7  UNL     1       2.438  -0.652  -0.264  1.00  0.00    -0.394 N 
HETATM   35  C18 UNL     1       3.281   0.264  -0.052  1.00  0.00     0.075 C 
ATOM     36  H7  UNL     1       2.189  -0.897  -1.222  1.00  0.00     0.159 HD
BRANCH  35  37
HETATM   37  C19 UNL     1       3.898   0.971  -1.191  1.00  0.00     0.170 C 
BRANCH  37  38
HETATM   38  N8  UNL     1       5.143   1.604  -0.673  1.00  0.00    -0.343 N 
BRANCH  38  39
HETATM   39  C20 UNL     1       5.001   2.933  -0.196  1.00  0.00     0.122 C 
HETATM   40  C21 UNL     1       4.720   2.909   1.293  1.00  0.00     0.026 C 
ENDBRANCH  38  39
BRANCH  38  41
HETATM   41  C22 UNL     1       6.331   0.879  -0.716  1.00  0.00     0.217 C 
BRANCH  41  42
HETATM   42  O4  UNL     1       6.224  -0.334  -1.268  1.00  0.00    -0.333 OA
ATOM     43  H4  UNL     1       7.035  -0.829  -1.297  1.00  0.00     0.220 HD
ENDBRANCH  41  42
BRANCH  41  44
HETATM   44  N9  UNL     1       7.620   1.149  -0.299  1.00  0.00    -0.347 N 
HETATM   45  C23 UNL     1       8.751   0.187  -0.479  1.00  0.00     0.126 C 
HETATM   46  C24 UNL     1       9.806   1.114  -1.037  1.00  0.00     0.021 C 
HETATM   47  C25 UNL     1       9.409   2.519  -0.630  1.00  0.00     0.021 C 
HETATM   48  C26 UNL     1       8.246   2.237   0.357  1.00  0.00     0.126 C 
ENDBRANCH  41  44
ENDBRANCH  38  41
ENDBRANCH  37  38
ENDBRANCH  35  37
ENDBRANCH  27  34
ENDBRANCH  26  27
ENDBRANCH  25  26
ENDBRANCH   1  25
TORSDOF 19
