REMARK  16 active torsions:
REMARK  status: ('A' for Active; 'I' for Inactive)
REMARK    1  A    between atoms: C2_2  and  C3_3 
REMARK    2  A    between atoms: C3_3  and  C4_4 
REMARK    3  A    between atoms: C4_4  and  C5_5 
REMARK    4  A    between atoms: C5_5  and  C6_6 
REMARK       I    between atoms: C6_6  and  N1_8 
REMARK       I    between atoms: N2_11  and  C9_12 
REMARK    5  A    between atoms: C9_12  and  C10_14 
REMARK    6  A    between atoms: C10_14  and  C11_15 
REMARK    7  A    between atoms: C11_15  and  C12_16 
REMARK    8  A    between atoms: C11_15  and  N6_24 
REMARK    9  A    between atoms: C12_16  and  C13_17 
REMARK   10  A    between atoms: C13_17  and  C14_18 
REMARK   11  A    between atoms: C14_18  and  N3_19 
REMARK       I    between atoms: N6_24  and  C16_26 
REMARK   12  A    between atoms: C16_26  and  C17_28 
REMARK   13  A    between atoms: C23_38  and  C24_39 
REMARK   14  A    between atoms: C24_39  and  C25_40 
REMARK   15  A    between atoms: C25_40  and  C26_41 
REMARK   16  A    between atoms: C26_41  and  N9_42 
ROOT
HETATM    1  C6  UNL     1       4.471   0.619  -0.289  1.00  0.00     0.220 C 
HETATM    2  O1  UNL     1       5.180   1.609   0.029  1.00  0.00    -0.273 OA
HETATM    3  N1  UNL     1       3.053   0.758  -0.430  1.00  0.00    -0.344 N 
HETATM    4  C7  UNL     1       2.492   2.079  -0.186  1.00  0.00     0.146 C 
HETATM    5  C8  UNL     1       1.347   2.011   0.802  1.00  0.00     0.146 C 
HETATM    6  N2  UNL     1       0.538   0.842   0.626  1.00  0.00    -0.344 N 
HETATM    7  C9  UNL     1      -0.896   0.911   0.615  1.00  0.00     0.222 C 
HETATM    8  O2  UNL     1      -1.376   2.062   0.766  1.00  0.00    -0.273 OA
HETATM    9  C21 UNL     1       1.153  -0.440   0.452  1.00  0.00     0.106 C 
HETATM   10  C22 UNL     1       1.838  -0.967   1.669  1.00  0.00     0.034 C 
HETATM   11  C23 UNL     1       2.162  -0.288  -0.737  1.00  0.00     0.109 C 
ENDROOT
BRANCH   7  12
HETATM   12  C10 UNL     1      -1.729  -0.293   0.439  1.00  0.00     0.128 C 
BRANCH  12  13
HETATM   13  C11 UNL     1      -3.172   0.054   0.423  1.00  0.00     0.093 C 
BRANCH  13  14
HETATM   14  C12 UNL     1      -4.062  -1.175   0.243  1.00  0.00     0.027 C 
BRANCH  14  15
HETATM   15  C13 UNL     1      -3.827  -2.119   1.372  1.00  0.00     0.022 C 
BRANCH  15  16
HETATM   16  C14 UNL     1      -4.719  -3.363   1.235  1.00  0.00     0.122 C 
BRANCH  16  17
HETATM   17  N3  UNL     1      -4.455  -4.233   2.345  1.00  0.00    -0.367 N 
HETATM   18  C15 UNL     1      -4.498  -5.522   2.301  1.00  0.00     0.196 C 
HETATM   19  N4  UNL     1      -4.206  -6.213   3.506  1.00  0.00    -0.067 NA
HETATM   20  N5  UNL     1      -4.819  -6.228   1.122  1.00  0.00    -0.067 NA
ATOM     21  H3  UNL     1      -4.215  -3.800   3.237  1.00  0.00     0.161 HD
ENDBRANCH  16  17
ENDBRANCH  15  16
ENDBRANCH  14  15
ENDBRANCH  13  14
BRANCH  13  22
HETATM   22  N6  UNL     1      -3.455   1.003  -0.644  1.00  0.00    -0.354 N 
HETATM   23  C16 UNL     1      -4.251   2.134  -0.378  1.00  0.00     0.242 C 
HETATM   24  O3  UNL     1      -4.711   2.319   0.768  1.00  0.00    -0.271 OA
ATOM     25  H6  UNL     1      -3.079   0.850  -1.580  1.00  0.00     0.162 HD
BRANCH  23  26
HETATM   26  C17 UNL     1      -4.519   3.081  -1.480  1.00  0.00     0.198 C 
HETATM   27  C18 UNL     1      -3.228   3.774  -1.857  1.00  0.00     0.159 C 
HETATM   28  N7  UNL     1      -3.084   4.748  -0.795  1.00  0.00    -0.341 N 
HETATM   29  C19 UNL     1      -4.402   5.085  -0.382  1.00  0.00     0.318 C 
ATOM     30  H7  UNL     1      -2.211   5.118  -0.419  1.00  0.00     0.164 HD
HETATM   31  O4  UNL     1      -4.701   6.041   0.397  1.00  0.00    -0.247 OA
HETATM   32  N8  UNL     1      -5.326   4.178  -0.987  1.00  0.00    -0.323 N 
HETATM   33  C20 UNL     1      -6.762   4.360  -1.066  1.00  0.00     0.155 C 
ENDBRANCH  23  26
ENDBRANCH  13  22
ENDBRANCH  12  13
ENDBRANCH   7  12
BRANCH  11  34
HETATM   34  C24 UNL     1       1.322  -0.288  -1.932  1.00  0.00     0.029 C 
BRANCH  34  35
HETATM   35  C25 UNL     1       1.857  -0.266  -3.292  1.00  0.00     0.029 C 
BRANCH  35  36
HETATM   36  C26 UNL     1       2.656   0.913  -3.726  1.00  0.00     0.230 C 
BRANCH  36  37
HETATM   37  N9  UNL     1       3.090   0.760  -5.114  1.00  0.00    -0.079 N 
ATOM     38  H93 UNL     1       3.596  -0.114  -5.258  1.00  0.00     0.274 HD
ATOM     39  H92 UNL     1       2.303   0.586  -5.739  1.00  0.00     0.274 HD
ATOM     40  H91 UNL     1       3.637   1.568  -5.411  1.00  0.00     0.274 HD
ENDBRANCH  36  37
ENDBRANCH  35  36
ENDBRANCH  34  35
ENDBRANCH  11  34
BRANCH   1  41
HETATM   41  C5  UNL     1       5.169  -0.662  -0.505  1.00  0.00     0.103 C 
BRANCH  41  42
HETATM   42  C4  UNL     1       6.633  -0.640  -0.204  1.00  0.00     0.009 C 
BRANCH  42  43
HETATM   43  C3  UNL     1       7.009  -0.306   1.193  1.00  0.00     0.000 C 
BRANCH  43  44
HETATM   44  C2  UNL     1       6.451  -1.255   2.219  1.00  0.00    -0.005 C 
HETATM   45  C1  UNL     1       6.936  -0.757   3.585  1.00  0.00     0.005 C 
ENDBRANCH  43  44
ENDBRANCH  42  43
ENDBRANCH  41  42
ENDBRANCH   1  41
TORSDOF 16
