REMARK  5 active torsions:
REMARK  status: ('A' for Active; 'I' for Inactive)
REMARK    1  A    between atoms: C4_4  and  C6_6 
REMARK       I    between atoms: N4_23  and  C16_25 
REMARK    2  A    between atoms: C16_25  and  C17_27 
REMARK    3  A    between atoms: C17_27  and  N5_28 
REMARK    4  A    between atoms: C22_33  and  C23_34 
REMARK    5  A    between atoms: C23_34  and  C25_36 
ROOT
HETATM    1  C1  UNL     1       3.292   2.488  -0.074  1.00  0.00     0.028 C 
HETATM    2  C2  UNL     1       2.825   1.285  -0.203  1.00  0.00     0.012 A 
HETATM    3  C3  UNL     1       3.508   0.136  -0.509  1.00  0.00     0.052 A 
HETATM    4  C4  UNL     1       4.775  -0.115  -0.755  1.00  0.00    -0.023 C 
HETATM    5  C5  UNL     1       5.188  -1.546  -1.067  1.00  0.00     0.051 C 
HETATM    6  N2  UNL     1       2.596  -0.892  -0.538  1.00  0.00    -0.340 N 
ATOM      7  H2  UNL     1       2.814  -1.868  -0.741  1.00  0.00     0.167 HD
HETATM    8  C12 UNL     1       1.372  -0.412  -0.258  1.00  0.00     0.130 A 
HETATM    9  C13 UNL     1       1.466   0.938  -0.043  1.00  0.00     0.091 A 
HETATM   10  N3  UNL     1       0.646   1.897   0.252  1.00  0.00    -0.318 N 
ATOM     11  H3  UNL     1       1.072   2.820   0.341  1.00  0.00     0.169 HD
HETATM   12  C14 UNL     1      -0.779   1.856   0.474  1.00  0.00     0.268 C 
HETATM   13  O1  UNL     1      -1.189   2.729   1.291  1.00  0.00    -0.266 OA
HETATM   14  C15 UNL     1      -1.893   1.050  -0.012  1.00  0.00     0.082 C 
HETATM   15  N4  UNL     1      -3.033   1.575   0.207  1.00  0.00    -0.324 N 
ATOM     16  H4  UNL     1      -3.017   2.476   0.686  1.00  0.00     0.169 HD
HETATM   17  C16 UNL     1      -4.299   1.091  -0.116  1.00  0.00     0.248 C 
HETATM   18  O2  UNL     1      -4.651   1.024  -1.316  1.00  0.00    -0.271 OA
HETATM   19  C21 UNL     1      -1.864  -0.268  -0.713  1.00  0.00     0.088 C 
HETATM   20  C22 UNL     1      -1.033  -1.275  -0.011  1.00  0.00     0.093 C 
HETATM   21  N6  UNL     1       0.378  -1.202  -0.229  1.00  0.00    -0.369 N 
ATOM     22  H6  UNL     1       0.714  -2.141  -0.442  1.00  0.00     0.161 HD
ENDROOT
BRANCH   4  23
HETATM   23  C6  UNL     1       5.880   0.824  -0.766  1.00  0.00    -0.012 A 
HETATM   24  C7  UNL     1       6.218   1.436  -1.956  1.00  0.00     0.099 A 
HETATM   25  N1  UNL     1       7.270   2.269  -1.952  1.00  0.00    -0.374 N 
HETATM   26  C8  UNL     1       8.000   2.531  -0.856  1.00  0.00     0.094 A 
ATOM     27  H1  UNL     1       7.528   2.727  -2.826  1.00  0.00     0.164 HD
HETATM   28  C9  UNL     1       7.691   1.937   0.352  1.00  0.00    -0.046 A 
HETATM   29  C10 UNL     1       8.503   2.235   1.547  1.00  0.00     0.049 C 
HETATM   30  C11 UNL     1       6.621   1.079   0.384  1.00  0.00     0.021 A 
ENDBRANCH   4  23
BRANCH  20  31
HETATM   31  C23 UNL     1      -1.460  -2.670  -0.406  1.00  0.00     0.018 C 
HETATM   32  C24 UNL     1      -0.572  -3.707   0.322  1.00  0.00     0.013 C 
BRANCH  31  33
HETATM   33  C25 UNL     1      -2.861  -3.023  -0.029  1.00  0.00     0.121 C 
HETATM   34 CL1  UNL     1      -3.126  -4.716  -0.593  1.00  0.00    -0.130 Cl
ENDBRANCH  31  33
ENDBRANCH  20  31
BRANCH  17  35
HETATM   35  C17 UNL     1      -5.225   0.659   0.941  1.00  0.00     0.338 C 
BRANCH  35  36
HETATM   36  N5  UNL     1      -6.496   0.188   0.493  1.00  0.00    -0.070 N 
HETATM   37  C18 UNL     1      -7.085   1.128  -0.442  1.00  0.00     0.272 C 
HETATM   38  C19 UNL     1      -6.512  -1.148  -0.024  1.00  0.00     0.272 C 
HETATM   39  C20 UNL     1      -7.381   0.201   1.670  1.00  0.00     0.272 C 
ENDBRANCH  35  36
ENDBRANCH  17  35
TORSDOF 5
