REMARK  10 active torsions:
REMARK  status: ('A' for Active; 'I' for Inactive)
REMARK    1  A    between atoms: C2_2  and  S1_3 
REMARK    2  A    between atoms: S1_3  and  C4_5 
REMARK    3  A    between atoms: C5_6  and  C6_7 
REMARK       I    between atoms: C6_7  and  N1_9 
REMARK    4  A    between atoms: N1_9  and  C7_11 
REMARK    5  A    between atoms: N4_22  and  C14_24 
REMARK    6  A    between atoms: C14_24  and  C15_25 
REMARK    7  A    between atoms: C15_25  and  C16_27 
REMARK    8  A    between atoms: C17_28  and  C18_29 
REMARK    9  A    between atoms: C19_30  and  C20_31 
REMARK   10  A    between atoms: C20_31  and  O3_32 
ROOT
HETATM    1  C4  UNL     1      -0.789  -0.348  -0.055  1.00  0.00     0.255 C 
HETATM    2  C5  UNL     1      -1.777  -0.481  -1.141  1.00  0.00     0.119 C 
HETATM    3  C10 UNL     1      -2.525  -1.846  -0.999  1.00  0.00     0.019 C 
HETATM    4  C11 UNL     1      -1.550  -2.895  -1.385  1.00  0.00     0.029 C 
HETATM    5  C12 UNL     1      -0.158  -2.399  -1.188  1.00  0.00     0.239 C 
HETATM    6  N4  UNL     1       0.005  -1.532  -0.018  1.00  0.00    -0.050 N 
HETATM    7  C13 UNL     1      -0.380  -2.402   1.111  1.00  0.00     0.274 C 
ENDROOT
BRANCH   2   8
HETATM    8  C6  UNL     1      -2.740   0.568  -1.404  1.00  0.00     0.242 C 
HETATM    9  O1  UNL     1      -2.549   1.451  -2.274  1.00  0.00    -0.272 OA
HETATM   10  N1  UNL     1      -3.953   0.628  -0.672  1.00  0.00    -0.159 N 
ATOM     11  H1  UNL     1      -3.907   0.540   0.343  1.00  0.00     0.187 HD
BRANCH  10  12
HETATM   12  C7  UNL     1      -5.103   0.786  -1.214  1.00  0.00     0.685 A 
HETATM   13  N2  UNL     1      -6.269   0.849  -0.561  1.00  0.00    -0.199 N 
HETATM   14  C8  UNL     1      -7.288   1.021  -1.434  1.00  0.00     0.144 A 
ATOM     15  H2  UNL     1      -6.375   0.778   0.451  1.00  0.00     0.183 HD
HETATM   16  C9  UNL     1      -6.717   1.067  -2.684  1.00  0.00     0.112 A 
HETATM   17 BR1  UNL     1      -7.676   1.294  -4.306  1.00  0.00    -0.029 Br
HETATM   18  N3  UNL     1      -5.396   0.922  -2.516  1.00  0.00    -0.183 N 
ATOM     19  H3  UNL     1      -4.710   0.916  -3.271  1.00  0.00     0.185 HD
ENDBRANCH  10  12
ENDBRANCH   2   8
BRANCH   1  20
HETATM   20  S1  UNL     1      -1.414   0.206   1.504  1.00  0.00    -0.193 SA
HETATM   21  C3  UNL     1      -1.884   1.945   1.315  1.00  0.00     0.080 C 
BRANCH  20  22
HETATM   22  C2  UNL     1      -0.144   0.279   2.744  1.00  0.00     0.060 C 
HETATM   23  C1  UNL     1      -0.816   0.894   3.982  1.00  0.00     0.015 C 
ENDBRANCH  20  22
ENDBRANCH   1  20
BRANCH   6  24
HETATM   24  C14 UNL     1       1.393  -1.276   0.141  1.00  0.00     0.331 C 
BRANCH  24  25
HETATM   25  C15 UNL     1       2.112  -0.534  -0.884  1.00  0.00     0.229 C 
HETATM   26  O2  UNL     1       1.611  -0.095  -1.917  1.00  0.00    -0.281 OA
BRANCH  25  27
HETATM   27  C16 UNL     1       3.518  -0.295  -0.672  1.00  0.00    -0.013 C 
HETATM   28  C17 UNL     1       4.703  -0.088  -0.510  1.00  0.00    -0.007 C 
BRANCH  28  29
HETATM   29  C18 UNL     1       6.087   0.167  -0.337  1.00  0.00    -0.013 C 
HETATM   30  C19 UNL     1       7.265   0.393  -0.207  1.00  0.00    -0.066 C 
BRANCH  30  31
HETATM   31  C20 UNL     1       8.713   0.679  -0.072  1.00  0.00     0.261 C 
BRANCH  31  32
HETATM   32  O3  UNL     1       8.916   1.929  -0.652  1.00  0.00    -0.384 OA
HETATM   33  C21 UNL     1       8.157   2.891   0.008  1.00  0.00     0.202 C 
ENDBRANCH  31  32
ENDBRANCH  30  31
ENDBRANCH  28  29
ENDBRANCH  25  27
ENDBRANCH  24  25
ENDBRANCH   6  24
TORSDOF 10
