REMARK  6 active torsions:
REMARK  status: ('A' for Active; 'I' for Inactive)
REMARK    1  A    between atoms: C3_3  and  N1_4 
REMARK    2  A    between atoms: N2_7  and  C6_8 
REMARK    3  A    between atoms: C6_8  and  C7_9 
REMARK    4  A    between atoms: C7_9  and  C8_10 
REMARK       I    between atoms: C8_10  and  N3_12 
REMARK    5  A    between atoms: N3_12  and  C9_14 
REMARK    6  A    between atoms: N4_16  and  C11_17 
ROOT
HETATM    1  C1  UNL     1      -9.543  -0.717  -0.983  1.00  0.00     0.013 C 
HETATM    2  C2  UNL     1      -8.677  -1.557  -1.001  1.00  0.00    -0.089 C 
HETATM    3  C3  UNL     1      -7.626  -2.564  -1.025  1.00  0.00     0.330 C 
ENDROOT
BRANCH   3   4
HETATM    4  N1  UNL     1      -6.378  -2.074  -0.513  1.00  0.00    -0.052 N 
HETATM    5  C4  UNL     1      -6.412  -1.851   0.919  1.00  0.00     0.266 C 
HETATM    6  C5  UNL     1      -5.006  -1.542   1.370  1.00  0.00     0.265 C 
HETATM    7  N2  UNL     1      -4.154  -1.162   0.235  1.00  0.00    -0.062 N 
HETATM    8  C21 UNL     1      -4.860  -0.138  -0.496  1.00  0.00     0.265 C 
HETATM    9  C23 UNL     1      -4.012  -2.305  -0.638  1.00  0.00     0.265 C 
HETATM   10  C22 UNL     1      -6.063  -0.830  -1.144  1.00  0.00     0.266 C 
HETATM   11  C24 UNL     1      -5.335  -3.046  -0.763  1.00  0.00     0.266 C 
BRANCH   7  12
HETATM   12  C6  UNL     1      -2.903  -0.725   0.792  1.00  0.00     0.247 C 
BRANCH  12  13
HETATM   13  C7  UNL     1      -1.772  -0.790  -0.210  1.00  0.00     0.130 C 
BRANCH  13  14
HETATM   14  C8  UNL     1      -0.496  -0.335   0.398  1.00  0.00     0.219 C 
HETATM   15  O1  UNL     1      -0.509   0.017   1.601  1.00  0.00    -0.274 OA
HETATM   16  N3  UNL     1       0.716  -0.288  -0.334  1.00  0.00    -0.349 N 
ATOM     17  H3  UNL     1       0.733  -0.572  -1.313  1.00  0.00     0.163 HD
BRANCH  16  18
HETATM   18  C9  UNL     1       1.912   0.158   0.302  1.00  0.00     0.152 C 
HETATM   19  C10 UNL     1       3.112  -0.774   0.139  1.00  0.00     0.160 C 
HETATM   20  N4  UNL     1       3.857   0.525   0.201  1.00  0.00    -0.353 N 
HETATM   21  C19 UNL     1       2.798   1.037  -0.544  1.00  0.00     0.026 C 
HETATM   22  C20 UNL     1       2.675   1.879  -1.531  1.00  0.00     0.040 C 
BRANCH  20  23
HETATM   23  C11 UNL     1       5.088   0.943   0.777  1.00  0.00    -0.004 C 
HETATM   24  C12 UNL     1       6.264   0.267   0.132  1.00  0.00     0.056 C 
HETATM   25  C13 UNL     1       7.153   1.123  -0.678  1.00  0.00     0.039 C 
HETATM   26  C14 UNL     1       7.509   2.453  -0.101  1.00  0.00     0.136 C 
HETATM   27  O2  UNL     1       6.585   3.368  -0.516  1.00  0.00    -0.384 OA
HETATM   28  C18 UNL     1       7.704   2.500   1.370  1.00  0.00     0.087 C 
HETATM   29  C15 UNL     1       5.470   3.442   0.310  1.00  0.00     0.178 C 
HETATM   30  C16 UNL     1       5.258   2.322   1.226  1.00  0.00     0.056 C 
HETATM   31  C17 UNL     1       6.465   2.300   2.202  1.00  0.00     0.031 C 
HETATM   32 BR1  UNL     1       8.451   4.228   1.904  1.00  0.00    -0.088 Br
ENDBRANCH  20  23
ENDBRANCH  16  18
ENDBRANCH  13  14
ENDBRANCH  12  13
ENDBRANCH   7  12
ENDBRANCH   3   4
TORSDOF 6
