REMARK  10 active torsions:
REMARK  status: ('A' for Active; 'I' for Inactive)
REMARK    1  A    between atoms: C2_2  and  C3_3 
REMARK    2  A    between atoms: C2_2  and  C10_13 
REMARK    3  A    between atoms: C3_3  and  C4_4 
REMARK    4  A    between atoms: C4_4  and  C5_5 
REMARK    5  A    between atoms: C10_13  and  C11_14 
REMARK       I    between atoms: N3_16  and  C13_17 
REMARK    6  A    between atoms: C13_17  and  C14_19 
REMARK    7  A    between atoms: C14_19  and  N4_20 
REMARK    8  A    between atoms: N4_20  and  S1_22 
REMARK    9  A    between atoms: S1_22  and  N5_23 
REMARK   10  A    between atoms: C16_28  and  C17_29 
ROOT
HETATM    1  C11 UNL     1      -0.621  -0.506   0.007  1.00  0.00     0.221 C 
HETATM    2  C12 UNL     1      -0.316   0.791   0.725  1.00  0.00     0.076 C 
HETATM    3  N3  UNL     1      -2.087  -0.669  -0.227  1.00  0.00    -0.306 N 
HETATM    4  C13 UNL     1      -3.019   0.337  -0.528  1.00  0.00     0.236 C 
HETATM    5  O1  UNL     1      -4.240  -0.005  -0.674  1.00  0.00    -0.272 OA
HETATM    6  C16 UNL     1      -2.232  -2.083  -0.106  1.00  0.00     0.139 C 
HETATM    7  C20 UNL     1      -1.514  -2.261   1.242  1.00  0.00     0.267 C 
HETATM    8  N6  UNL     1      -0.251  -1.591   0.841  1.00  0.00    -0.043 N 
HETATM    9  C21 UNL     1       0.324  -1.210   2.139  1.00  0.00     0.275 C 
HETATM   10  C22 UNL     1       0.587  -2.601   0.308  1.00  0.00     0.275 C 
ENDROOT
BRANCH   1  11
HETATM   11  C10 UNL     1       0.003  -0.431  -1.320  1.00  0.00     0.050 C 
BRANCH  11  12
HETATM   12  C2  UNL     1       1.227  -0.223  -1.672  1.00  0.00    -0.008 C 
HETATM   13  C1  UNL     1       1.612  -0.194  -3.143  1.00  0.00     0.058 C 
BRANCH  12  14
HETATM   14  C3  UNL     1       2.347  -0.008  -0.807  1.00  0.00    -0.065 C 
BRANCH  14  15
HETATM   15  C4  UNL     1       3.327   0.167  -0.087  1.00  0.00    -0.042 C 
BRANCH  15  16
HETATM   16  C5  UNL     1       4.469   0.396   0.753  1.00  0.00     0.105 A 
HETATM   17  C6  UNL     1       4.592   0.015   2.077  1.00  0.00     0.128 A 
HETATM   18  N1  UNL     1       5.796   0.391   2.553  1.00  0.00    -0.353 N 
HETATM   19  C7  UNL     1       6.437   1.010   1.531  1.00  0.00     0.079 A 
ATOM     20  H1  UNL     1       6.154   0.240   3.496  1.00  0.00     0.166 HD
HETATM   21  C8  UNL     1       7.814   1.590   1.619  1.00  0.00     0.089 C 
HETATM   22  N2  UNL     1       5.628   1.006   0.456  1.00  0.00    -0.333 N 
HETATM   23  C9  UNL     1       5.965   1.575  -0.825  1.00  0.00     0.158 C 
ENDBRANCH  15  16
ENDBRANCH  14  15
ENDBRANCH  12  14
ENDBRANCH  11  12
ENDBRANCH   1  11
BRANCH   4  24
HETATM   24  C14 UNL     1      -2.750   1.765  -0.705  1.00  0.00     0.211 C 
BRANCH  24  25
HETATM   25  N4  UNL     1      -3.978   2.495  -1.074  1.00  0.00    -0.189 NA
HETATM   26  C15 UNL     1      -3.594   3.655  -1.814  1.00  0.00     0.131 C 
BRANCH  25  27
HETATM   27  S1  UNL     1      -4.803   3.032   0.344  1.00  0.00     0.296 S 
HETATM   28  O2  UNL     1      -4.671   2.087   1.479  1.00  0.00    -0.189 OA
HETATM   29  O3  UNL     1      -6.255   3.192  -0.029  1.00  0.00    -0.189 OA
BRANCH  27  30
HETATM   30  N5  UNL     1      -4.225   4.612   0.767  1.00  0.00    -0.316 N 
ATOM     31  H52 UNL     1      -3.512   5.128   0.251  1.00  0.00     0.170 HD
ATOM     32  H51 UNL     1      -4.712   4.929   1.605  1.00  0.00     0.170 HD
ENDBRANCH  27  30
ENDBRANCH  25  27
ENDBRANCH  24  25
ENDBRANCH   4  24
BRANCH   6  33
HETATM   33  C17 UNL     1      -3.442  -2.832  -0.243  1.00  0.00     0.052 C 
HETATM   34  C18 UNL     1      -3.053  -4.330  -0.001  1.00  0.00     0.034 C 
HETATM   35  C19 UNL     1      -3.984  -2.837  -1.654  1.00  0.00     0.034 C 
HETATM   36 CL1  UNL     1      -4.773  -2.560   0.866  1.00  0.00    -0.118 Cl
ENDBRANCH   6  33
TORSDOF 10
