REMARK  8 active torsions:
REMARK  status: ('A' for Active; 'I' for Inactive)
REMARK    1  A    between atoms: C1_2  and  C2_4 
REMARK    2  A    between atoms: C5_7  and  C6_8 
REMARK    3  A    between atoms: C10_12  and  N1_13 
REMARK    4  A    between atoms: N1_13  and  C11_16 
REMARK    5  A    between atoms: C11_16  and  C12_17 
REMARK    6  A    between atoms: C12_17  and  O3_18 
REMARK    7  A    between atoms: C12_17  and  C13_20 
REMARK    8  A    between atoms: C13_20  and  C14_23 
ROOT
HETATM    1  C6  UNL     1       2.239   0.310  -0.387  1.00  0.00     0.020 C 
HETATM    2  C7  UNL     1       1.985   0.092  -1.820  1.00  0.00     0.009 C 
HETATM    3  C8  UNL     1       1.705  -1.307  -2.246  1.00  0.00     0.003 C 
HETATM    4  C9  UNL     1       0.945  -2.135  -1.272  1.00  0.00     0.033 C 
HETATM    5  C10 UNL     1       0.613  -1.485   0.024  1.00  0.00     0.186 C 
HETATM    6  C19 UNL     1       1.816  -0.775   0.554  1.00  0.00     0.042 C 
ENDROOT
BRANCH   5   7
HETATM    7  N1  UNL     1      -0.591  -0.681  -0.015  1.00  0.00    -0.068 N 
ATOM      8  H12 UNL     1      -0.389   0.280  -0.292  1.00  0.00     0.277 HD
ATOM      9  H11 UNL     1      -1.192  -0.947  -0.795  1.00  0.00     0.277 HD
BRANCH   7  10
HETATM   10  C11 UNL     1      -1.301  -0.730   1.238  1.00  0.00     0.270 C 
BRANCH  10  11
HETATM   11  C12 UNL     1      -2.614   0.019   1.180  1.00  0.00     0.216 C 
BRANCH  11  12
HETATM   12  O3  UNL     1      -2.316   1.333   0.867  1.00  0.00    -0.388 OA
ATOM     13  H3  UNL     1      -3.141   1.803   0.831  1.00  0.00     0.210 HD
ENDBRANCH  11  12
BRANCH  11  14
HETATM   14  C13 UNL     1      -3.538  -0.646   0.174  1.00  0.00     0.274 C 
HETATM   15  F1  UNL     1      -3.688  -1.974   0.643  1.00  0.00    -0.203 F 
HETATM   16  F2  UNL     1      -3.020  -0.729  -1.078  1.00  0.00    -0.203 F 
BRANCH  14  17
HETATM   17  C14 UNL     1      -4.902  -0.057   0.255  1.00  0.00     0.061 C 
HETATM   18  C15 UNL     1      -5.823  -0.736  -0.762  1.00  0.00     0.011 C 
HETATM   19  C16 UNL     1      -7.094   0.086  -0.515  1.00  0.00     0.001 C 
HETATM   20  C17 UNL     1      -6.592   1.490  -0.143  1.00  0.00     0.001 C 
HETATM   21  C18 UNL     1      -5.051   1.369  -0.138  1.00  0.00     0.011 C 
ENDBRANCH  14  17
ENDBRANCH  11  14
ENDBRANCH  10  11
ENDBRANCH   7  10
ENDBRANCH   5   7
BRANCH   1  22
HETATM   22  C5  UNL     1       3.687   0.575  -0.052  1.00  0.00    -0.054 A 
HETATM   23  C4  UNL     1       4.058   1.619   0.773  1.00  0.00     0.008 A 
HETATM   24  C3  UNL     1       5.374   1.846   1.090  1.00  0.00     0.019 A 
HETATM   25  C2  UNL     1       6.380   1.047   0.603  1.00  0.00     0.040 A 
HETATM   26  C21 UNL     1       6.018   0.003  -0.222  1.00  0.00     0.019 A 
HETATM   27  C20 UNL     1       4.681  -0.235  -0.550  1.00  0.00     0.008 A 
BRANCH  25  28
HETATM   28  C1  UNL     1       7.794   1.273   0.948  1.00  0.00     0.209 C 
HETATM   29  O1  UNL     1       8.111   2.221   1.706  1.00  0.00    -0.644 OA
HETATM   30  O2  UNL     1       8.797   0.459   0.456  1.00  0.00    -0.644 OA
ENDBRANCH  25  28
ENDBRANCH   1  22
TORSDOF 8
