REMARK  10 active torsions:
REMARK  status: ('A' for Active; 'I' for Inactive)
REMARK    1  A    between atoms: C3_3  and  O1_4 
REMARK    2  A    between atoms: C7_9  and  C8_10 
REMARK    3  A    between atoms: C9_11  and  C10_12 
REMARK    4  A    between atoms: C10_12  and  C12_14 
REMARK    5  A    between atoms: C12_14  and  O2_15 
REMARK    6  A    between atoms: C12_14  and  C13_17 
REMARK    7  A    between atoms: C13_17  and  O3_18 
REMARK    8  A    between atoms: C13_17  and  C14_20 
REMARK    9  A    between atoms: C14_20  and  C15_21 
REMARK   10  A    between atoms: C15_21  and  C17_23 
ROOT
HETATM    1  C12 UNL     1      -0.260  -0.527   0.563  1.00  0.00     0.154 C 
ENDROOT
BRANCH   1   2
HETATM    2  C10 UNL     1      -1.652  -0.956  -0.022  1.00  0.00     0.035 C 
HETATM    3  C11 UNL     1      -1.972   0.200  -0.951  1.00  0.00     0.017 C 
BRANCH   2   4
HETATM    4  C9  UNL     1      -2.579  -1.090   1.104  1.00  0.00    -0.019 C 
HETATM    5  C8  UNL     1      -3.717  -0.747   1.495  1.00  0.00     0.008 C 
BRANCH   5   6
HETATM    6  C7  UNL     1      -4.869   0.002   1.062  1.00  0.00    -0.028 A 
HETATM    7  C2  UNL     1      -5.489  -0.038  -0.138  1.00  0.00    -0.019 A 
HETATM    8  C1  UNL     1      -5.211  -1.136  -1.117  1.00  0.00     0.052 C 
HETATM    9  C3  UNL     1      -6.504   0.851  -0.469  1.00  0.00     0.072 A 
HETATM   10  C4  UNL     1      -6.922   1.809   0.422  1.00  0.00     0.037 A 
HETATM   11  C5  UNL     1      -6.321   1.881   1.656  1.00  0.00     0.004 A 
HETATM   12  C6  UNL     1      -5.326   1.000   1.956  1.00  0.00     0.012 A 
BRANCH   9  13
HETATM   13  O1  UNL     1      -7.102   0.751  -1.743  1.00  0.00    -0.360 OA
ATOM     14  H1  UNL     1      -7.796   1.359  -1.969  1.00  0.00     0.217 HD
ENDBRANCH   9  13
ENDBRANCH   5   6
ENDBRANCH   2   4
ENDBRANCH   1   2
BRANCH   1  15
HETATM   15  O2  UNL     1       0.112  -1.530   1.478  1.00  0.00    -0.392 OA
ATOM     16  H2  UNL     1       0.954  -1.270   1.832  1.00  0.00     0.210 HD
ENDBRANCH   1  15
BRANCH   1  17
HETATM   17  C13 UNL     1       0.801  -0.547  -0.508  1.00  0.00     0.147 C 
BRANCH  17  18
HETATM   18  O3  UNL     1       0.791  -1.812  -1.134  1.00  0.00    -0.393 OA
ATOM     19  H3  UNL     1       1.460  -1.825  -1.809  1.00  0.00     0.210 HD
ENDBRANCH  17  18
BRANCH  17  20
HETATM   20  C14 UNL     1       2.128  -0.337   0.226  1.00  0.00     0.039 C 
BRANCH  20  21
HETATM   21  C15 UNL     1       3.316  -0.307  -0.685  1.00  0.00    -0.012 C 
HETATM   22  C16 UNL     1       3.461  -1.605  -1.434  1.00  0.00     0.010 C 
BRANCH  21  23
HETATM   23  C17 UNL     1       4.538  -0.044   0.149  1.00  0.00    -0.000 C 
HETATM   24  C18 UNL     1       4.488   1.275   0.903  1.00  0.00     0.016 C 
HETATM   25  C19 UNL     1       5.880   1.769   0.608  1.00  0.00     0.059 C 
HETATM   26  C20 UNL     1       6.745   0.500   0.559  1.00  0.00     0.021 C 
HETATM   27  C22 UNL     1       5.911   1.642  -0.922  1.00  0.00     0.251 C 
HETATM   28  C21 UNL     1       5.798   0.161  -0.613  1.00  0.00     0.063 C 
HETATM   29  F1  UNL     1       7.178   1.982  -1.352  1.00  0.00    -0.206 F 
HETATM   30  F2  UNL     1       4.880   2.231  -1.568  1.00  0.00    -0.206 F 
ENDBRANCH  21  23
ENDBRANCH  20  21
ENDBRANCH  17  20
ENDBRANCH   1  17
TORSDOF 10
