REMARK  7 active torsions:
REMARK  status: ('A' for Active; 'I' for Inactive)
REMARK    1  A    between atoms: C2_2  and  C4_4 
REMARK    2  A    between atoms: C8_9  and  O1_10 
REMARK    3  A    between atoms: O1_10  and  C9_11 
REMARK    4  A    between atoms: C9_11  and  C10_12 
REMARK    5  A    between atoms: C10_12  and  N2_13 
REMARK    6  A    between atoms: C10_12  and  C14_21 
REMARK       I    between atoms: N2_13  and  C11_15 
REMARK    7  A    between atoms: C11_15  and  C12_17 
ROOT
HETATM    1  C10 UNL     1      -1.444  -0.369   0.842  1.00  0.00     0.113 C 
ENDROOT
BRANCH   1   2
HETATM    2  C9  UNL     1      -0.034  -0.108   0.358  1.00  0.00     0.201 C 
BRANCH   2   3
HETATM    3  O1  UNL     1       0.696  -1.304   0.483  1.00  0.00    -0.347 OA
BRANCH   3   4
HETATM    4  C8  UNL     1       2.033  -1.409   0.123  1.00  0.00     0.093 A 
HETATM    5  C7  UNL     1       2.678  -2.610   0.275  1.00  0.00     0.079 A 
HETATM    6  C6  UNL     1       4.004  -2.735  -0.076  1.00  0.00     0.030 A 
HETATM    7  N1  UNL     1       2.022  -3.769   0.794  1.00  0.00    -0.100 NA
HETATM    8  C5  UNL     1       4.707  -1.643  -0.590  1.00  0.00     0.014 A 
HETATM    9  C4  UNL     1       4.071  -0.432  -0.747  1.00  0.00    -0.028 A 
HETATM   10  C21 UNL     1       2.737  -0.346  -0.383  1.00  0.00     0.050 A 
BRANCH   9  11
HETATM   11  C2  UNL     1       4.763   0.732  -1.278  1.00  0.00    -0.061 C 
HETATM   12  C1  UNL     1       6.023   0.741  -1.650  1.00  0.00     0.019 C 
HETATM   13  C3  UNL     1       3.998   2.023  -1.418  1.00  0.00     0.048 C 
ENDBRANCH   9  11
ENDBRANCH   3   4
ENDBRANCH   2   3
ENDBRANCH   1   2
BRANCH   1  14
HETATM   14  N2  UNL     1      -2.040  -1.405   0.038  1.00  0.00    -0.349 N 
HETATM   15  C11 UNL     1      -2.475  -2.654   0.548  1.00  0.00     0.290 C 
HETATM   16  O2  UNL     1      -2.312  -2.835   1.801  1.00  0.00    -0.267 OA
ATOM     17  H2  UNL     1      -2.156  -1.229  -0.960  1.00  0.00     0.163 HD
BRANCH  15  18
HETATM   18  C12 UNL     1      -3.079  -3.692  -0.292  1.00  0.00     0.318 C 
HETATM   19  C13 UNL     1      -2.115  -4.122  -1.376  1.00  0.00     0.101 C 
HETATM   20  F1  UNL     1      -4.234  -3.177  -0.846  1.00  0.00    -0.196 F 
HETATM   21  F2  UNL     1      -3.351  -4.800   0.486  1.00  0.00    -0.196 F 
ENDBRANCH  15  18
ENDBRANCH   1  14
BRANCH   1  22
HETATM   22  C14 UNL     1      -2.261   0.892   0.898  1.00  0.00     0.010 C 
HETATM   23  C15 UNL     1      -2.365   1.525  -0.441  1.00  0.00     0.007 C 
HETATM   24  C16 UNL     1      -3.447   2.574  -0.519  1.00  0.00     0.000 C 
HETATM   25  C17 UNL     1      -3.518   3.460   0.674  1.00  0.00     0.000 C 
HETATM   26  C18 UNL     1      -2.196   4.072   1.056  1.00  0.00     0.000 C 
HETATM   27  C19 UNL     1      -1.175   3.083   1.482  1.00  0.00     0.000 C 
HETATM   28  C20 UNL     1      -1.726   1.785   1.970  1.00  0.00     0.007 C 
ENDBRANCH   1  22
TORSDOF 7
