REMARK  9 active torsions:
REMARK  status: ('A' for Active; 'I' for Inactive)
REMARK    1  A    between atoms: N1_1  and  C1_4 
REMARK    2  A    between atoms: C2_7  and  N3_8 
REMARK    3  A    between atoms: N4_11  and  C3_12 
REMARK    4  A    between atoms: C5_14  and  O1_15 
REMARK    5  A    between atoms: C5_14  and  C6_17 
REMARK    6  A    between atoms: C7_20  and  C8_21 
REMARK    7  A    between atoms: C8_21  and  O5_23 
REMARK    8  A    between atoms: O5_23  and  N5_24 
REMARK    9  A    between atoms: N7_31  and  O7_32 
ROOT
HETATM    1  C3  UNL     1      -2.069   0.129  -0.775  1.00  0.00     0.203 C 
HETATM    2  C4  UNL     1      -1.849   1.475  -0.165  1.00  0.00     0.086 C 
HETATM    3  C5  UNL     1      -0.373   1.778  -0.547  1.00  0.00     0.167 C 
HETATM    4  C7  UNL     1       0.225   0.446  -0.884  1.00  0.00     0.204 C 
HETATM    5  C12 UNL     1      -0.771  -0.533  -0.353  1.00  0.00     0.169 C 
HETATM    6  O6  UNL     1      -0.561  -1.537   0.230  1.00  0.00    -0.295 OA
ENDROOT
BRANCH   1   7
HETATM    7  N4  UNL     1      -3.219  -0.613  -0.392  1.00  0.00    -0.070 N 
HETATM    8  C2  UNL     1      -4.278  -0.193   0.301  1.00  0.00     0.710 A 
HETATM    9  N2  UNL     1      -5.102  -1.309   0.399  1.00  0.00    -0.018 N 
HETATM   10  C1  UNL     1      -4.505  -2.316  -0.230  1.00  0.00     0.733 A 
ATOM     11  H2  UNL     1      -6.006  -1.348   0.871  1.00  0.00     0.203 HD
HETATM   12  N7  UNL     1      -3.340  -1.920  -0.731  1.00  0.00     0.034 N 
BRANCH   8  13
HETATM   13  N3  UNL     1      -4.620   0.929   0.815  1.00  0.00    -0.233 N 
ATOM     14  H32 UNL     1      -5.430   1.250   1.345  1.00  0.00     0.174 HD
ATOM     15  H31 UNL     1      -4.016   1.748   0.743  1.00  0.00     0.174 HD
ENDBRANCH   8  13
BRANCH  10  16
HETATM   16  N1  UNL     1      -5.040  -3.503  -0.310  1.00  0.00    -0.231 N 
ATOM     17  H12 UNL     1      -5.934  -3.807   0.075  1.00  0.00     0.174 HD
ATOM     18  H11 UNL     1      -4.582  -4.276  -0.793  1.00  0.00     0.174 HD
ENDBRANCH  10  16
BRANCH  12  19
HETATM   19  O7  UNL     1      -2.481  -2.709  -1.450  1.00  0.00    -0.254 OA
ATOM     20  H7  UNL     1      -1.648  -2.426  -1.808  1.00  0.00     0.247 HD
ENDBRANCH  12  19
ENDBRANCH   1   7
BRANCH   3  21
HETATM   21  O1  UNL     1      -0.331   2.642  -1.621  1.00  0.00    -0.377 OA
ATOM     22  H1  UNL     1       0.571   2.827  -1.854  1.00  0.00     0.211 HD
ENDBRANCH   3  21
BRANCH   3  23
HETATM   23  C6  UNL     1       0.243   2.453   0.619  1.00  0.00     0.210 C 
HETATM   24  O2  UNL     1       0.231   1.873   1.745  1.00  0.00    -0.646 OA
HETATM   25  O3  UNL     1       0.846   3.701   0.572  1.00  0.00    -0.646 OA
ENDBRANCH   3  23
BRANCH   4  26
HETATM   26  C8  UNL     1       1.601   0.221  -0.494  1.00  0.00     0.292 C 
HETATM   27  O4  UNL     1       2.302   1.128  -0.024  1.00  0.00    -0.263 OA
BRANCH  26  28
HETATM   28  O5  UNL     1       2.236  -1.028  -0.622  1.00  0.00    -0.207 OA
BRANCH  28  29
HETATM   29  N5  UNL     1       3.546  -1.196  -0.240  1.00  0.00    -0.100 NA
HETATM   30  C9  UNL     1       3.744  -0.972   1.153  1.00  0.00     0.143 C 
HETATM   31  C10 UNL     1       4.945  -0.077   1.319  1.00  0.00     0.035 C 
HETATM   32  C11 UNL     1       5.494  -0.008  -0.080  1.00  0.00     0.132 C 
HETATM   33  N6  UNL     1       4.435  -0.436  -0.960  1.00  0.00    -0.139 NA
ENDBRANCH  28  29
ENDBRANCH  26  28
ENDBRANCH   4  26
TORSDOF 9
