REMARK  6 active torsions:
REMARK  status: ('A' for Active; 'I' for Inactive)
REMARK    1  A    between atoms: N1_1  and  C1_4 
REMARK    2  A    between atoms: C2_9  and  C3_10 
REMARK    3  A    between atoms: C3_10  and  N4_11 
REMARK    4  A    between atoms: C5_13  and  C6_14 
REMARK    5  A    between atoms: C6_14  and  O1_15 
REMARK    6  A    between atoms: N6_21  and  N7_22 
ROOT
HETATM    1  C6  UNL     1      -1.257   0.516  -0.795  1.00  0.00     0.220 A 
HETATM    2  N5  UNL     1      -1.277   1.951  -0.579  1.00  0.00    -0.300 N 
ATOM      3  H5  UNL     1      -0.439   2.469  -0.842  1.00  0.00     0.168 HD
HETATM    4  C7  UNL     1      -2.337   2.690  -0.045  1.00  0.00     0.345 A 
HETATM    5  O2  UNL     1      -2.247   3.954   0.122  1.00  0.00    -0.245 OA
HETATM    6  N6  UNL     1      -3.522   1.997   0.309  1.00  0.00    -0.195 N 
HETATM    7  C8  UNL     1      -3.611   0.589   0.119  1.00  0.00     0.149 A 
HETATM    8  N8  UNL     1      -4.744  -0.067   0.449  1.00  0.00    -0.336 N 
ATOM      9  H8  UNL     1      -5.519   0.470   0.838  1.00  0.00     0.168 HD
HETATM   10  C9  UNL     1      -4.902  -1.392   0.290  1.00  0.00     0.185 A 
HETATM   11  N9  UNL     1      -3.878  -2.102  -0.224  1.00  0.00    -0.319 N 
ATOM     12  H9  UNL     1      -3.976  -3.109  -0.353  1.00  0.00     0.169 HD
HETATM   13  C10 UNL     1      -2.711  -1.486  -0.573  1.00  0.00     0.261 A 
HETATM   14  O3  UNL     1      -1.814  -2.216  -1.042  1.00  0.00    -0.267 OA
HETATM   15  C11 UNL     1      -2.536  -0.128  -0.416  1.00  0.00     0.117 A 
ENDROOT
BRANCH   1  16
HETATM   16  C5  UNL     1      -0.124   0.014   0.036  1.00  0.00     0.104 A 
HETATM   17  C4  UNL     1       0.862  -0.880  -0.280  1.00  0.00     0.144 A 
HETATM   18  N4  UNL     1       1.642  -1.008   0.794  1.00  0.00    -0.280 N 
HETATM   19  N11 UNL     1       1.150  -0.223   1.730  1.00  0.00    -0.240 N 
HETATM   20  N10 UNL     1       0.079   0.407   1.294  1.00  0.00    -0.284 N 
ATOM     21  H11 UNL     1       1.545  -0.117   2.665  1.00  0.00     0.208 HD
ATOM     22  H10 UNL     1      -0.489   1.071   1.820  1.00  0.00     0.188 HD
BRANCH  18  23
HETATM   23  C3  UNL     1       2.821  -1.858   0.915  1.00  0.00     0.228 C 
BRANCH  23  24
HETATM   24  C2  UNL     1       3.975  -1.029   0.486  1.00  0.00     0.132 A 
HETATM   25  N3  UNL     1       4.447  -0.924  -0.757  1.00  0.00    -0.273 N 
HETATM   26  N2  UNL     1       5.486  -0.089  -0.740  1.00  0.00    -0.131 N 
ATOM     27  H3  UNL     1       4.077  -1.401  -1.579  1.00  0.00     0.189 HD
HETATM   28  C1  UNL     1       5.642   0.318   0.548  1.00  0.00     0.691 A 
ATOM     29  H2  UNL     1       6.055   0.191  -1.539  1.00  0.00     0.205 HD
HETATM   30  N12 UNL     1       4.708  -0.259   1.324  1.00  0.00    -0.177 N 
ATOM     31  H12 UNL     1       4.579  -0.142   2.329  1.00  0.00     0.185 HD
BRANCH  28  32
HETATM   32  N1  UNL     1       6.550   1.132   0.951  1.00  0.00    -0.233 N 
ATOM     33  H12 UNL     1       7.259   1.570   0.362  1.00  0.00     0.174 HD
ATOM     34  H11 UNL     1       6.667   1.437   1.917  1.00  0.00     0.174 HD
ENDBRANCH  28  32
ENDBRANCH  23  24
ENDBRANCH  18  23
ENDBRANCH   1  16
BRANCH   1  35
HETATM   35  O1  UNL     1      -0.924   0.320  -2.127  1.00  0.00    -0.361 OA
ATOM     36  H1  UNL     1      -1.645   0.640  -2.656  1.00  0.00     0.213 HD
ENDBRANCH   1  35
BRANCH   6  37
HETATM   37  N7  UNL     1      -4.579   2.744   0.842  1.00  0.00    -0.333 N 
ATOM     38  H72 UNL     1      -4.515   3.753   0.978  1.00  0.00     0.177 HD
ATOM     39  H71 UNL     1      -5.432   2.245   1.097  1.00  0.00     0.177 HD
ENDBRANCH   6  37
TORSDOF 6
