REMARK  7 active torsions:
REMARK  status: ('A' for Active; 'I' for Inactive)
REMARK    1  A    between atoms: C2_2  and  O1_3 
REMARK    2  A    between atoms: C4_6  and  N1_7 
REMARK    3  A    between atoms: N2_12  and  C6_13 
REMARK    4  A    between atoms: C6_13  and  N3_14 
REMARK    5  A    between atoms: C8_23  and  N7_24 
REMARK    6  A    between atoms: N8_26  and  N9_28 
REMARK    7  A    between atoms: C10_30  and  N10_31 
ROOT
HETATM    1  N3  UNL     1       0.505   0.735  -0.302  1.00  0.00    -0.065 N 
HETATM    2  N4  UNL     1       0.897   1.898  -0.773  1.00  0.00    -0.110 N 
ATOM      3  H4  UNL     1       0.559   2.350  -1.623  1.00  0.00     0.207 HD
HETATM    4  C7  UNL     1       1.830   2.386   0.074  1.00  0.00     0.706 A 
HETATM    5  N5  UNL     1       2.434   3.516  -0.081  1.00  0.00    -0.233 N 
ATOM      6  H51 UNL     1       3.138   3.884   0.558  1.00  0.00     0.174 HD
ATOM      7  H52 UNL     1       2.313   4.196  -0.832  1.00  0.00     0.174 HD
HETATM    8  N6  UNL     1       1.989   1.489   1.064  1.00  0.00    -0.018 N 
ATOM      9  H6  UNL     1       2.630   1.586   1.851  1.00  0.00     0.203 HD
HETATM   10  C8  UNL     1       1.163   0.437   0.850  1.00  0.00     0.735 A 
ENDROOT
BRANCH  10  11
HETATM   11  N7  UNL     1       1.000  -0.735   1.641  1.00  0.00    -0.115 N 
HETATM   12  N8  UNL     1       2.011  -1.493   1.764  1.00  0.00    -0.224 N 
ATOM     13  H8  UNL     1       1.918  -2.339   2.326  1.00  0.00     0.209 HD
ATOM     14  H7  UNL     1       0.111  -0.956   2.089  1.00  0.00     0.207 HD
BRANCH  12  15
HETATM   15  N9  UNL     1       3.250  -1.223   1.164  1.00  0.00    -0.246 N 
HETATM   16  C9  UNL     1       3.672  -1.471  -0.197  1.00  0.00     0.207 C 
HETATM   17  C10 UNL     1       4.927  -0.643  -0.313  1.00  0.00     0.303 C 
HETATM   18  N11 UNL     1       5.291  -0.297   1.043  1.00  0.00    -0.334 N 
HETATM   19  C11 UNL     1       4.334  -0.634   1.840  1.00  0.00     0.208 C 
ATOM     20  H11 UNL     1       6.166   0.144   1.325  1.00  0.00     0.164 HD
HETATM   21  N12 UNL     1       4.419  -0.409   3.262  1.00  0.00    -0.062 NA
BRANCH  17  22
HETATM   22  N10 UNL     1       6.021  -1.400  -0.901  1.00  0.00    -0.057 N 
ATOM     23 3H10 UNL     1       6.193  -2.264  -0.388  1.00  0.00     0.276 HD
ATOM     24 2H10 UNL     1       5.755  -1.799  -1.801  1.00  0.00     0.276 HD
ATOM     25 1H10 UNL     1       6.870  -0.840  -0.979  1.00  0.00     0.276 HD
ENDBRANCH  17  22
ENDBRANCH  12  15
ENDBRANCH  10  11
BRANCH   1  26
HETATM   26  C6  UNL     1      -0.480  -0.162  -0.867  1.00  0.00     0.228 C 
BRANCH  26  27
HETATM   27  N2  UNL     1      -1.760   0.083  -0.400  1.00  0.00    -0.350 N 
HETATM   28  C5  UNL     1      -2.378   1.313  -0.596  1.00  0.00     0.097 C 
HETATM   29  C4  UNL     1      -3.690   1.091  -1.331  1.00  0.00     0.224 C 
HETATM   30  C3  UNL     1      -4.592   0.192  -0.580  1.00  0.00     0.077 C 
HETATM   31  C2  UNL     1      -3.958  -0.808   0.299  1.00  0.00     0.073 C 
HETATM   32  C1  UNL     1      -4.321  -0.442   1.748  1.00  0.00     0.047 C 
HETATM   33  C12 UNL     1      -2.487  -0.958   0.216  1.00  0.00     0.166 C 
BRANCH  29  34
HETATM   34  N1  UNL     1      -3.359   0.560  -2.642  1.00  0.00    -0.070 N 
ATOM     35  H13 UNL     1      -2.970  -0.381  -2.573  1.00  0.00     0.275 HD
ATOM     36  H12 UNL     1      -4.200   0.348  -3.178  1.00  0.00     0.275 HD
ATOM     37  H11 UNL     1      -2.737   1.180  -3.160  1.00  0.00     0.275 HD
ENDBRANCH  29  34
BRANCH  31  38
HETATM   38  O1  UNL     1      -4.529  -2.084   0.110  1.00  0.00    -0.388 OA
ATOM     39  H1  UNL     1      -4.305  -2.310  -0.785  1.00  0.00     0.210 HD
ENDBRANCH  31  38
ENDBRANCH  26  27
ENDBRANCH   1  26
TORSDOF 7
