REMARK  9 active torsions:
REMARK  status: ('A' for Active; 'I' for Inactive)
REMARK    1  A    between atoms: N1_1  and  C1_5 
REMARK    2  A    between atoms: C5_12  and  N3_13 
REMARK    3  A    between atoms: N3_13  and  C6_15 
REMARK    4  A    between atoms: C6_15  and  C7_16 
REMARK    5  A    between atoms: C7_16  and  N4_17 
REMARK    6  A    between atoms: N5_20  and  N6_21 
REMARK    7  A    between atoms: N6_21  and  O2_22 
REMARK    8  A    between atoms: N7_24  and  O3_26 
REMARK    9  A    between atoms: N9_33  and  O4_34 
ROOT
HETATM    1  C1  UNL     1      -6.017   0.156   0.702  1.00  0.00     0.425 C 
HETATM    2  O1  UNL     1      -5.249  -0.152   1.825  1.00  0.00    -0.344 OA
HETATM    3  C2  UNL     1      -3.928   0.130   1.484  1.00  0.00     0.203 C 
HETATM    4  C3  UNL     1      -3.862  -0.332   0.053  1.00  0.00     0.097 C 
HETATM    5  C4  UNL     1      -3.625  -1.823  -0.014  1.00  0.00     0.169 C 
HETATM    6  N2  UNL     1      -2.261  -2.136   0.339  1.00  0.00    -0.225 N 
ATOM      7  H2  UNL     1      -2.047  -3.100   0.595  1.00  0.00     0.177 HD
HETATM    8  C5  UNL     1      -1.306  -1.294   0.354  1.00  0.00     0.669 C 
HETATM    9  N8  UNL     1      -1.528   0.061   0.012  1.00  0.00    -0.225 N 
ATOM     10  H8  UNL     1      -0.865   0.795   0.261  1.00  0.00     0.177 HD
HETATM   11  C12 UNL     1      -2.754   0.348  -0.715  1.00  0.00     0.169 C 
HETATM   12  N9  UNL     1      -5.171   0.019  -0.453  1.00  0.00    -0.131 NA
ENDROOT
BRANCH   8  13
HETATM   13  N3  UNL     1      -0.010  -1.722   0.717  1.00  0.00    -0.225 N 
ATOM     14  H3  UNL     1       0.192  -1.830   1.711  1.00  0.00     0.177 HD
BRANCH  13  15
HETATM   15  C6  UNL     1       1.046  -2.017  -0.217  1.00  0.00     0.168 C 
BRANCH  15  16
HETATM   16  C7  UNL     1       1.530  -0.762  -0.897  1.00  0.00     0.292 C 
BRANCH  16  17
HETATM   17  N4  UNL     1       2.037   0.167   0.055  1.00  0.00     0.093 N 
HETATM   18  C8  UNL     1       2.506   1.398  -0.542  1.00  0.00     0.294 C 
HETATM   19  C9  UNL     1       3.943   1.329  -0.973  1.00  0.00     0.177 C 
HETATM   20  N5  UNL     1       4.810   0.616  -0.092  1.00  0.00    -0.282 N 
HETATM   21  C10 UNL     1       4.309  -0.667   0.431  1.00  0.00     0.177 C 
HETATM   22  C11 UNL     1       2.959  -0.357   1.024  1.00  0.00     0.294 C 
BRANCH  20  23
HETATM   23  N6  UNL     1       6.084   1.027   0.311  1.00  0.00    -0.077 N 
HETATM   24  N7  UNL     1       7.100   0.617  -0.342  1.00  0.00    -0.168 N 
ATOM     25  H7  UNL     1       6.959   0.000  -1.142  1.00  0.00     0.220 HD
BRANCH  23  26
HETATM   26  O2  UNL     1       6.245   1.857   1.390  1.00  0.00    -0.252 OA
ATOM     27  H2  UNL     1       7.111   2.136   1.664  1.00  0.00     0.248 HD
ENDBRANCH  23  26
BRANCH  24  28
HETATM   28  O3  UNL     1       8.379   0.982   0.001  1.00  0.00    -0.271 OA
ATOM     29  H3  UNL     1       9.136   0.677  -0.485  1.00  0.00     0.246 HD
ENDBRANCH  24  28
ENDBRANCH  20  23
ENDBRANCH  16  17
ENDBRANCH  15  16
ENDBRANCH  13  15
ENDBRANCH   8  13
BRANCH  12  30
HETATM   30  O4  UNL     1      -5.098   1.248  -1.042  1.00  0.00    -0.308 OA
ATOM     31  H4  UNL     1      -4.539   1.158  -1.805  1.00  0.00     0.237 HD
ENDBRANCH  12  30
BRANCH   1  32
HETATM   32  N1  UNL     1      -6.505   1.518   0.884  1.00  0.00    -0.037 N 
ATOM     33  H13 UNL     1      -7.006   1.651   1.762  1.00  0.00     0.279 HD
ATOM     34  H12 UNL     1      -5.759   2.192   1.058  1.00  0.00     0.279 HD
ATOM     35  H11 UNL     1      -7.067   1.743   0.063  1.00  0.00     0.279 HD
ENDBRANCH   1  32
TORSDOF 9
