REMARK  8 active torsions:
REMARK  status: ('A' for Active; 'I' for Inactive)
REMARK    1  A    between atoms: C3_5  and  N2_6 
REMARK    2  A    between atoms: N2_6  and  C5_8 
REMARK    3  A    between atoms: C6_11  and  N4_12 
REMARK    4  A    between atoms: C7_17  and  N6_18 
REMARK    5  A    between atoms: C8_25  and  N9_26 
REMARK    6  A    between atoms: N9_26  and  C9_28 
REMARK    7  A    between atoms: C9_28  and  O1_29 
REMARK    8  A    between atoms: C9_28  and  C10_31 
ROOT
HETATM    1  C1  UNL     1      -1.445   3.105  -1.659  1.00  0.00     0.090 C 
HETATM    2  C2  UNL     1      -0.778   1.919  -1.004  1.00  0.00     0.109 A 
HETATM    3  N1  UNL     1       0.468   2.010  -0.519  1.00  0.00    -0.179 N 
ATOM      4  H1  UNL     1       0.966   2.898  -0.582  1.00  0.00     0.185 HD
HETATM    5  C3  UNL     1       1.086   0.933   0.060  1.00  0.00     0.714 A 
HETATM    6  N8  UNL     1       0.405  -0.228   0.130  1.00  0.00    -0.021 N 
ATOM      7  H8  UNL     1       0.855  -1.038   0.557  1.00  0.00     0.203 HD
HETATM    8  C8  UNL     1      -0.849  -0.357  -0.344  1.00  0.00     0.696 A 
HETATM    9  N13 UNL     1      -1.400   0.731  -0.899  1.00  0.00    -0.180 N 
ATOM     10  H13 UNL     1      -2.349   0.654  -1.264  1.00  0.00     0.185 HD
ENDROOT
BRANCH   5  11
HETATM   11  N2  UNL     1       2.396   1.108   0.585  1.00  0.00    -0.017 N 
HETATM   12  C4  UNL     1       2.710   2.332   1.332  1.00  0.00     0.195 C 
BRANCH  11  13
HETATM   13  C5  UNL     1       3.459   0.188   0.430  1.00  0.00     0.727 A 
HETATM   14  N3  UNL     1       3.751  -0.804   1.289  1.00  0.00    -0.021 N 
HETATM   15  C6  UNL     1       4.801  -1.633   1.075  1.00  0.00     0.705 A 
ATOM     16  H3  UNL     1       3.171  -0.935   2.118  1.00  0.00     0.203 HD
HETATM   17  N5  UNL     1       5.584  -1.487  -0.011  1.00  0.00    -0.022 N 
HETATM   18  C7  UNL     1       5.316  -0.502  -0.890  1.00  0.00     0.705 A 
ATOM     19  H5  UNL     1       6.372  -2.116  -0.166  1.00  0.00     0.203 HD
HETATM   20  N7  UNL     1       4.279   0.302  -0.659  1.00  0.00    -0.021 N 
ATOM     21  H7  UNL     1       4.086   1.044  -1.332  1.00  0.00     0.203 HD
BRANCH  15  22
HETATM   22  N4  UNL     1       5.035  -2.571   1.949  1.00  0.00    -0.234 N 
ATOM     23  H42 UNL     1       4.442  -2.682   2.771  1.00  0.00     0.174 HD
ATOM     24  H41 UNL     1       5.826  -3.195   1.788  1.00  0.00     0.174 HD
ENDBRANCH  15  22
BRANCH  18  25
HETATM   25  N6  UNL     1       6.049  -0.332  -1.939  1.00  0.00    -0.234 N 
ATOM     26  H62 UNL     1       6.843  -0.948  -2.116  1.00  0.00     0.174 HD
ATOM     27  H61 UNL     1       5.846   0.414  -2.605  1.00  0.00     0.174 HD
ENDBRANCH  18  25
ENDBRANCH  11  13
ENDBRANCH   5  11
BRANCH   8  28
HETATM   28  N9  UNL     1      -1.424  -1.499  -0.222  1.00  0.00    -0.192 N 
ATOM     29  H9  UNL     1      -0.904  -2.253   0.227  1.00  0.00     0.180 HD
BRANCH  28  30
HETATM   30  C9  UNL     1      -2.764  -1.778  -0.684  1.00  0.00     0.304 C 
BRANCH  30  31
HETATM   31  O1  UNL     1      -2.722  -3.116  -1.146  1.00  0.00    -0.369 OA
ATOM     32  H1  UNL     1      -3.603  -3.299  -1.450  1.00  0.00     0.212 HD
ENDBRANCH  30  31
BRANCH  30  33
HETATM   33  C10 UNL     1      -3.750  -1.642   0.420  1.00  0.00     0.149 A 
HETATM   34  N10 UNL     1      -3.652  -2.226   1.640  1.00  0.00    -0.284 N 
HETATM   35  N11 UNL     1      -4.688  -1.895   2.398  1.00  0.00    -0.295 N 
ATOM     36  H10 UNL     1      -2.888  -2.835   1.933  1.00  0.00     0.188 HD
HETATM   37  C11 UNL     1      -5.477  -1.083   1.667  1.00  0.00     0.201 A 
ATOM     38  H11 UNL     1      -4.857  -2.199   3.357  1.00  0.00     0.187 HD
HETATM   39  N12 UNL     1      -4.893  -0.943   0.480  1.00  0.00    -0.331 N 
HETATM   40  C12 UNL     1      -5.431  -0.129  -0.601  1.00  0.00     0.158 C 
ENDBRANCH  30  33
ENDBRANCH  28  30
ENDBRANCH   8  28
TORSDOF 8
