REMARK  6 active torsions:
REMARK  status: ('A' for Active; 'I' for Inactive)
REMARK    1  A    between atoms: C2_3  and  S1_4 
REMARK    2  A    between atoms: S1_4  and  C3_5 
REMARK    3  A    between atoms: C4_8  and  N3_9 
REMARK    4  A    between atoms: N3_9  and  N4_11 
REMARK    5  A    between atoms: N4_11  and  C5_12 
REMARK    6  A    between atoms: C9_21  and  N7_22 
ROOT
HETATM    1  C3  UNL     1       1.337  -0.425  -0.830  1.00  0.00     0.182 A 
HETATM    2  N2  UNL     1       0.367  -0.557   0.094  1.00  0.00    -0.168 N 
ATOM      3  H2  UNL     1       0.527  -1.164   0.898  1.00  0.00     0.186 HD
HETATM    4  C4  UNL     1      -0.807   0.089  -0.014  1.00  0.00     0.710 A 
HETATM    5  N6  UNL     1      -0.972   0.882  -1.099  1.00  0.00    -0.021 N 
ATOM      6  H6  UNL     1      -1.852   1.386  -1.210  1.00  0.00     0.203 HD
HETATM    7  C9  UNL     1      -0.015   1.030  -2.039  1.00  0.00     0.692 A 
HETATM    8  N8  UNL     1       1.147   0.370  -1.901  1.00  0.00    -0.169 N 
ATOM      9  H8  UNL     1       1.881   0.470  -2.603  1.00  0.00     0.186 HD
ENDROOT
BRANCH   1  10
HETATM   10  S1  UNL     1       2.902  -1.271  -0.711  1.00  0.00    -0.016 SA
BRANCH  10  11
HETATM   11  C2  UNL     1       4.096  -0.291   0.176  1.00  0.00     0.161 A 
HETATM   12  N1  UNL     1       5.326  -0.781   0.355  1.00  0.00    -0.283 N 
HETATM   13  C1  UNL     1       5.676  -2.095  -0.169  1.00  0.00     0.163 C 
HETATM   14  C11 UNL     1       6.268  -0.080   1.019  1.00  0.00     0.332 A 
HETATM   15  N10 UNL     1       6.003   1.134   1.523  1.00  0.00    -0.260 N 
HETATM   16  O2  UNL     1       7.438  -0.530   1.197  1.00  0.00    -0.246 OA
HETATM   17  C10 UNL     1       4.769   1.643   1.351  1.00  0.00     0.330 A 
ATOM     18  H10 UNL     1       6.719   1.659   2.025  1.00  0.00     0.175 HD
HETATM   19  N9  UNL     1       3.833   0.924   0.681  1.00  0.00    -0.288 N 
HETATM   20  O1  UNL     1       4.520   2.779   1.822  1.00  0.00    -0.246 OA
ATOM     21  H9  UNL     1       2.901   1.319   0.558  1.00  0.00     0.172 HD
ENDBRANCH  10  11
ENDBRANCH   1  10
BRANCH   4  22
HETATM   22  N3  UNL     1      -1.832  -0.052   0.966  1.00  0.00    -0.135 N 
ATOM     23  H3  UNL     1      -1.691  -0.653   1.778  1.00  0.00     0.201 HD
BRANCH  22  24
HETATM   24  N4  UNL     1      -3.016   0.634   0.803  1.00  0.00    -0.119 NA
BRANCH  24  25
HETATM   25  C5  UNL     1      -3.997  -0.105   0.034  1.00  0.00     0.127 C 
HETATM   26  C6  UNL     1      -5.277   0.643  -0.139  1.00  0.00     0.052 C 
HETATM   27  C7  UNL     1      -6.247   0.103   0.897  1.00  0.00     0.234 C 
HETATM   28  N5  UNL     1      -5.509  -0.840   1.680  1.00  0.00    -0.073 N 
HETATM   29  C8  UNL     1      -4.414  -1.306   0.862  1.00  0.00     0.255 C 
ATOM     30  H52 UNL     1      -5.206  -0.464   2.578  1.00  0.00     0.277 HD
ATOM     31  H51 UNL     1      -6.087  -1.597   2.044  1.00  0.00     0.277 HD
ENDBRANCH  24  25
ENDBRANCH  22  24
ENDBRANCH   4  22
BRANCH   7  32
HETATM   32  N7  UNL     1      -0.180   1.790  -3.075  1.00  0.00    -0.234 N 
ATOM     33  H72 UNL     1      -1.062   2.291  -3.180  1.00  0.00     0.174 HD
ATOM     34  H71 UNL     1       0.543   1.902  -3.785  1.00  0.00     0.174 HD
ENDBRANCH   7  32
TORSDOF 6
