REMARK  8 active torsions:
REMARK  status: ('A' for Active; 'I' for Inactive)
REMARK    1  A    between atoms: C2_2  and  C3_3 
REMARK    2  A    between atoms: C8_10  and  O1_11 
REMARK    3  A    between atoms: N1_13  and  C9_14 
REMARK    4  A    between atoms: C9_14  and  C10_15 
REMARK    5  A    between atoms: N2_20  and  C15_21 
REMARK    6  A    between atoms: C15_21  and  C16_22 
REMARK    7  A    between atoms: C21_28  and  O2_29 
REMARK    8  A    between atoms: C23_31  and  O3_32 
ROOT
HETATM    1  C9  UNL     1      -0.231  -0.081  -0.003  1.00  0.00     0.110 C 
ENDROOT
BRANCH   1   2
HETATM    2  N1  UNL     1      -1.646  -0.325  -0.153  1.00  0.00    -0.284 N 
HETATM    3  C8  UNL     1      -2.606   0.184   0.633  1.00  0.00     0.157 A 
HETATM    4  C7  UNL     1      -3.848  -0.274   0.205  1.00  0.00     0.029 A 
HETATM    5  C3  UNL     1      -5.285   0.054   0.515  1.00  0.00     0.042 C 
HETATM    6  C6  UNL     1      -3.654  -1.078  -0.845  1.00  0.00     0.055 A 
HETATM    7  C4  UNL     1      -5.598   0.374   1.896  1.00  0.00     0.032 C 
HETATM    8  S1  UNL     1      -6.066  -1.498  -0.082  1.00  0.00    -0.102 SA
HETATM    9  C5  UNL     1      -4.836  -1.729  -1.411  1.00  0.00     0.084 C 
HETATM   10  S2  UNL     1      -5.102  -2.487  -2.796  1.00  0.00    -0.071 SA
HETATM   11  C23 UNL     1      -2.268  -1.107  -1.071  1.00  0.00     0.161 A 
BRANCH   3  12
HETATM   12  O1  UNL     1      -2.372   1.038   1.713  1.00  0.00    -0.345 OA
ATOM     13  H1  UNL     1      -1.524   1.351   2.005  1.00  0.00     0.219 HD
ENDBRANCH   3  12
BRANCH   5  14
HETATM   14  C2  UNL     1      -5.754   1.111  -0.500  1.00  0.00     0.021 C 
HETATM   15  C1  UNL     1      -5.162   2.451  -0.294  1.00  0.00     0.007 C 
ENDBRANCH   5  14
BRANCH  11  16
HETATM   16  O3  UNL     1      -1.655  -1.842  -2.076  1.00  0.00    -0.345 OA
ATOM     17  H3  UNL     1      -0.718  -1.862  -2.229  1.00  0.00     0.219 HD
ENDBRANCH  11  16
ENDBRANCH   1   2
BRANCH   1  18
HETATM   18  C10 UNL     1       0.621  -1.248  -0.013  1.00  0.00     0.262 C 
HETATM   19  C11 UNL     1       0.274  -2.287   1.000  1.00  0.00     0.041 C 
HETATM   20  C12 UNL     1       0.950  -3.561   0.408  1.00  0.00     0.004 C 
HETATM   21  C13 UNL     1       2.431  -3.294   0.508  1.00  0.00     0.030 C 
HETATM   22  C14 UNL     1       2.840  -1.949  -0.058  1.00  0.00     0.273 C 
HETATM   23  N2  UNL     1       2.032  -0.883   0.354  1.00  0.00     0.102 N 
BRANCH  23  24
HETATM   24  C15 UNL     1       2.328   0.372  -0.228  1.00  0.00     0.318 C 
BRANCH  24  25
HETATM   25  C16 UNL     1       3.512   1.074   0.281  1.00  0.00     0.042 A 
HETATM   26  C17 UNL     1       3.492   1.506   1.624  1.00  0.00     0.127 A 
HETATM   27  F1  UNL     1       2.497   1.078   2.419  1.00  0.00    -0.205 F 
HETATM   28  C18 UNL     1       4.495   2.347   2.046  1.00  0.00     0.043 A 
HETATM   29  C19 UNL     1       5.494   2.779   1.220  1.00  0.00     0.006 A 
HETATM   30  C20 UNL     1       5.501   2.353  -0.085  1.00  0.00     0.037 A 
HETATM   31  C21 UNL     1       4.517   1.501  -0.557  1.00  0.00     0.079 A 
BRANCH  31  32
HETATM   32  O2  UNL     1       4.558   1.099  -1.894  1.00  0.00    -0.355 OA
HETATM   33  C22 UNL     1       5.558   1.530  -2.801  1.00  0.00     0.210 C 
ENDBRANCH  31  32
ENDBRANCH  24  25
ENDBRANCH  23  24
ENDBRANCH   1  18
TORSDOF 8
