REMARK  8 active torsions:
REMARK  status: ('A' for Active; 'I' for Inactive)
REMARK    1  A    between atoms: C4_4  and  C5_5 
REMARK    2  A    between atoms: C5_5  and  N1_6 
REMARK    3  A    between atoms: C5_5  and  C6_10 
REMARK    4  A    between atoms: C6_10  and  C7_11 
REMARK    5  A    between atoms: C8_13  and  N2_14 
REMARK       I    between atoms: N2_14  and  C9_16 
REMARK    6  A    between atoms: C9_16  and  C10_18 
REMARK    7  A    between atoms: C14_27  and  C15_28 
REMARK    8  A    between atoms: C16_29  and  C17_30 
ROOT
HETATM    1  C7  UNL     1      -0.473   0.563   1.045  1.00  0.00     0.015 A 
HETATM    2  S1  UNL     1       0.925   1.386   1.682  1.00  0.00    -0.056 SA
HETATM    3  C8  UNL     1       2.061   0.176   1.369  1.00  0.00     0.152 A 
HETATM    4  N4  UNL     1       1.354  -0.786   0.807  1.00  0.00    -0.336 N 
ATOM      5  H4  UNL     1       1.805  -1.652   0.513  1.00  0.00     0.168 HD
HETATM    6  C14 UNL     1       0.047  -0.615   0.627  1.00  0.00     0.047 A 
ENDROOT
BRANCH   1   7
HETATM    7  C6  UNL     1      -1.859   1.142   1.027  1.00  0.00     0.088 C 
BRANCH   7   8
HETATM    8  C5  UNL     1      -1.813   2.579   1.534  1.00  0.00     0.247 C 
BRANCH   8   9
HETATM    9  C4  UNL     1      -0.948   3.403   0.660  1.00  0.00     0.109 A 
HETATM   10  C3  UNL     1      -0.426   4.657   0.888  1.00  0.00     0.063 A 
HETATM   11  C2  UNL     1       0.310   5.000  -0.219  1.00  0.00     0.031 A 
HETATM   12  C1  UNL     1       1.052   6.283  -0.393  1.00  0.00     0.070 C 
HETATM   13  N5  UNL     1       0.214   3.972  -1.063  1.00  0.00    -0.266 N 
HETATM   14  O3  UNL     1      -0.535   3.040  -0.520  1.00  0.00    -0.240 OA
ATOM     15  H5  UNL     1       0.652   3.918  -1.983  1.00  0.00     0.194 HD
ENDBRANCH   8   9
BRANCH   8  16
HETATM   16  N1  UNL     1      -1.346   2.646   2.898  1.00  0.00    -0.069 N 
ATOM     17  H13 UNL     1      -0.363   2.385   2.978  1.00  0.00     0.275 HD
ATOM     18  H12 UNL     1      -1.273   3.608   3.230  1.00  0.00     0.275 HD
ATOM     19  H11 UNL     1      -1.942   2.078   3.500  1.00  0.00     0.275 HD
ENDBRANCH   8  16
ENDBRANCH   7   8
ENDBRANCH   1   7
BRANCH   6  20
HETATM   20  C15 UNL     1      -0.738  -1.701   0.018  1.00  0.00     0.027 C 
HETATM   21  C16 UNL     1      -2.007  -1.778  -0.185  1.00  0.00    -0.017 C 
BRANCH  21  22
HETATM   22  C17 UNL     1      -2.593  -3.037  -0.850  1.00  0.00     0.042 C 
HETATM   23  C18 UNL     1      -3.416  -2.588  -2.056  1.00  0.00     0.011 C 
HETATM   24  C19 UNL     1      -4.414  -1.559  -1.666  1.00  0.00     0.001 C 
HETATM   25  C20 UNL     1      -5.212  -1.857  -0.454  1.00  0.00     0.003 C 
HETATM   26  C21 UNL     1      -4.503  -2.633   0.606  1.00  0.00     0.038 C 
HETATM   27  C22 UNL     1      -3.582  -3.686   0.094  1.00  0.00     0.177 C 
HETATM   28  F1  UNL     1      -2.871  -4.191   1.170  1.00  0.00    -0.249 F 
ENDBRANCH  21  22
ENDBRANCH   6  20
BRANCH   3  29
HETATM   29  N2  UNL     1       3.366   0.168   1.621  1.00  0.00    -0.302 N 
HETATM   30  C9  UNL     1       4.180  -0.922   1.299  1.00  0.00     0.276 C 
HETATM   31  O1  UNL     1       3.951  -2.043   1.831  1.00  0.00    -0.266 OA
ATOM     32  H2  UNL     1       3.788   0.984   2.064  1.00  0.00     0.171 HD
BRANCH  30  33
HETATM   33  C10 UNL     1       5.279  -0.762   0.360  1.00  0.00     0.125 A 
HETATM   34  C11 UNL     1       6.155  -1.739  -0.047  1.00  0.00     0.071 A 
HETATM   35  C12 UNL     1       7.022  -1.142  -0.934  1.00  0.00     0.075 A 
HETATM   36  C13 UNL     1       8.137  -1.859  -1.615  1.00  0.00     0.079 C 
HETATM   37  O2  UNL     1       6.689   0.118  -1.054  1.00  0.00    -0.242 OA
HETATM   38  N3  UNL     1       5.665   0.342  -0.294  1.00  0.00    -0.256 N 
ATOM     39  H3  UNL     1       5.207   1.249  -0.204  1.00  0.00     0.195 HD
ENDBRANCH  30  33
ENDBRANCH   3  29
TORSDOF 8
