REMARK  8 active torsions:
REMARK  status: ('A' for Active; 'I' for Inactive)
REMARK    1  A    between atoms: C2_2  and  C3_3 
REMARK    2  A    between atoms: C3_3  and  C4_4 
REMARK    3  A    between atoms: C4_4  and  C5_5 
REMARK    4  A    between atoms: C5_5  and  C6_6 
REMARK    5  A    between atoms: C6_6  and  O1_7 
REMARK    6  A    between atoms: O1_7  and  C7_8 
REMARK    7  A    between atoms: C7_8  and  C8_10 
REMARK    8  A    between atoms: N1_13  and  C11_14 
ROOT
HETATM    1  C8  UNL     1      -0.471  -0.535  -0.116  1.00  0.00     0.103 C 
HETATM    2  C9  UNL     1      -1.463  -0.498   0.721  1.00  0.00     0.033 C 
HETATM    3  C10 UNL     1      -1.026  -0.323   2.166  1.00  0.00     0.070 C 
HETATM    4  N1  UNL     1      -2.872  -0.339   0.443  1.00  0.00    -0.324 N 
HETATM    5  C14 UNL     1      -3.405  -0.154  -0.906  1.00  0.00     0.079 A 
HETATM    6  C15 UNL     1      -2.516  -0.222  -1.971  1.00  0.00     0.076 A 
HETATM    7  S1  UNL     1      -3.319   0.345  -3.343  1.00  0.00    -0.061 SA
HETATM    8  C16 UNL     1      -4.795   0.691  -2.611  1.00  0.00     0.097 A 
HETATM    9  N2  UNL     1      -5.907   1.290  -3.137  1.00  0.00    -0.302 N 
ATOM     10  H2  UNL     1      -5.935   1.491  -4.137  1.00  0.00     0.171 HD
HETATM   11  C17 UNL     1      -6.954   1.619  -2.382  1.00  0.00     0.328 A 
HETATM   12  O3  UNL     1      -7.948   2.159  -2.902  1.00  0.00    -0.247 OA
HETATM   13  N3  UNL     1      -6.844   1.333  -1.108  1.00  0.00    -0.275 N 
ATOM     14  H3  UNL     1      -7.629   1.578  -0.505  1.00  0.00     0.173 HD
HETATM   15  C18 UNL     1      -5.761   0.731  -0.515  1.00  0.00     0.264 A 
HETATM   16  O4  UNL     1      -5.947   0.628   0.665  1.00  0.00    -0.267 OA
HETATM   17  C19 UNL     1      -4.660   0.359  -1.260  1.00  0.00     0.095 A 
HETATM   18  S2  UNL     1      -0.852  -0.891  -1.814  1.00  0.00    -0.072 SA
ENDROOT
BRANCH   1  19
HETATM   19  C7  UNL     1       0.913  -0.428   0.165  1.00  0.00     0.302 C 
HETATM   20  O2  UNL     1       1.380  -0.303   1.320  1.00  0.00    -0.259 OA
BRANCH  19  21
HETATM   21  O1  UNL     1       1.890  -0.456  -0.868  1.00  0.00    -0.317 OA
BRANCH  21  22
HETATM   22  C6  UNL     1       3.236  -0.340  -0.453  1.00  0.00     0.179 C 
BRANCH  22  23
HETATM   23  C5  UNL     1       4.181  -0.382  -1.635  1.00  0.00     0.027 C 
BRANCH  23  24
HETATM   24  C4  UNL     1       5.611  -0.261  -1.233  1.00  0.00     0.002 C 
BRANCH  24  25
HETATM   25  C3  UNL     1       5.929   1.013  -0.512  1.00  0.00    -0.000 C 
BRANCH  25  26
HETATM   26  C2  UNL     1       7.404   1.003  -0.166  1.00  0.00    -0.005 C 
HETATM   27  C1  UNL     1       8.269   0.908  -1.383  1.00  0.00     0.005 C 
ENDBRANCH  25  26
ENDBRANCH  24  25
ENDBRANCH  23  24
ENDBRANCH  22  23
ENDBRANCH  21  22
ENDBRANCH  19  21
ENDBRANCH   1  19
BRANCH   4  28
HETATM   28  C11 UNL     1      -3.735  -0.973   1.433  1.00  0.00     0.107 C 
HETATM   29  C12 UNL     1      -4.133  -0.469   2.702  1.00  0.00     0.056 C 
HETATM   30  C13 UNL     1      -2.847  -2.249   1.900  1.00  0.00     0.056 C 
HETATM   31 CL1  UNL     1      -5.008  -2.055   0.651  1.00  0.00    -0.096 Cl
ENDBRANCH   4  28
TORSDOF 8
