REMARK  3 active torsions:
REMARK  status: ('A' for Active; 'I' for Inactive)
REMARK    1  A    between atoms: C2_2  and  O1_3 
REMARK    2  A    between atoms: O1_3  and  C3_4 
REMARK    3  A    between atoms: C3_4  and  C4_6 
ROOT
HETATM    1  C4  UNL     1       0.401  -0.442  -0.822  1.00  0.00     0.130 A 
HETATM    2  C5  UNL     1       0.299  -1.736  -1.060  1.00  0.00     0.107 A 
HETATM    3  C6  UNL     1       1.460  -2.530  -1.428  1.00  0.00     0.104 C 
HETATM    4  N1  UNL     1       2.375  -3.184  -1.723  1.00  0.00    -0.191 NA
HETATM    5  C7  UNL     1      -0.972  -2.448  -0.971  1.00  0.00     0.101 A 
HETATM    6  N2  UNL     1      -1.037  -3.732  -1.213  1.00  0.00    -0.395 N 
ATOM      7  H21 UNL     1      -1.925  -4.230  -1.151  1.00  0.00     0.156 HD
ATOM      8  H22 UNL     1      -0.209  -4.270  -1.470  1.00  0.00     0.156 HD
HETATM    9  C8  UNL     1      -2.152  -1.681  -0.605  1.00  0.00     0.237 A 
HETATM   10  O3  UNL     1      -3.258  -2.261  -0.520  1.00  0.00    -0.285 OA
HETATM   11  C9  UNL     1      -2.063  -0.255  -0.339  1.00  0.00     0.256 A 
HETATM   12  N3  UNL     1      -0.762   0.306  -0.464  1.00  0.00    -0.342 N 
ATOM     13  H3  UNL     1      -0.653   1.305  -0.287  1.00  0.00     0.163 HD
HETATM   14  O4  UNL     1      -2.930   0.503  -1.317  1.00  0.00    -0.234 OA
HETATM   15  N4  UNL     1      -2.899   1.787  -0.738  1.00  0.00    -0.249 N 
ATOM     16  H4  UNL     1      -2.977   2.659  -1.262  1.00  0.00     0.196 HD
HETATM   17  C10 UNL     1      -2.759   1.714   0.547  1.00  0.00     0.132 A 
HETATM   18  N5  UNL     1      -2.625   2.294   1.833  1.00  0.00    -0.320 N 
ATOM     19  H5  UNL     1      -2.614   3.289   2.059  1.00  0.00     0.169 HD
HETATM   20  C11 UNL     1      -2.510   1.222   2.734  1.00  0.00     0.186 A 
HETATM   21  C12 UNL     1      -2.315   1.384   4.162  1.00  0.00     0.136 C 
HETATM   22  N6  UNL     1      -2.153   1.524   5.304  1.00  0.00    -0.188 NA
HETATM   23  N7  UNL     1      -2.596   0.068   2.150  1.00  0.00    -0.351 N 
ATOM     24  H7  UNL     1      -2.510  -0.831   2.625  1.00  0.00     0.162 HD
HETATM   25  C13 UNL     1      -2.815   0.220   0.823  1.00  0.00     0.220 A 
ENDROOT
BRANCH   1  26
HETATM   26  C3  UNL     1       1.683   0.255  -0.916  1.00  0.00     0.311 C 
HETATM   27  O2  UNL     1       1.754   1.510  -0.681  1.00  0.00    -0.258 OA
BRANCH  26  28
HETATM   28  O1  UNL     1       2.879  -0.311  -1.245  1.00  0.00    -0.317 OA
BRANCH  28  29
HETATM   29  C2  UNL     1       4.112   0.307  -1.346  1.00  0.00     0.175 C 
HETATM   30  C1  UNL     1       4.615   0.961  -0.104  1.00  0.00     0.034 C 
ENDBRANCH  28  29
ENDBRANCH  26  28
ENDBRANCH   1  26
TORSDOF 3
