REMARK  4 active torsions:
REMARK  status: ('A' for Active; 'I' for Inactive)
REMARK    1  A    between atoms: N1_1  and  C1_4 
REMARK    2  A    between atoms: C4_13  and  N5_14 
REMARK    3  A    between atoms: C5_17  and  N6_18 
REMARK    4  A    between atoms: N6_18  and  N7_20 
ROOT
HETATM    1  C1  UNL     1       6.083   1.090   0.672  1.00  0.00     0.145 A 
HETATM    2  N2  UNL     1       5.798  -0.134   0.223  1.00  0.00    -0.320 N 
ATOM      3  H2  UNL     1       6.540  -0.815   0.062  1.00  0.00     0.169 HD
HETATM    4  C2  UNL     1       4.546  -0.442  -0.006  1.00  0.00     0.160 A 
HETATM    5  N3  UNL     1       3.812  -1.515  -0.447  1.00  0.00    -0.172 N 
ATOM      6  H3  UNL     1       4.208  -2.415  -0.717  1.00  0.00     0.186 HD
HETATM    7  C3  UNL     1       2.502  -1.220  -0.475  1.00  0.00     0.709 A 
HETATM    8  N4  UNL     1       1.535  -2.106  -0.875  1.00  0.00    -0.171 N 
ATOM      9  H4  UNL     1       1.850  -3.009  -1.229  1.00  0.00     0.186 HD
HETATM   10  C4  UNL     1       0.195  -1.887  -0.842  1.00  0.00     0.162 C 
HETATM   11  C5  UNL     1      -0.450  -0.673  -0.768  1.00  0.00     0.181 C 
HETATM   12  N8  UNL     1      -0.004   0.501  -0.243  1.00  0.00    -0.266 N 
ATOM     13  H8  UNL     1      -0.694   1.236  -0.089  1.00  0.00     0.190 HD
HETATM   14  N9  UNL     1       1.270   0.773   0.089  1.00  0.00    -0.219 N 
ATOM     15  H9  UNL     1       1.420   1.686   0.518  1.00  0.00     0.209 HD
HETATM   16  N10 UNL     1       2.353   0.040  -0.056  1.00  0.00    -0.061 N 
HETATM   17  C11 UNL     1       3.599   0.514   0.230  1.00  0.00     0.165 A 
HETATM   18  S1  UNL     1       4.551   1.827   0.775  1.00  0.00    -0.030 SA
ENDROOT
BRANCH  11  19
HETATM   19  N6  UNL     1      -1.640  -0.638  -1.263  1.00  0.00    -0.281 N 
ATOM     20  H6  UNL     1      -2.025  -1.490  -1.670  1.00  0.00     0.188 HD
BRANCH  19  21
HETATM   21  N7  UNL     1      -2.424   0.518  -1.265  1.00  0.00    -0.300 N 
HETATM   22  C6  UNL     1      -3.345   0.683  -0.389  1.00  0.00     0.071 C 
HETATM   23  C7  UNL     1      -4.253   1.842  -0.260  1.00  0.00     0.063 C 
HETATM   24  C10 UNL     1      -3.693  -0.249   0.672  1.00  0.00     0.173 C 
HETATM   25  C8  UNL     1      -5.537   1.188   0.235  1.00  0.00     0.014 C 
HETATM   26  C9  UNL     1      -5.118  -0.012   1.022  1.00  0.00     0.085 C 
HETATM   27  O1  UNL     1      -2.963  -1.106   1.218  1.00  0.00    -0.291 OA
ATOM     28  H7  UNL     1      -2.262   1.237  -1.970  1.00  0.00     0.186 HD
ENDBRANCH  19  21
ENDBRANCH  11  19
BRANCH  10  29
HETATM   29  N5  UNL     1      -0.591  -2.908  -0.882  1.00  0.00    -0.382 N 
ATOM     30  H52 UNL     1      -0.113  -3.807  -0.937  1.00  0.00     0.157 HD
ATOM     31  H51 UNL     1      -1.597  -2.744  -0.857  1.00  0.00     0.157 HD
ENDBRANCH  10  29
BRANCH   1  32
HETATM   32  N1  UNL     1       7.275   1.575   0.956  1.00  0.00    -0.380 N 
ATOM     33  H12 UNL     1       8.192   1.134   0.894  1.00  0.00     0.158 HD
ATOM     34  H11 UNL     1       7.493   2.511   1.299  1.00  0.00     0.158 HD
ENDBRANCH   1  32
TORSDOF 4
