REMARK  1 active torsions:
REMARK  status: ('A' for Active; 'I' for Inactive)
REMARK    1  A    between atoms: C7_11  and  N3_12 
ROOT
HETATM    1  N3  UNL     1       2.065   0.288   0.109  1.00  0.00    -0.237 N 
HETATM    2  N4  UNL     1       3.045   0.266   0.990  1.00  0.00    -0.127 N 
ATOM      3  H4  UNL     1       3.287  -0.536   1.572  1.00  0.00     0.206 HD
HETATM    4  C8  UNL     1       3.681   1.453   1.013  1.00  0.00     0.692 A 
HETATM    5  N5  UNL     1       4.687   1.726   1.781  1.00  0.00    -0.233 N 
ATOM      6  H51 UNL     1       5.169   2.625   1.798  1.00  0.00     0.174 HD
ATOM      7  H52 UNL     1       5.154   1.132   2.466  1.00  0.00     0.174 HD
HETATM    8  N6  UNL     1       3.070   2.229   0.117  1.00  0.00    -0.164 N 
ATOM      9  H6  UNL     1       3.309   3.194  -0.111  1.00  0.00     0.186 HD
HETATM   10  C9  UNL     1       2.084   1.506  -0.428  1.00  0.00     0.221 A 
HETATM   11  C10 UNL     1       1.192   1.985  -1.438  1.00  0.00     0.139 C 
HETATM   12  N7  UNL     1       0.486   2.379  -2.266  1.00  0.00    -0.188 NA
ENDROOT
BRANCH   1  13
HETATM   13  C7  UNL     1       1.188  -0.836  -0.156  1.00  0.00     0.212 A 
HETATM   14  C3  UNL     1      -0.224  -0.502   0.017  1.00  0.00     0.087 A 
HETATM   15  C2  UNL     1      -1.176  -0.755  -0.917  1.00  0.00     0.140 A 
HETATM   16  C4  UNL     1      -0.671   0.113   1.195  1.00  0.00     0.263 A 
HETATM   17  N1  UNL     1      -2.490  -0.437  -0.737  1.00  0.00    -0.288 N 
HETATM   18  N9  UNL     1      -0.798  -1.380  -2.144  1.00  0.00    -0.284 N 
HETATM   19  C1  UNL     1      -3.437  -0.744  -1.787  1.00  0.00     0.163 C 
HETATM   20  C6  UNL     1      -2.883   0.148   0.394  1.00  0.00     0.332 A 
HETATM   21  N2  UNL     1      -1.961   0.410   1.336  1.00  0.00    -0.270 N 
HETATM   22  O2  UNL     1      -4.081   0.469   0.626  1.00  0.00    -0.246 OA
HETATM   23  C5  UNL     1      -2.393   1.052   2.578  1.00  0.00     0.164 C 
HETATM   24  N8  UNL     1       0.534  -1.695  -2.310  1.00  0.00    -0.293 N 
ATOM     25  H9  UNL     1      -1.486  -1.585  -2.869  1.00  0.00     0.188 HD
HETATM   26  C11 UNL     1       1.449  -1.469  -1.449  1.00  0.00     0.102 A 
ATOM     27  H8  UNL     1       0.808  -2.141  -3.185  1.00  0.00     0.187 HD
HETATM   28  S1  UNL     1       3.122  -1.962  -1.873  1.00  0.00    -0.034 SA
HETATM   29  O1  UNL     1       0.212   0.347   2.058  1.00  0.00    -0.267 OA
ENDBRANCH   1  13
TORSDOF 1
