REMARK  3 active torsions:
REMARK  status: ('A' for Active; 'I' for Inactive)
REMARK    1  A    between atoms: C2_3  and  N2_4 
REMARK    2  A    between atoms: C5_14  and  C6_15 
REMARK    3  A    between atoms: N6_21  and  N7_22 
ROOT
HETATM    1  C1  UNL     1      -3.854   0.481  -1.542  1.00  0.00     0.179 C 
HETATM    2  N1  UNL     1      -2.818   0.208  -0.556  1.00  0.00    -0.150 N 
HETATM    3  C2  UNL     1      -3.190  -0.083   0.688  1.00  0.00     0.681 A 
HETATM    4  N3  UNL     1      -2.245  -0.336   1.604  1.00  0.00    -0.184 N 
ATOM      5  H3  UNL     1      -2.511  -0.562   2.562  1.00  0.00     0.184 HD
HETATM    6  C3  UNL     1      -0.926  -0.291   1.254  1.00  0.00     0.149 A 
HETATM    7  C4  UNL     1       0.048  -0.550   2.191  1.00  0.00     0.277 A 
HETATM    8  O1  UNL     1      -0.310  -0.824   3.361  1.00  0.00    -0.266 OA
HETATM    9  N4  UNL     1       1.337  -0.494   1.797  1.00  0.00    -0.304 N 
ATOM     10  H4  UNL     1       2.065  -0.684   2.485  1.00  0.00     0.171 HD
HETATM   11  C5  UNL     1       1.704  -0.200   0.544  1.00  0.00     0.156 A 
HETATM   12  N8  UNL     1       0.771   0.059  -0.403  1.00  0.00    -0.333 N 
ATOM     13  H8  UNL     1       1.039   0.283  -1.361  1.00  0.00     0.168 HD
HETATM   14  C8  UNL     1      -0.520   0.010  -0.034  1.00  0.00     0.136 A 
HETATM   15  C9  UNL     1      -1.539   0.266  -0.957  1.00  0.00     0.290 A 
HETATM   16  O2  UNL     1      -1.210   0.541  -2.125  1.00  0.00    -0.265 OA
ENDROOT
BRANCH  11  17
HETATM   17  C6  UNL     1       3.161  -0.169   0.230  1.00  0.00     0.179 A 
HETATM   18  N5  UNL     1       4.063  -0.428   1.180  1.00  0.00    -0.305 N 
HETATM   19  S1  UNL     1       5.534  -0.281   0.387  1.00  0.00     0.019 SA
ATOM     20  H5  UNL     1       3.897  -0.661   2.159  1.00  0.00     0.176 HD
HETATM   21  C7  UNL     1       4.937   0.113  -1.151  1.00  0.00     0.181 A 
HETATM   22  S2  UNL     1       5.792   0.423  -2.536  1.00  0.00    -0.049 SA
HETATM   23  N6  UNL     1       3.614   0.110  -0.973  1.00  0.00    -0.223 N 
BRANCH  23  24
HETATM   24  N7  UNL     1       2.767   0.410  -2.096  1.00  0.00    -0.335 N 
ATOM     25  H72 UNL     1       1.756   0.408  -1.960  1.00  0.00     0.177 HD
ATOM     26  H71 UNL     1       3.118   0.626  -3.029  1.00  0.00     0.177 HD
ENDBRANCH  23  24
ENDBRANCH  11  17
BRANCH   3  27
HETATM   27  N2  UNL     1      -4.445  -0.131   1.044  1.00  0.00    -0.234 N 
ATOM     28  H22 UNL     1      -5.164   0.062   0.347  1.00  0.00     0.174 HD
ATOM     29  H21 UNL     1      -4.730  -0.354   1.998  1.00  0.00     0.174 HD
ENDBRANCH   3  27
TORSDOF 3
