REMARK  6 active torsions:
REMARK  status: ('A' for Active; 'I' for Inactive)
REMARK    1  A    between atoms: N1_2  and  C2_5 
REMARK    2  A    between atoms: C2_5  and  O1_7 
REMARK    3  A    between atoms: C2_5  and  C4_9 
REMARK    4  A    between atoms: C5_10  and  C6_11 
REMARK    5  A    between atoms: C8_16  and  N3_17 
REMARK    6  A    between atoms: C9_22  and  N5_23 
ROOT
HETATM    1  C6  UNL     1       0.088   0.806   0.317  1.00  0.00     0.067 A 
HETATM    2  S1  UNL     1       0.917   2.284   0.270  1.00  0.00    -0.061 SA
HETATM    3  C7  UNL     1       2.503   1.670  -0.009  1.00  0.00     0.106 A 
HETATM    4  N2  UNL     1       3.675   2.319  -0.152  1.00  0.00    -0.185 N 
ATOM      5  H2  UNL     1       3.710   3.337  -0.102  1.00  0.00     0.185 HD
HETATM    6  C8  UNL     1       4.809   1.603  -0.363  1.00  0.00     0.678 A 
HETATM    7  N4  UNL     1       4.688   0.313  -0.415  1.00  0.00    -0.172 N 
ATOM      8  H4  UNL     1       5.538  -0.227  -0.574  1.00  0.00     0.186 HD
HETATM    9  C9  UNL     1       3.519  -0.390  -0.275  1.00  0.00     0.176 A 
HETATM   10  C10 UNL     1       2.336   0.306  -0.058  1.00  0.00     0.054 A 
HETATM   11  C11 UNL     1       1.074  -0.139   0.112  1.00  0.00    -0.019 A 
HETATM   12  C12 UNL     1       0.646  -1.582   0.092  1.00  0.00     0.051 C 
ENDROOT
BRANCH   1  13
HETATM   13  C5  UNL     1      -1.328   0.612   0.527  1.00  0.00    -0.054 C 
HETATM   14  C4  UNL     1      -2.517   0.458   0.723  1.00  0.00    -0.033 C 
BRANCH  14  15
HETATM   15  C2  UNL     1      -3.943   0.251   0.972  1.00  0.00     0.285 C 
HETATM   16  C3  UNL     1      -4.276  -1.155   0.583  1.00  0.00     0.094 C 
BRANCH  15  17
HETATM   17  N1  UNL     1      -4.755   1.233   0.295  1.00  0.00    -0.036 N 
HETATM   18  C1  UNL     1      -4.591   1.238  -1.128  1.00  0.00     0.271 C 
ATOM     19  H12 UNL     1      -4.588   2.163   0.679  1.00  0.00     0.281 HD
ATOM     20  H11 UNL     1      -5.738   1.119   0.543  1.00  0.00     0.281 HD
ENDBRANCH  15  17
BRANCH  15  21
HETATM   21  O1  UNL     1      -4.231   0.377   2.348  1.00  0.00    -0.356 OA
ATOM     22  H1  UNL     1      -3.696  -0.270   2.794  1.00  0.00     0.213 HD
ENDBRANCH  15  21
ENDBRANCH  14  15
ENDBRANCH   1  13
BRANCH   9  23
HETATM   23  N5  UNL     1       3.650  -1.808  -0.364  1.00  0.00    -0.153 N 
HETATM   24  N6  UNL     1       3.650  -2.633   0.644  1.00  0.00    -0.204 N 
HETATM   25  N7  UNL     1       3.838  -3.875   0.232  1.00  0.00     0.010 NA
ATOM     26  H6  UNL     1       3.522  -2.358   1.618  1.00  0.00     0.207 HD
HETATM   27  N8  UNL     1       3.958  -3.810  -1.081  1.00  0.00     0.010 NA
HETATM   28  N9  UNL     1       3.841  -2.525  -1.449  1.00  0.00    -0.204 N 
ATOM     29  H9  UNL     1       3.891  -2.167  -2.403  1.00  0.00     0.207 HD
ENDBRANCH   9  23
BRANCH   6  30
HETATM   30  N3  UNL     1       5.944   2.223  -0.503  1.00  0.00    -0.234 N 
ATOM     31  H32 UNL     1       6.039   3.238  -0.462  1.00  0.00     0.174 HD
ATOM     32  H31 UNL     1       6.796   1.685  -0.662  1.00  0.00     0.174 HD
ENDBRANCH   6  30
TORSDOF 6
