REMARK  5 active torsions:
REMARK  status: ('A' for Active; 'I' for Inactive)
REMARK    1  A    between atoms: C2_2  and  N1_3 
REMARK    2  A    between atoms: N1_3  and  C3_5 
REMARK    3  A    between atoms: C4_8  and  N3_9 
REMARK       I    between atoms: N3_9  and  C5_11 
REMARK    4  A    between atoms: C7_19  and  N8_20 
REMARK    5  A    between atoms: N8_20  and  C8_22 
ROOT
HETATM    1  N3  UNL     1       1.998  -2.281   1.058  1.00  0.00    -0.162 N 
ATOM      2  H3  UNL     1       1.573  -3.160   1.355  1.00  0.00     0.187 HD
HETATM    3  C5  UNL     1       3.392  -2.188   1.140  1.00  0.00     0.215 C 
HETATM    4  N4  UNL     1       3.977  -1.453   2.189  1.00  0.00    -0.062 NA
HETATM    5  N5  UNL     1       4.131  -2.759   0.277  1.00  0.00    -0.267 N 
ATOM      6  H5  UNL     1       5.146  -2.684   0.345  1.00  0.00     0.180 HD
HETATM    7  C6  UNL     1       3.553  -3.489  -0.765  1.00  0.00     0.184 C 
HETATM    8  N6  UNL     1       3.050  -4.106  -1.632  1.00  0.00    -0.172 NA
ENDROOT
BRANCH   1   9
HETATM    9  C4  UNL     1       1.212  -1.367   0.646  1.00  0.00     0.713 A 
HETATM   10  N2  UNL     1       1.625  -0.165   0.225  1.00  0.00    -0.021 N 
HETATM   11  C3  UNL     1       0.749   0.761  -0.200  1.00  0.00     0.707 A 
ATOM     12  H2  UNL     1       2.622   0.052   0.227  1.00  0.00     0.203 HD
HETATM   13  N9  UNL     1      -0.586   0.470  -0.201  1.00  0.00    -0.021 N 
HETATM   14  C7  UNL     1      -1.047  -0.722   0.212  1.00  0.00     0.707 A 
ATOM     15  H9  UNL     1      -1.249   1.175  -0.523  1.00  0.00     0.203 HD
HETATM   16  N7  UNL     1      -0.097  -1.615   0.630  1.00  0.00    -0.021 N 
ATOM     17  H7  UNL     1      -0.412  -2.531   0.950  1.00  0.00     0.203 HD
BRANCH  11  18
HETATM   18  N1  UNL     1       1.137   1.929  -0.610  1.00  0.00    -0.225 N 
ATOM     19  H1  UNL     1       0.463   2.624  -0.930  1.00  0.00     0.177 HD
BRANCH  18  20
HETATM   20  C2  UNL     1       2.553   2.215  -0.600  1.00  0.00     0.133 C 
HETATM   21  C1  UNL     1       2.839   3.615  -1.044  1.00  0.00     0.027 C 
ENDBRANCH  18  20
ENDBRANCH  11  18
BRANCH  14  22
HETATM   22  N8  UNL     1      -2.284  -1.053   0.234  1.00  0.00    -0.217 N 
ATOM     23  H8  UNL     1      -2.495  -1.992   0.572  1.00  0.00     0.178 HD
BRANCH  22  24
HETATM   24  C8  UNL     1      -3.401  -0.258  -0.161  1.00  0.00     0.036 C 
HETATM   25  C9  UNL     1      -3.489   0.957   0.749  1.00  0.00     0.038 C 
HETATM   26  C10 UNL     1      -3.333   0.118  -1.625  1.00  0.00     0.038 C 
HETATM   27  C11 UNL     1      -4.711  -1.059  -0.020  1.00  0.00     0.038 C 
ENDBRANCH  22  24
ENDBRANCH  14  22
ENDBRANCH   1   9
TORSDOF 5
