REMARK  6 active torsions:
REMARK  status: ('A' for Active; 'I' for Inactive)
REMARK    1  A    between atoms: N1_2  and  C2_4 
REMARK    2  A    between atoms: C3_7  and  N3_8 
REMARK    3  A    between atoms: N3_8  and  C4_10 
REMARK    4  A    between atoms: C4_10  and  C5_11 
REMARK    5  A    between atoms: C5_11  and  N4_12 
REMARK    6  A    between atoms: C11_25  and  N7_26 
ROOT
HETATM    1  C2  UNL     1      -0.199  -1.551   0.054  1.00  0.00     0.133 A 
HETATM    2  N2  UNL     1       1.137  -1.624   0.193  1.00  0.00    -0.176 N 
ATOM      3  H2  UNL     1       1.571  -2.539   0.313  1.00  0.00     0.186 HD
HETATM    4  C3  UNL     1       1.918  -0.530   0.179  1.00  0.00     0.681 A 
HETATM    5  N5  UNL     1       1.323   0.663   0.020  1.00  0.00    -0.176 N 
ATOM      6  H5  UNL     1       1.901   1.503   0.008  1.00  0.00     0.186 HD
HETATM    7  C6  UNL     1      -0.023   0.791  -0.126  1.00  0.00     0.137 A 
HETATM    8  N6  UNL     1      -0.589   2.010  -0.285  1.00  0.00    -0.344 N 
ATOM      9  H6  UNL     1       0.001   2.842  -0.296  1.00  0.00     0.167 HD
HETATM   10  C7  UNL     1      -1.918   2.138  -0.428  1.00  0.00     0.015 A 
HETATM   11  C8  UNL     1      -2.479   3.494  -0.599  1.00  0.00     0.069 C 
HETATM   12  C9  UNL     1      -2.737   0.998  -0.414  1.00  0.00    -0.012 A 
HETATM   13  C10 UNL     1      -4.153   1.171  -0.570  1.00  0.00     0.052 C 
HETATM   14  C11 UNL     1      -2.206  -0.254  -0.256  1.00  0.00     0.053 A 
HETATM   15  C13 UNL     1      -0.822  -0.330  -0.111  1.00  0.00     0.080 A 
ENDROOT
BRANCH   4  16
HETATM   16  N3  UNL     1       3.208  -0.654   0.319  1.00  0.00    -0.224 N 
ATOM     17  H3  UNL     1       3.618  -1.580   0.439  1.00  0.00     0.177 HD
BRANCH  16  18
HETATM   18  C4  UNL     1       4.061   0.511   0.306  1.00  0.00     0.165 C 
BRANCH  18  19
HETATM   19  C5  UNL     1       5.501  -0.007   0.324  1.00  0.00     0.249 C 
BRANCH  19  20
HETATM   20  N4  UNL     1       6.350   1.169   0.311  1.00  0.00    -0.078 N 
ATOM     21  H43 UNL     1       6.155   1.803  -0.464  1.00  0.00     0.274 HD
ATOM     22  H42 UNL     1       6.145   1.827   1.063  1.00  0.00     0.274 HD
ATOM     23  H41 UNL     1       7.310   0.824   0.323  1.00  0.00     0.274 HD
ENDBRANCH  19  20
ENDBRANCH  18  19
ENDBRANCH  16  18
ENDBRANCH   4  16
BRANCH   1  24
HETATM   24  N1  UNL     1      -0.931  -2.588   0.068  1.00  0.00    -0.379 N 
HETATM   25  C1  UNL     1      -0.493  -3.941   0.225  1.00  0.00     0.147 C 
ATOM     26  H1  UNL     1      -1.934  -2.442  -0.044  1.00  0.00     0.160 HD
ENDBRANCH   1  24
BRANCH  14  27
HETATM   27  N7  UNL     1      -2.873  -1.271  -0.238  1.00  0.00    -0.393 N 
HETATM   28  C12 UNL     1      -4.130  -1.815  -0.320  1.00  0.00     0.146 C 
ATOM     29  H7  UNL     1      -2.224  -2.047  -0.106  1.00  0.00     0.159 HD
ENDBRANCH  14  27
TORSDOF 6
