REMARK  3 active torsions:
REMARK  status: ('A' for Active; 'I' for Inactive)
REMARK    1  A    between atoms: C3_3  and  S1_4 
REMARK    2  A    between atoms: S1_4  and  C4_6 
REMARK    3  A    between atoms: N2_12  and  N3_14 
ROOT
HETATM    1  C1  UNL     1      -6.231   1.429  -0.544  1.00  0.00     0.013 C 
HETATM    2  C2  UNL     1      -5.135   0.911  -0.665  1.00  0.00    -0.104 C 
HETATM    3  C3  UNL     1      -3.825   0.269  -0.825  1.00  0.00     0.207 C 
ENDROOT
BRANCH   3   4
HETATM    4  S1  UNL     1      -2.717   0.963   0.294  1.00  0.00     0.061 S 
HETATM    5  O1  UNL     1      -2.576   2.612  -0.000  1.00  0.00    -0.252 OA
BRANCH   4   6
HETATM    6  C4  UNL     1      -1.190   0.282   0.506  1.00  0.00     0.040 A 
HETATM    7  C5  UNL     1      -0.161   0.743  -0.299  1.00  0.00     0.053 A 
HETATM    8  C6  UNL     1       1.126   0.269  -0.223  1.00  0.00     0.062 A 
HETATM    9  N1  UNL     1       2.108   0.747  -1.031  1.00  0.00    -0.335 N 
HETATM   10  C9  UNL     1       1.386  -0.715   0.708  1.00  0.00     0.062 A 
HETATM   11  C7  UNL     1       3.366   0.279  -0.951  1.00  0.00     0.189 A 
ATOM     12  H1  UNL     1       1.887   1.474  -1.711  1.00  0.00     0.168 HD
HETATM   13  N2  UNL     1       4.254   0.768  -1.741  1.00  0.00    -0.287 N 
HETATM   14  C8  UNL     1       3.617  -0.703  -0.019  1.00  0.00     0.291 A 
ATOM     15  H2  UNL     1       3.945   1.493  -2.389  1.00  0.00     0.188 HD
HETATM   16  O2  UNL     1       4.799  -1.142   0.054  1.00  0.00    -0.264 OA
HETATM   17  N4  UNL     1       2.641  -1.191   0.797  1.00  0.00    -0.318 N 
ATOM     18  H4  UNL     1       2.862  -1.919   1.477  1.00  0.00     0.169 HD
HETATM   19  C10 UNL     1       0.364  -1.182   1.518  1.00  0.00     0.040 A 
HETATM   20  C11 UNL     1      -0.925  -0.698   1.432  1.00  0.00    -0.041 A 
HETATM   21  C12 UNL     1      -2.035  -1.162   2.267  1.00  0.00     0.049 C 
BRANCH  13  22
HETATM   22  N3  UNL     1       5.573   0.412  -1.798  1.00  0.00    -0.343 N 
ATOM     23  H32 UNL     1       5.864  -0.314  -1.143  1.00  0.00     0.176 HD
ATOM     24  H31 UNL     1       6.278   0.800  -2.425  1.00  0.00     0.176 HD
ENDBRANCH  13  22
ENDBRANCH   4   6
ENDBRANCH   3   4
TORSDOF 3
