REMARK  3 active torsions:
REMARK  status: ('A' for Active; 'I' for Inactive)
REMARK    1  A    between atoms: N2_8  and  N3_10 
REMARK    2  A    between atoms: N5_16  and  C6_18 
REMARK    3  A    between atoms: C6_18  and  C7_19 
ROOT
HETATM    1  C1  UNL     1       2.613   1.822   2.952  1.00  0.00     0.064 C 
HETATM    2  C2  UNL     1       2.511   0.916   2.004  1.00  0.00     0.114 C 
HETATM    3  N1  UNL     1       3.752   0.399   1.485  1.00  0.00    -0.307 N 
ATOM      4  H1  UNL     1       4.579   0.607   2.045  1.00  0.00     0.170 HD
HETATM    5  C3  UNL     1       3.996  -0.371   0.287  1.00  0.00     0.293 C 
HETATM    6  O1  UNL     1       5.195  -0.576   0.036  1.00  0.00    -0.264 OA
HETATM    7  C4  UNL     1       3.059  -0.932  -0.665  1.00  0.00     0.203 C 
HETATM    8  N2  UNL     1       3.451  -1.386  -1.758  1.00  0.00    -0.287 N 
ATOM      9  H2  UNL     1       2.678  -1.744  -2.318  1.00  0.00     0.188 HD
HETATM   10  N4  UNL     1       1.613  -1.012  -0.448  1.00  0.00    -0.170 N 
ATOM     11  H4  UNL     1       1.120  -1.731  -0.977  1.00  0.00     0.186 HD
HETATM   12  C5  UNL     1       0.817  -0.214   0.405  1.00  0.00     0.681 C 
HETATM   13  N5  UNL     1      -0.392  -0.133   0.200  1.00  0.00    -0.222 N 
ATOM     14  H5  UNL     1      -0.891   0.469   0.855  1.00  0.00     0.178 HD
HETATM   15  N6  UNL     1       1.216   0.530   1.579  1.00  0.00    -0.177 N 
ATOM     16  H6  UNL     1       0.453   0.819   2.191  1.00  0.00     0.185 HD
ENDROOT
BRANCH  13  17
HETATM   17  C6  UNL     1      -1.217  -0.732  -0.791  1.00  0.00     0.177 C 
BRANCH  17  18
HETATM   18  C7  UNL     1      -2.497   0.010  -0.894  1.00  0.00    -0.034 A 
HETATM   19  C8  UNL     1      -2.899   0.632  -2.019  1.00  0.00     0.009 A 
HETATM   20  C9  UNL     1      -4.166   1.244  -2.106  1.00  0.00     0.001 A 
HETATM   21  C10 UNL     1      -4.971   1.188  -1.000  1.00  0.00     0.001 A 
HETATM   22  C11 UNL     1      -4.547   0.544   0.171  1.00  0.00     0.007 A 
HETATM   23  C12 UNL     1      -3.319  -0.046   0.238  1.00  0.00    -0.054 A 
HETATM   24  C13 UNL     1      -2.759  -0.721   1.432  1.00  0.00     0.049 C 
ENDBRANCH  17  18
ENDBRANCH  13  17
BRANCH   8  25
HETATM   25  N3  UNL     1       4.629  -1.525  -2.388  1.00  0.00    -0.343 N 
ATOM     26  H32 UNL     1       5.386  -1.160  -1.810  1.00  0.00     0.176 HD
ATOM     27  H31 UNL     1       4.950  -1.896  -3.282  1.00  0.00     0.176 HD
ENDBRANCH   8  25
TORSDOF 3
