REMARK  5 active torsions:
REMARK  status: ('A' for Active; 'I' for Inactive)
REMARK    1  A    between atoms: N2_4  and  N3_5 
REMARK    2  A    between atoms: C4_9  and  N4_10 
REMARK    3  A    between atoms: N4_10  and  C5_11 
REMARK    4  A    between atoms: C5_11  and  C6_12 
REMARK    5  A    between atoms: C12_20  and  N6_21 
ROOT
HETATM    1  C1  UNL     1       5.347   0.072   0.346  1.00  0.00     0.158 C 
HETATM    2  N1  UNL     1       3.958  -0.150  -0.061  1.00  0.00    -0.330 N 
HETATM    3  C2  UNL     1       3.505  -0.849  -1.105  1.00  0.00     0.210 A 
HETATM    4  N2  UNL     1       2.145  -0.796  -1.111  1.00  0.00    -0.250 N 
HETATM    5  C3  UNL     1       1.704  -0.058  -0.066  1.00  0.00     0.160 A 
HETATM    6  C4  UNL     1       0.428   0.298   0.373  1.00  0.00     0.225 A 
HETATM    7  N5  UNL     1       0.432   1.081   1.512  1.00  0.00    -0.162 N 
ATOM      8  H5  UNL     1      -0.461   1.385   1.900  1.00  0.00     0.187 HD
HETATM    9  C12 UNL     1       1.559   1.456   2.126  1.00  0.00     0.680 A 
HETATM   10  N7  UNL     1       2.757   1.089   1.667  1.00  0.00    -0.174 N 
ATOM     11  H7  UNL     1       3.600   1.389   2.156  1.00  0.00     0.186 HD
HETATM   12  C13 UNL     1       2.860   0.333   0.574  1.00  0.00     0.157 A 
ENDROOT
BRANCH   6  13
HETATM   13  N4  UNL     1      -0.611  -0.024  -0.158  1.00  0.00    -0.396 NA
BRANCH  13  14
HETATM   14  C5  UNL     1      -1.496  -0.564  -0.998  1.00  0.00     0.196 C 
BRANCH  14  15
HETATM   15  C6  UNL     1      -2.960  -0.363  -0.657  1.00  0.00    -0.007 A 
HETATM   16  C7  UNL     1      -3.938  -0.880  -1.472  1.00  0.00     0.014 A 
HETATM   17  C8  UNL     1      -5.292  -0.698  -1.164  1.00  0.00     0.001 A 
HETATM   18  C9  UNL     1      -5.683   0.000  -0.042  1.00  0.00     0.000 A 
HETATM   19  C10 UNL     1      -4.696   0.516   0.770  1.00  0.00     0.001 A 
HETATM   20  C11 UNL     1      -3.339   0.332   0.459  1.00  0.00     0.014 A 
ENDBRANCH  14  15
ENDBRANCH  13  14
ENDBRANCH   6  13
BRANCH   4  21
HETATM   21  N3  UNL     1       1.376  -1.422  -2.068  1.00  0.00    -0.337 N 
ATOM     22  H32 UNL     1       1.708  -1.978  -2.856  1.00  0.00     0.177 HD
ATOM     23  H31 UNL     1       0.357  -1.382  -2.072  1.00  0.00     0.177 HD
ENDBRANCH   4  21
BRANCH   9  24
HETATM   24  N6  UNL     1       1.548   2.188   3.190  1.00  0.00    -0.234 N 
ATOM     25  H62 UNL     1       0.632   2.469   3.541  1.00  0.00     0.174 HD
ATOM     26  H61 UNL     1       2.408   2.474   3.658  1.00  0.00     0.174 HD
ENDBRANCH   9  24
TORSDOF 5
