REMARK  4 active torsions:
REMARK  status: ('A' for Active; 'I' for Inactive)
REMARK    1  A    between atoms: C2_3  and  C3_4 
REMARK    2  A    between atoms: C3_4  and  C4_5 
REMARK    3  A    between atoms: C6_10  and  C7_11 
REMARK    4  A    between atoms: C7_11  and  N3_12 
ROOT
HETATM    1  C4  UNL     1       1.652   0.488  -1.241  1.00  0.00     0.109 A 
HETATM    2  N2  UNL     1       2.871   0.414  -1.798  1.00  0.00    -0.308 N 
ATOM      3  H2  UNL     1       3.056   0.497  -2.798  1.00  0.00     0.170 HD
HETATM    4  C5  UNL     1       3.821   0.215  -0.856  1.00  0.00     0.275 A 
HETATM    5  O1  UNL     1       5.070   0.103  -1.071  1.00  0.00    -0.266 OA
HETATM    6  C6  UNL     1       3.154   0.165   0.334  1.00  0.00     0.119 A 
HETATM    7  N5  UNL     1       1.847   0.332   0.076  1.00  0.00    -0.337 N 
ATOM      8  H5  UNL     1       1.109   0.339   0.780  1.00  0.00     0.167 HD
ENDROOT
BRANCH   1   9
HETATM    9  C3  UNL     1       0.503   0.679  -1.892  1.00  0.00     0.062 C 
BRANCH   9  10
HETATM   10  C2  UNL     1      -0.770   0.743  -1.189  1.00  0.00    -0.007 A 
HETATM   11  C1  UNL     1      -1.372  -0.364  -0.633  1.00  0.00     0.067 A 
HETATM   12  N1  UNL     1      -0.707  -1.613  -0.762  1.00  0.00    -0.101 NA
HETATM   13  C15 UNL     1      -2.583  -0.294   0.034  1.00  0.00    -0.001 A 
HETATM   14  C10 UNL     1      -3.221   0.933   0.151  1.00  0.00    -0.024 A 
HETATM   15  C14 UNL     1      -3.197  -1.389   0.594  1.00  0.00     0.014 A 
HETATM   16  C9  UNL     1      -2.635   2.054  -0.398  1.00  0.00     0.013 A 
HETATM   17  C11 UNL     1      -4.428   1.058   0.806  1.00  0.00     0.012 A 
HETATM   18  C8  UNL     1      -1.409   1.961  -1.069  1.00  0.00     0.014 A 
HETATM   19  C12 UNL     1      -5.036  -0.024   1.360  1.00  0.00     0.001 A 
HETATM   20  C13 UNL     1      -4.402  -1.269   1.248  1.00  0.00     0.001 A 
ENDBRANCH   9  10
ENDBRANCH   1   9
BRANCH   6  21
HETATM   21  C7  UNL     1       3.734  -0.018   1.505  1.00  0.00     0.141 C 
BRANCH  21  22
HETATM   22  N3  UNL     1       5.133  -0.182   1.637  1.00  0.00    -0.316 N 
HETATM   23  N4  UNL     1       5.703  -1.298   1.526  1.00  0.00    -0.345 N 
ATOM     24  H42 UNL     1       5.116  -2.110   1.332  1.00  0.00     0.176 HD
ATOM     25  H41 UNL     1       6.712  -1.416   1.621  1.00  0.00     0.176 HD
ATOM     26  H3  UNL     1       5.704   0.640   1.831  1.00  0.00     0.185 HD
ENDBRANCH  21  22
ENDBRANCH   6  21
TORSDOF 4
