REMARK  3 active torsions:
REMARK  status: ('A' for Active; 'I' for Inactive)
REMARK    1  A    between atoms: C3_5  and  C4_6 
REMARK    2  A    between atoms: C10_23  and  C11_24 
REMARK    3  A    between atoms: C11_24  and  N7_25 
ROOT
HETATM    1  C4  UNL     1      -1.764   0.441  -0.225  1.00  0.00     0.077 A 
HETATM    2  C5  UNL     1      -2.235   1.729  -0.290  1.00  0.00     0.036 A 
HETATM    3  C6  UNL     1      -3.603   2.001  -0.321  1.00  0.00     0.036 A 
HETATM    4  C7  UNL     1      -4.451   0.899  -0.281  1.00  0.00     0.078 A 
HETATM    5  N2  UNL     1      -5.795   0.769  -0.293  1.00  0.00    -0.297 N 
ATOM      6  H2  UNL     1      -6.456   1.545  -0.338  1.00  0.00     0.187 HD
HETATM    7  N3  UNL     1      -6.132  -0.509  -0.238  1.00  0.00    -0.283 N 
ATOM      8  H3  UNL     1      -7.090  -0.860  -0.234  1.00  0.00     0.188 HD
HETATM    9  C8  UNL     1      -5.040  -1.274  -0.189  1.00  0.00     0.143 A 
HETATM   10  N4  UNL     1      -5.043  -2.553  -0.130  1.00  0.00    -0.383 N 
ATOM     11  H41 UNL     1      -4.208  -3.138  -0.093  1.00  0.00     0.157 HD
ATOM     12  H42 UNL     1      -5.837  -3.193  -0.112  1.00  0.00     0.157 HD
HETATM   13  C9  UNL     1      -3.967  -0.409  -0.214  1.00  0.00     0.106 A 
HETATM   14  N5  UNL     1      -2.647  -0.571  -0.190  1.00  0.00    -0.348 N 
ATOM     15  H5  UNL     1      -2.283  -1.522  -0.142  1.00  0.00     0.166 HD
ENDROOT
BRANCH   1  16
HETATM   16  C3  UNL     1      -0.310   0.185  -0.194  1.00  0.00     0.133 A 
HETATM   17  N1  UNL     1       0.245  -1.024  -0.131  1.00  0.00    -0.339 N 
HETATM   18  C2  UNL     1       1.624  -0.937  -0.117  1.00  0.00     0.052 A 
ATOM     19  H1  UNL     1      -0.279  -1.899  -0.098  1.00  0.00     0.167 HD
HETATM   20  C1  UNL     1       2.419  -1.985  -0.058  1.00  0.00     0.045 C 
HETATM   21  C10 UNL     1       1.901   0.402  -0.175  1.00  0.00     0.075 A 
HETATM   22  N6  UNL     1       0.682   1.052  -0.221  1.00  0.00    -0.338 N 
ATOM     23  H6  UNL     1       0.566   2.064  -0.269  1.00  0.00     0.167 HD
BRANCH  21  24
HETATM   24  C11 UNL     1       3.060   1.018  -0.188  1.00  0.00     0.116 C 
BRANCH  24  25
HETATM   25  N7  UNL     1       4.357   0.523  -0.148  1.00  0.00    -0.397 N 
HETATM   26  C12 UNL     1       5.163   0.189  -1.316  1.00  0.00     0.148 C 
HETATM   27  C13 UNL     1       5.006   0.355   1.160  1.00  0.00     0.148 C 
ENDBRANCH  24  25
ENDBRANCH  21  24
ENDBRANCH   1  16
TORSDOF 3
