REMARK  5 active torsions:
REMARK  status: ('A' for Active; 'I' for Inactive)
REMARK    1  A    between atoms: N1_1  and  C1_4 
REMARK    2  A    between atoms: C2_10  and  C3_11 
REMARK    3  A    between atoms: C3_11  and  C4_12 
REMARK    4  A    between atoms: C6_17  and  C7_18 
REMARK    5  A    between atoms: C7_18  and  C8_19 
ROOT
HETATM    1  C4  UNL     1      -1.553  -0.090   1.143  1.00  0.00     0.110 A 
HETATM    2  N4  UNL     1      -1.229  -0.145  -0.182  1.00  0.00    -0.308 N 
ATOM      3  H4  UNL     1      -1.900  -0.208  -0.948  1.00  0.00     0.170 HD
HETATM    4  C5  UNL     1       0.105  -0.103  -0.326  1.00  0.00     0.273 A 
HETATM    5  O2  UNL     1       0.768  -0.132  -1.397  1.00  0.00    -0.266 OA
HETATM    6  C6  UNL     1       0.608  -0.018   0.976  1.00  0.00     0.103 A 
HETATM    7  N5  UNL     1      -0.414  -0.012   1.849  1.00  0.00    -0.338 N 
ATOM      8  H5  UNL     1      -0.338   0.042   2.865  1.00  0.00     0.167 HD
ENDROOT
BRANCH   1   9
HETATM    9  C3  UNL     1      -2.778  -0.111   1.636  1.00  0.00     0.084 C 
BRANCH   9  10
HETATM   10  C2  UNL     1      -3.963  -0.197   0.799  1.00  0.00     0.105 A 
HETATM   11  C1  UNL     1      -4.474   0.778  -0.031  1.00  0.00     0.150 A 
HETATM   12  N2  UNL     1      -5.580   0.297  -0.628  1.00  0.00    -0.224 N 
HETATM   13  O1  UNL     1      -5.754  -0.924  -0.193  1.00  0.00    -0.155 OA
ATOM     14  H2  UNL     1      -6.172   0.792  -1.295  1.00  0.00     0.198 HD
HETATM   15  N3  UNL     1      -4.821  -1.247   0.648  1.00  0.00    -0.238 N 
ATOM     16  H3  UNL     1      -4.741  -2.146   1.123  1.00  0.00     0.197 HD
BRANCH  11  17
HETATM   17  N1  UNL     1      -3.943   1.950  -0.179  1.00  0.00    -0.382 N 
ATOM     18  H12 UNL     1      -4.321   2.671  -0.793  1.00  0.00     0.157 HD
ATOM     19  H11 UNL     1      -3.105   2.315   0.273  1.00  0.00     0.157 HD
ENDBRANCH  11  17
ENDBRANCH   9  10
ENDBRANCH   1   9
BRANCH   6  20
HETATM   20  C7  UNL     1       1.892   0.044   1.260  1.00  0.00     0.046 C 
BRANCH  20  21
HETATM   21  C8  UNL     1       2.910   0.029   0.228  1.00  0.00    -0.034 A 
HETATM   22  C9  UNL     1       3.433  -1.183  -0.204  1.00  0.00     0.011 A 
HETATM   23  C10 UNL     1       4.409  -1.230  -1.190  1.00  0.00     0.001 A 
HETATM   24  C11 UNL     1       4.876  -0.069  -1.757  1.00  0.00     0.000 A 
HETATM   25  C12 UNL     1       4.374   1.161  -1.346  1.00  0.00     0.001 A 
HETATM   26  C13 UNL     1       3.399   1.178  -0.359  1.00  0.00     0.011 A 
ENDBRANCH  20  21
ENDBRANCH   6  20
TORSDOF 5
