REMARK  7 active torsions:
REMARK  status: ('A' for Active; 'I' for Inactive)
REMARK    1  A    between atoms: C2_2  and  C4_4 
REMARK    2  A    between atoms: C4_4  and  N1_5 
REMARK    3  A    between atoms: C4_4  and  C5_9 
REMARK    4  A    between atoms: C6_12  and  C7_13 
REMARK    5  A    between atoms: C8_14  and  C9_15 
REMARK    6  A    between atoms: C13_21  and  O1_22 
REMARK    7  A    between atoms: C14_24  and  O2_25 
ROOT
HETATM    1  C5  UNL     1      -1.789  -0.659  -0.260  1.00  0.00     0.144 C 
HETATM    2  N2  UNL     1      -0.547   0.026  -0.024  1.00  0.00    -0.375 N 
ATOM      3  H2  UNL     1      -0.474   1.002   0.264  1.00  0.00     0.160 HD
HETATM    4  C6  UNL     1       0.459  -0.749  -0.223  1.00  0.00     0.092 C 
HETATM    5  C13 UNL     1      -0.024  -2.118  -0.634  1.00  0.00     0.207 C 
HETATM    6  C14 UNL     1      -1.411  -2.103  -0.025  1.00  0.00     0.178 C 
ENDROOT
BRANCH   1   7
HETATM    7  C4  UNL     1      -2.897  -0.205   0.646  1.00  0.00     0.212 C 
BRANCH   7   8
HETATM    8  C2  UNL     1      -3.208   1.254   0.504  1.00  0.00     0.010 C 
HETATM    9  C1  UNL     1      -3.633   1.618  -0.905  1.00  0.00     0.011 C 
HETATM   10  C3  UNL     1      -2.093   2.170   0.930  1.00  0.00     0.011 C 
ENDBRANCH   7   8
BRANCH   7  11
HETATM   11  N1  UNL     1      -4.138  -0.918   0.299  1.00  0.00    -0.073 N 
ATOM     12  H13 UNL     1      -4.946  -0.619   0.845  1.00  0.00     0.274 HD
ATOM     13  H12 UNL     1      -4.509  -0.668  -0.618  1.00  0.00     0.274 HD
ATOM     14  H11 UNL     1      -3.926  -1.911   0.396  1.00  0.00     0.274 HD
ENDBRANCH   7  11
ENDBRANCH   1   7
BRANCH   6  15
HETATM   15  O2  UNL     1      -1.284  -2.397   1.312  1.00  0.00    -0.390 OA
ATOM     16  H2  UNL     1      -1.046  -3.305   1.460  1.00  0.00     0.210 HD
ENDBRANCH   6  15
BRANCH   4  17
HETATM   17  C7  UNL     1       1.838  -0.346  -0.066  1.00  0.00    -0.045 C 
HETATM   18  C8  UNL     1       2.993  -0.025   0.078  1.00  0.00    -0.059 C 
BRANCH  18  19
HETATM   19  C9  UNL     1       4.369   0.331   0.246  1.00  0.00     0.034 A 
HETATM   20  C10 UNL     1       5.490  -0.471   0.238  1.00  0.00     0.039 A 
HETATM   21  C11 UNL     1       6.617   0.296   0.438  1.00  0.00     0.089 A 
HETATM   22  N3  UNL     1       6.207   1.558   0.570  1.00  0.00    -0.374 N 
HETATM   23  C12 UNL     1       4.852   1.604   0.457  1.00  0.00     0.108 A 
ATOM     24  H3  UNL     1       6.814   2.362   0.730  1.00  0.00     0.164 HD
ENDBRANCH  18  19
ENDBRANCH   4  17
BRANCH   5  25
HETATM   25  O1  UNL     1       0.777  -3.119  -0.145  1.00  0.00    -0.386 OA
ATOM     26  H1  UNL     1       0.473  -3.981  -0.404  1.00  0.00     0.210 HD
ENDBRANCH   5  25
TORSDOF 7
