REMARK  6 active torsions:
REMARK  status: ('A' for Active; 'I' for Inactive)
REMARK    1  A    between atoms: O1_1  and  C1_3 
REMARK    2  A    between atoms: C1_3  and  C2_4 
REMARK    3  A    between atoms: C3_6  and  N1_7 
REMARK    4  A    between atoms: C7_11  and  C8_12 
REMARK    5  A    between atoms: C13_19  and  O3_20 
REMARK    6  A    between atoms: C14_22  and  O4_23 
ROOT
HETATM    1  C2  UNL     1      -2.792   1.176  -0.100  1.00  0.00     0.179 C 
HETATM    2  O2  UNL     1      -1.719   0.683   0.638  1.00  0.00    -0.354 OA
HETATM    3  C3  UNL     1      -1.485  -0.593   0.139  1.00  0.00     0.259 C 
HETATM    4  C13 UNL     1      -1.774  -0.541  -1.347  1.00  0.00     0.198 C 
HETATM    5  C14 UNL     1      -2.394   0.818  -1.506  1.00  0.00     0.182 C 
ENDROOT
BRANCH   3   6
HETATM    6  N1  UNL     1      -0.114  -1.006   0.307  1.00  0.00    -0.336 N 
HETATM    7  C4  UNL     1       0.116  -2.320   0.485  1.00  0.00     0.093 A 
HETATM    8  C5  UNL     1       1.385  -2.840   0.657  1.00  0.00     0.018 A 
HETATM    9  C6  UNL     1       2.426  -1.925   0.637  1.00  0.00     0.016 A 
HETATM   10  C7  UNL     1       2.228  -0.572   0.457  1.00  0.00     0.006 A 
HETATM   11  C12 UNL     1       0.923  -0.154   0.294  1.00  0.00     0.107 A 
BRANCH  10  12
HETATM   12  C8  UNL     1       3.339   0.373   0.440  1.00  0.00     0.043 A 
HETATM   13  C9  UNL     1       3.268   1.730   0.271  1.00  0.00     0.031 A 
HETATM   14  C10 UNL     1       4.544   2.285   0.314  1.00  0.00     0.019 A 
HETATM   15  C11 UNL     1       5.385   1.197   0.517  1.00  0.00     0.088 A 
HETATM   16  N2  UNL     1       4.641   0.073   0.588  1.00  0.00    -0.365 N 
ATOM     17  H2  UNL     1       5.012  -0.866   0.733  1.00  0.00     0.165 HD
ENDBRANCH  10  12
ENDBRANCH   3   6
BRANCH   4  18
HETATM   18  O3  UNL     1      -2.627  -1.538  -1.767  1.00  0.00    -0.388 OA
ATOM     19  H3  UNL     1      -2.808  -1.505  -2.699  1.00  0.00     0.210 HD
ENDBRANCH   4  18
BRANCH   1  20
HETATM   20  C1  UNL     1      -4.096   0.536   0.321  1.00  0.00     0.198 C 
BRANCH  20  21
HETATM   21  O1  UNL     1      -4.315   0.806   1.652  1.00  0.00    -0.398 OA
ATOM     22  H1  UNL     1      -5.134   0.404   1.916  1.00  0.00     0.209 HD
ENDBRANCH  20  21
ENDBRANCH   1  20
BRANCH   5  23
HETATM   23  O4  UNL     1      -3.418   0.871  -2.413  1.00  0.00    -0.390 OA
ATOM     24  H4  UNL     1      -3.167   0.645  -3.301  1.00  0.00     0.210 HD
ENDBRANCH   5  23
TORSDOF 6
