REMARK  6 active torsions:
REMARK  status: ('A' for Active; 'I' for Inactive)
REMARK    1  A    between atoms: C2_2  and  N1_3 
REMARK    2  A    between atoms: N1_3  and  C3_5 
REMARK    3  A    between atoms: C4_8  and  N3_9 
REMARK    4  A    between atoms: N3_9  and  N4_11 
REMARK    5  A    between atoms: C5_16  and  N6_17 
REMARK    6  A    between atoms: N6_17  and  C6_19 
ROOT
HETATM    1  C3  UNL     1       1.935   0.484  -0.007  1.00  0.00     0.707 A 
HETATM    2  N2  UNL     1       2.879  -0.229   0.639  1.00  0.00    -0.020 N 
ATOM      3  H2  UNL     1       3.857   0.060   0.604  1.00  0.00     0.203 HD
HETATM    4  C4  UNL     1       2.521  -1.318   1.326  1.00  0.00     0.725 A 
HETATM    5  N5  UNL     1       1.237  -1.705   1.377  1.00  0.00    -0.020 N 
ATOM      6  H5  UNL     1       0.991  -2.540   1.908  1.00  0.00     0.203 HD
HETATM    7  C5  UNL     1       0.267  -1.020   0.746  1.00  0.00     0.711 A 
HETATM    8  N7  UNL     1       0.648   0.072   0.061  1.00  0.00    -0.021 N 
ATOM      9  H7  UNL     1      -0.064   0.614  -0.429  1.00  0.00     0.203 HD
ENDROOT
BRANCH   7  10
HETATM   10  N6  UNL     1      -0.947  -1.435   0.828  1.00  0.00    -0.190 N 
ATOM     11  H6  UNL     1      -1.137  -2.276   1.373  1.00  0.00     0.184 HD
BRANCH  10  12
HETATM   12  C6  UNL     1      -2.038  -0.778   0.196  1.00  0.00     0.055 A 
HETATM   13  C7  UNL     1      -2.510   0.431   0.661  1.00  0.00     0.037 A 
HETATM   14  C8  UNL     1      -3.570   1.055   0.036  1.00  0.00    -0.060 A 
HETATM   15  C9  UNL     1      -4.127   2.356   0.486  1.00  0.00     0.048 C 
HETATM   16  C10 UNL     1      -4.150   0.451  -1.062  1.00  0.00     0.007 A 
HETATM   17  C11 UNL     1      -3.665  -0.758  -1.514  1.00  0.00     0.009 A 
HETATM   18  C12 UNL     1      -2.607  -1.393  -0.899  1.00  0.00    -0.035 A 
HETATM   19  C13 UNL     1      -2.114  -2.700  -1.421  1.00  0.00     0.050 C 
ENDBRANCH  10  12
ENDBRANCH   7  10
BRANCH   4  20
HETATM   20  N3  UNL     1       3.395  -2.017   1.950  1.00  0.00    -0.138 N 
ATOM     21  H3  UNL     1       4.377  -1.742   1.925  1.00  0.00     0.205 HD
BRANCH  20  22
HETATM   22  N4  UNL     1       3.011  -3.149   2.662  1.00  0.00    -0.331 N 
ATOM     23  H42 UNL     1       2.025  -3.410   2.677  1.00  0.00     0.177 HD
ATOM     24  H41 UNL     1       3.707  -3.705   3.159  1.00  0.00     0.177 HD
ENDBRANCH  20  22
ENDBRANCH   4  20
BRANCH   1  25
HETATM   25  N1  UNL     1       2.266   1.536  -0.672  1.00  0.00    -0.225 N 
ATOM     26  H1  UNL     1       1.550   2.074  -1.160  1.00  0.00     0.177 HD
BRANCH  25  27
HETATM   27  C2  UNL     1       3.638   1.956  -0.731  1.00  0.00     0.133 C 
HETATM   28  C1  UNL     1       3.757   3.285  -1.452  1.00  0.00     0.027 C 
ENDBRANCH  25  27
ENDBRANCH   1  25
TORSDOF 6
