REMARK  7 active torsions:
REMARK  status: ('A' for Active; 'I' for Inactive)
REMARK    1  A    between atoms: C6_6  and  C7_7 
REMARK    2  A    between atoms: C8_8  and  C9_9 
REMARK    3  A    between atoms: C10_11  and  C11_12 
REMARK    4  A    between atoms: C11_12  and  O2_13 
REMARK    5  A    between atoms: C12_15  and  O3_16 
REMARK    6  A    between atoms: C13_18  and  C14_19 
REMARK    7  A    between atoms: C14_19  and  O4_20 
ROOT
HETATM    1  C9  UNL     1      -1.441   0.569  -0.168  1.00  0.00     0.209 C 
HETATM    2  O1  UNL     1      -1.952   0.092  -1.360  1.00  0.00    -0.363 OA
HETATM    3  C10 UNL     1      -3.289  -0.134  -1.050  1.00  0.00     0.176 C 
HETATM    4  C12 UNL     1      -3.361  -0.636   0.370  1.00  0.00     0.158 C 
HETATM    5  C13 UNL     1      -1.906  -0.448   0.824  1.00  0.00     0.081 C 
ENDROOT
BRANCH   1   6
HETATM    6  C8  UNL     1       0.034   0.576  -0.168  1.00  0.00    -0.067 C 
HETATM    7  C7  UNL     1       1.240   0.601  -0.178  1.00  0.00    -0.046 C 
BRANCH   7   8
HETATM    8  C6  UNL     1       2.694   0.636  -0.165  1.00  0.00     0.087 A 
HETATM    9  C5  UNL     1       3.366   1.663  -0.643  1.00  0.00     0.039 A 
HETATM   10  C4  UNL     1       4.821   1.748  -0.654  1.00  0.00     0.005 A 
HETATM   11  C3  UNL     1       5.482   0.718  -0.147  1.00  0.00     0.029 A 
HETATM   12  C2  UNL     1       4.799  -0.438   0.392  1.00  0.00     0.023 A 
HETATM   13  C1  UNL     1       5.444  -1.459   0.894  1.00  0.00     0.043 C 
HETATM   14  N1  UNL     1       3.363  -0.469   0.378  1.00  0.00    -0.350 N 
ATOM     15  H1  UNL     1       2.848  -1.267   0.750  1.00  0.00     0.166 HD
ENDBRANCH   7   8
ENDBRANCH   1   6
BRANCH   5  16
HETATM   16  C14 UNL     1      -1.135  -1.742   0.576  1.00  0.00     0.174 C 
BRANCH  16  17
HETATM   17  O4  UNL     1      -1.542  -2.724   1.487  1.00  0.00    -0.400 OA
ATOM     18  H4  UNL     1      -1.062  -3.529   1.333  1.00  0.00     0.209 HD
ENDBRANCH  16  17
ENDBRANCH   5  16
BRANCH   3  19
HETATM   19  C11 UNL     1      -4.043   1.160  -1.254  1.00  0.00     0.198 C 
BRANCH  19  20
HETATM   20  O2  UNL     1      -5.407   0.977  -0.952  1.00  0.00    -0.398 OA
ATOM     21  H2  UNL     1      -5.881   1.790  -1.080  1.00  0.00     0.209 HD
ENDBRANCH  19  20
ENDBRANCH   3  19
BRANCH   4  22
HETATM   22  O3  UNL     1      -4.136   0.242   1.161  1.00  0.00    -0.392 OA
ATOM     23  H3  UNL     1      -4.181  -0.074   2.056  1.00  0.00     0.210 HD
ENDBRANCH   4  22
TORSDOF 7
