REMARK  3 active torsions:
REMARK  status: ('A' for Active; 'I' for Inactive)
REMARK    1  A    between atoms: C2_2  and  C3_3 
REMARK    2  A    between atoms: C3_3  and  C4_4 
REMARK    3  A    between atoms: N2_13  and  N3_15 
ROOT
HETATM    1  C3  UNL     1      -0.278  -0.635  -0.361  1.00  0.00     0.158 C 
HETATM    2  N1  UNL     1      -1.013   0.244   0.549  1.00  0.00    -0.192 N 
ATOM      3  H1  UNL     1      -1.108  -0.073   1.514  1.00  0.00     0.180 HD
HETATM    4  C10 UNL     1      -1.599   1.475   0.233  1.00  0.00     0.705 C 
HETATM    5  N2  UNL     1      -1.544   2.434   1.137  1.00  0.00    -0.138 N 
ATOM      6  H2  UNL     1      -1.068   2.195   2.007  1.00  0.00     0.205 HD
HETATM    7  N4  UNL     1      -2.213   1.647  -1.027  1.00  0.00    -0.098 N 
ATOM      8  H4  UNL     1      -2.736   2.489  -1.267  1.00  0.00     0.199 HD
HETATM    9  S1  UNL     1      -2.017   0.324  -2.143  1.00  0.00     0.335 S 
HETATM   10  O1  UNL     1      -1.927   0.784  -3.563  1.00  0.00    -0.182 OA
HETATM   11  O2  UNL     1      -3.096  -0.684  -2.024  1.00  0.00    -0.182 OA
HETATM   12  N5  UNL     1      -0.464  -0.347  -1.723  1.00  0.00    -0.270 N 
ATOM     13  H5  UNL     1       0.261  -0.519  -2.420  1.00  0.00     0.176 HD
ENDROOT
BRANCH   1  14
HETATM   14  C2  UNL     1      -0.708  -2.046  -0.124  1.00  0.00     0.056 C 
HETATM   15  C1  UNL     1      -0.681  -2.569   1.265  1.00  0.00     0.010 C 
ENDBRANCH   1  14
BRANCH   1  16
HETATM   16  C4  UNL     1       1.147  -0.384  -0.030  1.00  0.00    -0.009 A 
HETATM   17  C5  UNL     1       1.642  -0.330   1.283  1.00  0.00     0.011 A 
HETATM   18  C6  UNL     1       2.973  -0.047   1.529  1.00  0.00     0.001 A 
HETATM   19  C7  UNL     1       3.878   0.194   0.512  1.00  0.00     0.000 A 
HETATM   20  C8  UNL     1       3.395   0.136  -0.785  1.00  0.00     0.001 A 
HETATM   21  C9  UNL     1       2.091  -0.138  -1.015  1.00  0.00     0.011 A 
ENDBRANCH   1  16
BRANCH   5  22
HETATM   22  N3  UNL     1      -2.038   3.699   1.063  1.00  0.00    -0.331 N 
ATOM     23  H32 UNL     1      -2.510   3.918   0.186  1.00  0.00     0.177 HD
ATOM     24  H31 UNL     1      -1.995   4.441   1.762  1.00  0.00     0.177 HD
ENDBRANCH   5  22
TORSDOF 3
