REMARK  4 active torsions:
REMARK  status: ('A' for Active; 'I' for Inactive)
REMARK    1  A    between atoms: C3_3  and  N1_4 
REMARK    2  A    between atoms: N1_4  and  C4_6 
REMARK    3  A    between atoms: C11_20  and  N5_21 
REMARK    4  A    between atoms: N5_21  and  C12_23 
ROOT
HETATM    1  N1  UNL     1      -0.263  -0.740   1.177  1.00  0.00    -0.371 N 
ATOM      2  H1  UNL     1      -0.499  -1.073   2.112  1.00  0.00     0.161 HD
ENDROOT
BRANCH   1   3
HETATM    3  C3  UNL     1       0.976  -0.679   0.893  1.00  0.00     0.118 A 
HETATM    4  C2  UNL     1       1.885  -1.073   1.882  1.00  0.00     0.066 A 
HETATM    5  C1  UNL     1       3.236  -1.033   1.608  1.00  0.00     0.110 A 
HETATM    6  N6  UNL     1       3.685  -0.620   0.402  1.00  0.00    -0.202 N 
HETATM    7  C11 UNL     1       2.832  -0.238  -0.565  1.00  0.00     0.679 A 
ATOM      8  H6  UNL     1       4.689  -0.598   0.222  1.00  0.00     0.183 HD
HETATM    9  N4  UNL     1       1.474  -0.286  -0.269  1.00  0.00    -0.177 N 
ATOM     10  H4  UNL     1       0.818   0.001  -0.996  1.00  0.00     0.185 HD
BRANCH   7  11
HETATM   11  N5  UNL     1       3.163   0.151  -1.695  1.00  0.00    -0.221 N 
ATOM     12  H5  UNL     1       2.343   0.384  -2.255  1.00  0.00     0.178 HD
BRANCH  11  13
HETATM   13  C12 UNL     1       4.314   0.357  -2.404  1.00  0.00     0.099 A 
HETATM   14  C13 UNL     1       5.643   0.814  -1.901  1.00  0.00     0.028 A 
HETATM   15  C14 UNL     1       5.472  -0.564  -2.414  1.00  0.00     0.028 A 
ENDBRANCH  11  13
ENDBRANCH   7  11
ENDBRANCH   1   3
BRANCH   1  16
HETATM   16  C4  UNL     1      -1.368  -0.390   0.321  1.00  0.00     0.087 C 
HETATM   17  C5  UNL     1      -1.551   1.101   0.428  1.00  0.00     0.059 C 
HETATM   18  C6  UNL     1      -3.000   1.496   0.218  1.00  0.00     0.205 C 
HETATM   19  C7  UNL     1      -3.702   1.536   1.518  1.00  0.00     0.147 C 
HETATM   20  N3  UNL     1      -3.530   0.582  -0.764  1.00  0.00    -0.063 N 
HETATM   21  N2  UNL     1      -4.428   0.391   1.925  1.00  0.00    -0.417 N 
HETATM   22  C8  UNL     1      -4.940  -0.409   0.865  1.00  0.00     0.147 C 
ATOM     23  H2  UNL     1      -4.574   0.156   2.907  1.00  0.00     0.153 HD
HETATM   24  C9  UNL     1      -3.792  -0.694  -0.119  1.00  0.00     0.205 C 
HETATM   25  C10 UNL     1      -2.590  -1.203   0.589  1.00  0.00     0.059 C 
ATOM     26  H32 UNL     1      -4.351   0.954  -1.241  1.00  0.00     0.278 HD
ATOM     27  H31 UNL     1      -2.924   0.490  -1.579  1.00  0.00     0.278 HD
ENDBRANCH   1  16
TORSDOF 4
