REMARK  3 active torsions:
REMARK  status: ('A' for Active; 'I' for Inactive)
REMARK    1  A    between atoms: O1_2  and  C2_3 
REMARK    2  A    between atoms: C7_8  and  O2_9 
REMARK    3  A    between atoms: C12_17  and  N2_18 
ROOT
HETATM    1  C2  UNL     1       2.867   0.167   0.417  1.00  0.00     0.102 A 
HETATM    2  C3  UNL     1       2.010  -0.459   1.286  1.00  0.00     0.056 A 
HETATM    3  C4  UNL     1       0.632  -0.459   1.063  1.00  0.00     0.024 A 
HETATM    4  C5  UNL     1       0.160   0.195  -0.063  1.00  0.00    -0.033 A 
HETATM    5  C6  UNL     1       1.055   0.821  -0.926  1.00  0.00     0.048 A 
HETATM    6  C7  UNL     1       2.407   0.818  -0.703  1.00  0.00     0.102 A 
HETATM    7  C9  UNL     1      -1.288   0.228  -0.292  1.00  0.00     0.077 C 
HETATM    8  C10 UNL     1      -1.743   0.396  -1.698  1.00  0.00     0.244 C 
HETATM    9  N1  UNL     1      -3.155   0.817  -1.645  1.00  0.00    -0.072 N 
ATOM     10  H11 UNL     1      -3.648   0.539  -2.493  1.00  0.00     0.277 HD
ATOM     11  H12 UNL     1      -3.235   1.830  -1.729  1.00  0.00     0.277 HD
HETATM   12  C11 UNL     1      -3.839   0.349  -0.484  1.00  0.00     0.267 C 
HETATM   13  C12 UNL     1      -3.374  -0.992  -0.004  1.00  0.00     0.239 C 
HETATM   14  C13 UNL     1      -1.902  -1.051   0.238  1.00  0.00     0.172 C 
HETATM   15  O3  UNL     1      -1.619  -1.125   1.659  1.00  0.00    -0.327 OA
HETATM   16  C14 UNL     1      -0.249  -1.166   2.004  1.00  0.00     0.147 C 
HETATM   17  N3  UNL     1       0.137  -1.769   3.038  1.00  0.00    -0.379 N 
ATOM     18  H31 UNL     1      -0.474  -2.260   3.691  1.00  0.00     0.158 HD
ATOM     19  H32 UNL     1       1.126  -1.799   3.287  1.00  0.00     0.158 HD
ENDROOT
BRANCH  13  20
HETATM   20  N2  UNL     1      -4.144  -1.319   1.188  1.00  0.00    -0.071 N 
ATOM     21  H23 UNL     1      -4.090  -0.598   1.907  1.00  0.00     0.274 HD
ATOM     22  H22 UNL     1      -5.152  -1.278   1.035  1.00  0.00     0.274 HD
ATOM     23  H21 UNL     1      -3.827  -2.232   1.515  1.00  0.00     0.274 HD
ENDBRANCH  13  20
BRANCH   6  24
HETATM   24  O2  UNL     1       3.305   1.455  -1.583  1.00  0.00    -0.353 OA
HETATM   25  C8  UNL     1       2.749   2.106  -2.720  1.00  0.00     0.210 C 
ENDBRANCH   6  24
BRANCH   1  26
HETATM   26  O1  UNL     1       4.240   0.166   0.642  1.00  0.00    -0.353 OA
HETATM   27  C1  UNL     1       4.713  -0.502   1.792  1.00  0.00     0.210 C 
ENDBRANCH   1  26
TORSDOF 3
