REMARK  2 active torsions:
REMARK  status: ('A' for Active; 'I' for Inactive)
REMARK    1  A    between atoms: C3_4  and  N2_5 
REMARK    2  A    between atoms: N2_5  and  C4_7 
ROOT
HETATM    1  N2  UNL     1       0.635  -1.098  -0.056  1.00  0.00    -0.367 N 
ATOM      2  H2  UNL     1       0.535  -2.112  -0.095  1.00  0.00     0.162 HD
ENDROOT
BRANCH   1   3
HETATM    3  C3  UNL     1       1.832  -0.716  -0.020  1.00  0.00     0.107 A 
HETATM    4  C2  UNL     1       2.823  -1.696  -0.036  1.00  0.00     0.093 A 
HETATM    5  C1  UNL     1       4.161  -1.385   0.000  1.00  0.00     0.122 A 
HETATM    6  N1  UNL     1       5.192  -2.351  -0.015  1.00  0.00    -0.083 NA
HETATM    7  N5  UNL     1       4.531  -0.089   0.053  1.00  0.00    -0.319 N 
HETATM    8  C14 UNL     1       3.587   0.864   0.070  1.00  0.00     0.195 A 
ATOM      9  H5  UNL     1       5.519   0.164   0.080  1.00  0.00     0.169 HD
HETATM   10  N3  UNL     1       2.270   0.552   0.034  1.00  0.00    -0.317 N 
HETATM   11  N4  UNL     1       4.005   2.222   0.126  1.00  0.00    -0.063 NA
ATOM     12  H3  UNL     1       1.585   1.308   0.048  1.00  0.00     0.170 HD
ENDBRANCH   1   3
BRANCH   1  13
HETATM   13  C4  UNL     1      -0.594  -0.416  -0.054  1.00  0.00     0.035 C 
HETATM   14  C5  UNL     1      -1.293  -0.581   1.272  1.00  0.00     0.038 C 
HETATM   15  C6  UNL     1      -2.732  -0.217   1.284  1.00  0.00     0.012 C 
HETATM   16  C7  UNL     1      -3.026   1.232   1.459  1.00  0.00     0.172 C 
HETATM   17  C11 UNL     1      -3.515  -0.802   0.110  1.00  0.00     0.011 C 
HETATM   18  O1  UNL     1      -2.372   2.113   0.711  1.00  0.00    -0.385 OA
HETATM   19  C8  UNL     1      -1.843   1.711  -0.491  1.00  0.00     0.124 C 
HETATM   20  C9  UNL     1      -2.781   0.974  -1.381  1.00  0.00     0.037 C 
HETATM   21  C13 UNL     1      -0.487   1.048  -0.337  1.00  0.00     0.062 C 
HETATM   22  C10 UNL     1      -2.805  -0.500  -1.182  1.00  0.00    -0.009 C 
HETATM   23  C12 UNL     1      -1.417  -1.026  -1.202  1.00  0.00     0.035 C 
ENDBRANCH   1  13
TORSDOF 2
