REMARK  3 active torsions:
REMARK  status: ('A' for Active; 'I' for Inactive)
REMARK    1  A    between atoms: C2_4  and  C3_5 
REMARK    2  A    between atoms: C8_13  and  C9_14 
REMARK    3  A    between atoms: N3_18  and  O1_19 
ROOT
HETATM    1  C3  UNL     1       0.025   0.680   0.804  1.00  0.00     0.068 C 
HETATM    2  C4  UNL     1       1.391   0.325   1.226  1.00  0.00     0.289 C 
HETATM    3  N2  UNL     1       1.618  -1.058   1.544  1.00  0.00    -0.041 N 
ATOM      4  H21 UNL     1       0.793  -1.459   1.990  1.00  0.00     0.280 HD
ATOM      5  H22 UNL     1       2.288  -1.140   2.308  1.00  0.00     0.280 HD
HETATM    6  C5  UNL     1       2.026  -1.867   0.438  1.00  0.00     0.308 C 
HETATM    7  C6  UNL     1       0.803  -2.135  -0.405  1.00  0.00     0.053 C 
HETATM    8  C7  UNL     1       0.244  -0.977  -1.097  1.00  0.00     0.009 C 
HETATM    9  C8  UNL     1      -0.597  -0.028  -0.320  1.00  0.00     0.004 C 
HETATM   10  N3  UNL     1       3.150  -1.400  -0.292  1.00  0.00    -0.073 NA
HETATM   11  N4  UNL     1       3.264  -0.032  -0.395  1.00  0.00    -0.263 N 
ATOM     12  H4  UNL     1       3.966   0.350  -1.028  1.00  0.00     0.186 HD
HETATM   13  C13 UNL     1       2.458   0.864   0.331  1.00  0.00     0.265 C 
HETATM   14  O2  UNL     1       2.668   2.096   0.198  1.00  0.00    -0.270 OA
ENDROOT
BRANCH   1  15
HETATM   15  C2  UNL     1       0.014   2.188   0.672  1.00  0.00     0.062 C 
HETATM   16  N1  UNL     1      -0.208   2.703  -0.477  1.00  0.00    -0.406 N 
HETATM   17  C1  UNL     1      -0.238   4.099  -0.696  1.00  0.00     0.145 C 
ATOM     18  H1  UNL     1      -0.370   2.080  -1.269  1.00  0.00     0.158 HD
ENDBRANCH   1  15
BRANCH   9  19
HETATM   19  C9  UNL     1      -1.996  -0.556  -0.036  1.00  0.00    -0.047 C 
HETATM   20  C10 UNL     1      -2.513  -1.261  -1.276  1.00  0.00     0.015 C 
HETATM   21  C11 UNL     1      -2.131  -1.437   1.126  1.00  0.00     0.015 C 
HETATM   22  C12 UNL     1      -2.894   0.666   0.152  1.00  0.00     0.015 C 
ENDBRANCH   9  19
BRANCH  10  23
HETATM   23  O1  UNL     1       3.146  -2.011  -1.514  1.00  0.00    -0.292 OA
ATOM     24  H1  UNL     1       3.898  -1.698  -2.003  1.00  0.00     0.239 HD
ENDBRANCH  10  23
TORSDOF 3
