REMARK  6 active torsions:
REMARK  status: ('A' for Active; 'I' for Inactive)
REMARK    1  A    between atoms: N1_2  and  C3_4 
REMARK    2  A    between atoms: C3_4  and  C4_5 
REMARK    3  A    between atoms: C4_5  and  O1_6 
REMARK    4  A    between atoms: C5_8  and  O2_9 
REMARK    5  A    between atoms: C6_11  and  O3_12 
REMARK    6  A    between atoms: C9_16  and  O4_17 
ROOT
HETATM    1  C4  UNL     1       0.894  -0.123   0.237  1.00  0.00     0.116 C 
HETATM    2  C5  UNL     1       0.187   1.107   0.825  1.00  0.00     0.184 C 
HETATM    3  C6  UNL     1      -1.189   1.398   0.198  1.00  0.00     0.161 C 
HETATM    4  C7  UNL     1      -2.146   0.221   0.204  1.00  0.00     0.015 C 
HETATM    5  C8  UNL     1      -3.302   0.457   1.082  1.00  0.00     0.021 C 
HETATM    6  C9  UNL     1      -2.484  -0.349  -1.157  1.00  0.00     0.133 C 
HETATM    7  C10 UNL     1      -1.984  -1.775  -1.236  1.00  0.00     0.016 C 
HETATM    8  C11 UNL     1      -0.435  -1.891  -1.264  1.00  0.00     0.015 C 
HETATM    9  C12 UNL     1      -0.170  -0.752  -0.498  1.00  0.00     0.030 C 
HETATM   10  C13 UNL     1      -1.225  -0.897   0.618  1.00  0.00     0.006 C 
HETATM   11  C14 UNL     1      -2.049  -2.125   0.266  1.00  0.00     0.013 C 
ENDROOT
BRANCH   1  12
HETATM   12  C3  UNL     1       2.099   0.281  -0.560  1.00  0.00     0.312 C 
BRANCH  12  13
HETATM   13  N1  UNL     1       3.142   0.892   0.270  1.00  0.00     0.083 N 
HETATM   14  C1  UNL     1       4.034   1.585  -0.698  1.00  0.00     0.309 C 
HETATM   15  C2  UNL     1       4.033  -0.187   0.758  1.00  0.00     0.309 C 
ENDBRANCH  12  13
ENDBRANCH   1  12
BRANCH   1  16
HETATM   16  O1  UNL     1       1.255  -0.977   1.267  1.00  0.00    -0.385 OA
ATOM     17  H1  UNL     1       0.492  -1.233   1.772  1.00  0.00     0.210 HD
ENDBRANCH   1  16
BRANCH   2  18
HETATM   18  O2  UNL     1       0.931   2.257   0.551  1.00  0.00    -0.390 OA
ATOM     19  H2  UNL     1       0.494   3.018   0.915  1.00  0.00     0.210 HD
ENDBRANCH   2  18
BRANCH   3  20
HETATM   20  O3  UNL     1      -1.738   2.385   1.021  1.00  0.00    -0.392 OA
ATOM     21  H3  UNL     1      -2.587   2.565   0.634  1.00  0.00     0.210 HD
ENDBRANCH   3  20
BRANCH   6  22
HETATM   22  O4  UNL     1      -3.892  -0.484  -1.210  1.00  0.00    -0.394 OA
ATOM     23  H4  UNL     1      -4.104  -0.842  -2.064  1.00  0.00     0.210 HD
ENDBRANCH   6  22
TORSDOF 6
