REMARK  3 active torsions:
REMARK  status: ('A' for Active; 'I' for Inactive)
REMARK    1  A    between atoms: C2_2  and  C3_3 
REMARK    2  A    between atoms: C3_3  and  N1_4 
REMARK    3  A    between atoms: C4_6  and  N2_7 
ROOT
HETATM    1  N2  UNL     1       1.293  -0.257   0.371  1.00  0.00    -0.352 N 
HETATM    2  C5  UNL     1       0.144  -1.136   0.579  1.00  0.00     0.144 C 
HETATM    3  C6  UNL     1       0.142  -2.265  -0.411  1.00  0.00     0.133 C 
HETATM    4  N3  UNL     1      -1.135  -2.595  -0.933  1.00  0.00    -0.418 N 
ATOM      5  H3  UNL     1      -1.259  -2.939  -1.885  1.00  0.00     0.153 HD
HETATM    6  C7  UNL     1      -2.233  -2.416  -0.044  1.00  0.00     0.133 C 
HETATM    7  C8  UNL     1      -3.114  -1.329  -0.575  1.00  0.00     0.139 C 
HETATM    8  N4  UNL     1      -4.037  -0.810   0.366  1.00  0.00    -0.385 N 
ATOM      9  H4  UNL     1      -4.162  -1.202   1.300  1.00  0.00     0.160 HD
HETATM   10  C9  UNL     1      -4.764   0.295  -0.108  1.00  0.00     0.171 C 
HETATM   11  N5  UNL     1      -4.407   1.575   0.339  1.00  0.00    -0.386 N 
ATOM     12  H5  UNL     1      -5.018   2.375   0.177  1.00  0.00     0.160 HD
HETATM   13  C10 UNL     1      -3.178   1.727   1.020  1.00  0.00     0.122 C 
HETATM   14  C11 UNL     1      -2.236   2.683   0.298  1.00  0.00     0.047 C 
HETATM   15  C12 UNL     1      -0.801   2.477   0.700  1.00  0.00     0.236 C 
HETATM   16  N6  UNL     1      -0.146   1.568  -0.201  1.00  0.00    -0.059 N 
ATOM     17  H61 UNL     1      -0.082   1.949  -1.145  1.00  0.00     0.279 HD
ATOM     18  H62 UNL     1      -0.725   0.753  -0.405  1.00  0.00     0.279 HD
HETATM   19  C13 UNL     1       1.159   1.188   0.319  1.00  0.00     0.357 C 
ENDROOT
BRANCH   1  20
HETATM   20  C4  UNL     1       2.585  -0.817   0.215  1.00  0.00     0.175 C 
HETATM   21  N1  UNL     1       3.291  -0.497  -0.818  1.00  0.00    -0.386 N 
ATOM     22  H1  UNL     1       2.920   0.152  -1.512  1.00  0.00     0.160 HD
BRANCH  21  23
HETATM   23  C3  UNL     1       4.611  -1.065  -0.984  1.00  0.00     0.120 C 
BRANCH  23  24
HETATM   24  C2  UNL     1       5.694  -0.033  -0.713  1.00  0.00     0.015 C 
HETATM   25  C1  UNL     1       5.535   0.451   0.705  1.00  0.00     0.006 C 
ENDBRANCH  23  24
ENDBRANCH  21  23
ENDBRANCH   1  20
TORSDOF 3
