REMARK  5 active torsions:
REMARK  status: ('A' for Active; 'I' for Inactive)
REMARK    1  A    between atoms: N1_2  and  C2_4 
REMARK    2  A    between atoms: C3_7  and  N3_8 
REMARK    3  A    between atoms: N5_14  and  C5_16 
REMARK    4  A    between atoms: C5_16  and  C6_17 
REMARK    5  A    between atoms: N6_23  and  O1_24 
ROOT
HETATM    1  C2  UNL     1      -3.558   0.041   0.317  1.00  0.00     0.706 A 
HETATM    2  N2  UNL     1      -3.716  -1.172  -0.240  1.00  0.00    -0.022 N 
ATOM      3  H2  UNL     1      -4.588  -1.671  -0.064  1.00  0.00     0.203 HD
HETATM    4  C3  UNL     1      -2.799  -1.761  -1.009  1.00  0.00     0.705 A 
HETATM    5  N4  UNL     1      -1.654  -1.083  -1.229  1.00  0.00    -0.022 N 
ATOM      6  H4  UNL     1      -0.936  -1.510  -1.814  1.00  0.00     0.203 HD
HETATM    7  C4  UNL     1      -1.424   0.134  -0.706  1.00  0.00     0.707 A 
HETATM    8  N5  UNL     1      -0.371   0.821  -0.875  1.00  0.00    -0.219 N 
ATOM      9  H5  UNL     1      -0.354   1.728  -0.409  1.00  0.00     0.178 HD
HETATM   10  N7  UNL     1      -2.402   0.685   0.073  1.00  0.00    -0.022 N 
ATOM     11  H7  UNL     1      -2.252   1.608   0.480  1.00  0.00     0.203 HD
ENDROOT
BRANCH   8  12
HETATM   12  C5  UNL     1       0.791   0.490  -1.631  1.00  0.00     0.197 C 
BRANCH  12  13
HETATM   13  C6  UNL     1       2.040   0.526  -0.792  1.00  0.00     0.058 A 
HETATM   14  C7  UNL     1       2.492  -0.592  -0.121  1.00  0.00     0.036 A 
HETATM   15  C8  UNL     1       3.637  -0.580   0.654  1.00  0.00    -0.059 A 
HETATM   16  C9  UNL     1       4.117  -1.770   1.368  1.00  0.00     0.048 C 
HETATM   17  C10 UNL     1       4.310   0.638   0.717  1.00  0.00     0.026 A 
HETATM   18  C11 UNL     1       3.867   1.755   0.053  1.00  0.00     0.123 A 
HETATM   19  N6  UNL     1       2.744   1.655  -0.680  1.00  0.00    -0.239 N 
BRANCH  19  20
HETATM   20  O1  UNL     1       2.320   2.785  -1.336  1.00  0.00    -0.283 OA
ATOM     21  H1  UNL     1       2.821   3.588  -1.256  1.00  0.00     0.245 HD
ENDBRANCH  19  20
ENDBRANCH  12  13
ENDBRANCH   8  12
BRANCH   4  22
HETATM   22  N3  UNL     1      -2.959  -2.929  -1.541  1.00  0.00    -0.234 N 
ATOM     23  H32 UNL     1      -3.825  -3.442  -1.375  1.00  0.00     0.174 HD
ATOM     24  H31 UNL     1      -2.258  -3.379  -2.129  1.00  0.00     0.174 HD
ENDBRANCH   4  22
BRANCH   1  25
HETATM   25  N1  UNL     1      -4.474   0.572   1.055  1.00  0.00    -0.229 N 
HETATM   26  C1  UNL     1      -4.386   1.848   1.679  1.00  0.00     0.165 C 
ATOM     27  H1  UNL     1      -5.328   0.035   1.203  1.00  0.00     0.177 HD
ENDBRANCH   1  25
TORSDOF 5
