REMARK  9 active torsions:
REMARK  status: ('A' for Active; 'I' for Inactive)
REMARK    1  A    between atoms: O1_2  and  C2_3 
REMARK    2  A    between atoms: C5_6  and  C6_7 
REMARK    3  A    between atoms: C7_8  and  C8_9 
REMARK    4  A    between atoms: C13_14  and  C14_15 
REMARK    5  A    between atoms: C14_15  and  C15_20 
REMARK    6  A    between atoms: N1_16  and  O2_18 
REMARK    7  A    between atoms: C18_23  and  O3_24 
REMARK    8  A    between atoms: C22_29  and  O4_30 
REMARK    9  A    between atoms: O4_30  and  C23_31 
ROOT
HETATM    1  C8  UNL     1      -2.933   1.477   1.273  1.00  0.00     0.018 C 
HETATM    2  C9  UNL     1      -3.542   2.854   1.147  1.00  0.00     0.009 C 
HETATM    3  C10 UNL     1      -4.127   3.112  -0.200  1.00  0.00     0.001 C 
HETATM    4  C11 UNL     1      -3.524   2.371  -1.343  1.00  0.00     0.001 C 
HETATM    5  C12 UNL     1      -3.295   0.894  -1.096  1.00  0.00     0.011 C 
HETATM    6  C13 UNL     1      -3.760   0.615   0.305  1.00  0.00     0.046 C 
ENDROOT
BRANCH   1   7
HETATM    7  C7  UNL     1      -1.506   1.445   1.035  1.00  0.00    -0.021 C 
HETATM    8  C6  UNL     1      -0.697   2.437   0.732  1.00  0.00     0.008 C 
BRANCH   8   9
HETATM    9  C5  UNL     1       0.738   2.311   0.511  1.00  0.00    -0.034 A 
HETATM   10  C4  UNL     1       1.475   3.455   0.194  1.00  0.00     0.014 A 
HETATM   11  C3  UNL     1       2.832   3.385  -0.021  1.00  0.00     0.040 A 
HETATM   12  C2  UNL     1       3.540   2.202   0.061  1.00  0.00     0.101 A 
HETATM   13  C22 UNL     1       2.842   1.064   0.370  1.00  0.00     0.103 A 
HETATM   14  C21 UNL     1       1.441   1.149   0.589  1.00  0.00     0.051 A 
BRANCH  12  15
HETATM   15  O1  UNL     1       4.929   2.214  -0.173  1.00  0.00    -0.353 OA
HETATM   16  C1  UNL     1       5.633   3.373  -0.487  1.00  0.00     0.210 C 
ENDBRANCH  12  15
BRANCH  13  17
HETATM   17  O4  UNL     1       3.436  -0.132   0.473  1.00  0.00    -0.343 OA
BRANCH  17  18
HETATM   18  C23 UNL     1       4.627  -0.741   0.382  1.00  0.00     0.129 C 
HETATM   19  C24 UNL     1       5.077  -1.464   1.643  1.00  0.00     0.032 C 
HETATM   20  C25 UNL     1       5.234  -2.950   1.426  1.00  0.00     0.002 C 
HETATM   21  C26 UNL     1       6.251  -3.300   0.388  1.00  0.00     0.000 C 
HETATM   22  C27 UNL     1       6.163  -2.265  -0.734  1.00  0.00     0.002 C 
HETATM   23  C28 UNL     1       4.729  -1.782  -0.736  1.00  0.00     0.032 C 
ENDBRANCH  17  18
ENDBRANCH  13  17
ENDBRANCH   8   9
ENDBRANCH   1   7
BRANCH   6  24
HETATM   24  C14 UNL     1      -3.675  -0.839   0.685  1.00  0.00     0.047 C 
HETATM   25  N1  UNL     1      -2.832  -1.212   1.544  1.00  0.00    -0.272 N 
ATOM     26  H1  UNL     1      -2.265  -0.446   1.909  1.00  0.00     0.194 HD
BRANCH  25  27
HETATM   27  O2  UNL     1      -2.529  -2.371   2.067  1.00  0.00    -0.290 OA
ATOM     28  H2  UNL     1      -1.893  -2.652   2.715  1.00  0.00     0.244 HD
ENDBRANCH  25  27
BRANCH  24  29
HETATM   29  C15 UNL     1      -4.536  -1.766  -0.027  1.00  0.00    -0.011 A 
HETATM   30  C16 UNL     1      -5.616  -1.307  -0.793  1.00  0.00     0.016 A 
HETATM   31  C17 UNL     1      -6.434  -2.141  -1.516  1.00  0.00     0.037 A 
HETATM   32  C18 UNL     1      -6.240  -3.503  -1.533  1.00  0.00     0.065 A 
HETATM   33  C19 UNL     1      -5.192  -3.983  -0.792  1.00  0.00     0.037 A 
HETATM   34  C20 UNL     1      -4.358  -3.128  -0.054  1.00  0.00     0.016 A 
BRANCH  32  35
HETATM   35  O3  UNL     1      -7.077  -4.334  -2.270  1.00  0.00    -0.361 OA
ATOM     36  H3  UNL     1      -6.943  -5.274  -2.282  1.00  0.00     0.217 HD
ENDBRANCH  32  35
ENDBRANCH  24  29
ENDBRANCH   6  24
TORSDOF 9
