REMARK  10 active torsions:
REMARK  status: ('A' for Active; 'I' for Inactive)
REMARK    1  A    between atoms: C2_2  and  C3_3 
REMARK    2  A    between atoms: C3_3  and  C4_4 
REMARK    3  A    between atoms: C4_4  and  C5_5 
REMARK    4  A    between atoms: C5_5  and  O1_6 
REMARK    5  A    between atoms: C19_21  and  O2_22 
REMARK    6  A    between atoms: O2_22  and  C20_23 
REMARK    7  A    between atoms: C20_23  and  C21_25 
REMARK    8  A    between atoms: C21_25  and  C22_26 
REMARK    9  A    between atoms: C22_26  and  C23_27 
REMARK   10  A    between atoms: C23_27  and  N1_28 
ROOT
HETATM    1  C5  UNL     1      -1.981   1.552  -0.176  1.00  0.00     0.088 C 
HETATM    2  C6  UNL     1      -3.143   0.875   0.512  1.00  0.00     0.041 C 
HETATM    3  C7  UNL     1      -4.260   0.455  -0.357  1.00  0.00     0.003 C 
HETATM    4  C8  UNL     1      -4.386  -1.069  -0.503  1.00  0.00     0.000 C 
HETATM    5  C9  UNL     1      -4.781  -1.673   0.800  1.00  0.00     0.000 C 
HETATM    6  C10 UNL     1      -4.578  -3.145   0.885  1.00  0.00     0.000 C 
HETATM    7  C11 UNL     1      -3.188  -3.616   0.648  1.00  0.00     0.000 C 
HETATM    8  C12 UNL     1      -2.209  -3.260   1.722  1.00  0.00     0.000 C 
HETATM    9  C13 UNL     1      -1.014  -2.582   1.036  1.00  0.00     0.000 C 
HETATM   10  C14 UNL     1      -0.266  -1.702   1.997  1.00  0.00     0.004 C 
HETATM   11  C15 UNL     1      -0.039  -0.282   1.453  1.00  0.00     0.037 C 
HETATM   12  C16 UNL     1      -0.180  -0.253   0.011  1.00  0.00    -0.046 C 
HETATM   13  C17 UNL     1       0.753  -0.788  -0.689  1.00  0.00    -0.070 C 
HETATM   14  C18 UNL     1       2.011  -1.429  -0.398  1.00  0.00     0.067 C 
HETATM   15  C19 UNL     1       2.982  -0.352  -1.154  1.00  0.00     0.138 C 
HETATM   16  C24 UNL     1       2.195   0.919  -1.399  1.00  0.00     0.065 C 
HETATM   17  C25 UNL     1       0.910   0.815  -2.184  1.00  0.00     0.129 C 
HETATM   18  C26 UNL     1       0.552  -0.719  -2.215  1.00  0.00     0.066 C 
HETATM   19  O4  UNL     1      -0.132   1.416  -1.546  1.00  0.00    -0.373 OA
HETATM   20  C27 UNL     1      -1.074   0.568  -0.860  1.00  0.00     0.185 C 
ENDROOT
BRANCH  15  21
HETATM   21  O2  UNL     1       4.042  -0.273  -0.323  1.00  0.00    -0.316 OA
BRANCH  21  22
HETATM   22  C20 UNL     1       5.335  -0.719  -0.533  1.00  0.00     0.259 C 
HETATM   23  O3  UNL     1       5.537  -1.262  -1.635  1.00  0.00    -0.265 OA
BRANCH  22  24
HETATM   24  C21 UNL     1       6.417  -0.571   0.466  1.00  0.00     0.113 C 
BRANCH  24  25
HETATM   25  C22 UNL     1       7.673  -1.168  -0.108  1.00  0.00     0.037 C 
BRANCH  25  26
HETATM   26  C23 UNL     1       8.837  -1.053   0.866  1.00  0.00     0.230 C 
BRANCH  26  27
HETATM   27  N1  UNL     1       9.052   0.341   1.133  1.00  0.00    -0.079 N 
ATOM     28  H13 UNL     1       9.191   0.889   0.284  1.00  0.00     0.274 HD
ATOM     29  H12 UNL     1       8.211   0.814   1.464  1.00  0.00     0.274 HD
ATOM     30  H11 UNL     1       9.832   0.418   1.786  1.00  0.00     0.274 HD
ENDBRANCH  26  27
ENDBRANCH  25  26
ENDBRANCH  24  25
ENDBRANCH  22  24
ENDBRANCH  21  22
ENDBRANCH  15  21
BRANCH   1  31
HETATM   31  C4  UNL     1      -2.473   2.441  -1.301  1.00  0.00     0.041 C 
BRANCH  31  32
HETATM   32  C3  UNL     1      -3.420   3.507  -1.003  1.00  0.00     0.003 C 
BRANCH  32  33
HETATM   33  C2  UNL     1      -2.968   4.586  -0.068  1.00  0.00    -0.004 C 
HETATM   34  C1  UNL     1      -4.064   5.648   0.091  1.00  0.00     0.005 C 
ENDBRANCH  32  33
ENDBRANCH  31  32
ENDBRANCH   1  31
BRANCH   1  35
HETATM   35  O1  UNL     1      -1.340   2.402   0.707  1.00  0.00    -0.387 OA
ATOM     36  H1  UNL     1      -1.032   1.845   1.412  1.00  0.00     0.210 HD
ENDBRANCH   1  35
TORSDOF 10
