REMARK  8 active torsions:
REMARK  status: ('A' for Active; 'I' for Inactive)
REMARK    1  A    between atoms: C4_4  and  C5_5 
REMARK    2  A    between atoms: C5_5  and  C6_6 
REMARK    3  A    between atoms: C6_6  and  C7_7 
REMARK    4  A    between atoms: C7_7  and  C25_28 
REMARK    5  A    between atoms: C8_8  and  C9_9 
REMARK    6  A    between atoms: C22_23  and  O2_25 
REMARK    7  A    between atoms: C25_28  and  C26_29 
REMARK    8  A    between atoms: C26_29  and  S1_30 
ROOT
HETATM    1  C9  UNL     1       0.286   0.559   0.072  1.00  0.00     0.012 C 
HETATM    2  C10 UNL     1      -0.279   1.967   0.121  1.00  0.00     0.010 C 
HETATM    3  C11 UNL     1      -1.644   1.814   0.809  1.00  0.00     0.015 C 
HETATM    4  C12 UNL     1      -2.587   1.344  -0.277  1.00  0.00    -0.016 C 
HETATM    5  C13 UNL     1      -2.881   2.501  -1.174  1.00  0.00     0.020 C 
HETATM    6  C14 UNL     1      -1.960   0.205  -0.978  1.00  0.00    -0.074 C 
HETATM    7  C15 UNL     1      -2.781  -0.525  -1.749  1.00  0.00    -0.022 C 
HETATM    8  C16 UNL     1      -4.224  -0.172  -1.860  1.00  0.00     0.040 C 
HETATM    9  C17 UNL     1      -4.813   0.182  -0.510  1.00  0.00     0.002 C 
HETATM   10  C18 UNL     1      -5.999   1.079  -0.720  1.00  0.00     0.019 C 
HETATM   11  C19 UNL     1      -3.851   0.868   0.396  1.00  0.00     0.017 C 
HETATM   12  C20 UNL     1      -3.552  -0.114   1.494  1.00  0.00     0.088 C 
HETATM   13  C21 UNL     1      -4.772  -0.943   1.536  1.00  0.00     0.161 C 
HETATM   14  O1  UNL     1      -5.311  -1.380   2.516  1.00  0.00    -0.295 OA
HETATM   15  C22 UNL     1      -5.203  -1.132   0.145  1.00  0.00     0.122 C 
HETATM   16  C23 UNL     1      -6.633  -1.501  -0.037  1.00  0.00     0.055 C 
HETATM   17  C24 UNL     1      -0.556  -0.208  -0.922  1.00  0.00     0.043 C 
ENDROOT
BRANCH   1  18
HETATM   18  C8  UNL     1       1.712   0.542  -0.269  1.00  0.00    -0.019 C 
HETATM   19  C7  UNL     1       2.646   0.055   0.503  1.00  0.00    -0.082 C 
BRANCH  19  20
HETATM   20  C6  UNL     1       4.068   0.149  -0.070  1.00  0.00     0.037 C 
BRANCH  20  21
HETATM   21  C5  UNL     1       4.570  -1.230  -0.172  1.00  0.00     0.031 C 
BRANCH  21  22
HETATM   22  C4  UNL     1       5.897  -1.474  -0.723  1.00  0.00    -0.024 C 
HETATM   23  C2  UNL     1       6.802  -0.693  -1.233  1.00  0.00    -0.091 C 
HETATM   24  C1  UNL     1       8.117  -1.287  -1.728  1.00  0.00     0.042 C 
HETATM   25  C3  UNL     1       6.660   0.755  -1.392  1.00  0.00     0.042 C 
ENDBRANCH  21  22
ENDBRANCH  20  21
ENDBRANCH  19  20
BRANCH  19  26
HETATM   26  C25 UNL     1       2.521  -0.553   1.835  1.00  0.00     0.045 C 
BRANCH  26  27
HETATM   27  C26 UNL     1       3.319   0.186   2.902  1.00  0.00     0.091 C 
BRANCH  27  28
HETATM   28  S1  UNL     1       3.072  -0.663   4.504  1.00  0.00    -0.085 SA
HETATM   29  S2  UNL     1       3.912  -2.600   4.498  1.00  0.00    -0.013 SA
ENDBRANCH  27  28
ENDBRANCH  26  27
ENDBRANCH  19  26
ENDBRANCH   1  18
BRANCH  15  30
HETATM   30  O2  UNL     1      -4.423  -2.169  -0.394  1.00  0.00    -0.382 OA
ATOM     31  H2  UNL     1      -4.667  -2.991   0.016  1.00  0.00     0.211 HD
ENDBRANCH  15  30
TORSDOF 8
