REMARK  10 active torsions:
REMARK  status: ('A' for Active; 'I' for Inactive)
REMARK    1  A    between atoms: C6_6  and  C8_8 
REMARK    2  A    between atoms: C8_8  and  O1_9 
REMARK    3  A    between atoms: O1_9  and  C9_10 
REMARK    4  A    between atoms: C9_10  and  C10_12 
REMARK    5  A    between atoms: C10_12  and  C11_13 
REMARK    6  A    between atoms: C11_13  and  C12_14 
REMARK    7  A    between atoms: C12_14  and  C13_15 
REMARK    8  A    between atoms: C13_15  and  C14_16 
REMARK    9  A    between atoms: C18_20  and  O3_21 
REMARK   10  A    between atoms: C19_24  and  O5_25 
ROOT
HETATM    1  C9  UNL     1       0.109  -0.177  -0.176  1.00  0.00     0.258 C 
HETATM    2  O2  UNL     1      -0.351   0.980  -0.118  1.00  0.00    -0.265 OA
ENDROOT
BRANCH   1   3
HETATM    3  O1  UNL     1      -0.549  -1.150   0.435  1.00  0.00    -0.321 OA
BRANCH   3   4
HETATM    4  C8  UNL     1      -1.610  -1.494   1.155  1.00  0.00     0.188 C 
BRANCH   4   5
HETATM    5  C6  UNL     1      -3.012  -1.507   0.643  1.00  0.00    -0.018 C 
HETATM    6  C5  UNL     1      -3.546  -0.192   0.195  1.00  0.00     0.004 C 
HETATM    7  C4  UNL     1      -3.590   0.811   1.332  1.00  0.00     0.010 C 
HETATM    8  C25 UNL     1      -4.889  -0.304  -0.488  1.00  0.00    -0.036 C 
HETATM    9  C3  UNL     1      -4.234   2.116   0.909  1.00  0.00     0.034 C 
HETATM   10  C2  UNL     1      -5.630   1.870   0.445  1.00  0.00    -0.088 C 
HETATM   11  C1  UNL     1      -6.498   2.816   0.219  1.00  0.00     0.014 C 
HETATM   12  C27 UNL     1      -5.999   0.457   0.246  1.00  0.00     0.042 C 
HETATM   13  C24 UNL     1      -5.394  -1.682  -0.699  1.00  0.00     0.010 C 
HETATM   14  C26 UNL     1      -4.792   0.381  -1.846  1.00  0.00     0.016 C 
HETATM   15  C23 UNL     1      -4.372  -2.689  -1.106  1.00  0.00     0.002 C 
HETATM   16  C22 UNL     1      -2.995  -2.409  -0.587  1.00  0.00     0.012 C 
HETATM   17  C7  UNL     1      -3.871  -2.139   1.733  1.00  0.00     0.018 C 
ENDBRANCH   4   5
ENDBRANCH   3   4
ENDBRANCH   1   3
BRANCH   1  18
HETATM   18  C10 UNL     1       1.393  -0.392  -0.940  1.00  0.00     0.111 C 
BRANCH  18  19
HETATM   19  C11 UNL     1       1.962   0.937  -1.339  1.00  0.00     0.010 C 
BRANCH  19  20
HETATM   20  C12 UNL     1       2.381   1.847  -0.262  1.00  0.00     0.001 C 
BRANCH  20  21
HETATM   21  C13 UNL     1       3.436   1.458   0.687  1.00  0.00     0.005 C 
BRANCH  21  22
HETATM   22  C14 UNL     1       4.832   1.258   0.232  1.00  0.00    -0.010 C 
HETATM   23  C15 UNL     1       5.643   0.884   1.495  1.00  0.00     0.009 C 
HETATM   24  C16 UNL     1       7.129   1.032   1.153  1.00  0.00     0.044 C 
HETATM   25  C17 UNL     1       7.444   0.062   0.040  1.00  0.00     0.011 A 
HETATM   26  C18 UNL     1       8.579  -0.614  -0.350  1.00  0.00     0.192 A 
HETATM   27  C20 UNL     1       6.463  -0.297  -0.829  1.00  0.00     0.012 A 
HETATM   28  O4  UNL     1       8.274  -1.337  -1.401  1.00  0.00    -0.264 OA
HETATM   29  C19 UNL     1       7.010  -1.177  -1.725  1.00  0.00     0.192 A 
HETATM   30  C21 UNL     1       5.045   0.209  -0.781  1.00  0.00     0.049 C 
BRANCH  26  31
HETATM   31  O3  UNL     1       9.832  -0.528   0.284  1.00  0.00    -0.340 OA
ATOM     32  H3  UNL     1      10.615  -0.994   0.015  1.00  0.00     0.220 HD
ENDBRANCH  26  31
BRANCH  29  33
HETATM   33  O5  UNL     1       6.417  -1.829  -2.807  1.00  0.00    -0.340 OA
ATOM     34  H5  UNL     1       5.504  -1.713  -3.041  1.00  0.00     0.220 HD
ENDBRANCH  29  33
ENDBRANCH  21  22
ENDBRANCH  20  21
ENDBRANCH  19  20
ENDBRANCH  18  19
ENDBRANCH   1  18
TORSDOF 10
