REMARK  9 active torsions:
REMARK  status: ('A' for Active; 'I' for Inactive)
REMARK    1  A    between atoms: C2_2  and  C21_27 
REMARK    2  A    between atoms: C3_3  and  C4_4 
REMARK    3  A    between atoms: C4_4  and  C5_5 
REMARK    4  A    between atoms: C18_19  and  O2_20 
REMARK    5  A    between atoms: C19_23  and  O4_24 
REMARK    6  A    between atoms: C21_27  and  C22_29 
REMARK    7  A    between atoms: C22_29  and  C23_30 
REMARK    8  A    between atoms: C23_30  and  C24_31 
REMARK    9  A    between atoms: C24_31  and  C25_32 
ROOT
HETATM    1  C5  UNL     1      -1.303   0.468   0.349  1.00  0.00    -0.008 C 
HETATM    2  C6  UNL     1      -1.013   1.923   0.407  1.00  0.00     0.018 C 
HETATM    3  C7  UNL     1      -0.869  -0.165  -0.952  1.00  0.00     0.026 C 
HETATM    4  C8  UNL     1      -0.932   0.801  -2.104  1.00  0.00     0.014 C 
HETATM    5  C9  UNL     1      -1.835  -1.308  -1.063  1.00  0.00     0.165 C 
HETATM    6  O1  UNL     1      -2.454  -1.419   0.206  1.00  0.00    -0.373 OA
HETATM    7  C10 UNL     1      -2.604  -0.067   0.621  1.00  0.00     0.144 C 
HETATM    8  C11 UNL     1      -3.867   0.402  -0.009  1.00  0.00     0.019 C 
HETATM    9  C12 UNL     1      -4.927  -0.513   0.654  1.00  0.00     0.017 C 
HETATM   10  C13 UNL     1      -5.362   0.162   1.937  1.00  0.00     0.001 C 
HETATM   11  C14 UNL     1      -6.365   1.220   1.471  1.00  0.00     0.000 C 
HETATM   12  C15 UNL     1      -5.602   2.181   0.621  1.00  0.00     0.001 C 
HETATM   13  C16 UNL     1      -4.221   1.809   0.255  1.00  0.00     0.017 C 
HETATM   14  C17 UNL     1      -3.892  -0.009  -1.445  1.00  0.00     0.025 A 
HETATM   15  C18 UNL     1      -4.719   0.231  -2.526  1.00  0.00     0.193 A 
HETATM   16  O3  UNL     1      -4.256  -0.416  -3.594  1.00  0.00    -0.264 OA
HETATM   17  C19 UNL     1      -3.168  -1.079  -3.305  1.00  0.00     0.195 A 
HETATM   18  C20 UNL     1      -2.909  -0.852  -1.981  1.00  0.00     0.041 A 
ENDROOT
BRANCH   1  19
HETATM   19  C4  UNL     1      -0.397  -0.174   1.409  1.00  0.00     0.040 C 
BRANCH  19  20
HETATM   20  C3  UNL     1       1.023   0.037   1.183  1.00  0.00    -0.015 C 
HETATM   21  C2  UNL     1       1.929  -0.905   1.061  1.00  0.00    -0.020 C 
HETATM   22  C1  UNL     1       1.603  -2.352   1.143  1.00  0.00     0.052 C 
BRANCH  21  23
HETATM   23  C21 UNL     1       3.337  -0.512   0.832  1.00  0.00     0.154 C 
HETATM   24  O5  UNL     1       3.636   0.699   0.758  1.00  0.00    -0.293 OA
BRANCH  23  25
HETATM   25  C22 UNL     1       4.367  -1.537   0.692  1.00  0.00     0.083 C 
BRANCH  25  26
HETATM   26  C23 UNL     1       5.694  -0.952   0.322  1.00  0.00     0.008 C 
BRANCH  26  27
HETATM   27  C24 UNL     1       5.727  -0.263  -1.004  1.00  0.00     0.004 C 
BRANCH  27  28
HETATM   28  C25 UNL     1       7.142   0.258  -1.210  1.00  0.00    -0.023 C 
HETATM   29  C26 UNL     1       8.163  -0.849  -1.200  1.00  0.00     0.009 C 
HETATM   30  C27 UNL     1       7.440   1.254  -0.114  1.00  0.00     0.009 C 
ENDBRANCH  27  28
ENDBRANCH  26  27
ENDBRANCH  25  26
ENDBRANCH  23  25
ENDBRANCH  21  23
ENDBRANCH  19  20
ENDBRANCH   1  19
BRANCH  17  31
HETATM   31  O4  UNL     1      -2.444  -1.854  -4.194  1.00  0.00    -0.340 OA
ATOM     32  H4  UNL     1      -1.653  -2.336  -3.984  1.00  0.00     0.220 HD
ENDBRANCH  17  31
BRANCH  15  33
HETATM   33  O2  UNL     1      -5.851   0.994  -2.590  1.00  0.00    -0.340 OA
ATOM     34  H2  UNL     1      -6.419   1.159  -3.333  1.00  0.00     0.220 HD
ENDBRANCH  15  33
TORSDOF 9
