REMARK  9 active torsions:
REMARK  status: ('A' for Active; 'I' for Inactive)
REMARK    1  A    between atoms: C2_2  and  C3_3 
REMARK    2  A    between atoms: C2_2  and  C9_9 
REMARK    3  A    between atoms: C3_3  and  C4_4 
REMARK    4  A    between atoms: C4_4  and  C5_5 
REMARK    5  A    between atoms: C9_9  and  C10_10 
REMARK    6  A    between atoms: C10_10  and  C12_12 
REMARK    7  A    between atoms: C17_20  and  O4_21 
REMARK    8  A    between atoms: C19_24  and  O5_25 
REMARK    9  A    between atoms: C22_29  and  C23_30 
ROOT
HETATM    1  C12 UNL     1      -1.071   0.989  -0.359  1.00  0.00     0.005 C 
HETATM    2  C13 UNL     1      -0.816   0.355  -1.805  1.00  0.00     0.023 C 
HETATM    3  C14 UNL     1      -1.275   2.381  -0.668  1.00  0.00     0.193 C 
HETATM    4  O1  UNL     1      -1.819   3.480   0.003  1.00  0.00    -0.315 OA
HETATM    5  C15 UNL     1      -3.217   3.932  -0.368  1.00  0.00     0.320 C 
HETATM    6  O2  UNL     1      -3.558   5.062  -0.518  1.00  0.00    -0.257 OA
HETATM    7  C16 UNL     1      -4.102   2.722  -0.524  1.00  0.00     0.187 A 
HETATM    8  O3  UNL     1      -4.509   2.409  -1.765  1.00  0.00    -0.278 OA
HETATM    9  C17 UNL     1      -5.166   1.309  -1.748  1.00  0.00     0.193 A 
HETATM   10  C18 UNL     1      -5.196   0.875  -0.435  1.00  0.00     0.036 A 
HETATM   11  C19 UNL     1      -4.545   1.802   0.373  1.00  0.00     0.117 A 
HETATM   12  C20 UNL     1      -5.367  -0.611  -0.209  1.00  0.00     0.047 C 
HETATM   13  C21 UNL     1      -3.967  -1.247  -0.223  1.00  0.00     0.014 C 
HETATM   14  C22 UNL     1      -2.863  -0.820   0.590  1.00  0.00     0.018 C 
HETATM   15  C26 UNL     1      -1.684   0.007   0.486  1.00  0.00     0.004 C 
HETATM   16  C27 UNL     1      -1.313   0.454   1.948  1.00  0.00     0.012 C 
ENDROOT
BRANCH   1  17
HETATM   17  C10 UNL     1       0.460   0.900   0.106  1.00  0.00    -0.075 C 
HETATM   18  C11 UNL     1       0.966   1.998   0.652  1.00  0.00     0.015 C 
BRANCH  17  19
HETATM   19  C9  UNL     1       1.115  -0.343  -0.126  1.00  0.00     0.067 C 
BRANCH  19  20
HETATM   20  C2  UNL     1       2.568  -0.359  -0.487  1.00  0.00    -0.085 C 
HETATM   21  C1  UNL     1       3.293   0.640  -0.875  1.00  0.00     0.014 C 
BRANCH  20  22
HETATM   22  C3  UNL     1       3.184  -1.694  -0.331  1.00  0.00     0.037 C 
BRANCH  22  23
HETATM   23  C4  UNL     1       4.654  -1.818  -0.311  1.00  0.00     0.031 C 
BRANCH  23  24
HETATM   24  C5  UNL     1       5.328  -1.157   0.799  1.00  0.00    -0.024 C 
HETATM   25  C6  UNL     1       6.420  -0.438   0.788  1.00  0.00    -0.091 C 
HETATM   26  C7  UNL     1       6.959   0.171   2.061  1.00  0.00     0.042 C 
HETATM   27  C8  UNL     1       7.200  -0.215  -0.451  1.00  0.00     0.042 C 
ENDBRANCH  23  24
ENDBRANCH  22  23
ENDBRANCH  20  22
ENDBRANCH  19  20
ENDBRANCH  17  19
ENDBRANCH   1  17
BRANCH  14  28
HETATM   28  C23 UNL     1      -2.180  -2.204   0.968  1.00  0.00    -0.089 C 
HETATM   29  C24 UNL     1      -2.277  -3.150   0.076  1.00  0.00     0.014 C 
HETATM   30  C25 UNL     1      -1.505  -2.448   2.220  1.00  0.00     0.043 C 
ENDBRANCH  14  28
BRANCH  11  31
HETATM   31  O5  UNL     1      -4.469   1.703   1.825  1.00  0.00    -0.357 OA
ATOM     32  H5  UNL     1      -4.779   1.060   2.452  1.00  0.00     0.217 HD
ENDBRANCH  11  31
BRANCH   9  33
HETATM   33  O4  UNL     1      -5.744   0.685  -2.897  1.00  0.00    -0.340 OA
ATOM     34  H4  UNL     1      -6.231  -0.131  -2.884  1.00  0.00     0.220 HD
ENDBRANCH   9  33
TORSDOF 9
