REMARK  0 active torsions:
REMARK  status: ('A' for Active; 'I' for Inactive)
ROOT
HETATM    1  S1  UNL     1       2.124   0.048   0.478  1.00  0.00    -0.092 SA
HETATM    2  C1  UNL     1       0.453  -0.618   0.353  1.00  0.00     0.058 C 
HETATM    3  C2  UNL     1      -0.150  -0.346  -0.997  1.00  0.00     0.016 C 
HETATM    4  C3  UNL     1      -1.006   0.743  -0.387  1.00  0.00     0.002 C 
HETATM    5  C4  UNL     1      -0.534   0.332   0.997  1.00  0.00     0.016 C 
ENDROOT
TORSDOF 0
