REMARK  0 active torsions:
REMARK  status: ('A' for Active; 'I' for Inactive)
ROOT
HETATM    1  C1  UNL     1       0.558  -1.050   0.607  1.00  0.00     0.003 C 
HETATM    2  C2  UNL     1       1.334   0.059  -0.024  1.00  0.00     0.027 C 
HETATM    3  C3  UNL     1       0.590   1.320  -0.232  1.00  0.00     0.232 C 
HETATM    4  N1  UNL     1      -0.787   1.195  -0.551  1.00  0.00    -0.075 N 
ATOM      5  H11 UNL     1      -0.912   1.026  -1.549  1.00  0.00     0.277 HD
ATOM      6  H12 UNL     1      -1.259   2.096  -0.470  1.00  0.00     0.277 HD
HETATM    7  C4  UNL     1      -1.475   0.183   0.231  1.00  0.00     0.232 C 
HETATM    8  C5  UNL     1      -0.781  -1.136  -0.134  1.00  0.00     0.027 C 
ENDROOT
TORSDOF 0
