REMARK  0 active torsions:
REMARK  status: ('A' for Active; 'I' for Inactive)
ROOT
HETATM    1  C1  UNL     1      -1.188  -1.233  -0.098  1.00  0.00     0.046 C 
HETATM    2  C2  UNL     1      -0.535   0.114   0.188  1.00  0.00     0.118 C 
HETATM    3  C3  UNL     1      -1.539   1.200   0.394  1.00  0.00     0.046 C 
HETATM    4  C4  UNL     1       0.351   0.541  -0.989  1.00  0.00     0.039 C 
HETATM    5  C5  UNL     1       1.482  -0.481  -0.820  1.00  0.00     0.030 C 
HETATM    6  C6  UNL     1       1.691  -0.349   0.691  1.00  0.00     0.233 C 
HETATM    7  N1  UNL     1       0.394  -0.060   1.252  1.00  0.00    -0.067 N 
ATOM      8  H11 UNL     1       0.092  -0.768   1.922  1.00  0.00     0.278 HD
ATOM      9  H12 UNL     1       0.413   0.737   1.888  1.00  0.00     0.278 HD
ENDROOT
TORSDOF 0
