REMARK  1 active torsions:
REMARK  status: ('A' for Active; 'I' for Inactive)
REMARK    1  A    between atoms: C5_5  and  N1_6 
ROOT
HETATM    1  C1  UNL     1      -0.634   1.426   0.085  1.00  0.00     0.017 C 
HETATM    2  C2  UNL     1      -0.400  -0.059  -0.071  1.00  0.00    -0.018 A 
HETATM    3  C3  UNL     1      -1.638  -0.752  -0.645  1.00  0.00     0.017 C 
HETATM    4  C4  UNL     1       0.397  -0.840   0.861  1.00  0.00     0.044 A 
HETATM    5  C5  UNL     1       0.949  -0.461  -0.486  1.00  0.00     0.192 A 
ENDROOT
BRANCH   5   6
HETATM    6  N1  UNL     1       2.000   0.561  -0.402  1.00  0.00    -0.074 N 
ATOM      7  H13 UNL     1       1.714   1.388  -0.926  1.00  0.00     0.274 HD
ATOM      8  H12 UNL     1       2.033   0.940   0.544  1.00  0.00     0.274 HD
ATOM      9  H11 UNL     1       2.938   0.282  -0.690  1.00  0.00     0.274 HD
ENDBRANCH   5   6
TORSDOF 1
