REMARK  7 active torsions:
REMARK  status: ('A' for Active; 'I' for Inactive)
REMARK    1  A    between atoms: C2_2  and  C3_3 
REMARK    2  A    between atoms: C4_8  and  N3_9 
REMARK    3  A    between atoms: N3_9  and  C5_11 
REMARK    4  A    between atoms: C5_11  and  O1_13 
REMARK    5  A    between atoms: C7_15  and  N4_16 
REMARK       I    between atoms: N4_16  and  C8_18 
REMARK    6  A    between atoms: C8_18  and  C9_20 
REMARK    7  A    between atoms: C9_20  and  S1_21 
ROOT
HETATM    1  C3  UNL     1       3.006  -1.297  -0.311  1.00  0.00     0.068 A 
HETATM    2  N1  UNL     1       3.211  -0.017  -0.536  1.00  0.00    -0.296 N 
ATOM      3  H1  UNL     1       4.140   0.239  -0.869  1.00  0.00     0.187 HD
HETATM    4  N2  UNL     1       2.361   0.965  -0.382  1.00  0.00    -0.282 N 
ATOM      5  H2  UNL     1       2.722   1.891  -0.613  1.00  0.00     0.188 HD
HETATM    6  C4  UNL     1       1.102   0.938   0.029  1.00  0.00     0.156 A 
HETATM    7  C7  UNL     1       0.420  -0.242   0.394  1.00  0.00     0.124 A 
HETATM    8  S3  UNL     1       1.433  -1.637   0.240  1.00  0.00    -0.054 SA
ENDROOT
BRANCH   7   9
HETATM    9  N4  UNL     1      -0.730  -0.353   0.786  1.00  0.00    -0.317 N 
HETATM   10  C8  UNL     1      -1.912   0.179   1.113  1.00  0.00     0.234 C 
HETATM   11  O2  UNL     1      -2.079   1.314   1.605  1.00  0.00    -0.272 OA
ATOM     12  H4  UNL     1      -0.850  -1.354   0.943  1.00  0.00     0.169 HD
BRANCH  10  13
HETATM   13  C9  UNL     1      -3.172  -0.620   0.892  1.00  0.00     0.210 C 
BRANCH  13  14
HETATM   14  S1  UNL     1      -4.172   0.055  -0.399  1.00  0.00     0.013 S 
HETATM   15  C10 UNL     1      -5.598  -0.994  -0.582  1.00  0.00     0.127 C 
HETATM   16  O3  UNL     1      -3.369   0.125  -1.650  1.00  0.00    -0.259 OA
HETATM   17  S2  UNL     1      -4.744   1.615   0.009  1.00  0.00     0.008 SA
ENDBRANCH  13  14
ENDBRANCH  10  13
ENDBRANCH   7   9
BRANCH   6  18
HETATM   18  N3  UNL     1       0.434   2.027   0.112  1.00  0.00    -0.324 N 
ATOM     19  H3  UNL     1      -0.521   1.882   0.439  1.00  0.00     0.169 HD
BRANCH  18  20
HETATM   20  C5  UNL     1       0.716   3.342  -0.140  1.00  0.00     0.112 C 
HETATM   21  C6  UNL     1       1.894   4.155   0.244  1.00  0.00     0.097 C 
BRANCH  20  22
HETATM   22  O1  UNL     1      -0.156   4.030  -0.823  1.00  0.00    -0.350 OA
ATOM     23  H1  UNL     1       0.040   4.943  -0.998  1.00  0.00     0.219 HD
ENDBRANCH  20  22
ENDBRANCH  18  20
ENDBRANCH   6  18
BRANCH   1  24
HETATM   24  C2  UNL     1       4.034  -2.354  -0.505  1.00  0.00     0.062 C 
HETATM   25  C1  UNL     1       3.385  -3.687  -0.133  1.00  0.00     0.012 C 
ENDBRANCH   1  24
TORSDOF 7
