REMARK  4 active torsions:
REMARK  status: ('A' for Active; 'I' for Inactive)
REMARK    1  A    between atoms: C4_4  and  C5_5 
REMARK    2  A    between atoms: C8_12  and  O4_13 
REMARK    3  A    between atoms: O4_13  and  C9_14 
REMARK    4  A    between atoms: C9_14  and  C10_16 
ROOT
HETATM    1  C1  UNL     1      -3.409  -0.142  -0.859  1.00  0.00     0.034 C 
HETATM    2  C2  UNL     1      -2.249  -0.865  -0.237  1.00  0.00     0.089 C 
HETATM    3  C3  UNL     1      -2.588  -2.262   0.196  1.00  0.00     0.034 C 
HETATM    4  C4  UNL     1      -1.675  -0.132   0.955  1.00  0.00     0.212 C 
HETATM    5  N1  UNL     1      -0.466   0.519   0.595  1.00  0.00    -0.315 N 
HETATM    6  C6  UNL     1       0.306   1.736   0.695  1.00  0.00     0.224 C 
HETATM    7  O3  UNL     1       0.366   2.521   1.654  1.00  0.00    -0.273 OA
HETATM    8  C7  UNL     1       1.047   1.901  -0.593  1.00  0.00     0.138 C 
HETATM    9  C8  UNL     1       1.427   0.453  -0.862  1.00  0.00     0.178 C 
HETATM   10  C12 UNL     1       0.388  -0.384  -0.204  1.00  0.00     0.241 C 
HETATM   11  S1  UNL     1      -0.856  -0.962  -1.338  1.00  0.00     0.178 S 
HETATM   12  O6  UNL     1      -1.039  -0.002  -2.474  1.00  0.00    -0.225 OA
HETATM   13  O7  UNL     1      -0.604  -2.355  -1.794  1.00  0.00    -0.225 OA
ENDROOT
BRANCH   9  14
HETATM   14  O4  UNL     1       2.662   0.236  -0.170  1.00  0.00    -0.309 OA
BRANCH  14  15
HETATM   15  C9  UNL     1       3.826  -0.095  -0.820  1.00  0.00     0.284 C 
HETATM   16  O5  UNL     1       3.820  -0.213  -2.052  1.00  0.00    -0.260 OA
BRANCH  15  17
HETATM   17  C10 UNL     1       5.068  -0.305  -0.046  1.00  0.00     0.094 C 
HETATM   18  C11 UNL     1       5.068  -0.179   1.260  1.00  0.00     0.090 C 
HETATM   19 CL1  UNL     1       6.539  -0.430   2.155  1.00  0.00    -0.097 Cl
ENDBRANCH  15  17
ENDBRANCH  14  15
ENDBRANCH   9  14
BRANCH   4  20
HETATM   20  C5  UNL     1      -2.698   0.798   1.457  1.00  0.00     0.198 C 
HETATM   21  O1  UNL     1      -3.829   0.406   1.882  1.00  0.00    -0.646 OA
HETATM   22  O2  UNL     1      -2.438   2.153   1.474  1.00  0.00    -0.646 OA
ENDBRANCH   4  20
TORSDOF 4
