REMARK  3 active torsions:
REMARK  status: ('A' for Active; 'I' for Inactive)
REMARK    1  A    between atoms: C2_2  and  C3_4 
REMARK    2  A    between atoms: C3_4  and  C4_5 
REMARK    3  A    between atoms: N1_13  and  O2_15 
ROOT
HETATM    1  C4  UNL     1      -1.726   0.118   0.064  1.00  0.00    -0.027 C 
HETATM    2  C5  UNL     1      -1.995   0.936   1.341  1.00  0.00     0.016 C 
HETATM    3  C6  UNL     1      -0.290   0.181  -0.203  1.00  0.00    -0.001 C 
HETATM    4  C7  UNL     1       0.172   0.214  -1.643  1.00  0.00     0.007 C 
HETATM    5  C8  UNL     1       1.638   0.455  -1.778  1.00  0.00     0.016 C 
HETATM    6  C9  UNL     1       2.533  -0.204  -0.793  1.00  0.00     0.001 C 
HETATM    7  C10 UNL     1       3.080  -1.509  -1.343  1.00  0.00     0.022 C 
HETATM    8  C11 UNL     1       3.700   0.634  -0.406  1.00  0.00     0.018 C 
HETATM    9  N1  UNL     1       4.917   0.611  -0.821  1.00  0.00    -0.277 N 
ATOM     10  H1  UNL     1       5.187  -0.071  -1.530  1.00  0.00     0.193 HD
HETATM   11  C12 UNL     1       3.183   1.571   0.621  1.00  0.00     0.056 C 
HETATM   12  C13 UNL     1       2.250   0.681   1.434  1.00  0.00     0.012 C 
HETATM   13  C14 UNL     1       1.965  -0.474   0.567  1.00  0.00     0.004 C 
HETATM   14  C15 UNL     1       0.555  -0.921   0.419  1.00  0.00    -0.005 C 
HETATM   15  C16 UNL     1       0.049  -1.413   1.724  1.00  0.00     0.006 C 
HETATM   16  C17 UNL     1      -1.383  -1.807   1.679  1.00  0.00     0.010 C 
HETATM   17  C18 UNL     1      -2.177  -1.303   0.516  1.00  0.00    -0.040 C 
HETATM   18  C19 UNL     1      -2.130  -2.304  -0.591  1.00  0.00     0.015 C 
HETATM   19  C20 UNL     1      -3.615  -1.282   0.990  1.00  0.00     0.015 C 
ENDROOT
BRANCH   1  20
HETATM   20  C3  UNL     1      -2.693   0.573  -0.953  1.00  0.00     0.088 C 
BRANCH  20  21
HETATM   21  C2  UNL     1      -2.729   1.977  -1.351  1.00  0.00     0.123 C 
HETATM   22  C1  UNL     1      -2.057   3.116  -0.716  1.00  0.00     0.091 C 
HETATM   23  O1  UNL     1      -3.416   2.252  -2.354  1.00  0.00    -0.298 OA
ENDBRANCH  20  21
ENDBRANCH   1  20
BRANCH   9  24
HETATM   24  O2  UNL     1       5.862   1.479  -0.335  1.00  0.00    -0.290 OA
ATOM     25  H2  UNL     1       6.761   1.462  -0.642  1.00  0.00     0.244 HD
ENDBRANCH   9  24
TORSDOF 3
