REMARK  2 active torsions:
REMARK  status: ('A' for Active; 'I' for Inactive)
REMARK    1  A    between atoms: C12_12  and  C13_13 
REMARK    2  A    between atoms: C19_20  and  C20_21 
ROOT
HETATM    1  C1  UNL     1      -0.516   2.484  -0.590  1.00  0.00     0.043 C 
HETATM    2  C2  UNL     1      -1.507   1.496  -0.930  1.00  0.00    -0.081 C 
HETATM    3  C3  UNL     1      -2.473   1.936  -2.034  1.00  0.00     0.043 C 
HETATM    4  C4  UNL     1      -1.753   0.289  -0.527  1.00  0.00    -0.050 C 
HETATM    5  C5  UNL     1      -2.928  -0.507  -1.099  1.00  0.00     0.039 C 
HETATM    6  C6  UNL     1      -3.550  -1.360  -0.058  1.00  0.00     0.006 C 
HETATM    7  C7  UNL     1      -2.697  -1.951   0.989  1.00  0.00     0.014 C 
HETATM    8  C8  UNL     1      -1.750  -0.968   1.643  1.00  0.00    -0.020 C 
HETATM    9  C9  UNL     1      -2.522   0.040   2.430  1.00  0.00     0.020 C 
HETATM   10  C10 UNL     1      -0.849  -1.639   2.646  1.00  0.00     0.020 C 
HETATM   11  C11 UNL     1      -0.975  -0.424   0.467  1.00  0.00    -0.046 C 
HETATM   12  C12 UNL     1       0.277  -0.648   0.280  1.00  0.00    -0.002 C 
ENDROOT
BRANCH  12  13
HETATM   13  C13 UNL     1       1.297  -0.409  -0.698  1.00  0.00     0.107 C 
HETATM   14  C14 UNL     1       1.967  -1.639  -1.235  1.00  0.00     0.138 C 
HETATM   15  O1  UNL     1       1.865  -2.756  -0.831  1.00  0.00    -0.297 OA
HETATM   16  C15 UNL     1       2.856  -1.466  -2.392  1.00  0.00     0.079 C 
HETATM   17  C16 UNL     1       3.358  -0.051  -2.414  1.00  0.00     0.012 C 
HETATM   18  C17 UNL     1       3.622   0.515  -1.043  1.00  0.00     0.036 C 
HETATM   19  C18 UNL     1       2.493   0.339  -0.118  1.00  0.00    -0.059 C 
HETATM   20  C19 UNL     1       2.453   0.750   1.118  1.00  0.00     0.088 C 
BRANCH  20  21
HETATM   21  C20 UNL     1       3.543   1.459   1.723  1.00  0.00     0.198 C 
HETATM   22  O2  UNL     1       4.611   1.749   1.139  1.00  0.00    -0.644 OA
HETATM   23  O3  UNL     1       3.460   1.884   3.066  1.00  0.00    -0.644 OA
ENDBRANCH  20  21
ENDBRANCH  12  13
TORSDOF 2
