REMARK  3 active torsions:
REMARK  status: ('A' for Active; 'I' for Inactive)
REMARK    1  A    between atoms: C11_11  and  C12_12 
REMARK    2  A    between atoms: C15_15  and  O1_16 
REMARK    3  A    between atoms: C20_22  and  O2_23 
ROOT
HETATM    1  C12 UNL     1       0.771  -0.562  -0.073  1.00  0.00    -0.011 C 
HETATM    2  C13 UNL     1       0.554  -2.074   0.199  1.00  0.00     0.018 C 
HETATM    3  C14 UNL     1       0.966   0.013   1.295  1.00  0.00     0.044 C 
HETATM    4  C15 UNL     1       2.291  -0.238   1.942  1.00  0.00     0.119 C 
HETATM    5  C16 UNL     1       3.433  -0.477   1.048  1.00  0.00     0.043 C 
HETATM    6  C17 UNL     1       3.247   0.032  -0.343  1.00  0.00    -0.019 C 
HETATM    7  C18 UNL     1       3.426   1.508  -0.463  1.00  0.00     0.017 C 
HETATM    8  C19 UNL     1       4.437  -0.543  -1.146  1.00  0.00     0.017 C 
HETATM    9  C20 UNL     1       2.045  -0.597  -0.890  1.00  0.00     0.134 C 
ENDROOT
BRANCH   1  10
HETATM   10  C11 UNL     1      -0.336  -0.017  -0.878  1.00  0.00     0.001 C 
HETATM   11  C7  UNL     1      -1.728  -0.098  -0.407  1.00  0.00     0.003 C 
HETATM   12  C6  UNL     1      -2.349  -1.274   0.162  1.00  0.00     0.039 C 
HETATM   13  C8  UNL     1      -2.014   1.121   0.483  1.00  0.00     0.022 C 
HETATM   14  C4  UNL     1      -3.833  -1.067   0.065  1.00  0.00    -0.083 C 
HETATM   15  C3  UNL     1      -4.318   0.150   0.191  1.00  0.00     0.009 C 
HETATM   16  C5  UNL     1      -4.693  -2.217  -0.165  1.00  0.00     0.043 C 
HETATM   17  C2  UNL     1      -3.478   1.329   0.423  1.00  0.00    -0.063 C 
HETATM   18  C1  UNL     1      -4.073   2.491   0.563  1.00  0.00     0.019 C 
HETATM   19  C9  UNL     1      -1.211   2.158  -0.209  1.00  0.00     0.010 C 
HETATM   20  C10 UNL     1      -0.352   1.446  -1.227  1.00  0.00     0.006 C 
ENDBRANCH   1  10
BRANCH   9  21
HETATM   21  O2  UNL     1       1.804  -0.032  -2.156  1.00  0.00    -0.394 OA
ATOM     22  H2  UNL     1       2.603  -0.054  -2.669  1.00  0.00     0.210 HD
ENDBRANCH   9  21
BRANCH   4  23
HETATM   23  O1  UNL     1       2.648   0.816   2.817  1.00  0.00    -0.396 OA
ATOM     24  H1  UNL     1       3.490   0.657   3.228  1.00  0.00     0.210 HD
ENDBRANCH   4  23
TORSDOF 3
