REMARK  5 active torsions:
REMARK  status: ('A' for Active; 'I' for Inactive)
REMARK    1  A    between atoms: C2_2  and  C4_4 
REMARK    2  A    between atoms: C4_4  and  C5_5 
REMARK    3  A    between atoms: C6_7  and  N1_8 
REMARK    4  A    between atoms: N1_8  and  C7_10 
REMARK    5  A    between atoms: C13_20  and  C14_21 
ROOT
HETATM    1  C5  UNL     1      -2.027   0.532   0.810  1.00  0.00     0.010 A 
HETATM    2  S1  UNL     1      -0.821   1.594   1.474  1.00  0.00    -0.057 SA
HETATM    3  C6  UNL     1       0.560   0.842   0.830  1.00  0.00     0.150 A 
HETATM    4  N3  UNL     1       0.055  -0.177   0.145  1.00  0.00    -0.338 N 
ATOM      5  H3  UNL     1       0.669  -0.817  -0.359  1.00  0.00     0.168 HD
HETATM    6  C13 UNL     1      -1.264  -0.351   0.126  1.00  0.00     0.032 A 
ENDROOT
BRANCH   3   7
HETATM    7  N1  UNL     1       1.826   1.181   0.979  1.00  0.00    -0.326 N 
ATOM      8  H1  UNL     1       2.012   2.002   1.555  1.00  0.00     0.169 HD
BRANCH   7   9
HETATM    9  C7  UNL     1       2.923   0.547   0.441  1.00  0.00     0.078 C 
HETATM   10  N2  UNL     1       3.134  -0.723   0.567  1.00  0.00    -0.380 N 
HETATM   11  C8  UNL     1       4.191  -1.562   0.093  1.00  0.00     0.121 C 
ATOM     12  H2  UNL     1       2.417  -1.215   1.101  1.00  0.00     0.160 HD
HETATM   13  C9  UNL     1       5.577  -1.063   0.282  1.00  0.00     0.020 C 
HETATM   14  C10 UNL     1       5.936   0.195  -0.436  1.00  0.00     0.002 C 
HETATM   15  C11 UNL     1       5.266   1.343   0.287  1.00  0.00     0.007 C 
HETATM   16  C12 UNL     1       3.871   1.427  -0.292  1.00  0.00     0.076 C 
ENDBRANCH   7   9
ENDBRANCH   3   7
BRANCH   1  17
HETATM   17  C4  UNL     1      -3.446   0.850   0.998  1.00  0.00     0.052 C 
BRANCH  17  18
HETATM   18  C2  UNL     1      -3.891   2.067   0.283  1.00  0.00    -0.018 C 
HETATM   19  C1  UNL     1      -5.395   2.235   0.550  1.00  0.00     0.010 C 
HETATM   20  C3  UNL     1      -3.567   2.154  -1.136  1.00  0.00     0.010 C 
ENDBRANCH  17  18
ENDBRANCH   1  17
BRANCH   6  21
HETATM   21  C14 UNL     1      -1.855  -1.578  -0.516  1.00  0.00    -0.008 C 
HETATM   22  C15 UNL     1      -2.871  -1.395  -1.556  1.00  0.00     0.021 C 
HETATM   23  C16 UNL     1      -2.355  -2.513   0.613  1.00  0.00     0.021 C 
HETATM   24  C17 UNL     1      -0.744  -2.438  -1.163  1.00  0.00     0.021 C 
ENDBRANCH   6  21
TORSDOF 5
