REMARK  4 active torsions:
REMARK  status: ('A' for Active; 'I' for Inactive)
REMARK    1  A    between atoms: C2_2  and  O1_3 
REMARK    2  A    between atoms: C2_2  and  C3_5 
REMARK    3  A    between atoms: C14_16  and  C15_17 
REMARK    4  A    between atoms: C15_17  and  O2_18 
ROOT
HETATM    1  C3  UNL     1       4.662   0.057  -0.183  1.00  0.00     0.007 C 
HETATM    2  C4  UNL     1       3.427  -0.263   0.192  1.00  0.00    -0.081 C 
HETATM    3  C5  UNL     1       2.714   0.466   1.259  1.00  0.00     0.037 C 
HETATM    4  C6  UNL     1       1.399   0.951   0.711  1.00  0.00     0.042 C 
HETATM    5  C7  UNL     1       0.562  -0.216   0.161  1.00  0.00     0.062 C 
HETATM    6  C8  UNL     1       0.299  -1.129   1.309  1.00  0.00     0.038 C 
HETATM    7  C9  UNL     1      -0.818  -2.097   1.095  1.00  0.00     0.006 C 
HETATM    8  C10 UNL     1      -1.737  -1.689  -0.006  1.00  0.00     0.038 C 
HETATM    9  C11 UNL     1      -1.734  -0.205  -0.277  1.00  0.00     0.062 C 
HETATM   10  C12 UNL     1      -2.435  -0.022  -1.626  1.00  0.00     0.038 C 
HETATM   11  C13 UNL     1      -3.920  -0.115  -1.516  1.00  0.00     0.010 C 
HETATM   12  C14 UNL     1      -4.491   0.786  -0.466  1.00  0.00     0.009 C 
HETATM   13  C16 UNL     1      -3.925   0.288   0.866  1.00  0.00     0.010 C 
HETATM   14  C17 UNL     1      -2.453   0.479   0.834  1.00  0.00     0.038 C 
HETATM   15  O3  UNL     1      -0.509   0.350  -0.430  1.00  0.00    -0.369 OA
HETATM   16  C18 UNL     1       1.342  -0.982  -0.883  1.00  0.00     0.042 C 
HETATM   17  C19 UNL     1       2.708  -1.381  -0.457  1.00  0.00     0.037 C 
ENDROOT
BRANCH   1  18
HETATM   18  C2  UNL     1       5.434   1.161   0.423  1.00  0.00     0.137 C 
HETATM   19  C1  UNL     1       6.916   0.981   0.165  1.00  0.00     0.043 C 
BRANCH  18  20
HETATM   20  O1  UNL     1       5.055   2.359  -0.180  1.00  0.00    -0.392 OA
ATOM     21  H1  UNL     1       4.126   2.472  -0.018  1.00  0.00     0.210 HD
ENDBRANCH  18  20
ENDBRANCH   1  18
BRANCH  12  22
HETATM   22  C15 UNL     1      -5.990   0.580  -0.387  1.00  0.00     0.168 C 
BRANCH  22  23
HETATM   23  O2  UNL     1      -6.514   1.437   0.608  1.00  0.00    -0.400 OA
ATOM     24  H2  UNL     1      -7.454   1.308   0.658  1.00  0.00     0.209 HD
ENDBRANCH  22  23
ENDBRANCH  12  22
TORSDOF 4
