REMARK  4 active torsions:
REMARK  status: ('A' for Active; 'I' for Inactive)
REMARK    1  A    between atoms: C4_6  and  C5_7 
REMARK    2  A    between atoms: C6_8  and  C7_9 
REMARK    3  A    between atoms: C9_11  and  C10_12 
REMARK    4  A    between atoms: C14_16  and  O1_18 
ROOT
HETATM    1  C1  UNL     1      -1.510   2.474  -2.415  1.00  0.00     0.146 C 
HETATM    2  N1  UNL     1      -2.656   1.642  -2.143  1.00  0.00    -0.395 N 
ATOM      3  H1  UNL     1      -3.357   1.474  -2.865  1.00  0.00     0.159 HD
HETATM    4  C2  UNL     1      -2.781   1.116  -0.978  1.00  0.00     0.052 C 
HETATM    5  C3  UNL     1      -1.759   1.368   0.059  1.00  0.00     0.072 C 
HETATM    6  C4  UNL     1      -0.891   0.107   0.150  1.00  0.00     0.048 C 
HETATM    7  C14 UNL     1      -1.757  -1.125   0.380  1.00  0.00     0.062 C 
HETATM    8  C15 UNL     1      -1.869  -1.911  -0.894  1.00  0.00     0.046 C 
HETATM    9  C16 UNL     1      -3.009  -0.897   1.118  1.00  0.00     0.055 C 
HETATM   10  C17 UNL     1      -4.249  -0.668   0.307  1.00  0.00     0.022 C 
HETATM   11  C18 UNL     1      -5.229   0.090   1.218  1.00  0.00     0.023 C 
HETATM   12  C19 UNL     1      -4.947  -1.914  -0.131  1.00  0.00     0.023 C 
HETATM   13  C20 UNL     1      -3.994   0.287  -0.818  1.00  0.00     0.179 C 
HETATM   14  O2  UNL     1      -4.862   0.407  -1.698  1.00  0.00    -0.290 OA
ENDROOT
BRANCH   6  15
HETATM   15  C5  UNL     1       0.030   0.345   1.252  1.00  0.00    -0.018 C 
HETATM   16  C6  UNL     1       1.307   0.381   1.270  1.00  0.00     0.003 C 
BRANCH  16  17
HETATM   17  C7  UNL     1       2.363   0.220   0.302  1.00  0.00    -0.065 C 
HETATM   18  C8  UNL     1       2.123  -0.090  -1.116  1.00  0.00     0.048 C 
HETATM   19  C9  UNL     1       3.611   0.354   0.770  1.00  0.00    -0.012 C 
BRANCH  19  20
HETATM   20  C10 UNL     1       4.867   0.250   0.056  1.00  0.00    -0.033 C 
HETATM   21  C11 UNL     1       5.011   1.215  -1.102  1.00  0.00     0.018 C 
HETATM   22  C12 UNL     1       6.004   0.613   1.046  1.00  0.00     0.018 C 
HETATM   23  C13 UNL     1       5.115  -1.189  -0.339  1.00  0.00     0.018 C 
ENDBRANCH  19  20
ENDBRANCH  16  17
ENDBRANCH   6  15
BRANCH   7  24
HETATM   24  O1  UNL     1      -0.948  -1.931   1.234  1.00  0.00    -0.390 OA
ATOM     25  H1  UNL     1      -1.488  -2.699   1.377  1.00  0.00     0.210 HD
ENDBRANCH   7  24
TORSDOF 4
