REMARK  18 active torsions:
REMARK  status: ('A' for Active; 'I' for Inactive)
REMARK    1  A    between atoms: C4_5  and  C5_6 
REMARK    2  A    between atoms: C5_6  and  C6_7 
REMARK    3  A    between atoms: C6_7  and  C7_8 
REMARK    4  A    between atoms: C7_8  and  N2_9 
REMARK    5  A    between atoms: N2_9  and  N3_10 
REMARK    6  A    between atoms: N2_9  and  C8_13 
REMARK    7  A    between atoms: C8_13  and  C9_14 
REMARK    8  A    between atoms: C9_14  and  C10_15 
REMARK    9  A    between atoms: C10_15  and  C11_16 
REMARK   10  A    between atoms: C11_16  and  C12_17 
REMARK   11  A    between atoms: C12_17  and  N4_18 
REMARK   12  A    between atoms: C12_17  and  C13_22 
REMARK   13  A    between atoms: C13_22  and  C14_23 
REMARK   14  A    between atoms: C14_23  and  C15_24 
REMARK   15  A    between atoms: C15_24  and  N5_25 
REMARK   16  A    between atoms: N5_25  and  C16_27 
REMARK   17  A    between atoms: C16_27  and  C17_28 
REMARK   18  A    between atoms: C17_28  and  N6_29 
ROOT
HETATM    1  C10 UNL     1       0.227  -4.171  -1.125  1.00  0.00     0.003 C 
ENDROOT
BRANCH   1   2
HETATM    2  C9  UNL     1      -0.822  -3.192  -0.810  1.00  0.00     0.016 C 
BRANCH   2   3
HETATM    3  C8  UNL     1      -0.909  -1.991  -1.732  1.00  0.00     0.113 C 
BRANCH   3   4
HETATM    4  N2  UNL     1      -1.995  -1.178  -1.229  1.00  0.00    -0.238 NA
BRANCH   4   5
HETATM    5  C7  UNL     1      -2.149   0.055  -1.967  1.00  0.00     0.113 C 
BRANCH   5   6
HETATM    6  C6  UNL     1      -3.318   0.857  -1.432  1.00  0.00     0.022 C 
BRANCH   6   7
HETATM    7  C5  UNL     1      -3.166   1.218   0.030  1.00  0.00     0.058 C 
BRANCH   7   8
HETATM    8  C4  UNL     1      -4.376   1.993   0.410  1.00  0.00     0.011 A 
HETATM    9  C3  UNL     1      -4.445   3.365   0.310  1.00  0.00     0.042 A 
HETATM   10  C2  UNL     1      -5.591   4.058   0.668  1.00  0.00     0.093 A 
HETATM   11  N1  UNL     1      -6.671   3.392   1.127  1.00  0.00    -0.357 N 
HETATM   12  C1  UNL     1      -7.888   4.127   1.505  1.00  0.00     0.156 C 
HETATM   13  C19 UNL     1      -6.596   2.053   1.221  1.00  0.00     0.182 A 
HETATM   14  N9  UNL     1      -5.493   1.363   0.879  1.00  0.00    -0.356 N 
ATOM     15  H9  UNL     1      -5.491   0.347   0.972  1.00  0.00     0.166 HD
ENDBRANCH   7   8
ENDBRANCH   6   7
ENDBRANCH   5   6
ENDBRANCH   4   5
BRANCH   4  16
HETATM   16  N3  UNL     1      -3.188  -1.882  -1.107  1.00  0.00    -0.363 NA
ATOM     17  H32 UNL     1      -3.954  -1.309  -0.752  1.00  0.00     0.171 HD
ATOM     18  H31 UNL     1      -3.079  -2.752  -0.586  1.00  0.00     0.171 HD
ENDBRANCH   4  16
ENDBRANCH   3   4
ENDBRANCH   2   3
ENDBRANCH   1   2
BRANCH   1  19
HETATM   19  C11 UNL     1       1.639  -3.791  -1.131  1.00  0.00     0.033 C 
BRANCH  19  20
HETATM   20  C12 UNL     1       2.305  -3.314   0.109  1.00  0.00     0.183 C 
BRANCH  20  21
HETATM   21  N4  UNL     1       2.209  -4.307   1.174  1.00  0.00    -0.075 N 
ATOM     22  H43 UNL     1       1.241  -4.578   1.348  1.00  0.00     0.274 HD
ATOM     23  H42 UNL     1       2.573  -5.212   0.877  1.00  0.00     0.274 HD
ATOM     24  H41 UNL     1       2.666  -3.980   2.025  1.00  0.00     0.274 HD
ENDBRANCH  20  21
BRANCH  20  25
HETATM   25  C13 UNL     1       1.994  -1.930   0.489  1.00  0.00     0.037 C 
BRANCH  25  26
HETATM   26  C14 UNL     1       2.732  -1.491   1.757  1.00  0.00     0.046 C 
BRANCH  26  27
HETATM   27  C15 UNL     1       4.205  -1.572   1.638  1.00  0.00     0.060 C 
BRANCH  27  28
HETATM   28  N5  UNL     1       4.885  -0.877   0.667  1.00  0.00    -0.381 N 
ATOM     29  H5  UNL     1       5.274  -1.436  -0.092  1.00  0.00     0.164 HD
BRANCH  28  30
HETATM   30  C16 UNL     1       5.108   0.484   0.590  1.00  0.00     0.079 C 
BRANCH  30  31
HETATM   31  C17 UNL     1       3.907   1.313   0.292  1.00  0.00     0.166 C 
BRANCH  31  32
HETATM   32  N6  UNL     1       4.120   2.708   0.160  1.00  0.00    -0.362 N 
HETATM   33  C18 UNL     1       5.082   3.479   0.287  1.00  0.00     0.197 C 
HETATM   34  N7  UNL     1       4.817   4.886   0.040  1.00  0.00    -0.067 NA
HETATM   35  N8  UNL     1       6.396   3.075   0.651  1.00  0.00    -0.067 NA
ATOM     36  H6  UNL     1       3.268   3.201  -0.106  1.00  0.00     0.162 HD
ENDBRANCH  31  32
ENDBRANCH  30  31
ENDBRANCH  28  30
ENDBRANCH  27  28
ENDBRANCH  26  27
ENDBRANCH  25  26
ENDBRANCH  20  25
ENDBRANCH  19  20
ENDBRANCH   1  19
TORSDOF 18
