REMARK  9 active torsions:
REMARK  status: ('A' for Active; 'I' for Inactive)
REMARK    1  A    between atoms: C2_2  and  C3_3 
REMARK    2  A    between atoms: C3_3  and  N1_4 
REMARK    3  A    between atoms: N1_4  and  C4_6 
REMARK    4  A    between atoms: C5_9  and  N3_10 
REMARK    5  A    between atoms: N3_10  and  C6_11 
REMARK    6  A    between atoms: C6_11  and  C7_12 
REMARK    7  A    between atoms: C15_23  and  C16_24 
REMARK    8  A    between atoms: C16_24  and  C17_25 
REMARK    9  A    between atoms: C20_28  and  C21_29 
ROOT
HETATM    1  C4  UNL     1       1.693   2.410  -0.206  1.00  0.00     0.681 A 
HETATM    2  N2  UNL     1       2.556   1.815   0.592  1.00  0.00    -0.162 N 
ATOM      3  H2  UNL     1       3.288   2.399   0.996  1.00  0.00     0.187 HD
HETATM    4  C5  UNL     1       2.564   0.475   0.934  1.00  0.00     0.223 A 
HETATM    5  C13 UNL     1       1.540  -0.308   0.362  1.00  0.00     0.138 A 
HETATM    6  C14 UNL     1       0.653   0.318  -0.468  1.00  0.00     0.106 A 
HETATM    7  N5  UNL     1       0.726   1.653  -0.747  1.00  0.00    -0.187 N 
ATOM      8  H5  UNL     1       0.040   2.078  -1.371  1.00  0.00     0.184 HD
HETATM    9  C15 UNL     1      -0.200  -0.677  -0.964  1.00  0.00     0.060 A 
HETATM   10  N7  UNL     1       0.230  -1.796  -0.393  1.00  0.00    -0.300 N 
ATOM     11  H7  UNL     1      -0.201  -2.706  -0.559  1.00  0.00     0.187 HD
HETATM   12  N8  UNL     1       1.261  -1.627   0.406  1.00  0.00    -0.290 N 
HETATM   13  C30 UNL     1       1.921  -2.647   1.209  1.00  0.00     0.178 C 
ENDROOT
BRANCH   9  14
HETATM   14  C16 UNL     1      -1.308  -0.450  -1.904  1.00  0.00     0.100 C 
BRANCH  14  15
HETATM   15  C17 UNL     1      -2.639  -0.400  -1.292  1.00  0.00    -0.042 A 
HETATM   16  C18 UNL     1      -3.224   0.794  -0.977  1.00  0.00     0.009 A 
HETATM   17  C19 UNL     1      -4.494   0.846  -0.413  1.00  0.00     0.014 A 
HETATM   18  C20 UNL     1      -5.172  -0.329  -0.167  1.00  0.00    -0.014 A 
HETATM   19  C26 UNL     1      -4.565  -1.544  -0.491  1.00  0.00    -0.024 A 
HETATM   20  C27 UNL     1      -5.282  -2.627  -0.283  1.00  0.00     0.025 C 
HETATM   21  C28 UNL     1      -3.316  -1.602  -1.047  1.00  0.00    -0.029 A 
HETATM   22  C29 UNL     1      -2.801  -2.757  -1.413  1.00  0.00     0.025 C 
BRANCH  18  23
HETATM   23  C21 UNL     1      -6.475  -0.246   0.466  1.00  0.00    -0.002 A 
HETATM   24  C22 UNL     1      -6.906  -0.780   1.660  1.00  0.00     0.031 A 
HETATM   25  C23 UNL     1      -8.203  -0.423   1.888  1.00  0.00     0.089 A 
HETATM   26  N6  UNL     1      -8.570   0.327   0.842  1.00  0.00    -0.369 N 
HETATM   27  C24 UNL     1      -7.577   0.460  -0.028  1.00  0.00     0.016 A 
ATOM     28  H6  UNL     1      -9.494   0.743   0.728  1.00  0.00     0.165 HD
HETATM   29  C25 UNL     1      -7.592   1.201  -1.315  1.00  0.00     0.069 C 
ENDBRANCH  18  23
ENDBRANCH  14  15
ENDBRANCH   9  14
BRANCH   4  30
HETATM   30  N3  UNL     1       3.421  -0.013   1.586  1.00  0.00    -0.396 NA
BRANCH  30  31
HETATM   31  C6  UNL     1       4.364  -0.576   2.310  1.00  0.00     0.196 C 
BRANCH  31  32
HETATM   32  C7  UNL     1       5.466  -1.317   1.568  1.00  0.00    -0.005 A 
HETATM   33  C8  UNL     1       6.458  -1.932   2.267  1.00  0.00     0.014 A 
HETATM   34  C9  UNL     1       7.484  -2.649   1.653  1.00  0.00     0.003 A 
HETATM   35  C10 UNL     1       7.453  -2.713   0.270  1.00  0.00     0.026 A 
HETATM   36  C11 UNL     1       6.462  -2.099  -0.463  1.00  0.00     0.047 A 
HETATM   37  N4  UNL     1       6.507  -2.211  -1.877  1.00  0.00    -0.102 NA
HETATM   38  C12 UNL     1       5.449  -1.389   0.195  1.00  0.00     0.040 A 
ENDBRANCH  31  32
ENDBRANCH  30  31
ENDBRANCH   4  30
BRANCH   1  39
HETATM   39  N1  UNL     1       1.783   3.669  -0.551  1.00  0.00    -0.223 N 
ATOM     40  H1  UNL     1       1.089   4.089  -1.169  1.00  0.00     0.178 HD
BRANCH  39  41
HETATM   41  C3  UNL     1       2.880   4.449  -0.042  1.00  0.00     0.164 C 
BRANCH  41  42
HETATM   42  C2  UNL     1       3.122   5.655  -0.898  1.00  0.00    -0.017 C 
HETATM   43  C1  UNL     1       3.068   6.842  -0.389  1.00  0.00     0.008 C 
ENDBRANCH  41  42
ENDBRANCH  39  41
ENDBRANCH   1  39
TORSDOF 9
