REMARK  8 active torsions:
REMARK  status: ('A' for Active; 'I' for Inactive)
REMARK       I    between atoms: N1_2  and  C2_4 
REMARK    1  A    between atoms: C2_4  and  C3_6 
REMARK    2  A    between atoms: C4_7  and  C5_8 
REMARK    3  A    between atoms: C6_9  and  N2_10 
REMARK    4  A    between atoms: N2_10  and  C7_12 
REMARK    5  A    between atoms: C7_12  and  C8_13 
REMARK    6  A    between atoms: C11_18  and  C12_19 
REMARK    7  A    between atoms: N7_30  and  C17_31 
REMARK    8  A    between atoms: C20_34  and  C21_35 
ROOT
HETATM    1  C5  UNL     1      -0.603   0.874  -0.897  1.00  0.00     0.037 A 
HETATM    2  C6  UNL     1      -1.950   1.053  -1.181  1.00  0.00     0.114 A 
HETATM    3  N5  UNL     1      -2.384   1.835  -2.201  1.00  0.00    -0.351 N 
ATOM      4  H5  UNL     1      -3.387   1.927  -2.361  1.00  0.00     0.166 HD
HETATM    5  C13 UNL     1      -1.543   2.485  -2.999  1.00  0.00     0.105 A 
HETATM    6  C14 UNL     1      -0.206   2.356  -2.779  1.00  0.00     0.033 A 
HETATM    7  C15 UNL     1       0.876   2.883  -3.438  1.00  0.00     0.036 A 
HETATM    8  C16 UNL     1       0.805   3.787  -4.604  1.00  0.00     0.070 C 
HETATM    9  N6  UNL     1       1.948   2.440  -2.848  1.00  0.00    -0.297 N 
ATOM     10  H6  UNL     1       2.902   2.669  -3.126  1.00  0.00     0.187 HD
HETATM   11  N7  UNL     1       1.613   1.622  -1.800  1.00  0.00    -0.255 N 
HETATM   12  C29 UNL     1       0.295   1.557  -1.736  1.00  0.00     0.084 A 
ENDROOT
BRANCH   2  13
HETATM   13  N2  UNL     1      -2.878   0.513  -0.453  1.00  0.00    -0.371 N 
ATOM     14  H2  UNL     1      -2.610  -0.057   0.349  1.00  0.00     0.161 HD
BRANCH  13  15
HETATM   15  C7  UNL     1      -4.270   0.695  -0.743  1.00  0.00     0.162 C 
BRANCH  15  16
HETATM   16  C8  UNL     1      -5.161   0.068   0.278  1.00  0.00    -0.007 A 
HETATM   17  C9  UNL     1      -4.770  -0.613   1.397  1.00  0.00     0.028 A 
HETATM   18  C10 UNL     1      -5.918  -1.009   2.045  1.00  0.00     0.089 A 
HETATM   19  N3  UNL     1      -6.963  -0.575   1.328  1.00  0.00    -0.361 N 
HETATM   20  C11 UNL     1      -6.534   0.077   0.260  1.00  0.00     0.105 A 
ATOM     21  H3  UNL     1      -7.943  -0.725   1.569  1.00  0.00     0.165 HD
BRANCH  20  22
HETATM   22  C12 UNL     1      -7.377   0.710  -0.782  1.00  0.00     0.282 C 
HETATM   23  N4  UNL     1      -8.788   0.618  -0.637  1.00  0.00    -0.056 NA
HETATM   24  O2  UNL     1      -6.814   1.287  -1.723  1.00  0.00    -0.269 OA
ENDBRANCH  20  22
ENDBRANCH  15  16
ENDBRANCH  13  15
ENDBRANCH   2  13
BRANCH   1  25
HETATM   25  C4  UNL     1      -0.137  -0.001   0.143  1.00  0.00     0.023 C 
HETATM   26  C3  UNL     1      -0.841  -0.981   0.679  1.00  0.00     0.075 C 
BRANCH  26  27
HETATM   27  C2  UNL     1      -0.207  -1.787   1.748  1.00  0.00     0.240 C 
HETATM   28  N1  UNL     1      -0.888  -2.850   2.372  1.00  0.00    -0.362 N 
HETATM   29  C1  UNL     1      -0.287  -3.658   3.426  1.00  0.00     0.149 C 
ATOM     30  H1  UNL     1      -1.840  -3.063   2.075  1.00  0.00     0.162 HD
HETATM   31  O1  UNL     1       0.952  -1.504   2.087  1.00  0.00    -0.269 OA
ENDBRANCH  26  27
ENDBRANCH   1  25
BRANCH  11  32
HETATM   32  C17 UNL     1       2.610   0.989  -1.025  1.00  0.00     0.057 A 
HETATM   33  C18 UNL     1       3.293   1.641   0.005  1.00  0.00     0.032 A 
HETATM   34  C19 UNL     1       4.309   1.056   0.725  1.00  0.00     0.014 A 
HETATM   35  C20 UNL     1       4.715  -0.236   0.460  1.00  0.00    -0.026 A 
HETATM   36  C27 UNL     1       4.056  -0.901  -0.553  1.00  0.00     0.014 A 
HETATM   37  C28 UNL     1       3.040  -0.320  -1.276  1.00  0.00     0.032 A 
BRANCH  35  38
HETATM   38  C21 UNL     1       5.794  -0.863   1.223  1.00  0.00    -0.026 A 
HETATM   39  C22 UNL     1       6.636  -1.805   0.660  1.00  0.00     0.012 A 
HETATM   40  C23 UNL     1       7.653  -2.397   1.377  1.00  0.00     0.001 A 
HETATM   41  C24 UNL     1       7.842  -2.048   2.687  1.00  0.00     0.000 A 
HETATM   42  C25 UNL     1       7.018  -1.107   3.283  1.00  0.00     0.001 A 
HETATM   43  C26 UNL     1       6.008  -0.531   2.540  1.00  0.00     0.012 A 
ENDBRANCH  35  38
ENDBRANCH  11  32
TORSDOF 8
