REMARK  10 active torsions:
REMARK  status: ('A' for Active; 'I' for Inactive)
REMARK    1  A    between atoms: N1_2  and  C2_3 
REMARK    2  A    between atoms: N1_2  and  C8_11 
REMARK    3  A    between atoms: C2_3  and  C3_4 
REMARK    4  A    between atoms: C8_11  and  O1_12 
REMARK    5  A    between atoms: C8_11  and  C9_14 
REMARK    6  A    between atoms: C11_16  and  C12_17 
REMARK    7  A    between atoms: C14_23  and  C15_24 
REMARK    8  A    between atoms: N5_25  and  N6_27 
REMARK    9  A    between atoms: N6_27  and  C16_29 
REMARK   10  A    between atoms: C18_33  and  C19_34 
ROOT
HETATM    1  C9  UNL     1       1.712   0.327  -1.296  1.00  0.00     0.016 A 
HETATM    2  C10 UNL     1       1.415  -0.739  -0.502  1.00  0.00     0.031 A 
HETATM    3  C11 UNL     1       0.163  -0.932   0.133  1.00  0.00     0.017 A 
HETATM    4  C13 UNL     1      -0.805  -0.006  -0.075  1.00  0.00    -0.001 A 
HETATM    5  C14 UNL     1      -2.059  -0.175   0.456  1.00  0.00    -0.006 A 
HETATM    6  C17 UNL     1      -3.049   0.801   0.209  1.00  0.00     0.026 A 
HETATM    7  C18 UNL     1      -2.786   1.894  -0.554  1.00  0.00    -0.024 A 
HETATM    8  C25 UNL     1      -1.540   2.052  -1.101  1.00  0.00     0.024 A 
HETATM    9  C26 UNL     1      -0.533   1.112  -0.881  1.00  0.00    -0.022 A 
HETATM   10  C27 UNL     1       0.687   1.271  -1.470  1.00  0.00     0.028 A 
ENDROOT
BRANCH   1  11
HETATM   11  C8  UNL     1       2.960   0.568  -1.975  1.00  0.00     0.148 C 
BRANCH  11  12
HETATM   12  N1  UNL     1       4.133  -0.128  -2.084  1.00  0.00    -0.360 N 
HETATM   13  C1  UNL     1       5.252   0.489  -2.910  1.00  0.00     0.152 C 
BRANCH  12  14
HETATM   14  C2  UNL     1       4.487  -1.388  -1.536  1.00  0.00     0.181 C 
BRANCH  14  15
HETATM   15  C3  UNL     1       5.101  -1.190  -0.193  1.00  0.00     0.027 A 
HETATM   16  C4  UNL     1       5.221   0.046   0.401  1.00  0.00     0.027 A 
HETATM   17  C5  UNL     1       5.791   0.173   1.633  1.00  0.00     0.003 A 
HETATM   18  C6  UNL     1       6.260  -0.934   2.313  1.00  0.00     0.017 A 
HETATM   19  C7  UNL     1       6.126  -2.145   1.697  1.00  0.00     0.088 A 
HETATM   20  N2  UNL     1       5.565  -2.270   0.484  1.00  0.00    -0.368 N 
ATOM     21  H2  UNL     1       5.486  -3.196   0.063  1.00  0.00     0.165 HD
ENDBRANCH  14  15
ENDBRANCH  12  14
ENDBRANCH  11  12
BRANCH  11  22
HETATM   22  O1  UNL     1       2.981   1.709  -2.640  1.00  0.00    -0.346 OA
ATOM     23  H1  UNL     1       2.167   2.192  -2.564  1.00  0.00     0.219 HD
ENDBRANCH  11  22
ENDBRANCH   1  11
BRANCH   3  24
HETATM   24  C12 UNL     1       0.218  -1.827   1.288  1.00  0.00     0.121 C 
HETATM   25  N3  UNL     1       0.938  -2.876   1.243  1.00  0.00    -0.387 N 
ATOM     26  H32 UNL     1       1.282  -3.140   0.320  1.00  0.00     0.157 HD
ATOM     27  H31 UNL     1       0.976  -3.500   2.049  1.00  0.00     0.157 HD
HETATM   28  N4  UNL     1      -0.258  -1.462   2.566  1.00  0.00    -0.082 NA
ENDBRANCH   3  24
BRANCH   5  29
HETATM   29  C15 UNL     1      -2.535  -1.458   0.940  1.00  0.00     0.119 C 
HETATM   30  N5  UNL     1      -3.674  -1.517   1.535  1.00  0.00    -0.309 N 
ATOM     31  H5  UNL     1      -4.191  -0.644   1.637  1.00  0.00     0.186 HD
BRANCH  30  32
HETATM   32  N6  UNL     1      -4.254  -2.648   2.043  1.00  0.00    -0.279 N 
ATOM     33  H6  UNL     1      -4.438  -2.712   3.044  1.00  0.00     0.189 HD
BRANCH  32  34
HETATM   34  C16 UNL     1      -4.601  -3.724   1.203  1.00  0.00     0.199 C 
HETATM   35  N7  UNL     1      -5.210  -4.921   1.714  1.00  0.00    -0.068 NA
HETATM   36  S1  UNL     1      -4.299  -3.601  -0.394  1.00  0.00    -0.043 SA
ENDBRANCH  32  34
ENDBRANCH  30  32
ENDBRANCH   5  29
BRANCH   7  37
HETATM   37  C19 UNL     1      -3.811   2.933  -0.817  1.00  0.00    -0.026 A 
HETATM   38  C20 UNL     1      -3.415   4.241  -0.999  1.00  0.00     0.012 A 
HETATM   39  C21 UNL     1      -4.334   5.229  -1.243  1.00  0.00     0.001 A 
HETATM   40  C22 UNL     1      -5.688   4.904  -1.307  1.00  0.00     0.000 A 
HETATM   41  C23 UNL     1      -6.076   3.591  -1.124  1.00  0.00     0.001 A 
HETATM   42  C24 UNL     1      -5.144   2.618  -0.882  1.00  0.00     0.012 A 
ENDBRANCH   7  37
TORSDOF 10
