REMARK  8 active torsions:
REMARK  status: ('A' for Active; 'I' for Inactive)
REMARK    1  A    between atoms: C2_5  and  N3_6 
REMARK       I    between atoms: N3_6  and  C3_8 
REMARK    2  A    between atoms: C3_8  and  C4_10 
REMARK    3  A    between atoms: C4_10  and  S1_11 
REMARK    4  A    between atoms: S1_11  and  C5_12 
REMARK    5  A    between atoms: C8_15  and  N4_16 
REMARK       I    between atoms: N4_16  and  C9_18 
REMARK    6  A    between atoms: C9_18  and  C10_20 
REMARK    7  A    between atoms: C13_23  and  C14_24 
REMARK    8  A    between atoms: C20_34  and  C21_35 
ROOT
HETATM    1  C5  UNL     1       0.628  -2.555  -0.797  1.00  0.00     0.001 A 
HETATM    2  C6  UNL     1       0.861  -1.209  -0.981  1.00  0.00     0.021 A 
HETATM    3  C7  UNL     1       2.130  -0.700  -0.805  1.00  0.00     0.031 A 
HETATM    4  C8  UNL     1       3.216  -1.512  -0.440  1.00  0.00     0.035 A 
HETATM    5  C17 UNL     1       2.996  -2.835  -0.257  1.00  0.00     0.031 A 
HETATM    6  C18 UNL     1       1.701  -3.340  -0.439  1.00  0.00     0.021 A 
ENDROOT
BRANCH   1   7
HETATM    7  S1  UNL     1      -0.992  -3.281  -1.000  1.00  0.00    -0.121 SA
BRANCH   7   8
HETATM    8  C4  UNL     1      -2.158  -1.959  -1.402  1.00  0.00     0.182 C 
BRANCH   8   9
HETATM    9  C3  UNL     1      -2.376  -1.019  -0.268  1.00  0.00     0.232 C 
HETATM   10  N3  UNL     1      -3.266   0.063  -0.500  1.00  0.00    -0.311 N 
ATOM     11  H3  UNL     1      -2.921   0.897  -0.975  1.00  0.00     0.170 HD
HETATM   12  O1  UNL     1      -1.828  -1.132   0.847  1.00  0.00    -0.272 OA
BRANCH  10  13
HETATM   13  C2  UNL     1      -4.502   0.017  -0.124  1.00  0.00     0.125 A 
HETATM   14  N2  UNL     1      -4.918  -1.117   0.506  1.00  0.00    -0.269 N 
HETATM   15  N1  UNL     1      -6.153  -1.229   0.911  1.00  0.00    -0.237 N 
ATOM     16  H2  UNL     1      -4.261  -1.882   0.662  1.00  0.00     0.190 HD
HETATM   17  C1  UNL     1      -6.575  -2.460   1.586  1.00  0.00     0.200 C 
HETATM   18  N7  UNL     1      -7.000  -0.237   0.706  1.00  0.00    -0.284 N 
HETATM   19  C20 UNL     1      -6.680   0.928   0.089  1.00  0.00     0.063 A 
ATOM     20  H7  UNL     1      -7.959  -0.354   1.033  1.00  0.00     0.188 HD
HETATM   21  C19 UNL     1      -5.380   1.050  -0.338  1.00  0.00     0.081 A 
BRANCH  19  22
HETATM   22  C21 UNL     1      -7.663   1.988  -0.107  1.00  0.00    -0.008 A 
HETATM   23  C22 UNL     1      -8.967   1.884   0.311  1.00  0.00     0.014 A 
HETATM   24  C23 UNL     1      -9.879   2.928   0.102  1.00  0.00     0.001 A 
HETATM   25  C24 UNL     1      -9.522   4.094  -0.524  1.00  0.00     0.000 A 
HETATM   26  C25 UNL     1      -8.220   4.208  -0.946  1.00  0.00     0.001 A 
HETATM   27  C26 UNL     1      -7.309   3.161  -0.735  1.00  0.00     0.014 A 
ENDBRANCH  19  22
ENDBRANCH  10  13
ENDBRANCH   8   9
ENDBRANCH   7   8
ENDBRANCH   1   7
BRANCH   4  28
HETATM   28  N4  UNL     1       4.448  -0.870  -0.312  1.00  0.00    -0.323 N 
HETATM   29  C9  UNL     1       5.605  -1.372   0.295  1.00  0.00     0.256 C 
HETATM   30  O2  UNL     1       5.618  -2.516   0.805  1.00  0.00    -0.267 OA
ATOM     31  H4  UNL     1       4.513   0.069  -0.704  1.00  0.00     0.169 HD
BRANCH  29  32
HETATM   32  C10 UNL     1       6.842  -0.561   0.346  1.00  0.00     0.032 A 
HETATM   33  C11 UNL     1       8.068  -1.176   0.505  1.00  0.00     0.018 A 
HETATM   34  C12 UNL     1       9.221  -0.461   0.566  1.00  0.00     0.016 A 
HETATM   35  C13 UNL     1       9.214   0.930   0.469  1.00  0.00     0.004 A 
HETATM   36  C15 UNL     1       7.981   1.526   0.310  1.00  0.00     0.016 A 
HETATM   37  C16 UNL     1       6.792   0.797   0.247  1.00  0.00     0.018 A 
BRANCH  35  38
HETATM   38  C14 UNL     1      10.449   1.686   0.536  1.00  0.00     0.120 C 
HETATM   39  N5  UNL     1      10.465   2.947   0.447  1.00  0.00    -0.387 N 
ATOM     40  H52 UNL     1       9.584   3.446   0.323  1.00  0.00     0.157 HD
ATOM     41  H51 UNL     1      11.334   3.479   0.494  1.00  0.00     0.157 HD
HETATM   42  N6  UNL     1      11.675   0.992   0.708  1.00  0.00    -0.082 NA
ENDBRANCH  35  38
ENDBRANCH  29  32
ENDBRANCH   4  28
TORSDOF 8
