REMARK  2 active torsions:
REMARK  status: ('A' for Active; 'I' for Inactive)
REMARK    1  A    between atoms: C2_2  and  C3_3 
REMARK    2  A    between atoms: C12_15  and  O4_16 
ROOT
HETATM    1  C3  UNL     1      -1.320  -0.799  -0.291  1.00  0.00     0.066 C 
HETATM    2  C4  UNL     1      -1.881  -1.124   1.064  1.00  0.00     0.055 C 
HETATM    3  C5  UNL     1      -2.294   0.072   1.801  1.00  0.00     0.119 C 
HETATM    4  C6  UNL     1      -3.790   0.273   1.751  1.00  0.00     0.266 C 
HETATM    5  O1  UNL     1      -4.809  -0.258   2.230  1.00  0.00    -0.265 OA
HETATM    6  O2  UNL     1      -3.544   1.343   0.912  1.00  0.00    -0.314 OA
HETATM    7  C7  UNL     1      -2.152   1.384   1.273  1.00  0.00     0.157 C 
HETATM    8  C8  UNL     1      -1.256   1.758   0.154  1.00  0.00     0.022 A 
HETATM    9  C9  UNL     1      -1.891   2.608  -0.820  1.00  0.00     0.048 A 
HETATM   10  C10 UNL     1      -1.757   1.251  -1.243  1.00  0.00     0.135 A 
HETATM   11  O3  UNL     1      -2.273   0.084  -0.860  1.00  0.00    -0.373 OA
HETATM   12  C11 UNL     1       0.034   1.163   0.285  1.00  0.00     0.036 C 
HETATM   13  C12 UNL     1       1.259   1.792  -0.254  1.00  0.00     0.127 C 
HETATM   14  C14 UNL     1       2.428   1.158   0.471  1.00  0.00     0.049 C 
HETATM   15  C15 UNL     1       2.253  -0.230   0.915  1.00  0.00     0.023 C 
HETATM   16  C16 UNL     1       2.305  -0.319   2.451  1.00  0.00     0.024 C 
HETATM   17  C17 UNL     1       3.488  -0.983   0.463  1.00  0.00     0.135 C 
HETATM   18  O5  UNL     1       4.585  -0.809   0.956  1.00  0.00    -0.297 OA
HETATM   19  C18 UNL     1       3.157  -1.907  -0.612  1.00  0.00     0.079 C 
HETATM   20  C19 UNL     1       1.685  -2.059  -0.586  1.00  0.00     0.013 C 
HETATM   21  C20 UNL     1       1.104  -1.023   0.373  1.00  0.00     0.009 C 
HETATM   22  C21 UNL     1       0.047  -0.256  -0.311  1.00  0.00     0.033 C 
ENDROOT
BRANCH   1  23
HETATM   23  C2  UNL     1      -1.429  -2.066  -1.145  1.00  0.00     0.034 C 
HETATM   24  C1  UNL     1      -2.881  -2.493  -1.268  1.00  0.00     0.008 C 
ENDBRANCH   1  23
BRANCH  13  25
HETATM   25  O4  UNL     1       1.490   1.510  -1.618  1.00  0.00    -0.390 OA
HETATM   26  C13 UNL     1       1.745   2.659  -2.338  1.00  0.00     0.202 C 
ENDBRANCH  13  25
TORSDOF 2
