REMARK  3 active torsions:
REMARK  status: ('A' for Active; 'I' for Inactive)
REMARK    1  A    between atoms: C2_3  and  C4_5 
REMARK    2  A    between atoms: C4_5  and  N2_7 
REMARK    3  A    between atoms: N2_7  and  C7_9 
ROOT
HETATM    1  C1  UNL     1       6.282   1.556  -1.403  1.00  0.00     0.221 C 
HETATM    2  N1  UNL     1       5.578   1.024  -0.648  1.00  0.00    -0.465 NA
HETATM    3  C2  UNL     1       4.730   0.352   0.267  1.00  0.00     0.180 C 
HETATM    4  C3  UNL     1       4.844  -1.124  -0.031  1.00  0.00     0.049 C 
ENDROOT
BRANCH   3   5
HETATM    5  C4  UNL     1       3.343   0.860   0.074  1.00  0.00     0.133 C 
HETATM    6  C5  UNL     1       3.269   2.368   0.329  1.00  0.00     0.036 C 
BRANCH   5   7
HETATM    7  N2  UNL     1       2.338   0.240   0.879  1.00  0.00    -0.215 N 
HETATM    8  C6  UNL     1       2.425   0.192   2.309  1.00  0.00     0.169 C 
BRANCH   7   9
HETATM    9  C7  UNL     1       1.199  -0.335   0.236  1.00  0.00     0.680 A 
HETATM   10  N3  UNL     1       1.262  -1.565  -0.243  1.00  0.00    -0.195 N 
HETATM   11  C8  UNL     1       0.229  -2.170  -0.853  1.00  0.00     0.032 A 
ATOM     12  H3  UNL     1       2.137  -2.080  -0.145  1.00  0.00     0.184 HD
HETATM   13  C9  UNL     1       0.372  -3.553  -1.363  1.00  0.00     0.069 C 
HETATM   14  C10 UNL     1      -0.947  -1.454  -0.975  1.00  0.00     0.002 A 
HETATM   15  C11 UNL     1      -1.062  -0.171  -0.491  1.00  0.00     0.041 A 
HETATM   16  C18 UNL     1      -2.074  -2.149  -1.661  1.00  0.00     0.183 C 
HETATM   17  N4  UNL     1       0.041   0.335   0.103  1.00  0.00    -0.194 N 
HETATM   18  C12 UNL     1      -2.237   0.691  -0.543  1.00  0.00     0.055 C 
ATOM     19  H4  UNL     1      -0.008   1.284   0.473  1.00  0.00     0.184 HD
HETATM   20  C13 UNL     1      -2.272   1.458   0.791  1.00  0.00     0.012 C 
HETATM   21  C17 UNL     1      -3.559   0.059  -0.702  1.00  0.00     0.118 C 
HETATM   22  C14 UNL     1      -3.293   2.554   0.707  1.00  0.00     0.001 C 
HETATM   23  C15 UNL     1      -4.658   1.984   0.512  1.00  0.00     0.001 C 
HETATM   24  C16 UNL     1      -4.583   0.492   0.318  1.00  0.00     0.021 C 
HETATM   25  S1  UNL     1      -3.533  -1.715  -0.703  1.00  0.00     0.153 S 
HETATM   26  O1  UNL     1      -3.287  -2.162   0.710  1.00  0.00    -0.227 OA
HETATM   27  O2  UNL     1      -4.742  -2.318  -1.299  1.00  0.00    -0.227 OA
ENDBRANCH   7   9
ENDBRANCH   5   7
ENDBRANCH   3   5
TORSDOF 3
