REMARK  3 active torsions:
REMARK  status: ('A' for Active; 'I' for Inactive)
REMARK    1  A    between atoms: C2_2  and  O2_4 
REMARK    2  A    between atoms: O2_4  and  C3_5 
REMARK    3  A    between atoms: C15_19  and  C16_20 
ROOT
HETATM    1  C3  UNL     1       2.456   0.158  -0.372  1.00  0.00     0.144 C 
HETATM    2  C4  UNL     1       2.056  -0.760   0.773  1.00  0.00     0.066 C 
HETATM    3  C5  UNL     1       1.216  -1.761   0.170  1.00  0.00     0.139 C 
HETATM    4  O3  UNL     1       2.094  -2.204  -0.883  1.00  0.00    -0.355 OA
HETATM    5  C6  UNL     1       1.522  -1.389  -1.918  1.00  0.00     0.267 C 
HETATM    6  O4  UNL     1       0.649  -2.302  -2.340  1.00  0.00    -0.360 OA
HETATM    7  C7  UNL     1      -0.076  -2.958  -1.270  1.00  0.00     0.184 C 
HETATM    8  C8  UNL     1      -0.135  -1.760  -0.315  1.00  0.00     0.020 C 
HETATM    9  C9  UNL     1      -0.941  -1.773   0.902  1.00  0.00     0.014 C 
HETATM   10  C10 UNL     1      -0.862  -0.343   1.430  1.00  0.00     0.041 C 
HETATM   11  C11 UNL     1      -0.454   0.692   0.425  1.00  0.00    -0.072 C 
HETATM   12  C12 UNL     1      -0.596   1.930   0.905  1.00  0.00    -0.085 C 
HETATM   13  C13 UNL     1      -0.255   3.119   0.079  1.00  0.00     0.043 C 
HETATM   14  C14 UNL     1      -1.099   2.203   2.275  1.00  0.00     0.043 C 
HETATM   15  C15 UNL     1      -0.002   0.427  -0.932  1.00  0.00     0.035 C 
HETATM   16  C16 UNL     1       1.323  -0.038  -1.359  1.00  0.00     0.079 C 
HETATM   17  C17 UNL     1      -0.817  -0.816  -1.224  1.00  0.00     0.040 C 
HETATM   18  C18 UNL     1      -2.274  -0.720  -1.185  1.00  0.00    -0.032 C 
HETATM   19  C19 UNL     1      -2.752   0.513  -1.918  1.00  0.00     0.048 C 
HETATM   20  C20 UNL     1      -2.967  -0.992   0.055  1.00  0.00     0.155 C 
HETATM   21  O5  UNL     1      -3.901  -0.369   0.434  1.00  0.00    -0.293 OA
HETATM   22  C21 UNL     1      -2.393  -2.128   0.811  1.00  0.00     0.061 C 
HETATM   23  C22 UNL     1      -2.977  -2.113   2.195  1.00  0.00     0.018 C 
ENDROOT
BRANCH   1  24
HETATM   24  O2  UNL     1       2.815   1.426  -0.058  1.00  0.00    -0.316 OA
BRANCH  24  25
HETATM   25  C2  UNL     1       4.017   1.997  -0.361  1.00  0.00     0.255 C 
HETATM   26  C1  UNL     1       4.408   3.388  -0.016  1.00  0.00     0.126 C 
HETATM   27  O1  UNL     1       4.883   1.303  -0.987  1.00  0.00    -0.266 OA
ENDBRANCH  24  25
ENDBRANCH   1  24
TORSDOF 3
