REMARK  2 active torsions:
REMARK  status: ('A' for Active; 'I' for Inactive)
REMARK    1  A    between atoms: C14_17  and  O3_18 
REMARK    2  A    between atoms: C17_21  and  O4_22 
ROOT
HETATM    1  C1  UNL     1      -3.048   0.809   3.289  1.00  0.00     0.023 C 
HETATM    2  C2  UNL     1      -3.083   0.909   1.991  1.00  0.00    -0.016 C 
HETATM    3  C3  UNL     1      -3.333   1.989   1.059  1.00  0.00     0.160 C 
HETATM    4  O1  UNL     1      -3.161   3.228   1.079  1.00  0.00    -0.292 OA
HETATM    5  C4  UNL     1      -3.869   0.950   0.110  1.00  0.00     0.070 C 
HETATM    6  C5  UNL     1      -3.469   1.148  -1.313  1.00  0.00     0.033 C 
HETATM    7  C6  UNL     1      -2.925  -0.147  -1.906  1.00  0.00     0.104 C 
HETATM    8  C7  UNL     1      -2.728  -0.026  -3.339  1.00  0.00     0.065 C 
HETATM    9  N1  UNL     1      -2.582   0.067  -4.484  1.00  0.00    -0.197 NA
HETATM   10  C8  UNL     1      -1.707  -0.628  -1.196  1.00  0.00    -0.002 C 
HETATM   11  C9  UNL     1      -1.769  -2.106  -0.962  1.00  0.00     0.019 C 
HETATM   12  C10 UNL     1      -0.419  -0.327  -1.954  1.00  0.00     0.179 C 
HETATM   13  O2  UNL     1       0.608  -0.904  -1.254  1.00  0.00    -0.377 OA
HETATM   14  C11 UNL     1       0.810  -0.382   0.022  1.00  0.00     0.087 C 
HETATM   15  C12 UNL     1       1.283   1.042  -0.157  1.00  0.00     0.043 C 
HETATM   16  C13 UNL     1       2.349   1.012  -1.200  1.00  0.00     0.035 C 
HETATM   17  C14 UNL     1       3.544   0.283  -0.642  1.00  0.00     0.123 C 
HETATM   18  C16 UNL     1       3.231  -1.054  -0.068  1.00  0.00     0.067 C 
HETATM   19  C17 UNL     1       1.917  -1.150   0.656  1.00  0.00     0.157 C 
HETATM   20  C19 UNL     1      -0.422  -0.431   0.872  1.00  0.00     0.047 C 
HETATM   21  C20 UNL     1      -1.587   0.150   0.111  1.00  0.00     0.009 C 
HETATM   22  C21 UNL     1      -2.894   0.009   0.834  1.00  0.00     0.038 C 
ENDROOT
BRANCH  19  23
HETATM   23  O4  UNL     1       2.087  -0.739   1.972  1.00  0.00    -0.388 OA
HETATM   24  C18 UNL     1       1.906  -1.810   2.829  1.00  0.00     0.202 C 
ENDBRANCH  19  23
BRANCH  17  25
HETATM   25  O3  UNL     1       4.128   1.122   0.304  1.00  0.00    -0.391 OA
HETATM   26  C15 UNL     1       5.396   1.548  -0.103  1.00  0.00     0.202 C 
ENDBRANCH  17  25
TORSDOF 2
