REMARK  4 active torsions:
REMARK  status: ('A' for Active; 'I' for Inactive)
REMARK    1  A    between atoms: N1_2  and  C2_4 
REMARK    2  A    between atoms: C2_4  and  C8_12 
REMARK    3  A    between atoms: N2_5  and  C3_7 
REMARK    4  A    between atoms: C3_7  and  C4_8 
ROOT
HETATM    1  C2  UNL     1      -0.817  -0.985  -0.205  1.00  0.00     0.111 C 
HETATM    2  N2  UNL     1       0.282  -0.601  -0.697  1.00  0.00    -0.375 N 
ATOM      3  H2  UNL     1       0.862  -1.280  -1.190  1.00  0.00     0.161 HD
ENDROOT
BRANCH   1   4
HETATM    4  N1  UNL     1      -1.228  -2.334  -0.339  1.00  0.00    -0.380 N 
HETATM    5  C1  UNL     1      -1.663  -2.906  -1.601  1.00  0.00     0.147 C 
ATOM      6  H1  UNL     1      -1.218  -2.931   0.488  1.00  0.00     0.160 HD
ENDBRANCH   1   4
BRANCH   1   7
HETATM    7  C8  UNL     1      -1.689  -0.064   0.492  1.00  0.00     0.063 A 
HETATM    8  C9  UNL     1      -2.429   1.003   0.018  1.00  0.00     0.045 A 
HETATM    9  C10 UNL     1      -2.484   1.430  -1.404  1.00  0.00     0.071 C 
HETATM   10  N3  UNL     1      -3.062   1.541   1.069  1.00  0.00    -0.265 N 
HETATM   11  O1  UNL     1      -2.772   0.890   2.154  1.00  0.00    -0.242 OA
ATOM     12  H3  UNL     1      -3.684   2.348   1.023  1.00  0.00     0.194 HD
HETATM   13  C11 UNL     1      -1.948  -0.090   1.873  1.00  0.00     0.088 A 
HETATM   14  C12 UNL     1      -1.358  -1.086   2.812  1.00  0.00     0.080 C 
ENDBRANCH   1   7
BRANCH   2  15
HETATM   15  C3  UNL     1       0.742   0.743  -0.590  1.00  0.00     0.129 C 
BRANCH  15  16
HETATM   16  C4  UNL     1       2.209   0.821  -0.201  1.00  0.00    -0.035 C 
HETATM   17  C5  UNL     1       2.488   0.175   1.117  1.00  0.00     0.016 C 
HETATM   18  C6  UNL     1       2.567   2.303  -0.117  1.00  0.00     0.016 C 
HETATM   19  C7  UNL     1       2.999   0.121  -1.281  1.00  0.00     0.016 C 
ENDBRANCH  15  16
ENDBRANCH   2  15
TORSDOF 4
