REMARK  4 active torsions:
REMARK  status: ('A' for Active; 'I' for Inactive)
REMARK    1  A    between atoms: C2_2  and  C4_4 
REMARK    2  A    between atoms: C2_2  and  N2_12 
REMARK    3  A    between atoms: C4_4  and  O1_5 
REMARK    4  A    between atoms: N1_7  and  C5_9 
ROOT
HETATM    1  C1  UNL     1       0.820  -1.645  -1.397  1.00  0.00     0.058 C 
HETATM    2  C2  UNL     1       0.809  -0.466  -0.419  1.00  0.00     0.216 C 
HETATM    3  C3  UNL     1       1.320   0.762  -1.110  1.00  0.00     0.058 C 
ENDROOT
BRANCH   2   4
HETATM    4  C4  UNL     1       1.653  -0.823   0.726  1.00  0.00     0.152 C 
HETATM    5  N1  UNL     1       2.663  -0.321   1.225  1.00  0.00    -0.343 N 
ATOM      6  H1  UNL     1       2.939  -0.891   2.024  1.00  0.00     0.164 HD
BRANCH   4   7
HETATM    7  O1  UNL     1       1.198  -2.014   1.408  1.00  0.00    -0.348 OA
ATOM      8  H1  UNL     1       1.745  -2.245   2.150  1.00  0.00     0.219 HD
ENDBRANCH   4   7
BRANCH   5   9
HETATM    9  C5  UNL     1       3.560   0.721   1.110  1.00  0.00     0.278 C 
HETATM   10 CL1  UNL     1       3.105   2.054   2.235  1.00  0.00    -0.085 Cl
HETATM   11 CL2  UNL     1       5.231   0.265   1.628  1.00  0.00    -0.085 Cl
ENDBRANCH   5   9
ENDBRANCH   2   4
BRANCH   2  12
HETATM   12  N2  UNL     1      -0.571  -0.291  -0.010  1.00  0.00     0.105 N 
HETATM   13  C6  UNL     1      -1.466   0.062  -1.066  1.00  0.00     0.274 C 
HETATM   14  C7  UNL     1      -2.843  -0.461  -0.631  1.00  0.00     0.030 C 
HETATM   15  C8  UNL     1      -3.189   0.226   0.654  1.00  0.00     0.003 C 
HETATM   16  C9  UNL     1      -2.148   1.167   1.166  1.00  0.00     0.030 C 
HETATM   17  C10 UNL     1      -0.744   0.635   1.076  1.00  0.00     0.274 C 
ENDBRANCH   2  12
TORSDOF 4
