REMARK  4 active torsions:
REMARK  status: ('A' for Active; 'I' for Inactive)
REMARK    1  A    between atoms: C4_4  and  C5_5 
REMARK    2  A    between atoms: C5_5  and  N1_6 
REMARK    3  A    between atoms: C5_5  and  N2_15 
REMARK    4  A    between atoms: N1_6  and  C6_8 
ROOT
HETATM    1  C5  UNL     1      -0.196   0.749   0.120  1.00  0.00     0.193 C 
ENDROOT
BRANCH   1   2
HETATM    2  C4  UNL     1      -1.035  -0.455  -0.249  1.00  0.00     0.033 A 
HETATM    3  C2  UNL     1      -2.267  -0.196  -1.073  1.00  0.00    -0.010 A 
HETATM    4  C1  UNL     1      -2.644  -1.243  -2.107  1.00  0.00     0.010 C 
HETATM    5  C3  UNL     1      -2.357  -0.666   0.387  1.00  0.00     0.013 A 
ENDBRANCH   1   2
BRANCH   1   6
HETATM    6  N1  UNL     1       0.953   0.350   0.904  1.00  0.00    -0.368 N 
ATOM      7  H1  UNL     1       1.004   0.677   1.869  1.00  0.00     0.161 HD
BRANCH   6   8
HETATM    8  C6  UNL     1       2.011  -0.461   0.428  1.00  0.00     0.029 A 
HETATM    9  C7  UNL     1       2.991  -0.904   1.288  1.00  0.00     0.032 A 
HETATM   10  C8  UNL     1       4.035  -1.687   0.834  1.00  0.00     0.044 A 
HETATM   11  C9  UNL     1       4.139  -2.054  -0.493  1.00  0.00     0.116 A 
HETATM   12  F1  UNL     1       5.135  -2.808  -0.961  1.00  0.00    -0.206 F 
HETATM   13  C10 UNL     1       3.158  -1.609  -1.356  1.00  0.00     0.044 A 
HETATM   14  C11 UNL     1       2.116  -0.830  -0.908  1.00  0.00     0.032 A 
ENDBRANCH   6   8
ENDBRANCH   1   6
BRANCH   1  15
HETATM   15  N2  UNL     1      -0.942   1.776   0.772  1.00  0.00    -0.330 N 
HETATM   16  C12 UNL     1      -1.561   2.811   0.170  1.00  0.00     0.111 A 
HETATM   17  C13 UNL     1      -2.162   3.571   1.137  1.00  0.00     0.106 A 
HETATM   18  N3  UNL     1      -1.919   3.014   2.323  1.00  0.00    -0.361 N 
HETATM   19  C14 UNL     1      -1.171   1.915   2.093  1.00  0.00     0.184 A 
ATOM     20  H3  UNL     1      -2.237   3.353   3.231  1.00  0.00     0.166 HD
ENDBRANCH   1  15
TORSDOF 4
