REMARK  4 active torsions:
REMARK  status: ('A' for Active; 'I' for Inactive)
REMARK    1  A    between atoms: C2_2  and  S1_5 
REMARK    2  A    between atoms: S1_5  and  C4_6 
REMARK    3  A    between atoms: C4_6  and  C5_7 
REMARK    4  A    between atoms: C10_12  and  C11_13 
ROOT
HETATM    1  C5  UNL     1      -0.913   0.131   0.777  1.00  0.00     0.007 C 
HETATM    2  C6  UNL     1      -1.240  -1.261   1.264  1.00  0.00     0.006 C 
HETATM    3  C7  UNL     1      -2.657  -1.621   0.982  1.00  0.00     0.000 C 
HETATM    4  C8  UNL     1      -2.944  -1.501  -0.521  1.00  0.00     0.001 C 
HETATM    5  C9  UNL     1      -2.775  -0.022  -0.844  1.00  0.00     0.014 C 
HETATM    6  C10 UNL     1      -1.345   0.383  -0.628  1.00  0.00     0.080 C 
ENDROOT
BRANCH   1   7
HETATM    7  C4  UNL     1       0.553   0.442   0.924  1.00  0.00     0.082 C 
BRANCH   7   8
HETATM    8  S1  UNL     1       1.589  -0.703  -0.017  1.00  0.00    -0.126 SA
BRANCH   8   9
HETATM    9  C2  UNL     1       3.330  -0.268   0.212  1.00  0.00     0.144 C 
HETATM   10  C1  UNL     1       3.696   1.055  -0.376  1.00  0.00     0.064 C 
HETATM   11  C3  UNL     1       4.244  -1.349  -0.335  1.00  0.00     0.064 C 
HETATM   12  F1  UNL     1       3.568  -0.214   1.585  1.00  0.00    -0.232 F 
ENDBRANCH   8   9
ENDBRANCH   7   8
ENDBRANCH   1   7
BRANCH   6  13
HETATM   13  C11 UNL     1      -1.270   1.869  -0.862  1.00  0.00     0.235 C 
HETATM   14  N1  UNL     1      -2.067   2.710  -0.041  1.00  0.00    -0.062 NA
HETATM   15  O1  UNL     1      -0.537   2.338  -1.742  1.00  0.00    -0.276 OA
ENDBRANCH   6  13
TORSDOF 4
