REMARK  3 active torsions:
REMARK  status: ('A' for Active; 'I' for Inactive)
REMARK    1  A    between atoms: C2_2  and  O1_5 
REMARK    2  A    between atoms: O1_5  and  N1_6 
REMARK    3  A    between atoms: C4_8  and  C5_9 
ROOT
HETATM    1  C5  UNL     1       1.639  -0.377  -0.228  1.00  0.00     0.019 A 
HETATM    2  C6  UNL     1       2.273   0.844  -0.217  1.00  0.00     0.017 A 
HETATM    3  C7  UNL     1       3.617   0.907   0.080  1.00  0.00     0.018 A 
HETATM    4  C8  UNL     1       4.283  -0.268   0.358  1.00  0.00     0.089 A 
HETATM    5  N2  UNL     1       3.672  -1.475   0.351  1.00  0.00    -0.356 N 
ATOM      6  H2  UNL     1       4.191  -2.327   0.561  1.00  0.00     0.166 HD
HETATM    7  C9  UNL     1       2.357  -1.519   0.058  1.00  0.00     0.112 A 
HETATM    8  S1  UNL     1       1.611  -2.956   0.045  1.00  0.00    -0.059 SA
ENDROOT
BRANCH   1   9
HETATM    9  C4  UNL     1       0.227  -0.438  -0.541  1.00  0.00     0.128 C 
HETATM   10  N1  UNL     1      -0.408   0.637  -0.801  1.00  0.00    -0.275 N 
ATOM     11  H1  UNL     1       0.101   1.521  -0.781  1.00  0.00     0.193 HD
BRANCH  10  12
HETATM   12  O1  UNL     1      -1.727   0.657  -1.102  1.00  0.00    -0.254 OA
BRANCH  12  13
HETATM   13  C2  UNL     1      -2.733   0.802  -0.116  1.00  0.00     0.157 C 
HETATM   14  C1  UNL     1      -2.595  -0.352   0.834  1.00  0.00     0.066 C 
HETATM   15  C3  UNL     1      -4.059   0.822  -0.825  1.00  0.00     0.066 C 
HETATM   16 CL1  UNL     1      -2.560   2.371   0.726  1.00  0.00    -0.086 Cl
ENDBRANCH  12  13
ENDBRANCH  10  12
ENDBRANCH   1   9
TORSDOF 3
