REMARK  3 active torsions:
REMARK  status: ('A' for Active; 'I' for Inactive)
REMARK    1  A    between atoms: C2_3  and  C3_4 
REMARK    2  A    between atoms: C3_4  and  C4_5 
REMARK    3  A    between atoms: C4_5  and  C5_6 
ROOT
HETATM    1  C1  UNL     1      -3.624  -1.281  -0.234  1.00  0.00     0.160 C 
HETATM    2  N1  UNL     1      -3.464   0.173  -0.214  1.00  0.00    -0.316 N 
HETATM    3  C2  UNL     1      -2.361   0.879  -0.535  1.00  0.00     0.100 A 
HETATM    4  N2  UNL     1      -2.690   2.165  -0.365  1.00  0.00    -0.287 N 
ATOM      5  H2  UNL     1      -2.063   2.953  -0.529  1.00  0.00     0.188 HD
HETATM    6  N3  UNL     1      -3.947   2.271   0.047  1.00  0.00    -0.275 N 
ATOM      7  H3  UNL     1      -4.445   3.137   0.251  1.00  0.00     0.189 HD
HETATM    8  C11 UNL     1      -4.442   1.027   0.145  1.00  0.00     0.194 A 
HETATM    9  S1  UNL     1      -5.943   0.594   0.609  1.00  0.00    -0.039 SA
ENDROOT
BRANCH   3  10
HETATM   10  C3  UNL     1      -1.063   0.313  -0.983  1.00  0.00     0.078 C 
BRANCH  10  11
HETATM   11  C4  UNL     1      -0.223   0.070   0.229  1.00  0.00     0.015 C 
BRANCH  11  12
HETATM   12  C5  UNL     1       1.131  -0.506  -0.074  1.00  0.00     0.020 C 
HETATM   13  C6  UNL     1       1.828  -0.679   1.282  1.00  0.00     0.007 C 
HETATM   14  C7  UNL     1       3.159  -1.336   1.024  1.00  0.00     0.001 C 
HETATM   15  C8  UNL     1       3.990  -0.395   0.197  1.00  0.00     0.003 C 
HETATM   16  C9  UNL     1       3.219   0.812  -0.277  1.00  0.00     0.037 C 
HETATM   17  C10 UNL     1       1.951   0.388  -0.978  1.00  0.00     0.174 C 
HETATM   18  F1  UNL     1       2.352  -0.296  -2.133  1.00  0.00    -0.249 F 
ENDBRANCH  11  12
ENDBRANCH  10  11
ENDBRANCH   3  10
TORSDOF 3
