REMARK  9 active torsions:
REMARK  status: ('A' for Active; 'I' for Inactive)
REMARK    1  A    between atoms: C2_2  and  O1_3 
REMARK    2  A    between atoms: O1_3  and  C3_4 
REMARK    3  A    between atoms: C3_4  and  C4_6 
REMARK    4  A    between atoms: C4_6  and  C5_7 
REMARK    5  A    between atoms: C5_7  and  C6_8 
REMARK    6  A    between atoms: C6_8  and  O4_10 
REMARK    7  A    between atoms: O4_10  and  C7_11 
REMARK    8  A    between atoms: C15_22  and  N2_23 
REMARK    9  A    between atoms: C21_30  and  N3_31 
REMARK       I    between atoms: N3_31  and  C23_33 
ROOT
HETATM    1  C7  UNL     1       0.159  -0.451  -0.925  1.00  0.00     0.165 C 
HETATM    2  C8  UNL     1       0.079  -1.709  -1.593  1.00  0.00     0.066 C 
HETATM    3  C9  UNL     1      -0.309  -1.581  -3.089  1.00  0.00     0.177 C 
HETATM    4  O5  UNL     1      -0.048  -2.922  -3.460  1.00  0.00    -0.384 OA
HETATM    5  C10 UNL     1      -0.813  -3.620  -2.553  1.00  0.00     0.140 C 
HETATM    6  C11 UNL     1      -2.218  -3.687  -3.083  1.00  0.00     0.041 C 
HETATM    7  C12 UNL     1      -0.733  -2.854  -1.218  1.00  0.00     0.114 C 
HETATM    8  N1  UNL     1      -2.070  -2.662  -0.814  1.00  0.00    -0.408 N 
ATOM      9  H1  UNL     1      -2.851  -3.064  -1.332  1.00  0.00     0.154 HD
HETATM   10  C13 UNL     1      -2.269  -1.879   0.351  1.00  0.00     0.098 C 
HETATM   11  C14 UNL     1      -1.265  -2.229   1.403  1.00  0.00     0.034 C 
HETATM   12  C15 UNL     1      -2.221  -0.436  -0.089  1.00  0.00     0.135 C 
HETATM   13  C21 UNL     1      -0.849   0.083   0.027  1.00  0.00     0.141 C 
ENDROOT
BRANCH   1  14
HETATM   14  O4  UNL     1       1.428  -0.315  -0.259  1.00  0.00    -0.313 OA
BRANCH  14  15
HETATM   15  C6  UNL     1       2.405   0.565  -0.619  1.00  0.00     0.259 C 
HETATM   16  O3  UNL     1       2.210   1.318  -1.593  1.00  0.00    -0.265 OA
BRANCH  15  17
HETATM   17  C5  UNL     1       3.664   0.587   0.169  1.00  0.00     0.121 C 
BRANCH  17  18
HETATM   18  C4  UNL     1       4.565   1.650  -0.447  1.00  0.00     0.121 C 
BRANCH  18  19
HETATM   19  C3  UNL     1       5.846   1.746   0.272  1.00  0.00     0.259 C 
HETATM   20  O2  UNL     1       6.684   2.586  -0.134  1.00  0.00    -0.265 OA
BRANCH  19  21
HETATM   21  O1  UNL     1       6.191   0.975   1.364  1.00  0.00    -0.322 OA
BRANCH  21  22
HETATM   22  C2  UNL     1       7.419   1.073   2.046  1.00  0.00     0.174 C 
HETATM   23  C1  UNL     1       8.606   0.792   1.176  1.00  0.00     0.034 C 
ENDBRANCH  21  22
ENDBRANCH  19  21
ENDBRANCH  18  19
ENDBRANCH  17  18
ENDBRANCH  15  17
ENDBRANCH  14  15
ENDBRANCH   1  14
BRANCH  13  24
HETATM   24  N3  UNL     1      -0.885   1.529  -0.080  1.00  0.00    -0.347 N 
HETATM   25  C22 UNL     1      -0.443   2.313   1.047  1.00  0.00     0.153 C 
HETATM   26  C23 UNL     1      -1.305   2.227  -1.238  1.00  0.00     0.215 C 
HETATM   27  C24 UNL     1      -1.301   3.709  -1.233  1.00  0.00     0.117 C 
HETATM   28  O7  UNL     1      -1.697   1.694  -2.308  1.00  0.00    -0.274 OA
ENDBRANCH  13  24
BRANCH  12  29
HETATM   29  N2  UNL     1      -3.204   0.279   0.670  1.00  0.00    -0.339 N 
HETATM   30  C16 UNL     1      -4.328   0.989   0.100  1.00  0.00     0.220 C 
HETATM   31  O6  UNL     1      -4.759   0.897  -1.077  1.00  0.00    -0.273 OA
HETATM   32  C17 UNL     1      -4.946   1.881   1.109  1.00  0.00     0.105 C 
HETATM   33  C18 UNL     1      -4.039   1.798   2.317  1.00  0.00     0.034 C 
HETATM   34  C19 UNL     1      -3.363   0.461   2.093  1.00  0.00     0.084 C 
HETATM   35  C20 UNL     1      -4.335  -0.556   2.683  1.00  0.00     0.032 C 
ENDBRANCH  12  29
TORSDOF 9
