REMARK  12 active torsions:
REMARK  status: ('A' for Active; 'I' for Inactive)
REMARK    1  A    between atoms: C2_2  and  O1_3 
REMARK    2  A    between atoms: O1_3  and  C3_4 
REMARK       I    between atoms: C3_4  and  N1_6 
REMARK    3  A    between atoms: N1_6  and  C4_7 
REMARK    4  A    between atoms: N1_6  and  C15_30 
REMARK    5  A    between atoms: C4_7  and  C5_8 
REMARK    6  A    between atoms: C5_8  and  C6_9 
REMARK    7  A    between atoms: C6_9  and  C7_10 
REMARK       I    between atoms: C7_10  and  N2_12 
REMARK    8  A    between atoms: N2_12  and  C8_14 
REMARK    9  A    between atoms: C9_19  and  S1_20 
REMARK   10  A    between atoms: S1_20  and  N5_23 
REMARK   11  A    between atoms: C15_30  and  O6_31 
REMARK   12  A    between atoms: C15_30  and  N6_33 
ROOT
HETATM    1  C7  UNL     1      -0.434  -1.560   0.478  1.00  0.00     0.223 C 
HETATM    2  O3  UNL     1      -0.881  -1.035   1.525  1.00  0.00    -0.273 OA
HETATM    3  N2  UNL     1       0.862  -2.132   0.530  1.00  0.00    -0.306 N 
ATOM      4  H2  UNL     1       0.981  -3.104   0.245  1.00  0.00     0.171 HD
ENDROOT
BRANCH   3   5
HETATM    5  C8  UNL     1       1.915  -1.457   0.931  1.00  0.00     0.168 A 
HETATM    6  N3  UNL     1       2.000  -0.189   1.346  1.00  0.00    -0.278 N 
HETATM    7  N4  UNL     1       3.130   0.266   1.694  1.00  0.00    -0.281 N 
ATOM      8  H3  UNL     1       1.169   0.402   1.382  1.00  0.00     0.189 HD
HETATM    9  C9  UNL     1       4.209  -0.497   1.650  1.00  0.00     0.204 A 
ATOM     10  H4  UNL     1       3.208   1.232   2.012  1.00  0.00     0.188 HD
HETATM   11  S2  UNL     1       3.540  -1.974   1.063  1.00  0.00    -0.020 SA
BRANCH   9  12
HETATM   12  S1  UNL     1       5.875  -0.123   2.073  1.00  0.00     0.267 S 
HETATM   13  O4  UNL     1       6.496  -1.452   2.485  1.00  0.00    -0.204 OA
HETATM   14  O5  UNL     1       5.860   0.742   3.274  1.00  0.00    -0.204 OA
BRANCH  12  15
HETATM   15  N5  UNL     1       6.789   0.486   0.784  1.00  0.00    -0.205 NA
HETATM   16  C10 UNL     1       6.324   1.716   0.227  1.00  0.00     0.107 C 
HETATM   17  C11 UNL     1       7.334   2.391  -0.659  1.00  0.00     0.015 C 
HETATM   18  C12 UNL     1       8.324   1.403  -1.232  1.00  0.00     0.002 C 
HETATM   19  C13 UNL     1       7.615   0.089  -1.491  1.00  0.00     0.015 C 
HETATM   20  C14 UNL     1       7.050  -0.506  -0.235  1.00  0.00     0.107 C 
ENDBRANCH  12  15
ENDBRANCH   9  12
ENDBRANCH   3   5
BRANCH   1  21
HETATM   21  C6  UNL     1      -1.173  -1.611  -0.777  1.00  0.00     0.105 C 
BRANCH  21  22
HETATM   22  C5  UNL     1      -2.533  -1.017  -0.779  1.00  0.00     0.030 C 
BRANCH  22  23
HETATM   23  C4  UNL     1      -3.498  -1.622   0.175  1.00  0.00     0.138 C 
BRANCH  23  24
HETATM   24  N1  UNL     1      -4.824  -0.876  -0.019  1.00  0.00    -0.259 N 
HETATM   25  C3  UNL     1      -4.934   0.236   0.809  1.00  0.00     0.369 C 
HETATM   26  O2  UNL     1      -5.871   1.045   0.904  1.00  0.00    -0.238 OA
BRANCH  25  27
HETATM   27  O1  UNL     1      -3.856   0.548   1.697  1.00  0.00    -0.304 OA
BRANCH  27  28
HETATM   28  C2  UNL     1      -4.003   1.684   2.524  1.00  0.00     0.176 C 
HETATM   29  C1  UNL     1      -4.190   2.939   1.711  1.00  0.00     0.034 C 
ENDBRANCH  27  28
ENDBRANCH  25  27
BRANCH  24  30
HETATM   30  C15 UNL     1      -5.691  -1.407  -0.961  1.00  0.00     0.225 C 
BRANCH  30  31
HETATM   31  O6  UNL     1      -5.178  -2.532  -1.535  1.00  0.00    -0.332 OA
ATOM     32  H6  UNL     1      -5.772  -2.896  -2.181  1.00  0.00     0.221 HD
ENDBRANCH  30  31
BRANCH  30  33
HETATM   33  N6  UNL     1      -6.938  -1.060  -1.443  1.00  0.00    -0.356 N 
HETATM   34  C16 UNL     1      -7.542  -1.974  -2.502  1.00  0.00     0.152 C 
HETATM   35  C17 UNL     1      -7.795   0.030  -1.136  1.00  0.00     0.152 C 
ENDBRANCH  30  33
ENDBRANCH  24  30
ENDBRANCH  23  24
ENDBRANCH  22  23
ENDBRANCH  21  22
ENDBRANCH   1  21
TORSDOF 12
