REMARK  8 active torsions:
REMARK  status: ('A' for Active; 'I' for Inactive)
REMARK    1  A    between atoms: S1_2  and  C2_3 
REMARK    2  A    between atoms: C2_3  and  C3_5 
REMARK       I    between atoms: C3_5  and  N1_7 
REMARK    3  A    between atoms: N1_7  and  C4_9 
REMARK    4  A    between atoms: C4_9  and  C5_10 
REMARK    5  A    between atoms: C8_13  and  C9_14 
REMARK       I    between atoms: C9_14  and  N2_16 
REMARK    6  A    between atoms: C13_20  and  N3_21 
REMARK    7  A    between atoms: N3_21  and  S2_23 
REMARK    8  A    between atoms: S2_23  and  C15_26 
ROOT
HETATM    1  C5  UNL     1       0.499   0.094   0.051  1.00  0.00     0.022 C 
HETATM    2  C6  UNL     1       0.508  -1.277  -0.413  1.00  0.00     0.009 C 
HETATM    3  C7  UNL     1      -0.578  -2.160   0.173  1.00  0.00     0.014 C 
HETATM    4  C8  UNL     1      -1.884  -1.535  -0.325  1.00  0.00     0.079 C 
HETATM    5  C12 UNL     1      -1.964  -0.211   0.405  1.00  0.00     0.035 C 
HETATM    6  C13 UNL     1      -0.905   0.730  -0.109  1.00  0.00     0.080 C 
ENDROOT
BRANCH   6   7
HETATM    7  N3  UNL     1      -1.009   2.006   0.506  1.00  0.00    -0.205 NA
HETATM    8  C14 UNL     1      -1.956   2.095   1.578  1.00  0.00     0.130 C 
BRANCH   7   9
HETATM    9  S2  UNL     1      -1.344   3.229  -0.619  1.00  0.00     0.248 S 
HETATM   10  O4  UNL     1      -2.671   2.973  -1.331  1.00  0.00    -0.206 OA
HETATM   11  O5  UNL     1      -1.565   4.570   0.075  1.00  0.00    -0.206 OA
BRANCH   9  12
HETATM   12  C15 UNL     1      -0.171   3.490  -1.851  1.00  0.00     0.130 A 
HETATM   13  C16 UNL     1      -0.062   3.077  -3.155  1.00  0.00     0.054 A 
HETATM   14  C17 UNL     1      -1.073   2.265  -3.858  1.00  0.00     0.072 C 
HETATM   15  N4  UNL     1       1.096   3.580  -3.597  1.00  0.00    -0.264 N 
HETATM   16  O6  UNL     1       1.695   4.258  -2.684  1.00  0.00    -0.241 OA
ATOM     17  H4  UNL     1       1.458   3.443  -4.541  1.00  0.00     0.194 HD
HETATM   18  C18 UNL     1       0.972   4.235  -1.609  1.00  0.00     0.097 A 
HETATM   19  C19 UNL     1       1.369   4.930  -0.335  1.00  0.00     0.081 C 
ENDBRANCH   9  12
ENDBRANCH   7   9
ENDBRANCH   6   7
BRANCH   1  20
HETATM   20  C4  UNL     1       1.064   0.416   1.366  1.00  0.00     0.129 C 
BRANCH  20  21
HETATM   21  N1  UNL     1       2.424   0.149   1.628  1.00  0.00    -0.353 N 
HETATM   22  C3  UNL     1       3.129  -1.057   1.803  1.00  0.00     0.298 C 
HETATM   23  O2  UNL     1       2.598  -2.190   1.779  1.00  0.00    -0.264 OA
ATOM     24  H1  UNL     1       3.004   0.984   1.705  1.00  0.00     0.162 HD
BRANCH  22  25
HETATM   25  C2  UNL     1       4.604  -1.024   2.035  1.00  0.00     0.275 C 
HETATM   26  O1  UNL     1       5.156   0.097   2.068  1.00  0.00    -0.275 OA
BRANCH  25  27
HETATM   27  S1  UNL     1       5.448  -2.558   2.244  1.00  0.00    -0.087 SA
HETATM   28  C1  UNL     1       7.218  -2.216   2.508  1.00  0.00     0.099 C 
ENDBRANCH  25  27
ENDBRANCH  22  25
ENDBRANCH  20  21
ENDBRANCH   1  20
BRANCH   4  29
HETATM   29  C9  UNL     1      -3.064  -2.360  -0.052  1.00  0.00     0.223 C 
HETATM   30  O3  UNL     1      -3.929  -1.929   0.758  1.00  0.00    -0.273 OA
HETATM   31  N2  UNL     1      -3.262  -3.618  -0.665  1.00  0.00    -0.360 N 
HETATM   32  C10 UNL     1      -2.365  -4.232  -1.617  1.00  0.00     0.152 C 
HETATM   33  C11 UNL     1      -4.461  -4.408  -0.342  1.00  0.00     0.152 C 
ENDBRANCH   4  29
TORSDOF 8
