REMARK  15 active torsions:
REMARK  status: ('A' for Active; 'I' for Inactive)
REMARK    1  A    between atoms: N1_2  and  C2_4 
REMARK    2  A    between atoms: C6_8  and  S1_9 
REMARK    3  A    between atoms: S1_9  and  N2_12 
REMARK    4  A    between atoms: N2_12  and  C7_14 
REMARK    5  A    between atoms: C10_17  and  N3_18 
REMARK    6  A    between atoms: N3_18  and  C11_19 
REMARK    7  A    between atoms: C13_25  and  N6_26 
REMARK    8  A    between atoms: N6_26  and  C14_28 
REMARK    9  A    between atoms: C14_28  and  C15_29 
REMARK   10  A    between atoms: C15_29  and  N7_30 
REMARK   11  A    between atoms: N11_42  and  C20_44 
REMARK   12  A    between atoms: C20_44  and  C21_45 
REMARK   13  A    between atoms: C21_45  and  N12_46 
REMARK   14  A    between atoms: C24_52  and  N15_53 
REMARK   15  A    between atoms: C25_58  and  N17_59 
ROOT
HETATM    1  C11 UNL     1       0.933   0.132  -1.544  1.00  0.00     0.227 C 
HETATM    2  N4  UNL     1      -0.314  -0.364  -1.237  1.00  0.00    -0.313 N 
ATOM      3  H4  UNL     1      -0.462  -1.360  -1.402  1.00  0.00     0.170 HD
HETATM    4  C12 UNL     1      -1.357   0.325  -0.743  1.00  0.00     0.141 A 
HETATM    5  N5  UNL     1      -2.172  -0.411   0.015  1.00  0.00    -0.175 N 
ATOM      6  H5  UNL     1      -1.976  -1.402   0.155  1.00  0.00     0.186 HD
HETATM    7  C13 UNL     1      -3.257   0.148   0.599  1.00  0.00     0.681 A 
HETATM    8  N10 UNL     1      -3.567   1.439   0.454  1.00  0.00    -0.176 N 
ATOM      9  H10 UNL     1      -4.396   1.816   0.914  1.00  0.00     0.186 HD
HETATM   10  C19 UNL     1      -2.791   2.249  -0.298  1.00  0.00     0.138 A 
HETATM   11  N11 UNL     1      -2.965   3.463  -0.488  1.00  0.00    -0.353 N 
ATOM     12  H11 UNL     1      -2.234   3.829  -1.097  1.00  0.00     0.166 HD
HETATM   13  C23 UNL     1      -1.670   1.667  -0.900  1.00  0.00     0.097 A 
HETATM   14  C24 UNL     1      -0.966   2.598  -1.642  1.00  0.00     0.118 C 
HETATM   15  N16 UNL     1       0.361   2.549  -1.892  1.00  0.00    -0.325 N 
ATOM     16  H16 UNL     1       0.837   3.444  -2.006  1.00  0.00     0.169 HD
HETATM   17  C25 UNL     1       1.119   1.447  -2.006  1.00  0.00     0.160 C 
ENDROOT
BRANCH   1  18
HETATM   18  N3  UNL     1       1.904  -0.528  -1.425  1.00  0.00    -0.364 NA
BRANCH  18  19
HETATM   19  C10 UNL     1       2.948  -1.321  -1.268  1.00  0.00     0.196 A 
HETATM   20  C9  UNL     1       3.968  -1.046  -0.355  1.00  0.00     0.069 A 
HETATM   21  C8  UNL     1       5.026  -1.912  -0.234  1.00  0.00     0.055 A 
HETATM   22  C7  UNL     1       5.124  -3.054  -0.983  1.00  0.00     0.129 A 
HETATM   23  N19 UNL     1       4.084  -3.246  -1.850  1.00  0.00    -0.283 N 
HETATM   24  N18 UNL     1       3.078  -2.459  -1.991  1.00  0.00    -0.273 N 
ATOM     25  H19 UNL     1       4.109  -4.083  -2.433  1.00  0.00     0.188 HD
ATOM     26  H18 UNL     1       2.354  -2.699  -2.669  1.00  0.00     0.189 HD
BRANCH  22  27
HETATM   27  N2  UNL     1       6.151  -4.000  -0.881  1.00  0.00    -0.265 N 
ATOM     28  H2  UNL     1       6.048  -4.833  -1.460  1.00  0.00     0.180 HD
BRANCH  27  29
HETATM   29  S1  UNL     1       7.546  -3.936   0.084  1.00  0.00     0.264 S 
HETATM   30  O1  UNL     1       8.348  -5.202  -0.068  1.00  0.00    -0.200 OA
HETATM   31  O2  UNL     1       7.100  -3.789   1.523  1.00  0.00    -0.200 OA
BRANCH  29  32
HETATM   32  C6  UNL     1       8.574  -2.613  -0.353  1.00  0.00     0.082 A 
HETATM   33  C5  UNL     1       9.249  -2.646  -1.565  1.00  0.00     0.025 A 
HETATM   34  C4  UNL     1      10.121  -1.651  -1.942  1.00  0.00     0.004 A 
HETATM   35  C3  UNL     1      10.310  -0.604  -1.071  1.00  0.00     0.029 A 
HETATM   36  C2  UNL     1       9.652  -0.553   0.129  1.00  0.00     0.029 A 
HETATM   37  C26 UNL     1       8.779  -1.565   0.489  1.00  0.00     0.054 A 
BRANCH  36  38
HETATM   38  N1  UNL     1       9.866   0.529   1.010  1.00  0.00    -0.394 N 
HETATM   39  C1  UNL     1      10.787   1.598   0.657  1.00  0.00     0.146 C 
ATOM     40  H1  UNL     1       9.371   0.561   1.901  1.00  0.00     0.159 HD
ENDBRANCH  36  38
ENDBRANCH  29  32
ENDBRANCH  27  29
ENDBRANCH  22  27
ENDBRANCH  18  19
ENDBRANCH   1  18
BRANCH  17  41
HETATM   41  N17 UNL     1       2.200   1.636  -2.657  1.00  0.00    -0.381 N 
ATOM     42 2H17 UNL     1       2.776   0.799  -2.744  1.00  0.00     0.157 HD
ATOM     43 1H17 UNL     1       2.335   2.590  -2.992  1.00  0.00     0.157 HD
ENDBRANCH  17  41
BRANCH  14  44
HETATM   44  N15 UNL     1      -1.649   3.561  -2.126  1.00  0.00    -0.385 N 
ATOM     45 2H15 UNL     1      -2.651   3.598  -1.937  1.00  0.00     0.157 HD
ATOM     46 1H15 UNL     1      -1.130   4.248  -2.673  1.00  0.00     0.157 HD
ENDBRANCH  14  44
BRANCH   7  47
HETATM   47  N6  UNL     1      -4.037  -0.587   1.331  1.00  0.00    -0.224 N 
ATOM     48  H6  UNL     1      -3.831  -1.577   1.462  1.00  0.00     0.177 HD
BRANCH  47  49
HETATM   49  C14 UNL     1      -5.182  -0.009   1.952  1.00  0.00     0.158 C 
BRANCH  49  50
HETATM   50  C15 UNL     1      -5.917  -0.912   2.890  1.00  0.00     0.161 C 
BRANCH  50  51
HETATM   51  N7  UNL     1      -6.457  -2.105   2.322  1.00  0.00    -0.215 N 
HETATM   52  C16 UNL     1      -7.166  -3.118   3.116  1.00  0.00     0.161 C 
HETATM   53  C17 UNL     1      -6.899  -4.386   2.374  1.00  0.00     0.158 C 
HETATM   54  N8  UNL     1      -6.504  -4.003   1.044  1.00  0.00    -0.225 N 
HETATM   55  C18 UNL     1      -6.472  -2.586   0.989  1.00  0.00     0.669 C 
ATOM     56  H8  UNL     1      -6.286  -4.638   0.277  1.00  0.00     0.177 HD
HETATM   57  N9  UNL     1      -6.466  -1.873  -0.087  1.00  0.00    -0.235 N 
ATOM     58  H92 UNL     1      -6.443  -0.854  -0.127  1.00  0.00     0.174 HD
ATOM     59  H91 UNL     1      -6.477  -2.219  -1.046  1.00  0.00     0.174 HD
ENDBRANCH  50  51
ENDBRANCH  49  50
ENDBRANCH  47  49
ENDBRANCH   7  47
BRANCH  11  60
HETATM   60  C20 UNL     1      -3.843   4.482  -0.132  1.00  0.00     0.082 C 
BRANCH  60  61
HETATM   61  C21 UNL     1      -5.269   4.250   0.133  1.00  0.00     0.166 C 
BRANCH  61  62
HETATM   62  N12 UNL     1      -6.047   3.659  -0.930  1.00  0.00    -0.362 N 
HETATM   63  C22 UNL     1      -7.314   3.838  -1.023  1.00  0.00     0.197 C 
HETATM   64  N13 UNL     1      -8.070   3.260  -2.060  1.00  0.00    -0.067 NA
HETATM   65  N14 UNL     1      -7.957   4.639  -0.054  1.00  0.00    -0.067 NA
ATOM     66  H12 UNL     1      -5.576   3.083  -1.627  1.00  0.00     0.162 HD
ENDBRANCH  61  62
ENDBRANCH  60  61
ENDBRANCH  11  60
TORSDOF 15
