REMARK  13 active torsions:
REMARK  status: ('A' for Active; 'I' for Inactive)
REMARK    1  A    between atoms: C2_2  and  N1_3 
REMARK    2  A    between atoms: C2_2  and  C27_58 
REMARK       I    between atoms: N1_3  and  C3_5 
REMARK    3  A    between atoms: C3_5  and  C4_7 
REMARK    4  A    between atoms: C7_12  and  N3_13 
REMARK    5  A    between atoms: C8_18  and  C9_19 
REMARK    6  A    between atoms: C9_19  and  C10_20 
REMARK    7  A    between atoms: C9_19  and  N7_32 
REMARK    8  A    between atoms: C10_20  and  C11_21 
REMARK       I    between atoms: N7_32  and  C18_34 
REMARK    9  A    between atoms: C18_34  and  C19_36 
REMARK   10  A    between atoms: C19_36  and  N8_37 
REMARK       I    between atoms: N8_37  and  C20_39 
REMARK   11  A    between atoms: C20_39  and  C21_41 
REMARK   12  A    between atoms: C21_41  and  N9_42 
REMARK   13  A    between atoms: C23_47  and  C24_48 
REMARK       I    between atoms: C27_58  and  N13_60 
REMARK       I    between atoms: N13_60  and  C28_62 
ROOT
HETATM    1  C4  UNL     1       3.057  -0.253  -0.166  1.00  0.00     0.059 A 
HETATM    2  C5  UNL     1       2.460  -1.156  -0.975  1.00  0.00     0.050 A 
HETATM    3  C6  UNL     1       1.151  -1.604  -0.762  1.00  0.00     0.063 A 
HETATM    4  N2  UNL     1       0.636  -2.535  -1.574  1.00  0.00    -0.191 N 
ATOM      5  H2  UNL     1       1.183  -2.892  -2.357  1.00  0.00     0.184 HD
HETATM    6  C7  UNL     1      -0.574  -2.984  -1.356  1.00  0.00     0.676 A 
HETATM    7  N4  UNL     1      -1.281  -2.529  -0.361  1.00  0.00    -0.192 N 
ATOM      8  H4  UNL     1      -2.218  -2.912  -0.238  1.00  0.00     0.184 HD
HETATM    9  C8  UNL     1      -0.858  -1.557   0.552  1.00  0.00     0.066 A 
HETATM   10  C22 UNL     1       0.399  -1.107   0.334  1.00  0.00     0.033 A 
HETATM   11  C23 UNL     1       0.999  -0.202   1.157  1.00  0.00     0.050 A 
HETATM   12  C26 UNL     1       2.325   0.224   0.897  1.00  0.00     0.077 A 
HETATM   13  N12 UNL     1       2.882   1.170   1.785  1.00  0.00    -0.100 NA
ENDROOT
BRANCH   9  14
HETATM   14  C9  UNL     1      -1.870  -0.908   1.377  1.00  0.00     0.160 C 
BRANCH  14  15
HETATM   15  C10 UNL     1      -2.788  -1.836   2.115  1.00  0.00     0.018 C 
BRANCH  15  16
HETATM   16  C11 UNL     1      -3.604  -2.852   1.479  1.00  0.00    -0.008 A 
HETATM   17  C12 UNL     1      -3.122  -4.199   1.332  1.00  0.00     0.101 A 
HETATM   18  N5  UNL     1      -4.074  -4.866   0.715  1.00  0.00    -0.351 N 
HETATM   19  C13 UNL     1      -5.124  -4.106   0.446  1.00  0.00     0.116 A 
ATOM     20  H5  UNL     1      -4.010  -5.855   0.472  1.00  0.00     0.166 HD
HETATM   21  N6  UNL     1      -6.331  -4.358  -0.129  1.00  0.00    -0.352 N 
HETATM   22  C17 UNL     1      -4.843  -2.837   0.921  1.00  0.00     0.019 A 
HETATM   23  C14 UNL     1      -7.250  -3.410  -0.240  1.00  0.00     0.090 A 
ATOM     24  H6  UNL     1      -6.532  -5.294  -0.481  1.00  0.00     0.166 HD
HETATM   25  C15 UNL     1      -6.997  -2.113   0.236  1.00  0.00     0.018 A 
HETATM   26  C16 UNL     1      -5.789  -1.832   0.819  1.00  0.00     0.017 A 
ENDBRANCH  15  16
ENDBRANCH  14  15
BRANCH  14  27
HETATM   27  N7  UNL     1      -2.779  -0.427   0.264  1.00  0.00    -0.346 N 
HETATM   28  C18 UNL     1      -3.297   0.884   0.262  1.00  0.00     0.236 C 
HETATM   29  O2  UNL     1      -3.023   1.692   1.182  1.00  0.00    -0.272 OA
ATOM     30  H7  UNL     1      -3.020  -1.063  -0.496  1.00  0.00     0.163 HD
BRANCH  28  31
HETATM   31  C19 UNL     1      -4.184   1.328  -0.827  1.00  0.00     0.225 C 
BRANCH  31  32
HETATM   32  N8  UNL     1      -4.673   2.663  -0.610  1.00  0.00    -0.351 N 
HETATM   33  C20 UNL     1      -5.543   3.234  -1.557  1.00  0.00     0.243 C 
HETATM   34  O3  UNL     1      -5.854   2.539  -2.588  1.00  0.00    -0.272 OA
ATOM     35  H8  UNL     1      -4.393   3.188   0.218  1.00  0.00     0.163 HD
BRANCH  33  36
HETATM   36  C21 UNL     1      -6.108   4.594  -1.404  1.00  0.00     0.332 C 
BRANCH  36  37
HETATM   37  N9  UNL     1      -5.672   5.212  -0.200  1.00  0.00    -0.071 N 
ATOM     38  H93 UNL     1      -5.878   4.630   0.612  1.00  0.00     0.274 HD
ATOM     39  H92 UNL     1      -4.654   5.223  -0.135  1.00  0.00     0.274 HD
ATOM     40  H91 UNL     1      -6.061   6.149  -0.095  1.00  0.00     0.274 HD
ENDBRANCH  36  37
ENDBRANCH  33  36
ENDBRANCH  31  32
ENDBRANCH  28  31
ENDBRANCH  14  27
ENDBRANCH   9  14
BRANCH   6  41
HETATM   41  N3  UNL     1      -1.110  -3.914  -2.131  1.00  0.00    -0.234 N 
ATOM     42  H32 UNL     1      -0.556  -4.270  -2.910  1.00  0.00     0.174 HD
ATOM     43  H31 UNL     1      -2.053  -4.264  -1.961  1.00  0.00     0.174 HD
ENDBRANCH   6  41
BRANCH  11  44
HETATM   44  C24 UNL     1       0.505   0.096   2.478  1.00  0.00     0.143 A 
HETATM   45  N10 UNL     1       0.193  -0.709   3.471  1.00  0.00    -0.285 N 
HETATM   46  C25 UNL     1       0.032  -0.028   4.620  1.00  0.00     0.388 A 
ATOM     47  H10 UNL     1       0.087  -1.719   3.381  1.00  0.00     0.172 HD
HETATM   48  O4  UNL     1      -0.265  -0.419   5.772  1.00  0.00    -0.236 OA
HETATM   49  O5  UNL     1       0.256   1.225   4.294  1.00  0.00    -0.179 OA
HETATM   50  N11 UNL     1       0.537   1.311   3.030  1.00  0.00    -0.239 N 
ATOM     51  H11 UNL     1       0.750   2.176   2.533  1.00  0.00     0.196 HD
ENDBRANCH  11  44
BRANCH   1  52
HETATM   52  C3  UNL     1       4.476   0.140  -0.285  1.00  0.00     0.254 C 
HETATM   53  N1  UNL     1       5.249  -0.303  -1.402  1.00  0.00    -0.344 N 
ATOM     54  H1  UNL     1       4.773  -0.862  -2.110  1.00  0.00     0.163 HD
HETATM   55  O1  UNL     1       4.989   0.851   0.597  1.00  0.00    -0.268 OA
BRANCH  53  56
HETATM   56  C2  UNL     1       6.639  -0.025  -1.607  1.00  0.00     0.173 C 
HETATM   57  C1  UNL     1       7.547  -0.677  -0.583  1.00  0.00     0.042 C 
BRANCH  56  58
HETATM   58  C27 UNL     1       6.944   1.425  -1.628  1.00  0.00     0.246 C 
HETATM   59  O6  UNL     1       6.066   2.299  -1.549  1.00  0.00    -0.271 OA
HETATM   60  N13 UNL     1       8.344   1.817  -1.745  1.00  0.00    -0.300 N 
HETATM   61  C28 UNL     1       8.653   3.199  -1.758  1.00  0.00     0.188 C 
ATOM     62  H13 UNL     1       9.080   1.115  -1.816  1.00  0.00     0.171 HD
HETATM   63  N14 UNL     1       9.914   3.545  -1.863  1.00  0.00    -0.373 N 
HETATM   64  N15 UNL     1       7.676   4.217  -1.656  1.00  0.00    -0.064 NA
ATOM     65 2H14 UNL     1      10.618   2.811  -1.937  1.00  0.00     0.158 HD
ATOM     66 1H14 UNL     1      10.137   4.540  -1.872  1.00  0.00     0.158 HD
ENDBRANCH  56  58
ENDBRANCH  53  56
ENDBRANCH   1  52
TORSDOF 13
