REMARK  13 active torsions:
REMARK  status: ('A' for Active; 'I' for Inactive)
REMARK    1  A    between atoms: C4_6  and  O1_7 
REMARK    2  A    between atoms: C6_10  and  N2_11 
REMARK    3  A    between atoms: N2_11  and  N3_13 
REMARK    4  A    between atoms: N3_13  and  C7_14 
REMARK    5  A    between atoms: C7_14  and  C8_15 
REMARK    6  A    between atoms: C8_15  and  O3_17 
REMARK    7  A    between atoms: C12_22  and  O4_23 
REMARK    8  A    between atoms: O4_23  and  C13_24 
REMARK    9  A    between atoms: C13_24  and  C14_26 
REMARK   10  A    between atoms: C14_26  and  C15_27 
REMARK   11  A    between atoms: C15_27  and  C16_32 
REMARK   12  A    between atoms: N4_28  and  O6_30 
REMARK   13  A    between atoms: C18_35  and  N5_36 
ROOT
HETATM    1  C1  UNL     1      -2.510   1.024  -3.520  1.00  0.00     0.019 C 
HETATM    2  C2  UNL     1      -3.094   1.337  -2.507  1.00  0.00    -0.057 C 
HETATM    3  C3  UNL     1      -3.770   1.720  -1.300  1.00  0.00     0.116 A 
HETATM    4  N1  UNL     1      -4.810   2.570  -1.174  1.00  0.00    -0.328 N 
ATOM      5  H1  UNL     1      -5.258   3.062  -1.947  1.00  0.00     0.168 HD
HETATM    6  C4  UNL     1      -5.170   2.676   0.110  1.00  0.00     0.143 A 
HETATM    7  C5  UNL     1      -4.320   1.857   0.829  1.00  0.00     0.089 A 
HETATM    8  C6  UNL     1      -3.445   1.259  -0.046  1.00  0.00     0.084 A 
ENDROOT
BRANCH   8   9
HETATM    9  N2  UNL     1      -2.397   0.331   0.302  1.00  0.00    -0.300 N 
ATOM     10  H2  UNL     1      -2.274   0.078   1.282  1.00  0.00     0.182 HD
BRANCH   9  11
HETATM   11  N3  UNL     1      -1.558  -0.226  -0.632  1.00  0.00    -0.116 NA
BRANCH  11  12
HETATM   12  C7  UNL     1      -1.070  -1.501  -0.136  1.00  0.00     0.173 C 
HETATM   13  C10 UNL     1      -0.259  -2.218  -1.220  1.00  0.00     0.116 C 
HETATM   14  S1  UNL     1       0.334  -3.603  -0.185  1.00  0.00    -0.164 SA
HETATM   15  C11 UNL     1       0.259  -2.750   1.416  1.00  0.00     0.109 C 
HETATM   16  C12 UNL     1      -0.119  -1.360   0.993  1.00  0.00     0.178 C 
BRANCH  12  17
HETATM   17  C8  UNL     1      -2.239  -2.354   0.122  1.00  0.00     0.288 C 
HETATM   18  O2  UNL     1      -3.428  -1.905  -0.065  1.00  0.00    -0.263 OA
BRANCH  17  19
HETATM   19  O3  UNL     1      -2.206  -3.664   0.569  1.00  0.00    -0.325 OA
HETATM   20  C9  UNL     1      -3.380  -4.424   0.794  1.00  0.00     0.213 C 
ENDBRANCH  17  19
ENDBRANCH  12  17
BRANCH  16  21
HETATM   21  O4  UNL     1       1.108  -0.729   0.569  1.00  0.00    -0.312 OA
BRANCH  21  22
HETATM   22  C13 UNL     1       1.584   0.393   1.207  1.00  0.00     0.265 C 
HETATM   23  O5  UNL     1       0.866   0.816   2.177  1.00  0.00    -0.265 OA
BRANCH  22  24
HETATM   24  C14 UNL     1       2.783   1.160   0.934  1.00  0.00     0.172 C 
BRANCH  24  25
HETATM   25  C15 UNL     1       3.643   0.596  -0.154  1.00  0.00     0.068 C 
HETATM   26  N4  UNL     1       3.236  -0.453  -0.674  1.00  0.00    -0.271 N 
ATOM     27  H4  UNL     1       2.357  -0.755  -0.254  1.00  0.00     0.194 HD
BRANCH  26  28
HETATM   28  O6  UNL     1       3.624  -1.288  -1.621  1.00  0.00    -0.290 OA
ATOM     29  H6  UNL     1       3.312  -2.092  -2.020  1.00  0.00     0.244 HD
ENDBRANCH  26  28
BRANCH  25  30
HETATM   30  C16 UNL     1       4.900   1.271  -0.562  1.00  0.00     0.066 A 
HETATM   31  C17 UNL     1       5.701   0.767  -1.553  1.00  0.00     0.084 A 
HETATM   32  S2  UNL     1       6.980   1.906  -1.617  1.00  0.00    -0.064 SA
HETATM   33  C18 UNL     1       6.432   2.948  -0.394  1.00  0.00     0.142 A 
HETATM   34  N6  UNL     1       5.300   2.388   0.013  1.00  0.00    -0.335 N 
ATOM     35  H6  UNL     1       4.749   2.814   0.758  1.00  0.00     0.168 HD
BRANCH  33  36
HETATM   36  N5  UNL     1       6.976   4.062   0.070  1.00  0.00    -0.380 N 
ATOM     37  H52 UNL     1       7.846   4.492  -0.243  1.00  0.00     0.158 HD
ATOM     38  H51 UNL     1       6.647   4.688   0.805  1.00  0.00     0.158 HD
ENDBRANCH  33  36
ENDBRANCH  25  30
ENDBRANCH  24  25
ENDBRANCH  22  24
ENDBRANCH  21  22
ENDBRANCH  16  21
ENDBRANCH  11  12
ENDBRANCH   9  11
ENDBRANCH   8   9
BRANCH   6  39
HETATM   39  O1  UNL     1      -6.195   3.452   0.645  1.00  0.00    -0.346 OA
ATOM     40  H1  UNL     1      -6.451   3.527   1.557  1.00  0.00     0.219 HD
ENDBRANCH   6  39
TORSDOF 13
