REMARK  13 active torsions:
REMARK  status: ('A' for Active; 'I' for Inactive)
REMARK    1  A    between atoms: C3_5  and  N2_6 
REMARK    2  A    between atoms: C5_11  and  N4_12 
REMARK    3  A    between atoms: C6_17  and  C7_18 
REMARK    4  A    between atoms: C7_18  and  N6_19 
REMARK    5  A    between atoms: C8_22  and  C9_23 
REMARK       I    between atoms: C9_23  and  N7_25 
REMARK    6  A    between atoms: N7_25  and  N8_27 
REMARK    7  A    between atoms: N8_27  and  N9_29 
REMARK    8  A    between atoms: N9_29  and  N10_31 
REMARK    9  A    between atoms: N10_31  and  C10_33 
REMARK   10  A    between atoms: C10_33  and  C13_40 
REMARK   11  A    between atoms: C11_34  and  O3_35 
REMARK   12  A    between atoms: C11_34  and  C12_37 
REMARK   13  A    between atoms: C20_47  and  O6_48 
ROOT
HETATM    1  N6  UNL     1      -0.234   0.264   3.224  1.00  0.00    -0.294 NA
HETATM    2  O1  UNL     1       0.273   1.427   3.100  1.00  0.00    -0.219 OA
ATOM      3  H1  UNL     1       0.734   2.256   3.143  1.00  0.00     0.261 HD
ENDROOT
BRANCH   1   4
HETATM    4  C7  UNL     1      -0.811  -0.774   3.170  1.00  0.00     0.249 C 
BRANCH   4   5
HETATM    5  C6  UNL     1      -1.786  -1.270   2.217  1.00  0.00     0.100 A 
HETATM    6  N5  UNL     1      -2.602  -2.292   2.672  1.00  0.00    -0.188 N 
HETATM    7  C5  UNL     1      -3.662  -2.677   1.950  1.00  0.00     0.678 A 
ATOM      8  H5  UNL     1      -2.395  -2.752   3.558  1.00  0.00     0.184 HD
HETATM    9  N3  UNL     1      -3.960  -2.100   0.795  1.00  0.00    -0.176 N 
HETATM   10  C4  UNL     1      -3.210  -1.086   0.268  1.00  0.00     0.140 A 
ATOM     11  H3  UNL     1      -4.779  -2.424   0.280  1.00  0.00     0.186 HD
HETATM   12  N2  UNL     1      -3.411  -0.545  -0.753  1.00  0.00    -0.327 N 
HETATM   13  C8  UNL     1      -2.070  -0.688   1.057  1.00  0.00     0.108 A 
ATOM     14  H2  UNL     1      -2.652   0.136  -0.791  1.00  0.00     0.169 HD
BRANCH   7  15
HETATM   15  N4  UNL     1      -4.391  -3.617   2.405  1.00  0.00    -0.234 N 
ATOM     16  H42 UNL     1      -5.198  -3.910   1.855  1.00  0.00     0.174 HD
ATOM     17  H41 UNL     1      -4.162  -4.061   3.294  1.00  0.00     0.174 HD
ENDBRANCH   7  15
BRANCH  12  18
HETATM   18  C3  UNL     1      -4.077  -0.304  -1.918  1.00  0.00     0.106 A 
HETATM   19  N1  UNL     1      -4.800   0.837  -2.150  1.00  0.00    -0.344 N 
HETATM   20  C2  UNL     1      -5.451   1.028  -3.294  1.00  0.00     0.040 A 
ATOM     21  H1  UNL     1      -4.840   1.557  -1.428  1.00  0.00     0.167 HD
HETATM   22  C1  UNL     1      -6.253   2.269  -3.560  1.00  0.00     0.071 C 
HETATM   23  C20 UNL     1      -5.403   0.065  -4.273  1.00  0.00     0.087 A 
HETATM   24  C19 UNL     1      -4.689  -1.109  -4.099  1.00  0.00     0.042 A 
HETATM   25  C18 UNL     1      -4.023  -1.294  -2.918  1.00  0.00     0.051 A 
BRANCH  23  26
HETATM   26  O6  UNL     1      -6.092   0.295  -5.448  1.00  0.00    -0.359 OA
ATOM     27  H6  UNL     1      -6.059  -0.371  -6.125  1.00  0.00     0.217 HD
ENDBRANCH  23  26
ENDBRANCH  12  18
BRANCH  13  28
HETATM   28  C9  UNL     1      -1.269   0.293   0.380  1.00  0.00     0.277 C 
HETATM   29  O2  UNL     1      -1.737   1.389  -0.046  1.00  0.00    -0.266 OA
HETATM   30  N7  UNL     1       0.128   0.027   0.140  1.00  0.00    -0.250 N 
ATOM     31  H7  UNL     1       0.569  -0.827   0.482  1.00  0.00     0.192 HD
BRANCH  30  32
HETATM   32  N8  UNL     1       0.835   0.950  -0.555  1.00  0.00    -0.225 N 
ATOM     33  H8  UNL     1       0.475   1.020  -1.507  1.00  0.00     0.210 HD
BRANCH  32  34
HETATM   34  N9  UNL     1       1.729   1.694  -0.410  1.00  0.00    -0.228 N 
ATOM     35  H9  UNL     1       1.937   2.227  -1.255  1.00  0.00     0.210 HD
BRANCH  34  36
HETATM   36  N10 UNL     1       2.534   2.004   0.599  1.00  0.00    -0.286 N 
ATOM     37  H10 UNL     1       2.181   2.705   1.251  1.00  0.00     0.188 HD
BRANCH  36  38
HETATM   38  C10 UNL     1       3.744   1.516   0.868  1.00  0.00     0.071 C 
HETATM   39  C11 UNL     1       4.357   2.054   2.024  1.00  0.00     0.167 C 
BRANCH  39  40
HETATM   40  O3  UNL     1       3.643   2.967   2.671  1.00  0.00    -0.353 OA
ATOM     41  H3  UNL     1       4.055   3.328   3.447  1.00  0.00     0.218 HD
ENDBRANCH  39  40
BRANCH  39  42
HETATM   42  C12 UNL     1       5.618   1.806   2.652  1.00  0.00     0.235 C 
HETATM   43  O4  UNL     1       6.546   1.054   2.326  1.00  0.00    -0.642 OA
HETATM   44  O5  UNL     1       5.850   2.553   3.869  1.00  0.00    -0.642 OA
ENDBRANCH  39  42
BRANCH  38  45
HETATM   45  C13 UNL     1       4.220   0.525  -0.071  1.00  0.00     0.040 C 
HETATM   46  C14 UNL     1       5.416   1.003  -0.832  1.00  0.00     0.011 C 
HETATM   47  C15 UNL     1       6.105  -0.255  -1.239  1.00  0.00     0.001 C 
HETATM   48  C16 UNL     1       5.815  -1.252  -0.181  1.00  0.00     0.001 C 
HETATM   49  C17 UNL     1       4.549  -0.829   0.473  1.00  0.00     0.011 C 
ENDBRANCH  38  45
ENDBRANCH  36  38
ENDBRANCH  34  36
ENDBRANCH  32  34
ENDBRANCH  30  32
ENDBRANCH  13  28
ENDBRANCH   4   5
ENDBRANCH   1   4
TORSDOF 13
