REMARK  14 active torsions:
REMARK  status: ('A' for Active; 'I' for Inactive)
REMARK    1  A    between atoms: S1_2  and  C2_3 
REMARK    2  A    between atoms: C2_3  and  C3_5 
REMARK    3  A    between atoms: C3_5  and  N1_6 
REMARK    4  A    between atoms: C3_5  and  C14_31 
REMARK    5  A    between atoms: N1_6  and  C4_8 
REMARK    6  A    between atoms: C4_8  and  O2_9 
REMARK    7  A    between atoms: C4_8  and  C5_11 
REMARK    8  A    between atoms: C5_11  and  C6_16 
REMARK    9  A    between atoms: N2_12  and  O3_14 
REMARK   10  A    between atoms: C6_16  and  O4_17 
REMARK   11  A    between atoms: C6_16  and  C13_28 
REMARK   12  A    between atoms: O4_17  and  C7_18 
REMARK       I    between atoms: C7_18  and  N3_20 
REMARK   13  A    between atoms: N3_20  and  C8_22 
REMARK   14  A    between atoms: C16_37  and  O10_38 
ROOT
HETATM    1  C5  UNL     1      -0.623   0.102   0.859  1.00  0.00     0.122 C 
HETATM    2  N2  UNL     1      -0.305  -1.010   0.239  1.00  0.00    -0.266 N 
ATOM      3  H2  UNL     1       0.501  -0.990  -0.385  1.00  0.00     0.194 HD
ENDROOT
BRANCH   1   4
HETATM    4  C4  UNL     1      -1.778   0.150   1.776  1.00  0.00     0.165 C 
BRANCH   4   5
HETATM    5  N1  UNL     1      -2.893  -0.659   1.388  1.00  0.00    -0.352 N 
ATOM      6  H1  UNL     1      -3.203  -1.442   1.964  1.00  0.00     0.162 HD
BRANCH   5   7
HETATM    7  C3  UNL     1      -3.537  -0.340   0.200  1.00  0.00     0.209 C 
BRANCH   7   8
HETATM    8  C2  UNL     1      -4.285   0.920   0.133  1.00  0.00     0.213 C 
HETATM    9  O1  UNL     1      -4.450   1.688   1.033  1.00  0.00    -0.283 OA
BRANCH   8  10
HETATM   10  S1  UNL     1      -5.026   1.353  -1.461  1.00  0.00    -0.095 SA
HETATM   11  C1  UNL     1      -5.900   2.921  -1.371  1.00  0.00     0.099 C 
ENDBRANCH   8  10
ENDBRANCH   7   8
BRANCH   7  12
HETATM   12  C14 UNL     1      -4.544  -1.422  -0.110  1.00  0.00     0.069 A 
HETATM   13  S2  UNL     1      -5.699  -1.444  -1.364  1.00  0.00    -0.027 SA
HETATM   14  C15 UNL     1      -6.401  -2.962  -1.029  1.00  0.00     0.290 A 
HETATM   15  O9  UNL     1      -7.355  -3.569  -1.635  1.00  0.00    -0.260 OA
HETATM   16  N4  UNL     1      -5.715  -3.382   0.033  1.00  0.00    -0.297 N 
HETATM   17  C16 UNL     1      -4.773  -2.620   0.513  1.00  0.00     0.159 A 
ATOM     18  H4  UNL     1      -5.923  -4.283   0.463  1.00  0.00     0.171 HD
BRANCH  17  19
HETATM   19  O10 UNL     1      -3.990  -2.990   1.646  1.00  0.00    -0.345 OA
ATOM     20  H10 UNL     1      -4.149  -3.821   2.078  1.00  0.00     0.219 HD
ENDBRANCH  17  19
ENDBRANCH   7  12
ENDBRANCH   5   7
ENDBRANCH   4   5
BRANCH   4  21
HETATM   21  O2  UNL     1      -2.027   1.416   2.216  1.00  0.00    -0.345 OA
ATOM     22  H2  UNL     1      -1.287   1.953   2.474  1.00  0.00     0.219 HD
ENDBRANCH   4  21
ENDBRANCH   1   4
BRANCH   1  23
HETATM   23  C6  UNL     1       0.287   1.235   0.584  1.00  0.00     0.290 C 
BRANCH  23  24
HETATM   24  O4  UNL     1       1.444   0.771  -0.145  1.00  0.00    -0.281 OA
BRANCH  24  25
HETATM   25  C7  UNL     1       2.718   0.887   0.352  1.00  0.00     0.362 C 
HETATM   26  O5  UNL     1       2.888   1.410   1.476  1.00  0.00    -0.238 OA
HETATM   27  N3  UNL     1       3.831   0.426  -0.381  1.00  0.00    -0.330 N 
ATOM     28  H3  UNL     1       3.700  -0.002  -1.297  1.00  0.00     0.165 HD
BRANCH  27  29
HETATM   29  C8  UNL     1       5.162   0.564   0.175  1.00  0.00     0.117 C 
HETATM   30  C9  UNL     1       6.097   1.247  -0.788  1.00  0.00     0.054 C 
HETATM   31  C10 UNL     1       7.430   0.643  -0.390  1.00  0.00     0.170 C 
HETATM   32  O6  UNL     1       7.177  -0.335   0.555  1.00  0.00    -0.384 OA
HETATM   33  C11 UNL     1       5.859  -0.770   0.361  1.00  0.00     0.140 C 
HETATM   34  C12 UNL     1       5.812  -1.641  -0.852  1.00  0.00     0.041 C 
ENDBRANCH  27  29
ENDBRANCH  24  25
ENDBRANCH  23  24
BRANCH  23  35
HETATM   35  C13 UNL     1      -0.340   2.288  -0.215  1.00  0.00     0.210 C 
HETATM   36  O7  UNL     1      -1.325   2.983   0.104  1.00  0.00    -0.646 OA
HETATM   37  O8  UNL     1       0.206   2.572  -1.490  1.00  0.00    -0.646 OA
ENDBRANCH  23  35
ENDBRANCH   1  23
BRANCH   2  38
HETATM   38  O3  UNL     1      -0.966  -2.173   0.368  1.00  0.00    -0.290 OA
ATOM     39  H3  UNL     1      -0.736  -2.978  -0.081  1.00  0.00     0.244 HD
ENDBRANCH   2  38
TORSDOF 14
