REMARK  12 active torsions:
REMARK  status: ('A' for Active; 'I' for Inactive)
REMARK    1  A    between atoms: O1_2  and  C2_3 
REMARK    2  A    between atoms: C2_3  and  C3_5 
REMARK    3  A    between atoms: C4_6  and  C5_7 
REMARK    4  A    between atoms: C6_11  and  C7_12 
REMARK    5  A    between atoms: C7_12  and  S1_13 
REMARK    6  A    between atoms: S1_13  and  C8_14 
REMARK    7  A    between atoms: C10_21  and  O5_22 
REMARK    8  A    between atoms: C11_24  and  C12_25 
REMARK    9  A    between atoms: C14_29  and  O8_30 
REMARK   10  A    between atoms: C14_29  and  C15_32 
REMARK   11  A    between atoms: C15_32  and  O9_33 
REMARK   12  A    between atoms: O9_33  and  C16_34 
ROOT
HETATM    1  C3  UNL     1       2.134  -0.908   0.617  1.00  0.00     0.093 A 
HETATM    2  C4  UNL     1       0.950  -1.119   1.168  1.00  0.00     0.133 A 
HETATM    3  N1  UNL     1      -0.013  -0.209   0.581  1.00  0.00    -0.303 N 
HETATM    4  C6  UNL     1      -1.235   0.490   0.246  1.00  0.00     0.066 A 
HETATM    5  C11 UNL     1      -0.479   1.270  -0.715  1.00  0.00     0.095 A 
HETATM    6  C13 UNL     1       0.613   0.587  -0.356  1.00  0.00     0.078 A 
HETATM    7  C14 UNL     1       2.082   0.218  -0.367  1.00  0.00     0.159 A 
ENDROOT
BRANCH   4   8
HETATM    8  C7  UNL     1      -2.461   0.381   0.692  1.00  0.00     0.083 C 
BRANCH   8   9
HETATM    9  S1  UNL     1      -3.773   1.392   0.080  1.00  0.00    -0.077 SA
BRANCH   9  10
HETATM   10  C8  UNL     1      -5.231   0.448  -0.334  1.00  0.00     0.127 A 
HETATM   11  N2  UNL     1      -5.513  -0.106  -1.539  1.00  0.00    -0.324 N 
HETATM   12  C9  UNL     1      -6.701  -0.727  -1.429  1.00  0.00     0.178 A 
ATOM     13  H2  UNL     1      -4.931  -0.060  -2.375  1.00  0.00     0.169 HD
HETATM   14  S2  UNL     1      -7.502  -1.557  -2.600  1.00  0.00    -0.040 SA
HETATM   15  N3  UNL     1      -7.187  -0.584  -0.186  1.00  0.00    -0.311 N 
HETATM   16  C10 UNL     1      -6.286   0.142   0.502  1.00  0.00     0.177 A 
ATOM     17  H3  UNL     1      -8.069  -0.954   0.169  1.00  0.00     0.170 HD
BRANCH  16  18
HETATM   18  O5  UNL     1      -6.351   0.544   1.824  1.00  0.00    -0.344 OA
ATOM     19  H5  UNL     1      -7.077   0.333   2.399  1.00  0.00     0.219 HD
ENDBRANCH  16  18
ENDBRANCH   9  10
ENDBRANCH   8   9
ENDBRANCH   4   8
BRANCH   5  20
HETATM   20  C12 UNL     1      -0.735   2.319  -1.669  1.00  0.00     0.213 C 
HETATM   21  O6  UNL     1       0.184   2.803  -2.406  1.00  0.00    -0.644 OA
HETATM   22  O7  UNL     1      -1.976   2.856  -1.839  1.00  0.00    -0.644 OA
ENDBRANCH   5  20
BRANCH   2  23
HETATM   23  C5  UNL     1       0.506  -2.075   2.171  1.00  0.00     0.228 C 
HETATM   24  O3  UNL     1       1.209  -2.918   2.722  1.00  0.00    -0.643 OA
HETATM   25  O4  UNL     1      -0.847  -2.092   2.600  1.00  0.00    -0.643 OA
ENDBRANCH   2  23
BRANCH   1  26
HETATM   26  C2  UNL     1       3.348  -1.666   0.935  1.00  0.00     0.295 C 
HETATM   27  O2  UNL     1       3.415  -2.573   1.759  1.00  0.00    -0.259 OA
BRANCH  26  28
HETATM   28  O1  UNL     1       4.554  -1.366   0.263  1.00  0.00    -0.323 OA
HETATM   29  C1  UNL     1       5.728  -2.090   0.557  1.00  0.00     0.213 C 
ENDBRANCH  26  28
ENDBRANCH   1  26
BRANCH   7  30
HETATM   30  O8  UNL     1       2.370  -0.205  -1.665  1.00  0.00    -0.376 OA
ATOM     31  H8  UNL     1       2.337   0.510  -2.290  1.00  0.00     0.211 HD
ENDBRANCH   7  30
BRANCH   7  32
HETATM   32  C15 UNL     1       2.773   1.457   0.071  1.00  0.00     0.231 C 
BRANCH  32  33
HETATM   33  O9  UNL     1       4.126   1.614  -0.018  1.00  0.00    -0.292 OA
BRANCH  33  34
HETATM   34  C16 UNL     1       4.920   1.734  -1.147  1.00  0.00     0.332 C 
HETATM   35  O10 UNL     1       4.347   1.703  -2.260  1.00  0.00    -0.624 OA
HETATM   36  O11 UNL     1       6.300   1.883  -1.093  1.00  0.00    -0.624 OA
ENDBRANCH  33  34
ENDBRANCH  32  33
ENDBRANCH   7  32
TORSDOF 12
