REMARK  4 active torsions:
REMARK  status: ('A' for Active; 'I' for Inactive)
REMARK    1  A    between atoms: C2_2  and  C3_4 
REMARK    2  A    between atoms: C5_10  and  N3_11 
REMARK    3  A    between atoms: N3_11  and  C6_13 
REMARK    4  A    between atoms: C7_22  and  N9_23 
ROOT
HETATM    1  C3  UNL     1      -2.431   0.200   1.048  1.00  0.00     0.182 A 
HETATM    2  N1  UNL     1      -1.237   0.632   1.504  1.00  0.00    -0.169 N 
ATOM      3  H1  UNL     1      -1.008   0.862   2.471  1.00  0.00     0.186 HD
HETATM    4  C4  UNL     1      -0.397   0.705   0.442  1.00  0.00     0.735 A 
HETATM    5  N2  UNL     1       0.901   1.071   0.314  1.00  0.00    -0.019 N 
ATOM      6  H2  UNL     1       1.421   1.365   1.140  1.00  0.00     0.203 HD
HETATM    7  C5  UNL     1       1.516   1.054  -0.880  1.00  0.00     0.726 A 
HETATM    8  N8  UNL     1       0.867   0.674  -1.995  1.00  0.00    -0.019 N 
ATOM      9  H8  UNL     1       1.336   0.662  -2.901  1.00  0.00     0.203 HD
HETATM   10  C7  UNL     1      -0.421   0.310  -1.874  1.00  0.00     0.727 A 
HETATM   11  N10 UNL     1      -1.048   0.325  -0.671  1.00  0.00     0.092 N 
HETATM   12  N11 UNL     1      -2.272   0.026  -0.273  1.00  0.00    -0.246 N 
ATOM     13  H11 UNL     1      -3.010  -0.299  -0.897  1.00  0.00     0.190 HD
ENDROOT
BRANCH   7  14
HETATM   14  N3  UNL     1       2.900   1.459  -0.924  1.00  0.00    -0.019 N 
ATOM     15  H3  UNL     1       3.178   2.280  -1.462  1.00  0.00     0.203 HD
BRANCH  14  16
HETATM   16  C6  UNL     1       3.791   0.771  -0.274  1.00  0.00     0.722 A 
HETATM   17  N4  UNL     1       3.604  -0.326   0.476  1.00  0.00    -0.116 N 
HETATM   18  N5  UNL     1       4.794  -0.674   0.936  1.00  0.00     0.006 NA
ATOM     19  H4  UNL     1       2.718  -0.799   0.656  1.00  0.00     0.202 HD
HETATM   20  N6  UNL     1       5.721   0.164   0.503  1.00  0.00     0.006 NA
HETATM   21  N7  UNL     1       5.092   1.067  -0.255  1.00  0.00    -0.116 N 
ATOM     22  H7  UNL     1       5.532   1.850  -0.738  1.00  0.00     0.202 HD
ENDBRANCH  14  16
ENDBRANCH   7  14
BRANCH  10  23
HETATM   23  N9  UNL     1      -1.090  -0.067  -2.937  1.00  0.00    -0.232 N 
ATOM     24  H92 UNL     1      -0.619  -0.078  -3.841  1.00  0.00     0.174 HD
ATOM     25  H91 UNL     1      -2.068  -0.343  -2.845  1.00  0.00     0.174 HD
ENDBRANCH  10  23
BRANCH   1  26
HETATM   26  C2  UNL     1      -3.653  -0.031   1.844  1.00  0.00     0.191 C 
HETATM   27  C1  UNL     1      -4.852  -0.511   1.112  1.00  0.00     0.100 C 
HETATM   28  O1  UNL     1      -3.661   0.172   3.074  1.00  0.00    -0.290 OA
ENDBRANCH   1  26
TORSDOF 4
