REMARK  13 active torsions:
REMARK  status: ('A' for Active; 'I' for Inactive)
REMARK    1  A    between atoms: N1_1  and  C1_5 
REMARK    2  A    between atoms: C3_7  and  N2_8 
REMARK    3  A    between atoms: C4_12  and  O1_13 
REMARK    4  A    between atoms: O1_13  and  C5_14 
REMARK    5  A    between atoms: C6_15  and  N3_16 
REMARK    6  A    between atoms: C8_21  and  N4_22 
REMARK    7  A    between atoms: C9_26  and  O2_27 
REMARK    8  A    between atoms: O2_27  and  C10_28 
REMARK    9  A    between atoms: C11_29  and  N5_30 
REMARK   10  A    between atoms: C13_35  and  O3_36 
REMARK   11  A    between atoms: O3_36  and  C14_37 
REMARK   12  A    between atoms: N6_38  and  O4_40 
REMARK   13  A    between atoms: C15_42  and  O5_43 
ROOT
HETATM    1  C5  UNL     1       1.289  -0.670  -0.646  1.00  0.00     0.183 C 
HETATM    2  C6  UNL     1       1.024  -2.104  -0.192  1.00  0.00     0.217 C 
HETATM    3  C7  UNL     1       0.563  -2.025   1.244  1.00  0.00     0.071 C 
HETATM    4  C8  UNL     1      -0.796  -1.363   1.353  1.00  0.00     0.217 C 
HETATM    5  C9  UNL     1      -1.068  -0.442   0.199  1.00  0.00     0.183 C 
HETATM    6  C15 UNL     1       0.184   0.257  -0.289  1.00  0.00     0.180 C 
ENDROOT
BRANCH   5   7
HETATM    7  O2  UNL     1      -1.903   0.590   0.686  1.00  0.00    -0.371 OA
BRANCH   7   8
HETATM    8  C10 UNL     1      -3.091   0.670   0.010  1.00  0.00     0.182 C 
HETATM    9  C11 UNL     1      -3.562   2.070  -0.330  1.00  0.00     0.217 C 
HETATM   10  C12 UNL     1      -4.262   2.096   1.014  1.00  0.00     0.070 C 
HETATM   11  C13 UNL     1      -4.254   0.572   0.977  1.00  0.00     0.162 C 
BRANCH   9  12
HETATM   12  N5  UNL     1      -4.526   2.034  -1.394  1.00  0.00    -0.072 N 
ATOM     13  H53 UNL     1      -4.167   1.546  -2.214  1.00  0.00     0.274 HD
ATOM     14  H52 UNL     1      -5.306   1.414  -1.177  1.00  0.00     0.274 HD
ATOM     15  H51 UNL     1      -4.843   2.976  -1.623  1.00  0.00     0.274 HD
ENDBRANCH   9  12
BRANCH  11  16
HETATM   16  O3  UNL     1      -5.415  -0.011   0.441  1.00  0.00    -0.337 OA
BRANCH  16  17
HETATM   17  C14 UNL     1      -6.520  -0.123   1.302  1.00  0.00     0.248 C 
HETATM   18  N6  UNL     1      -6.600   0.733   2.261  1.00  0.00    -0.259 N 
ATOM     19  H6  UNL     1      -5.889   1.454   2.381  1.00  0.00     0.195 HD
BRANCH  18  20
HETATM   20  O4  UNL     1      -7.667   0.647   3.115  1.00  0.00    -0.289 OA
ATOM     21  H4  UNL     1      -7.726   1.278   3.822  1.00  0.00     0.244 HD
ENDBRANCH  18  20
ENDBRANCH  16  17
ENDBRANCH  11  16
ENDBRANCH   7   8
ENDBRANCH   5   7
BRANCH   4  22
HETATM   22  N4  UNL     1      -1.775  -2.401   1.495  1.00  0.00    -0.072 N 
ATOM     23  H43 UNL     1      -1.730  -3.094   0.748  1.00  0.00     0.274 HD
ATOM     24  H42 UNL     1      -1.576  -3.030   2.273  1.00  0.00     0.274 HD
ATOM     25  H41 UNL     1      -2.690  -1.955   1.568  1.00  0.00     0.274 HD
ENDBRANCH   4  22
BRANCH   6  26
HETATM   26  O5  UNL     1      -0.216   1.023  -1.402  1.00  0.00    -0.390 OA
ATOM     27  H5  UNL     1      -0.922   1.616  -1.174  1.00  0.00     0.210 HD
ENDBRANCH   6  26
BRANCH   1  28
HETATM   28  O1  UNL     1       2.518  -0.326  -0.138  1.00  0.00    -0.374 OA
BRANCH  28  29
HETATM   29  C4  UNL     1       3.502  -0.130  -1.080  1.00  0.00     0.154 C 
HETATM   30  C3  UNL     1       4.769  -0.883  -0.801  1.00  0.00     0.214 C 
HETATM   31  C2  UNL     1       5.669  -0.032   0.031  1.00  0.00     0.068 C 
HETATM   32  C1  UNL     1       5.166   1.356  -0.150  1.00  0.00     0.188 C 
HETATM   33  C16 UNL     1       3.924   1.342  -0.971  1.00  0.00     0.067 C 
BRANCH  30  34
HETATM   34  N2  UNL     1       5.440  -1.134  -2.068  1.00  0.00    -0.072 N 
ATOM     35  H23 UNL     1       5.724  -0.277  -2.542  1.00  0.00     0.274 HD
ATOM     36  H22 UNL     1       6.369  -1.538  -1.951  1.00  0.00     0.274 HD
ATOM     37  H21 UNL     1       4.825  -1.716  -2.637  1.00  0.00     0.274 HD
ENDBRANCH  30  34
BRANCH  32  38
HETATM   38  N1  UNL     1       6.151   2.246  -0.774  1.00  0.00    -0.075 N 
ATOM     39  H13 UNL     1       7.028   2.242  -0.252  1.00  0.00     0.274 HD
ATOM     40  H12 UNL     1       6.481   1.860  -1.659  1.00  0.00     0.274 HD
ATOM     41  H11 UNL     1       5.806   3.198  -0.898  1.00  0.00     0.274 HD
ENDBRANCH  32  38
ENDBRANCH  28  29
ENDBRANCH   1  28
BRANCH   2  42
HETATM   42  N3  UNL     1       0.136  -2.801  -1.053  1.00  0.00    -0.072 N 
ATOM     43  H33 UNL     1      -0.738  -2.288  -1.169  1.00  0.00     0.274 HD
ATOM     44  H32 UNL     1       0.470  -2.779  -2.016  1.00  0.00     0.274 HD
ATOM     45  H31 UNL     1      -0.041  -3.759  -0.750  1.00  0.00     0.274 HD
ENDBRANCH   2  42
TORSDOF 13
