REMARK  10 active torsions:
REMARK  status: ('A' for Active; 'I' for Inactive)
REMARK       I    between atoms: C1_4  and  N2_5 
REMARK       I    between atoms: C1_4  and  N5_31 
REMARK    1  A    between atoms: N2_5  and  N3_7 
REMARK    2  A    between atoms: C2_9  and  C3_10 
REMARK    3  A    between atoms: C2_9  and  C4_13 
REMARK    4  A    between atoms: C4_13  and  O2_14 
REMARK    5  A    between atoms: C4_13  and  S1_16 
REMARK    6  A    between atoms: S1_16  and  C5_19 
REMARK    7  A    between atoms: C7_21  and  O5_22 
REMARK    8  A    between atoms: C8_24  and  O6_25 
REMARK    9  A    between atoms: C9_27  and  O7_28 
REMARK   10  A    between atoms: N5_31  and  N6_33 
ROOT
HETATM    1  C4  UNL     1       0.509   1.061   0.776  1.00  0.00     0.301 C 
ENDROOT
BRANCH   1   2
HETATM    2  C2  UNL     1       1.890   1.570   0.637  1.00  0.00     0.135 C 
HETATM    3  N3  UNL     1       2.929   0.850   0.861  1.00  0.00    -0.282 N 
ATOM      4  H3  UNL     1       3.824   1.317   0.718  1.00  0.00     0.187 HD
BRANCH   3   5
HETATM    5  N2  UNL     1       3.005  -0.454   1.264  1.00  0.00    -0.131 N 
HETATM    6  C1  UNL     1       3.363  -1.468   0.343  1.00  0.00     0.709 C 
HETATM    7  N1  UNL     1       2.806  -2.627   0.290  1.00  0.00    -0.232 N 
HETATM    8  N5  UNL     1       4.410  -1.199  -0.595  1.00  0.00    -0.071 N 
ATOM      9  H12 UNL     1       2.060  -2.819   0.958  1.00  0.00     0.174 HD
ATOM     10  H11 UNL     1       3.064  -3.358  -0.374  1.00  0.00     0.174 HD
ATOM     11  H5  UNL     1       5.380  -1.183  -0.281  1.00  0.00     0.212 HD
ATOM     12  H2  UNL     1       2.803  -0.698   2.234  1.00  0.00     0.205 HD
BRANCH   8  13
HETATM   13  N6  UNL     1       4.111  -0.958  -1.938  1.00  0.00    -0.024 N 
HETATM   14  O8  UNL     1       3.751  -1.900  -2.675  1.00  0.00    -0.516 OA
HETATM   15  O9  UNL     1       4.218   0.316  -2.425  1.00  0.00    -0.516 OA
ENDBRANCH   8  13
ENDBRANCH   3   5
BRANCH   2  16
HETATM   16  C3  UNL     1       2.181   2.955   0.210  1.00  0.00     0.282 C 
HETATM   17  N4  UNL     1       1.217   3.929  -0.071  1.00  0.00    -0.056 NA
HETATM   18  O1  UNL     1       3.401   3.291   0.091  1.00  0.00    -0.270 OA
ENDBRANCH   2  16
ENDBRANCH   1   2
BRANCH   1  19
HETATM   19  O2  UNL     1       0.576  -0.145   1.500  1.00  0.00    -0.374 OA
ATOM     20  H2  UNL     1      -0.311  -0.472   1.589  1.00  0.00     0.211 HD
ENDBRANCH   1  19
BRANCH   1  21
HETATM   21  S1  UNL     1      -0.176   0.743  -0.830  1.00  0.00     0.208 S 
HETATM   22  O3  UNL     1       0.663  -0.156  -1.671  1.00  0.00    -0.220 OA
HETATM   23  O4  UNL     1      -0.459   2.047  -1.509  1.00  0.00    -0.220 OA
BRANCH  21  24
HETATM   24  C5  UNL     1      -1.750  -0.054  -0.643  1.00  0.00     0.067 A 
HETATM   25  C6  UNL     1      -1.855  -1.425  -0.589  1.00  0.00     0.063 A 
HETATM   26  C7  UNL     1      -3.100  -2.026  -0.441  1.00  0.00     0.103 A 
HETATM   27  C8  UNL     1      -4.268  -1.257  -0.345  1.00  0.00     0.132 A 
HETATM   28  C9  UNL     1      -4.149   0.111  -0.400  1.00  0.00     0.103 A 
HETATM   29  C10 UNL     1      -2.884   0.684  -0.549  1.00  0.00     0.063 A 
BRANCH  26  30
HETATM   30  O5  UNL     1      -3.225  -3.410  -0.385  1.00  0.00    -0.358 OA
ATOM     31  H5  UNL     1      -4.076  -3.821  -0.284  1.00  0.00     0.217 HD
ENDBRANCH  26  30
BRANCH  27  32
HETATM   32  O6  UNL     1      -5.469  -1.933  -0.199  1.00  0.00    -0.356 OA
ATOM     33  H6  UNL     1      -6.261  -1.412  -0.134  1.00  0.00     0.218 HD
ENDBRANCH  27  32
BRANCH  28  34
HETATM   34  O7  UNL     1      -5.284   0.887  -0.307  1.00  0.00    -0.358 OA
ATOM     35  H7  UNL     1      -5.202   1.833  -0.345  1.00  0.00     0.217 HD
ENDBRANCH  28  34
ENDBRANCH  21  24
ENDBRANCH   1  21
TORSDOF 10
