REMARK  9 active torsions:
REMARK  status: ('A' for Active; 'I' for Inactive)
REMARK    1  A    between atoms: N1_1  and  C1_4 
REMARK    2  A    between atoms: C4_10  and  C5_11 
REMARK    3  A    between atoms: C5_11  and  C6_12 
REMARK    4  A    between atoms: C6_12  and  C7_13 
REMARK    5  A    between atoms: C7_13  and  N4_14 
REMARK    6  A    between atoms: C9_16  and  C10_17 
REMARK    7  A    between atoms: C10_17  and  N5_18 
REMARK    8  A    between atoms: C10_17  and  O1_22 
REMARK    9  A    between atoms: C11_30  and  C12_31 
REMARK       I    between atoms: C12_31  and  N9_33 
ROOT
HETATM    1  C1  UNL     1      -2.011  -2.903   0.704  1.00  0.00     0.129 A 
HETATM    2  N2  UNL     1      -0.962  -3.728   0.572  1.00  0.00    -0.349 N 
ATOM      3  H2  UNL     1      -1.113  -4.729   0.700  1.00  0.00     0.167 HD
HETATM    4  C2  UNL     1       0.273  -3.303   0.281  1.00  0.00     0.107 A 
HETATM    5  C3  UNL     1       0.444  -1.952   0.116  1.00  0.00     0.116 A 
HETATM    6  N3  UNL     1      -0.578  -1.082   0.239  1.00  0.00    -0.305 N 
HETATM    7  C4  UNL     1      -0.618   0.260   0.117  1.00  0.00     0.088 A 
HETATM    8  N8  UNL     1      -1.879   0.622   0.336  1.00  0.00    -0.339 N 
ATOM      9  H8  UNL     1      -2.216   1.585   0.310  1.00  0.00     0.167 HD
HETATM   10  C11 UNL     1      -2.668  -0.469   0.602  1.00  0.00     0.133 A 
HETATM   11  C14 UNL     1      -1.833  -1.548   0.537  1.00  0.00     0.116 A 
ENDROOT
BRANCH   7  12
HETATM   12  C5  UNL     1       0.559   1.138  -0.206  1.00  0.00     0.079 C 
BRANCH  12  13
HETATM   13  C6  UNL     1       1.186   1.529   1.114  1.00  0.00     0.029 C 
BRANCH  13  14
HETATM   14  C7  UNL     1       2.393   2.422   0.912  1.00  0.00     0.150 C 
BRANCH  14  15
HETATM   15  N4  UNL     1       3.419   1.770   0.127  1.00  0.00    -0.287 N 
HETATM   16  C8  UNL     1       4.437   1.016   0.531  1.00  0.00     0.142 A 
HETATM   17  C9  UNL     1       5.130   0.629  -0.588  1.00  0.00     0.099 A 
HETATM   18  N6  UNL     1       4.505   1.166  -1.662  1.00  0.00    -0.285 N 
HETATM   19  N7  UNL     1       3.478   1.847  -1.188  1.00  0.00    -0.241 N 
ATOM     20  H6  UNL     1       4.774   1.065  -2.641  1.00  0.00     0.188 HD
ATOM     21  H7  UNL     1       2.816   2.366  -1.765  1.00  0.00     0.208 HD
BRANCH  17  22
HETATM   22  C10 UNL     1       6.335  -0.215  -0.646  1.00  0.00     0.370 C 
BRANCH  22  23
HETATM   23  N5  UNL     1       6.172  -1.375   0.233  1.00  0.00    -0.047 N 
ATOM     24  H53 UNL     1       5.940  -1.103   1.188  1.00  0.00     0.277 HD
ATOM     25  H52 UNL     1       5.325  -1.901   0.020  1.00  0.00     0.277 HD
ATOM     26  H51 UNL     1       7.007  -1.960   0.193  1.00  0.00     0.277 HD
ENDBRANCH  22  23
BRANCH  22  27
HETATM   27  O1  UNL     1       7.427   0.543  -0.244  1.00  0.00    -0.365 OA
ATOM     28  H1  UNL     1       8.205  -0.002  -0.281  1.00  0.00     0.212 HD
ENDBRANCH  22  27
ENDBRANCH  17  22
ENDBRANCH  14  15
ENDBRANCH  13  14
ENDBRANCH  12  13
ENDBRANCH   7  12
BRANCH  10  29
HETATM   29  C12 UNL     1      -4.081  -0.421   0.882  1.00  0.00     0.277 C 
HETATM   30  O2  UNL     1      -4.826  -1.378   1.126  1.00  0.00    -0.266 OA
HETATM   31  N9  UNL     1      -4.746   0.876   0.890  1.00  0.00    -0.291 N 
HETATM   32  C13 UNL     1      -5.436   1.177  -0.182  1.00  0.00     0.212 C 
ATOM     33  H9  UNL     1      -4.678   1.512   1.684  1.00  0.00     0.172 HD
HETATM   34  N10 UNL     1      -5.613   0.390  -1.351  1.00  0.00    -0.256 N 
HETATM   35  N13 UNL     1      -6.170   2.371  -0.420  1.00  0.00    -0.256 N 
HETATM   36  N11 UNL     1      -6.246   1.168  -2.324  1.00  0.00    -0.006 NA
ATOM     37  H10 UNL     1      -5.326  -0.582  -1.462  1.00  0.00     0.187 HD
HETATM   38  N12 UNL     1      -6.723   2.300  -1.702  1.00  0.00    -0.006 NA
ATOM     39  H13 UNL     1      -6.275   3.147   0.233  1.00  0.00     0.187 HD
ENDBRANCH  10  29
BRANCH   1  40
HETATM   40  N1  UNL     1      -3.138  -3.426   0.982  1.00  0.00    -0.384 N 
ATOM     41  H12 UNL     1      -3.270  -4.430   1.106  1.00  0.00     0.157 HD
ATOM     42  H11 UNL     1      -3.936  -2.799   1.082  1.00  0.00     0.157 HD
ENDBRANCH   1  40
TORSDOF 9
