REMARK  13 active torsions:
REMARK  status: ('A' for Active; 'I' for Inactive)
REMARK    1  A    between atoms: C3_3  and  O1_4 
REMARK    2  A    between atoms: C3_3  and  C4_6 
REMARK    3  A    between atoms: C4_6  and  C5_7 
REMARK    4  A    between atoms: C4_6  and  O3_10 
REMARK    5  A    between atoms: C5_7  and  O2_8 
REMARK    6  A    between atoms: O3_10  and  C6_11 
REMARK    7  A    between atoms: C7_13  and  O4_14 
REMARK    8  A    between atoms: O4_14  and  C8_15 
REMARK    9  A    between atoms: C9_16  and  N1_17 
REMARK   10  A    between atoms: C11_22  and  N2_23 
REMARK   11  A    between atoms: C13_28  and  N3_29 
REMARK   12  A    between atoms: C14_33  and  N4_34 
REMARK   13  A    between atoms: C16_39  and  N5_40 
ROOT
HETATM    1  C1  UNL     1       7.751   1.075   1.005  1.00  0.00     0.100 C 
HETATM    2  C2  UNL     1       6.657   1.196   0.478  1.00  0.00    -0.154 C 
HETATM    3  C3  UNL     1       5.348   1.362  -0.155  1.00  0.00     0.214 C 
ENDROOT
BRANCH   3   4
HETATM    4  O1  UNL     1       5.028   2.717  -0.078  1.00  0.00    -0.382 OA
ATOM      5  H1  UNL     1       4.178   2.825  -0.489  1.00  0.00     0.211 HD
ENDBRANCH   3   4
BRANCH   3   6
HETATM    6  C4  UNL     1       4.331   0.509   0.568  1.00  0.00     0.186 C 
BRANCH   6   7
HETATM    7  C5  UNL     1       4.430   0.843   2.043  1.00  0.00     0.199 C 
BRANCH   7   8
HETATM    8  O2  UNL     1       3.613  -0.025   2.729  1.00  0.00    -0.398 OA
ATOM      9  H2  UNL     1       3.675   0.184   3.654  1.00  0.00     0.209 HD
ENDBRANCH   7   8
ENDBRANCH   6   7
BRANCH   6  10
HETATM   10  O3  UNL     1       3.064   0.627   0.071  1.00  0.00    -0.362 OA
BRANCH  10  11
HETATM   11  C6  UNL     1       2.495  -0.523  -0.405  1.00  0.00     0.216 C 
HETATM   12  S1  UNL     1       0.989  -0.911   0.558  1.00  0.00    -0.101 SA
HETATM   13  C7  UNL     1      -0.505  -0.611  -0.413  1.00  0.00     0.216 C 
HETATM   14  C14 UNL     1      -0.339  -1.194  -1.833  1.00  0.00     0.224 C 
HETATM   15  C15 UNL     1       1.089  -1.541  -2.110  1.00  0.00     0.072 C 
HETATM   16  C16 UNL     1       2.052  -0.429  -1.852  1.00  0.00     0.224 C 
BRANCH  13  17
HETATM   17  O4  UNL     1      -1.553  -1.241   0.132  1.00  0.00    -0.364 OA
BRANCH  17  18
HETATM   18  C8  UNL     1      -2.693  -0.578   0.412  1.00  0.00     0.184 C 
HETATM   19  C9  UNL     1      -2.963  -0.650   1.892  1.00  0.00     0.216 C 
HETATM   20  C10 UNL     1      -4.235   0.058   2.236  1.00  0.00     0.068 C 
HETATM   21  C11 UNL     1      -4.932   0.762   1.130  1.00  0.00     0.187 C 
HETATM   22  C12 UNL     1      -4.988   0.015  -0.167  1.00  0.00     0.068 C 
HETATM   23  C13 UNL     1      -3.928  -1.056  -0.286  1.00  0.00     0.216 C 
BRANCH  19  24
HETATM   24  N1  UNL     1      -1.822  -0.094   2.606  1.00  0.00    -0.072 N 
ATOM     25  H13 UNL     1      -0.944  -0.545   2.348  1.00  0.00     0.274 HD
ATOM     26  H12 UNL     1      -1.592   0.851   2.298  1.00  0.00     0.274 HD
ATOM     27  H11 UNL     1      -2.005  -0.143   3.608  1.00  0.00     0.274 HD
ENDBRANCH  19  24
BRANCH  21  28
HETATM   28  N2  UNL     1      -4.425   2.109   0.936  1.00  0.00    -0.075 N 
ATOM     29  H23 UNL     1      -4.466   2.648   1.801  1.00  0.00     0.274 HD
ATOM     30  H22 UNL     1      -3.415   2.107   0.795  1.00  0.00     0.274 HD
ATOM     31  H21 UNL     1      -4.904   2.593   0.176  1.00  0.00     0.274 HD
ENDBRANCH  21  28
BRANCH  23  32
HETATM   32  N3  UNL     1      -4.479  -2.272   0.271  1.00  0.00    -0.072 N 
ATOM     33  H33 UNL     1      -3.773  -3.008   0.297  1.00  0.00     0.274 HD
ATOM     34  H32 UNL     1      -4.650  -2.164   1.271  1.00  0.00     0.274 HD
ATOM     35  H31 UNL     1      -5.321  -2.598  -0.205  1.00  0.00     0.274 HD
ENDBRANCH  23  32
ENDBRANCH  17  18
ENDBRANCH  13  17
BRANCH  14  36
HETATM   36  N4  UNL     1      -0.815  -0.303  -2.845  1.00  0.00    -0.072 N 
ATOM     37  H43 UNL     1      -1.782  -0.030  -2.670  1.00  0.00     0.274 HD
ATOM     38  H42 UNL     1      -0.371   0.612  -2.768  1.00  0.00     0.274 HD
ATOM     39  H41 UNL     1      -0.705  -0.688  -3.783  1.00  0.00     0.274 HD
ENDBRANCH  14  36
BRANCH  16  40
HETATM   40  N5  UNL     1       1.508   0.882  -2.055  1.00  0.00    -0.072 N 
ATOM     41  H53 UNL     1       0.763   1.109  -1.396  1.00  0.00     0.274 HD
ATOM     42  H52 UNL     1       2.154   1.625  -1.788  1.00  0.00     0.274 HD
ATOM     43  H51 UNL     1       1.210   0.945  -3.028  1.00  0.00     0.274 HD
ENDBRANCH  16  40
ENDBRANCH  10  11
ENDBRANCH   6  10
ENDBRANCH   3   6
TORSDOF 13
