REMARK  1 active torsions:
REMARK  status: ('A' for Active; 'I' for Inactive)
REMARK    1  A    between atoms: O1_1  and  N1_3 
ROOT
HETATM    1  N1  UNL     1      -0.861  -0.655  -0.283  1.00  0.00    -0.198 NA
HETATM    2  C1  UNL     1       0.247  -1.368   0.278  1.00  0.00     0.122 C 
HETATM    3  C2  UNL     1       1.500  -0.581   0.405  1.00  0.00     0.043 C 
HETATM    4  C3  UNL     1       1.494   0.730  -0.319  1.00  0.00     0.169 C 
HETATM    5  O2  UNL     1       0.763   1.717   0.303  1.00  0.00    -0.390 OA
HETATM    6  C4  UNL     1      -0.573   1.699  -0.085  1.00  0.00     0.184 C 
HETATM    7  C5  UNL     1      -1.187   0.460   0.573  1.00  0.00     0.146 C 
ENDROOT
BRANCH   1   8
HETATM    8  O1  UNL     1      -1.903  -1.501  -0.400  1.00  0.00    -0.313 OA
ATOM      9  H1  UNL     1      -2.638  -1.028  -0.772  1.00  0.00     0.237 HD
ENDBRANCH   1   8
TORSDOF 1
