REMARK  13 active torsions:
REMARK  status: ('A' for Active; 'I' for Inactive)
REMARK    1  A    between atoms: C2_2  and  C3_3 
REMARK    2  A    between atoms: C3_3  and  C4_4 
REMARK    3  A    between atoms: C4_4  and  C5_5 
REMARK    4  A    between atoms: C6_8  and  O1_9 
REMARK    5  A    between atoms: C8_13  and  C9_14 
REMARK    6  A    between atoms: C9_14  and  C10_15 
REMARK       I    between atoms: C10_15  and  N2_17 
REMARK    7  A    between atoms: N2_17  and  C11_18 
REMARK    8  A    between atoms: N2_17  and  C13_20 
REMARK    9  A    between atoms: C15_24  and  O4_25 
REMARK   10  A    between atoms: C16_27  and  C17_28 
REMARK   11  A    between atoms: C17_28  and  C18_29 
REMARK   12  A    between atoms: C22_36  and  C23_37 
REMARK   13  A    between atoms: C23_37  and  C24_38 
ROOT
HETATM    1  C5  UNL     1      -3.165   3.031   0.082  1.00  0.00     0.176 C 
HETATM    2  N1  UNL     1      -3.057   2.522  -1.234  1.00  0.00    -0.355 N 
ATOM      3  H1  UNL     1      -2.623   3.158  -1.903  1.00  0.00     0.162 HD
HETATM    4  C6  UNL     1      -3.451   1.278  -1.774  1.00  0.00     0.185 C 
HETATM    5  C7  UNL     1      -3.139  -0.052  -1.353  1.00  0.00     0.222 C 
HETATM    6  O2  UNL     1      -4.163  -0.812  -1.154  1.00  0.00    -0.286 OA
HETATM    7  C8  UNL     1      -1.814  -0.684  -1.117  1.00  0.00     0.170 C 
HETATM    8  N3  UNL     1      -1.020  -0.706  -2.310  1.00  0.00    -0.360 N 
ATOM      9  H3  UNL     1      -1.478  -0.272  -3.111  1.00  0.00     0.162 HD
HETATM   10  C15 UNL     1       0.243  -1.197  -2.597  1.00  0.00     0.135 C 
HETATM   11  C16 UNL     1       1.542  -1.165  -1.939  1.00  0.00     0.159 C 
HETATM   12  N4  UNL     1       1.511  -0.777  -0.540  1.00  0.00    -0.347 N 
ATOM     13  H4  UNL     1       0.899  -1.322   0.067  1.00  0.00     0.163 HD
HETATM   14  C21 UNL     1       2.227   0.263   0.070  1.00  0.00     0.241 C 
HETATM   15  O5  UNL     1       2.147   0.303   1.359  1.00  0.00    -0.271 OA
HETATM   16  C22 UNL     1       3.043   1.304  -0.520  1.00  0.00     0.181 C 
HETATM   17  N6  UNL     1       2.819   2.623   0.070  1.00  0.00    -0.346 N 
ATOM     18  H6  UNL     1       3.640   3.228   0.096  1.00  0.00     0.163 HD
HETATM   19  C32 UNL     1       1.674   3.176   0.596  1.00  0.00     0.240 C 
HETATM   20  O6  UNL     1       1.684   3.623   1.799  1.00  0.00    -0.271 OA
HETATM   21  C33 UNL     1       0.327   3.346  -0.073  1.00  0.00     0.172 C 
HETATM   22  C34 UNL     1       0.426   3.000  -1.527  1.00  0.00     0.042 C 
HETATM   23  N7  UNL     1      -0.659   2.646   0.685  1.00  0.00    -0.346 N 
ATOM     24  H7  UNL     1      -0.311   1.785   1.107  1.00  0.00     0.163 HD
HETATM   25  C35 UNL     1      -1.992   2.896   0.965  1.00  0.00     0.241 C 
HETATM   26  O7  UNL     1      -2.300   3.041   2.218  1.00  0.00    -0.271 OA
ENDROOT
BRANCH  16  27
HETATM   27  C23 UNL     1       4.508   1.043  -0.640  1.00  0.00     0.075 C 
BRANCH  27  28
HETATM   28  C24 UNL     1       5.292   0.813   0.544  1.00  0.00    -0.028 A 
HETATM   29  C25 UNL     1       6.030   1.765   1.266  1.00  0.00     0.096 A 
HETATM   30  N5  UNL     1       6.614   1.201   2.331  1.00  0.00    -0.365 N 
HETATM   31  C26 UNL     1       6.277  -0.091   2.323  1.00  0.00     0.042 A 
ATOM     32  H5  UNL     1       7.204   1.670   3.018  1.00  0.00     0.165 HD
HETATM   33  C27 UNL     1       6.654  -1.074   3.217  1.00  0.00     0.030 A 
HETATM   34  C31 UNL     1       5.468  -0.348   1.235  1.00  0.00    -0.002 A 
HETATM   35  C28 UNL     1       6.227  -2.369   3.050  1.00  0.00     0.002 A 
HETATM   36  C29 UNL     1       5.414  -2.676   1.973  1.00  0.00     0.001 A 
HETATM   37  C30 UNL     1       5.055  -1.678   1.099  1.00  0.00     0.014 A 
ENDBRANCH  27  28
ENDBRANCH  16  27
BRANCH  11  38
HETATM   38  C17 UNL     1       2.410  -2.364  -2.154  1.00  0.00     0.037 C 
BRANCH  38  39
HETATM   39  C18 UNL     1       2.023  -3.688  -1.713  1.00  0.00    -0.020 C 
HETATM   40  C19 UNL     1       3.217  -4.619  -2.108  1.00  0.00     0.009 C 
HETATM   41  C20 UNL     1       0.839  -4.384  -2.249  1.00  0.00     0.009 C 
ENDBRANCH  38  39
ENDBRANCH  11  38
BRANCH  10  42
HETATM   42  O4  UNL     1       0.265  -1.841  -3.745  1.00  0.00    -0.348 OA
ATOM     43  H4  UNL     1       1.131  -2.178  -3.942  1.00  0.00     0.219 HD
ENDBRANCH  10  42
BRANCH   7  44
HETATM   44  C9  UNL     1      -2.041  -2.051  -0.500  1.00  0.00     0.136 C 
BRANCH  44  45
HETATM   45  C10 UNL     1      -2.711  -1.933   0.792  1.00  0.00     0.222 C 
HETATM   46  O3  UNL     1      -2.918  -0.823   1.321  1.00  0.00    -0.273 OA
HETATM   47  N2  UNL     1      -3.149  -3.099   1.489  1.00  0.00    -0.353 N 
BRANCH  47  48
HETATM   48  C11 UNL     1      -2.944  -4.436   0.933  1.00  0.00     0.121 C 
HETATM   49  C12 UNL     1      -4.158  -4.813   0.073  1.00  0.00     0.026 C 
ENDBRANCH  47  48
BRANCH  47  50
HETATM   50  C13 UNL     1      -3.808  -3.006   2.768  1.00  0.00     0.121 C 
HETATM   51  C14 UNL     1      -2.818  -3.052   3.916  1.00  0.00     0.026 C 
ENDBRANCH  47  50
ENDBRANCH  44  45
ENDBRANCH   7  44
BRANCH   1  52
HETATM   52  C4  UNL     1      -3.436   4.552   0.031  1.00  0.00     0.035 C 
BRANCH  52  53
HETATM   53  C3  UNL     1      -4.733   4.822  -0.715  1.00  0.00     0.002 C 
BRANCH  53  54
HETATM   54  C2  UNL     1      -4.911   6.330  -0.713  1.00  0.00    -0.004 C 
HETATM   55  C1  UNL     1      -4.985   6.807   0.721  1.00  0.00     0.005 C 
ENDBRANCH  53  54
ENDBRANCH  52  53
ENDBRANCH   1  52
BRANCH   4  56
HETATM   56  O1  UNL     1      -4.229   1.342  -2.835  1.00  0.00    -0.344 OA
ATOM     57  H1  UNL     1      -4.494   0.505  -3.198  1.00  0.00     0.219 HD
ENDBRANCH   4  56
TORSDOF 13
