REMARK  15 active torsions:
REMARK  status: ('A' for Active; 'I' for Inactive)
REMARK    1  A    between atoms: O1_2  and  C2_3 
REMARK    2  A    between atoms: C5_6  and  N1_7 
REMARK    3  A    between atoms: C6_12  and  N3_13 
REMARK    4  A    between atoms: N3_13  and  C7_15 
REMARK    5  A    between atoms: C7_15  and  C8_16 
REMARK    6  A    between atoms: C8_16  and  C9_17 
REMARK    7  A    between atoms: C9_17  and  C10_18 
REMARK    8  A    between atoms: C10_18  and  S1_19 
REMARK    9  A    between atoms: S1_19  and  N4_22 
REMARK   10  A    between atoms: C18_32  and  O4_33 
REMARK   11  A    between atoms: O4_33  and  C19_34 
REMARK   12  A    between atoms: C19_34  and  C20_35 
REMARK   13  A    between atoms: C20_35  and  N6_36 
REMARK   14  A    between atoms: N6_36  and  O5_37 
REMARK   15  A    between atoms: N6_36  and  C21_39 
ROOT
HETATM    1  C2  UNL     1       1.967   0.936   2.659  1.00  0.00     0.102 A 
HETATM    2  C3  UNL     1       0.616   0.659   2.690  1.00  0.00     0.057 A 
HETATM    3  C4  UNL     1      -0.059   0.140   1.589  1.00  0.00     0.038 A 
HETATM    4  C5  UNL     1      -1.407  -0.143   1.609  1.00  0.00     0.127 A 
HETATM    5  N2  UNL     1      -2.032  -0.654   0.506  1.00  0.00    -0.176 N 
ATOM      6  H2  UNL     1      -3.031  -0.853   0.554  1.00  0.00     0.186 HD
HETATM    7  C6  UNL     1      -1.380  -0.901  -0.630  1.00  0.00     0.683 A 
HETATM    8  N5  UNL     1      -0.042  -0.617  -0.643  1.00  0.00    -0.191 N 
ATOM      9  H5  UNL     1       0.484  -0.796  -1.499  1.00  0.00     0.184 HD
HETATM   10  C16 UNL     1       0.611  -0.116   0.413  1.00  0.00     0.066 A 
HETATM   11  C17 UNL     1       1.967   0.163   0.383  1.00  0.00     0.070 A 
HETATM   12  C18 UNL     1       2.637   0.676   1.474  1.00  0.00     0.104 A 
ENDROOT
BRANCH   7  13
HETATM   13  N3  UNL     1      -1.880  -1.373  -1.688  1.00  0.00    -0.205 N 
ATOM     14  H3  UNL     1      -1.209  -1.485  -2.448  1.00  0.00     0.183 HD
BRANCH  13  15
HETATM   15  C7  UNL     1      -3.188  -1.774  -2.017  1.00  0.00     0.079 C 
BRANCH  15  16
HETATM   16  C8  UNL     1      -3.999  -0.794  -2.828  1.00  0.00     0.046 C 
BRANCH  16  17
HETATM   17  C9  UNL     1      -5.340  -1.365  -3.118  1.00  0.00     0.022 C 
BRANCH  17  18
HETATM   18  C10 UNL     1      -6.194  -1.709  -1.956  1.00  0.00     0.163 C 
BRANCH  18  19
HETATM   19  S1  UNL     1      -6.621  -0.375  -0.898  1.00  0.00     0.228 S 
HETATM   20  O2  UNL     1      -5.477   0.404  -0.375  1.00  0.00    -0.206 OA
HETATM   21  O3  UNL     1      -7.475   0.605  -1.700  1.00  0.00    -0.206 OA
BRANCH  19  22
HETATM   22  N4  UNL     1      -7.596  -0.977   0.371  1.00  0.00    -0.311 N 
HETATM   23  C11 UNL     1      -8.827  -1.557  -0.040  1.00  0.00     0.135 C 
HETATM   24  C12 UNL     1      -9.997  -0.573   0.037  1.00  0.00     0.021 C 
HETATM   25  C13 UNL     1     -10.123  -0.251   1.532  1.00  0.00     0.003 C 
HETATM   26  C14 UNL     1      -8.868   0.496   1.904  1.00  0.00     0.021 C 
HETATM   27  C15 UNL     1      -7.602  -0.212   1.564  1.00  0.00     0.135 C 
ENDBRANCH  19  22
ENDBRANCH  18  19
ENDBRANCH  17  18
ENDBRANCH  16  17
ENDBRANCH  15  16
ENDBRANCH  13  15
ENDBRANCH   7  13
BRANCH   4  28
HETATM   28  N1  UNL     1      -2.113   0.061   2.652  1.00  0.00    -0.384 N 
ATOM     29  H12 UNL     1      -1.647   0.442   3.475  1.00  0.00     0.157 HD
ATOM     30  H11 UNL     1      -3.111  -0.149   2.667  1.00  0.00     0.157 HD
ENDBRANCH   4  28
BRANCH  12  31
HETATM   31  O4  UNL     1       4.016   0.954   1.431  1.00  0.00    -0.347 OA
BRANCH  31  32
HETATM   32  C19 UNL     1       4.674   0.683   0.215  1.00  0.00     0.192 C 
BRANCH  32  33
HETATM   33  C20 UNL     1       6.157   1.011   0.283  1.00  0.00     0.147 C 
BRANCH  33  34
HETATM   34  N6  UNL     1       6.729   0.700  -0.995  1.00  0.00    -0.193 NA
BRANCH  34  35
HETATM   35  O5  UNL     1       6.011   1.190  -2.015  1.00  0.00    -0.313 OA
ATOM     36  H5  UNL     1       6.390   0.984  -2.861  1.00  0.00     0.237 HD
ENDBRANCH  34  35
BRANCH  34  37
HETATM   37  C21 UNL     1       8.132   0.954  -1.106  1.00  0.00     0.086 C 
HETATM   38  C22 UNL     1       8.935   0.103  -0.147  1.00  0.00     0.022 C 
HETATM   39  C23 UNL     1      10.384   0.556  -0.151  1.00  0.00     0.002 C 
HETATM   40  C24 UNL     1      10.973   0.477  -1.550  1.00  0.00     0.000 C 
HETATM   41  C25 UNL     1      10.082   1.107  -2.574  1.00  0.00     0.002 C 
HETATM   42  C26 UNL     1       8.660   0.632  -2.495  1.00  0.00     0.022 C 
ENDBRANCH  34  37
ENDBRANCH  33  34
ENDBRANCH  32  33
ENDBRANCH  31  32
ENDBRANCH  12  31
BRANCH   1  43
HETATM   43  O1  UNL     1       2.660   1.457   3.753  1.00  0.00    -0.353 OA
HETATM   44  C1  UNL     1       2.013   1.741   4.979  1.00  0.00     0.210 C 
ENDBRANCH   1  43
TORSDOF 15
