REMARK  12 active torsions:
REMARK  status: ('A' for Active; 'I' for Inactive)
REMARK    1  A    between atoms: C7_7  and  O1_8 
REMARK    2  A    between atoms: O1_8  and  C8_9 
REMARK    3  A    between atoms: C8_9  and  C9_10 
REMARK    4  A    between atoms: C9_10  and  C11_13 
REMARK    5  A    between atoms: C9_10  and  N2_16 
REMARK    6  A    between atoms: C11_13  and  O2_14 
REMARK       I    between atoms: N2_16  and  C12_18 
REMARK       I    between atoms: C12_18  and  N3_20 
REMARK    7  A    between atoms: N3_20  and  C13_21 
REMARK    8  A    between atoms: N3_20  and  C18_27 
REMARK    9  A    between atoms: C13_21  and  C14_22 
REMARK   10  A    between atoms: C14_22  and  C15_23 
REMARK   11  A    between atoms: C15_23  and  N4_24 
REMARK   12  A    between atoms: N5_30  and  C21_31 
ROOT
HETATM    1  C1  UNL     1       7.084  -0.816   1.611  1.00  0.00     0.012 C 
HETATM    2  C2  UNL     1       6.492  -1.822   1.357  1.00  0.00    -0.110 C 
HETATM    3  C3  UNL     1       5.805  -3.047   1.040  1.00  0.00     0.093 C 
HETATM    4  C4  UNL     1       6.745  -3.970   0.243  1.00  0.00     0.020 C 
HETATM    5  C5  UNL     1       5.818  -4.850  -0.587  1.00  0.00     0.004 C 
HETATM    6  C6  UNL     1       4.422  -4.462  -0.165  1.00  0.00     0.033 C 
HETATM    7  C7  UNL     1       4.652  -2.904   0.059  1.00  0.00     0.137 C 
ENDROOT
BRANCH   7   8
HETATM    8  O1  UNL     1       3.592  -2.363   0.531  1.00  0.00    -0.381 OA
BRANCH   8   9
HETATM    9  C8  UNL     1       2.635  -1.567   0.434  1.00  0.00     0.217 C 
BRANCH   9  10
HETATM   10  C9  UNL     1       2.710  -0.039   0.313  1.00  0.00     0.166 C 
HETATM   11  C10 UNL     1       3.361   0.501   1.473  1.00  0.00     0.095 C 
HETATM   12  N1  UNL     1       3.862   0.947   2.411  1.00  0.00    -0.194 NA
BRANCH  10  13
HETATM   13  C11 UNL     1       3.378   0.366  -0.957  1.00  0.00     0.213 C 
BRANCH  13  14
HETATM   14  O2  UNL     1       4.702   0.076  -1.063  1.00  0.00    -0.397 OA
ATOM     15  H2  UNL     1       5.128   0.334  -1.872  1.00  0.00     0.209 HD
ENDBRANCH  13  14
ENDBRANCH  10  13
BRANCH  10  16
HETATM   16  N2  UNL     1       1.292   0.415   0.281  1.00  0.00    -0.317 N 
HETATM   17  C12 UNL     1       0.935   1.755   0.295  1.00  0.00     0.320 C 
HETATM   18  O3  UNL     1       1.879   2.618   0.347  1.00  0.00    -0.247 OA
HETATM   19  N3  UNL     1      -0.381   2.271   0.256  1.00  0.00    -0.328 N 
ATOM     20  H2  UNL     1       0.554  -0.288   0.247  1.00  0.00     0.166 HD
BRANCH  19  21
HETATM   21  C13 UNL     1      -0.505   3.748   0.256  1.00  0.00     0.130 C 
BRANCH  21  22
HETATM   22  C14 UNL     1      -0.591   4.253   1.689  1.00  0.00     0.050 C 
BRANCH  22  23
HETATM   23  C15 UNL     1      -0.715   5.759   1.606  1.00  0.00     0.273 C 
BRANCH  23  24
HETATM   24  N4  UNL     1      -1.899   6.172   0.868  1.00  0.00     0.080 N 
HETATM   25  C16 UNL     1      -1.899   7.623   0.865  1.00  0.00     0.309 C 
HETATM   26  C17 UNL     1      -3.064   5.737   1.614  1.00  0.00     0.309 C 
ENDBRANCH  23  24
ENDBRANCH  22  23
ENDBRANCH  21  22
ENDBRANCH  19  21
BRANCH  19  27
HETATM   27  C18 UNL     1      -1.601   1.545   0.232  1.00  0.00     0.108 C 
HETATM   28  C19 UNL     1      -1.897   0.728   1.470  1.00  0.00     0.047 C 
HETATM   29  C20 UNL     1      -3.049  -0.147   0.910  1.00  0.00     0.126 C 
HETATM   30  N5  UNL     1      -2.421  -0.612  -0.291  1.00  0.00    -0.364 N 
HETATM   31  C29 UNL     1      -1.807   0.591  -0.886  1.00  0.00     0.150 C 
BRANCH  30  32
HETATM   32  C21 UNL     1      -2.388  -1.928  -0.771  1.00  0.00     0.118 A 
HETATM   33  N6  UNL     1      -1.207  -2.599  -0.649  1.00  0.00    -0.338 N 
HETATM   34  C22 UNL     1      -1.035  -3.867  -1.031  1.00  0.00     0.183 A 
ATOM     35  H6  UNL     1      -0.412  -2.105  -0.244  1.00  0.00     0.168 HD
HETATM   36  N7  UNL     1      -2.037  -4.566  -1.569  1.00  0.00    -0.338 N 
HETATM   37  C23 UNL     1      -3.217  -3.957  -1.713  1.00  0.00     0.121 A 
ATOM     38  H7  UNL     1      -1.906  -5.534  -1.861  1.00  0.00     0.168 HD
HETATM   39  N8  UNL     1      -4.383  -4.408  -2.225  1.00  0.00    -0.345 N 
HETATM   40  C28 UNL     1      -3.424  -2.635  -1.323  1.00  0.00     0.060 A 
HETATM   41  C24 UNL     1      -5.302  -3.437  -2.174  1.00  0.00     0.014 A 
ATOM     42  H8  UNL     1      -4.539  -5.346  -2.594  1.00  0.00     0.167 HD
HETATM   43  C25 UNL     1      -6.709  -3.517  -2.633  1.00  0.00     0.068 C 
HETATM   44  C26 UNL     1      -4.719  -2.315  -1.612  1.00  0.00    -0.022 A 
HETATM   45  C27 UNL     1      -5.365  -1.018  -1.384  1.00  0.00     0.051 C 
ENDBRANCH  30  32
ENDBRANCH  19  27
ENDBRANCH  10  16
ENDBRANCH   9  10
ENDBRANCH   8   9
ENDBRANCH   7   8
TORSDOF 12
