REMARK  11 active torsions:
REMARK  status: ('A' for Active; 'I' for Inactive)
REMARK    1  A    between atoms: C2_2  and  C3_3 
REMARK    2  A    between atoms: C3_3  and  N1_4 
REMARK    3  A    between atoms: N2_7  and  C6_8 
REMARK    4  A    between atoms: C6_8  and  C7_9 
REMARK    5  A    between atoms: C7_9  and  C8_10 
REMARK    6  A    between atoms: C8_10  and  N3_11 
REMARK       I    between atoms: N3_11  and  C9_13 
REMARK    7  A    between atoms: C9_13  and  C10_15 
REMARK    8  A    between atoms: C12_17  and  N4_18 
REMARK       I    between atoms: N4_18  and  C13_20 
REMARK    9  A    between atoms: C13_20  and  C14_22 
REMARK   10  A    between atoms: C16_24  and  N5_25 
REMARK       I    between atoms: N5_25  and  C17_27 
REMARK   11  A    between atoms: C17_27  and  C18_29 
ROOT
HETATM    1  N4  UNL     1       2.543  -1.132   1.405  1.00  0.00    -0.320 N 
ATOM      2  H4  UNL     1       2.785  -1.954   1.958  1.00  0.00     0.169 HD
HETATM    3  C13 UNL     1       3.591  -0.373   0.868  1.00  0.00     0.273 C 
HETATM    4  O2  UNL     1       3.247   0.657   0.174  1.00  0.00    -0.266 OA
ENDROOT
BRANCH   1   5
HETATM    5  C12 UNL     1       1.160  -0.831   1.229  1.00  0.00     0.053 A 
HETATM    6  C11 UNL     1       0.529   0.082   0.425  1.00  0.00     0.066 A 
HETATM    7  C10 UNL     1      -0.863   0.016   0.626  1.00  0.00     0.104 A 
HETATM    8  N9  UNL     1      -1.055  -0.930   1.542  1.00  0.00    -0.354 N 
HETATM    9  C25 UNL     1       0.142  -1.454   1.922  1.00  0.00     0.120 A 
HETATM   10  C26 UNL     1      -2.298  -1.419   2.106  1.00  0.00     0.156 C 
BRANCH   7  11
HETATM   11  C9  UNL     1      -1.819   0.835  -0.082  1.00  0.00     0.268 C 
HETATM   12  N3  UNL     1      -3.179   1.007   0.209  1.00  0.00    -0.356 N 
ATOM     13  H3  UNL     1      -3.553   0.510   1.017  1.00  0.00     0.162 HD
HETATM   14  O1  UNL     1      -1.422   1.513  -1.113  1.00  0.00    -0.266 OA
BRANCH  12  15
HETATM   15  C8  UNL     1      -4.088   1.829  -0.543  1.00  0.00     0.125 C 
BRANCH  15  16
HETATM   16  C7  UNL     1      -4.277   1.381  -1.956  1.00  0.00     0.050 C 
BRANCH  16  17
HETATM   17  C6  UNL     1      -4.838  -0.044  -1.977  1.00  0.00     0.274 C 
BRANCH  17  18
HETATM   18  N2  UNL     1      -6.117  -0.016  -1.286  1.00  0.00     0.091 N 
HETATM   19  C5  UNL     1      -6.681  -1.352  -1.235  1.00  0.00     0.292 C 
HETATM   20  C4  UNL     1      -7.945  -1.315  -0.359  1.00  0.00     0.152 C 
HETATM   21  N1  UNL     1      -8.814  -0.373  -0.957  1.00  0.00    -0.390 N 
HETATM   22  C28 UNL     1      -8.363   0.291  -2.125  1.00  0.00     0.152 C 
HETATM   23  C27 UNL     1      -6.988   0.905  -1.989  1.00  0.00     0.292 C 
BRANCH  21  24
HETATM   24  C3  UNL     1     -10.200  -0.503  -0.751  1.00  0.00     0.058 C 
BRANCH  24  25
HETATM   25  C2  UNL     1     -10.654  -0.230   0.662  1.00  0.00     0.040 C 
HETATM   26  C1  UNL     1     -10.297   1.185   1.055  1.00  0.00     0.010 C 
ENDBRANCH  24  25
ENDBRANCH  21  24
ENDBRANCH  17  18
ENDBRANCH  16  17
ENDBRANCH  15  16
ENDBRANCH  12  15
ENDBRANCH   7  11
ENDBRANCH   1   5
BRANCH   3  27
HETATM   27  C14 UNL     1       5.007  -0.620   1.008  1.00  0.00     0.105 A 
HETATM   28  C15 UNL     1       5.954   0.174   0.356  1.00  0.00     0.066 A 
HETATM   29  C16 UNL     1       7.215  -0.277   0.675  1.00  0.00     0.053 A 
HETATM   30  C23 UNL     1       7.022  -1.331   1.510  1.00  0.00     0.120 A 
HETATM   31  N8  UNL     1       5.679  -1.535   1.710  1.00  0.00    -0.354 N 
HETATM   32  C24 UNL     1       5.153  -2.584   2.560  1.00  0.00     0.156 C 
BRANCH  29  33
HETATM   33  N5  UNL     1       8.411   0.299   0.187  1.00  0.00    -0.320 N 
HETATM   34  C17 UNL     1       9.686  -0.137   0.564  1.00  0.00     0.274 C 
HETATM   35  O3  UNL     1       9.812  -1.085   1.375  1.00  0.00    -0.266 OA
ATOM     36  H5  UNL     1       8.340   1.072  -0.474  1.00  0.00     0.169 HD
BRANCH  34  37
HETATM   37  C18 UNL     1      10.885   0.502   0.023  1.00  0.00     0.116 A 
HETATM   38  C19 UNL     1      10.826   1.537  -0.852  1.00  0.00     0.123 A 
HETATM   39  N6  UNL     1      11.981   2.092  -1.320  1.00  0.00    -0.366 N 
HETATM   40  C20 UNL     1      13.174   1.623  -0.924  1.00  0.00     0.020 A 
ATOM     41  H6  UNL     1      11.937   2.871  -1.977  1.00  0.00     0.165 HD
HETATM   42  C21 UNL     1      14.431   2.225  -1.431  1.00  0.00     0.069 C 
HETATM   43  C22 UNL     1      13.218   0.567  -0.031  1.00  0.00     0.113 A 
HETATM   44  N7  UNL     1      12.096   0.024   0.427  1.00  0.00    -0.358 N 
ATOM     45  H7  UNL     1      12.141  -0.755   1.084  1.00  0.00     0.165 HD
ENDBRANCH  34  37
ENDBRANCH  29  33
ENDBRANCH   3  27
TORSDOF 11
