REMARK  10 active torsions:
REMARK  status: ('A' for Active; 'I' for Inactive)
REMARK       I    between atoms: C1_2  and  N1_3 
REMARK    1  A    between atoms: C1_2  and  C8_14 
REMARK    2  A    between atoms: C8_14  and  C9_15 
REMARK    3  A    between atoms: C8_14  and  C24_41 
REMARK    4  A    between atoms: C9_15  and  C10_16 
REMARK    5  A    between atoms: C10_16  and  C11_17 
REMARK    6  A    between atoms: C11_17  and  C12_18 
REMARK    7  A    between atoms: C12_18  and  N3_19 
REMARK    8  A    between atoms: C13_22  and  C14_23 
REMARK    9  A    between atoms: C14_23  and  N5_24 
REMARK   10  A    between atoms: C24_41  and  C25_42 
ROOT
HETATM    1  C10 UNL     1       0.484  -0.025  -0.119  1.00  0.00     0.002 C 
ENDROOT
BRANCH   1   2
HETATM    2  C9  UNL     1      -0.674  -1.000  -0.010  1.00  0.00     0.014 C 
BRANCH   2   3
HETATM    3  C8  UNL     1      -1.967  -0.530  -0.516  1.00  0.00     0.078 C 
BRANCH   3   4
HETATM    4  C1  UNL     1      -2.468   0.711   0.200  1.00  0.00     0.226 C 
HETATM    5  O1  UNL     1      -1.856   1.063   1.220  1.00  0.00    -0.273 OA
HETATM    6  N1  UNL     1      -3.568   1.434  -0.253  1.00  0.00    -0.333 N 
HETATM    7  C2  UNL     1      -4.671   1.649   0.349  1.00  0.00     0.015 C 
ATOM      8  H1  UNL     1      -3.480   1.843  -1.183  1.00  0.00     0.168 HD
HETATM    9  C3  UNL     1      -5.600   2.479  -0.487  1.00  0.00     0.054 C 
HETATM   10  C7  UNL     1      -4.953   1.131   1.692  1.00  0.00     0.284 C 
HETATM   11  C4  UNL     1      -5.383   3.909  -0.108  1.00  0.00     0.007 C 
HETATM   12  C5  UNL     1      -5.844   4.179   1.312  1.00  0.00     0.028 C 
HETATM   13  C6  UNL     1      -5.000   3.453   2.323  1.00  0.00     0.232 C 
HETATM   14  N2  UNL     1      -5.548   2.131   2.563  1.00  0.00    -0.070 N 
ATOM     15  H22 UNL     1      -5.462   1.866   3.544  1.00  0.00     0.277 HD
ATOM     16  H21 UNL     1      -6.565   2.132   2.486  1.00  0.00     0.277 HD
ENDBRANCH   3   4
BRANCH   3  17
HETATM   17  C24 UNL     1      -3.137  -1.431  -0.496  1.00  0.00     0.019 C 
BRANCH  17  18
HETATM   18  C25 UNL     1      -3.113  -2.763  -1.091  1.00  0.00    -0.007 C 
HETATM   19  C26 UNL     1      -2.168  -3.757  -0.555  1.00  0.00     0.049 C 
HETATM   20  C27 UNL     1      -2.762  -5.109  -0.266  1.00  0.00     0.056 C 
HETATM   21  N9  UNL     1      -3.799  -5.538  -1.109  1.00  0.00    -0.402 N 
HETATM   22  C28 UNL     1      -4.525  -4.569  -1.851  1.00  0.00     0.119 C 
ATOM     23  H9  UNL     1      -4.027  -6.529  -1.187  1.00  0.00     0.158 HD
HETATM   24  C29 UNL     1      -4.568  -3.292  -1.044  1.00  0.00     0.024 C 
ENDBRANCH  17  18
ENDBRANCH   3  17
ENDBRANCH   2   3
ENDBRANCH   1   2
BRANCH   1  25
HETATM   25  C11 UNL     1       0.766   0.369  -1.528  1.00  0.00     0.022 C 
BRANCH  25  26
HETATM   26  C12 UNL     1       1.927   1.315  -1.726  1.00  0.00     0.151 C 
BRANCH  26  27
HETATM   27  N3  UNL     1       3.188   0.850  -1.265  1.00  0.00    -0.274 N 
HETATM   28  N4  UNL     1       3.881  -0.049  -2.026  1.00  0.00    -0.284 N 
HETATM   29  C13 UNL     1       4.981  -0.362  -1.353  1.00  0.00     0.116 A 
ATOM     30  H4  UNL     1       3.605  -0.411  -2.939  1.00  0.00     0.188 HD
HETATM   31  N7  UNL     1       4.972   0.315  -0.223  1.00  0.00    -0.328 N 
HETATM   32  C18 UNL     1       3.842   1.096  -0.141  1.00  0.00     0.135 A 
ATOM     33  H7  UNL     1       5.700   0.267   0.490  1.00  0.00     0.169 HD
HETATM   34  C19 UNL     1       3.639   1.954   1.000  1.00  0.00     0.025 A 
HETATM   35  C20 UNL     1       2.596   2.803   1.198  1.00  0.00     0.018 A 
HETATM   36  C23 UNL     1       4.596   1.954   2.025  1.00  0.00     0.102 A 
HETATM   37  C21 UNL     1       2.466   3.627   2.333  1.00  0.00     0.018 A 
HETATM   38  C22 UNL     1       3.434   3.579   3.295  1.00  0.00     0.087 A 
HETATM   39  N8  UNL     1       4.465   2.745   3.108  1.00  0.00    -0.374 N 
ATOM     40  H8  UNL     1       5.190   2.706   3.824  1.00  0.00     0.164 HD
BRANCH  29  41
HETATM   41  C14 UNL     1       6.062  -1.319  -1.780  1.00  0.00     0.205 C 
BRANCH  41  42
HETATM   42  N5  UNL     1       7.223  -1.101  -0.946  1.00  0.00    -0.326 N 
HETATM   43  C15 UNL     1       8.338  -0.190  -1.154  1.00  0.00     0.147 C 
HETATM   44  C16 UNL     1       9.483  -0.942  -0.519  1.00  0.00     0.144 C 
HETATM   45  N6  UNL     1       8.865  -1.626   0.599  1.00  0.00    -0.341 N 
HETATM   46  C17 UNL     1       7.472  -1.776   0.277  1.00  0.00     0.318 C 
ATOM     47  H6  UNL     1       9.329  -1.941   1.451  1.00  0.00     0.164 HD
HETATM   48  O2  UNL     1       6.695  -2.419   1.028  1.00  0.00    -0.247 OA
ENDBRANCH  41  42
ENDBRANCH  29  41
ENDBRANCH  26  27
ENDBRANCH  25  26
ENDBRANCH   1  25
TORSDOF 10
