REMARK  12 active torsions:
REMARK  status: ('A' for Active; 'I' for Inactive)
REMARK    1  A    between atoms: C2_2  and  C3_3 
REMARK    2  A    between atoms: C3_3  and  O1_4 
REMARK    3  A    between atoms: O1_4  and  C4_5 
REMARK    4  A    between atoms: C8_9  and  N1_10 
REMARK    5  A    between atoms: N1_10  and  S1_12 
REMARK    6  A    between atoms: C10_16  and  O4_17 
REMARK    7  A    between atoms: C12_19  and  C13_20 
REMARK    8  A    between atoms: C16_23  and  N2_24 
REMARK    9  A    between atoms: N2_24  and  C17_26 
REMARK   10  A    between atoms: C17_26  and  C18_27 
REMARK   11  A    between atoms: C18_27  and  N3_28 
REMARK   12  A    between atoms: C22_38  and  C23_39 
ROOT
HETATM    1  C13 UNL     1      -0.732  -0.489  -0.573  1.00  0.00     0.003 A 
HETATM    2  C14 UNL     1       0.540  -0.279  -0.012  1.00  0.00     0.033 A 
HETATM    3  C15 UNL     1       1.646  -0.810  -0.605  1.00  0.00     0.056 A 
HETATM    4  C16 UNL     1       3.034  -0.795  -0.323  1.00  0.00     0.133 A 
HETATM    5  N4  UNL     1       3.637  -1.508  -1.289  1.00  0.00    -0.283 N 
ATOM      6  H4  UNL     1       4.638  -1.687  -1.373  1.00  0.00     0.188 HD
HETATM    7  N5  UNL     1       2.692  -1.934  -2.110  1.00  0.00    -0.283 N 
ATOM      8  H5  UNL     1       2.876  -2.503  -2.936  1.00  0.00     0.188 HD
HETATM    9  C21 UNL     1       1.472  -1.539  -1.742  1.00  0.00     0.134 A 
HETATM   10  N6  UNL     1       0.237  -1.742  -2.281  1.00  0.00    -0.343 N 
ATOM     11  H6  UNL     1       0.149  -2.295  -3.133  1.00  0.00     0.167 HD
HETATM   12  C22 UNL     1      -0.879  -1.224  -1.708  1.00  0.00     0.021 A 
ENDROOT
BRANCH   1  13
HETATM   13  C12 UNL     1      -1.798   0.240   0.107  1.00  0.00     0.046 A 
HETATM   14  C4  UNL     1      -2.692  -0.312   0.983  1.00  0.00     0.088 A 
HETATM   15  C5  UNL     1      -3.649   0.583   1.574  1.00  0.00    -0.025 A 
HETATM   16  C6  UNL     1      -4.626   0.017   2.521  1.00  0.00     0.051 C 
HETATM   17  C7  UNL     1      -3.667   1.910   1.283  1.00  0.00     0.042 A 
HETATM   18  C8  UNL     1      -2.784   2.458   0.423  1.00  0.00     0.077 A 
HETATM   19  C10 UNL     1      -1.825   1.622  -0.182  1.00  0.00     0.109 A 
BRANCH  14  20
HETATM   20  O1  UNL     1      -2.741  -1.563   1.319  1.00  0.00    -0.350 OA
BRANCH  20  21
HETATM   21  C3  UNL     1      -2.792  -2.800   1.646  1.00  0.00     0.175 C 
BRANCH  21  22
HETATM   22  C2  UNL     1      -2.350  -3.990   0.898  1.00  0.00     0.022 C 
HETATM   23  C1  UNL     1      -0.920  -4.163   0.594  1.00  0.00     0.007 C 
ENDBRANCH  21  22
ENDBRANCH  20  21
ENDBRANCH  14  20
BRANCH  18  24
HETATM   24  N1  UNL     1      -2.774   3.845   0.097  1.00  0.00    -0.282 N 
ATOM     25  H1  UNL     1      -1.997   4.227  -0.443  1.00  0.00     0.178 HD
BRANCH  24  26
HETATM   26  S1  UNL     1      -4.040   4.881   0.594  1.00  0.00     0.227 S 
HETATM   27  C9  UNL     1      -5.543   4.298  -0.152  1.00  0.00     0.186 C 
HETATM   28  O2  UNL     1      -4.168   4.980   2.089  1.00  0.00    -0.206 OA
HETATM   29  O3  UNL     1      -3.825   6.294   0.108  1.00  0.00    -0.206 OA
ENDBRANCH  24  26
ENDBRANCH  18  24
BRANCH  19  30
HETATM   30  O4  UNL     1      -0.930   2.193  -1.028  1.00  0.00    -0.353 OA
HETATM   31  C11 UNL     1      -0.884   2.503  -2.350  1.00  0.00     0.210 C 
ENDBRANCH  19  30
ENDBRANCH   1  13
BRANCH  12  32
HETATM   32  C23 UNL     1      -2.178  -1.549  -2.278  1.00  0.00     0.053 C 
HETATM   33  C24 UNL     1      -2.792  -0.501  -3.134  1.00  0.00     0.011 C 
ENDBRANCH  12  32
BRANCH   4  34
HETATM   34  N2  UNL     1       3.455  -0.185   0.680  1.00  0.00    -0.352 N 
ATOM     35  H2  UNL     1       2.696   0.252   1.202  1.00  0.00     0.166 HD
BRANCH  34  36
HETATM   36  C17 UNL     1       4.690   0.053   1.270  1.00  0.00     0.092 C 
BRANCH  36  37
HETATM   37  C18 UNL     1       5.875  -0.640   0.669  1.00  0.00     0.315 C 
BRANCH  37  38
HETATM   38  N3  UNL     1       7.058  -0.268   1.442  1.00  0.00     0.084 N 
HETATM   39  C19 UNL     1       7.343   1.150   1.219  1.00  0.00     0.309 C 
HETATM   40  C20 UNL     1       8.172  -0.982   0.793  1.00  0.00     0.309 C 
ENDBRANCH  37  38
ENDBRANCH  36  37
ENDBRANCH  34  36
ENDBRANCH   4  34
TORSDOF 12
