REMARK  13 active torsions:
REMARK  status: ('A' for Active; 'I' for Inactive)
REMARK    1  A    between atoms: C2_2  and  C3_3 
REMARK    2  A    between atoms: C3_3  and  C4_4 
REMARK    3  A    between atoms: C6_8  and  N2_9 
REMARK    4  A    between atoms: N2_9  and  C7_11 
REMARK    5  A    between atoms: C9_13  and  C10_14 
REMARK    6  A    between atoms: C10_14  and  C11_15 
REMARK    7  A    between atoms: C16_26  and  C17_27 
REMARK    8  A    between atoms: C17_27  and  C18_28 
REMARK    9  A    between atoms: C18_28  and  C19_29 
REMARK   10  A    between atoms: C19_29  and  C20_30 
REMARK   11  A    between atoms: C20_30  and  N5_31 
REMARK   12  A    between atoms: C23_34  and  C24_35 
REMARK   13  A    between atoms: C24_35  and  O2_36 
ROOT
HETATM    1  C7  UNL     1      -1.407   1.725   0.266  1.00  0.00     0.056 A 
HETATM    2  C8  UNL     1      -2.622   2.377   0.396  1.00  0.00     0.038 A 
HETATM    3  C9  UNL     1      -2.813   3.370   1.360  1.00  0.00    -0.050 A 
HETATM    4  C14 UNL     1      -1.795   3.734   2.215  1.00  0.00     0.008 A 
HETATM    5  C15 UNL     1      -0.587   3.083   2.083  1.00  0.00     0.010 A 
HETATM    6  C16 UNL     1      -0.399   2.098   1.126  1.00  0.00    -0.031 A 
ENDROOT
BRANCH   1   7
HETATM    7  N2  UNL     1      -1.187   0.714  -0.699  1.00  0.00    -0.190 N 
ATOM      8  H2  UNL     1      -0.566   0.928  -1.479  1.00  0.00     0.184 HD
BRANCH   7   9
HETATM    9  C6  UNL     1      -1.721  -0.466  -0.658  1.00  0.00     0.697 A 
HETATM   10  N1  UNL     1      -2.546  -0.886   0.294  1.00  0.00    -0.199 N 
HETATM   11  C5  UNL     1      -3.077  -2.145   0.280  1.00  0.00     0.132 A 
ATOM     12  H1  UNL     1      -2.790  -0.252   1.055  1.00  0.00     0.183 HD
HETATM   13  C4  UNL     1      -2.770  -3.031  -0.736  1.00  0.00     0.042 A 
HETATM   14  N7  UNL     1      -1.925  -2.565  -1.688  1.00  0.00    -0.289 N 
HETATM   15  N6  UNL     1      -1.429  -1.345  -1.647  1.00  0.00    -0.132 N 
ATOM     16  H7  UNL     1      -1.665  -3.178  -2.461  1.00  0.00     0.187 HD
ATOM     17  H6  UNL     1      -0.798  -1.049  -2.392  1.00  0.00     0.205 HD
BRANCH  13  18
HETATM   18  C3  UNL     1      -3.316  -4.408  -0.805  1.00  0.00     0.059 C 
BRANCH  18  19
HETATM   19  C2  UNL     1      -4.618  -4.449  -1.579  1.00  0.00     0.002 C 
HETATM   20  C1  UNL     1      -5.174  -5.854  -1.650  1.00  0.00     0.005 C 
ENDBRANCH  18  19
ENDBRANCH  13  18
ENDBRANCH   7   9
ENDBRANCH   1   7
BRANCH   6  21
HETATM   21  C17 UNL     1       0.932   1.405   0.991  1.00  0.00     0.041 C 
BRANCH  21  22
HETATM   22  C18 UNL     1       1.591   2.022  -0.217  1.00  0.00     0.006 C 
BRANCH  22  23
HETATM   23  C19 UNL     1       2.970   1.455  -0.508  1.00  0.00     0.030 C 
BRANCH  23  24
HETATM   24  C20 UNL     1       2.868  -0.014  -0.748  1.00  0.00     0.272 C 
BRANCH  24  25
HETATM   25  N5  UNL     1       4.084  -0.665  -1.076  1.00  0.00     0.088 N 
HETATM   26  C21 UNL     1       3.854  -2.087  -1.292  1.00  0.00     0.273 C 
HETATM   27  C22 UNL     1       3.701  -2.840   0.007  1.00  0.00     0.037 C 
HETATM   28  C23 UNL     1       4.936  -2.626   0.845  1.00  0.00     0.012 C 
HETATM   29  C25 UNL     1       5.087  -1.156   1.109  1.00  0.00     0.037 C 
HETATM   30  C26 UNL     1       5.169  -0.405  -0.205  1.00  0.00     0.273 C 
BRANCH  28  31
HETATM   31  C24 UNL     1       6.185  -3.163   0.192  1.00  0.00     0.168 C 
BRANCH  31  32
HETATM   32  O2  UNL     1       7.251  -2.910   1.045  1.00  0.00    -0.400 OA
ATOM     33  H2  UNL     1       8.038  -3.248   0.634  1.00  0.00     0.209 HD
ENDBRANCH  31  32
ENDBRANCH  28  31
ENDBRANCH  24  25
ENDBRANCH  23  24
ENDBRANCH  22  23
ENDBRANCH  21  22
ENDBRANCH   6  21
BRANCH   3  34
HETATM   34  C10 UNL     1      -4.117   4.032   1.462  1.00  0.00     0.101 C 
BRANCH  34  35
HETATM   35  C11 UNL     1      -4.256   5.200   0.516  1.00  0.00     0.084 A 
HETATM   36  N3  UNL     1      -5.144   5.312  -0.410  1.00  0.00    -0.332 N 
HETATM   37  C12 UNL     1      -5.028   6.515  -1.138  1.00  0.00     0.179 A 
ATOM     38  H3  UNL     1      -5.856   4.606  -0.597  1.00  0.00     0.168 HD
HETATM   39  S1  UNL     1      -5.969   7.028  -2.394  1.00  0.00    -0.040 SA
HETATM   40  N4  UNL     1      -3.931   7.247  -0.600  1.00  0.00    -0.298 N 
HETATM   41  C13 UNL     1      -3.442   6.402   0.456  1.00  0.00     0.270 A 
ATOM     42  H4  UNL     1      -3.576   8.157  -0.894  1.00  0.00     0.171 HD
HETATM   43  O1  UNL     1      -2.460   6.686   1.197  1.00  0.00    -0.266 OA
ENDBRANCH  34  35
ENDBRANCH   3  34
TORSDOF 13
