REMARK  13 active torsions:
REMARK  status: ('A' for Active; 'I' for Inactive)
REMARK    1  A    between atoms: C2_2  and  C3_3 
REMARK    2  A    between atoms: C3_3  and  C4_4 
REMARK    3  A    between atoms: C4_4  and  N1_5 
REMARK    4  A    between atoms: N2_8  and  C6_9 
REMARK    5  A    between atoms: C6_9  and  C7_10 
REMARK    6  A    between atoms: C7_10  and  C8_11 
REMARK    7  A    between atoms: C16_20  and  N3_21 
REMARK    8  A    between atoms: N3_21  and  C17_22 
REMARK    9  A    between atoms: C17_22  and  C18_23 
REMARK   10  A    between atoms: C18_23  and  C19_24 
REMARK   11  A    between atoms: C19_24  and  N4_25 
REMARK       I    between atoms: N4_25  and  C20_27 
REMARK   12  A    between atoms: C20_27  and  C21_29 
REMARK   13  A    between atoms: C24_34  and  N6_35 
ROOT
HETATM    1  N1  UNL     1      -2.221   2.234  -0.042  1.00  0.00    -0.284 N 
HETATM    2  C5  UNL     1      -2.984   1.138  -0.367  1.00  0.00     0.333 A 
HETATM    3  O1  UNL     1      -4.168   1.327  -0.764  1.00  0.00    -0.246 OA
HETATM    4  N2  UNL     1      -2.549  -0.104  -0.289  1.00  0.00    -0.265 N 
HETATM    5  C14 UNL     1      -1.280  -0.401   0.131  1.00  0.00     0.270 A 
HETATM    6  O2  UNL     1      -0.922  -1.598   0.184  1.00  0.00    -0.267 OA
HETATM    7  C15 UNL     1      -0.480   0.642   0.468  1.00  0.00     0.136 A 
HETATM    8  C16 UNL     1       0.809   0.399   0.942  1.00  0.00     0.212 A 
HETATM    9  N5  UNL     1       1.556   1.525   1.312  1.00  0.00    -0.163 N 
ATOM     10  H5  UNL     1       2.505   1.400   1.666  1.00  0.00     0.187 HD
HETATM   11  C24 UNL     1       1.059   2.743   1.213  1.00  0.00     0.681 A 
HETATM   12  N7  UNL     1      -0.186   2.922   0.749  1.00  0.00    -0.175 N 
ATOM     13  H7  UNL     1      -0.541   3.876   0.684  1.00  0.00     0.186 HD
HETATM   14  C26 UNL     1      -0.983   1.933   0.370  1.00  0.00     0.148 A 
ENDROOT
BRANCH   8  15
HETATM   15  N3  UNL     1       1.335  -0.679   1.049  1.00  0.00    -0.402 NA
BRANCH  15  16
HETATM   16  C17 UNL     1       1.903  -1.850   1.165  1.00  0.00     0.159 C 
BRANCH  16  17
HETATM   17  C18 UNL     1       3.270  -2.054   0.473  1.00  0.00     0.079 C 
BRANCH  17  18
HETATM   18  C19 UNL     1       4.320  -1.132   0.999  1.00  0.00     0.128 C 
BRANCH  18  19
HETATM   19  N4  UNL     1       5.569  -1.452   0.298  1.00  0.00    -0.360 N 
HETATM   20  C20 UNL     1       6.759  -0.747   0.592  1.00  0.00     0.221 C 
HETATM   21  O3  UNL     1       6.728   0.165   1.466  1.00  0.00    -0.273 OA
ATOM     22  H4  UNL     1       5.579  -2.189  -0.407  1.00  0.00     0.162 HD
BRANCH  20  23
HETATM   23  C21 UNL     1       8.039  -1.041  -0.091  1.00  0.00     0.070 C 
HETATM   24  C22 UNL     1       9.145  -0.155   0.463  1.00  0.00     0.019 C 
HETATM   25  C23 UNL     1       7.905  -0.770  -1.589  1.00  0.00     0.019 C 
ENDBRANCH  20  23
ENDBRANCH  18  19
ENDBRANCH  17  18
ENDBRANCH  16  17
ENDBRANCH  15  16
ENDBRANCH   8  15
BRANCH  11  26
HETATM   26  N6  UNL     1       1.822   3.749   1.586  1.00  0.00    -0.230 N 
HETATM   27  C25 UNL     1       1.348   5.109   1.508  1.00  0.00     0.165 C 
ATOM     28  H6  UNL     1       2.762   3.564   1.935  1.00  0.00     0.177 HD
ENDBRANCH  11  26
BRANCH   4  29
HETATM   29  C6  UNL     1      -3.391  -1.257  -0.631  1.00  0.00     0.141 C 
BRANCH  29  30
HETATM   30  C7  UNL     1      -4.135  -1.757   0.588  1.00  0.00     0.054 C 
BRANCH  30  31
HETATM   31  C8  UNL     1      -4.986  -2.911   0.188  1.00  0.00    -0.082 C 
HETATM   32  C9  UNL     1      -6.302  -2.925   0.329  1.00  0.00    -0.024 C 
HETATM   33  C10 UNL     1      -7.037  -4.143  -0.111  1.00  0.00     0.027 C 
HETATM   34  C11 UNL     1      -6.389  -5.335   0.564  1.00  0.00     0.004 C 
HETATM   35  C12 UNL     1      -4.929  -5.385   0.260  1.00  0.00     0.005 C 
HETATM   36  C13 UNL     1      -4.396  -4.145  -0.416  1.00  0.00     0.034 C 
ENDBRANCH  30  31
ENDBRANCH  29  30
ENDBRANCH   4  29
BRANCH   1  37
HETATM   37  C4  UNL     1      -2.812   3.521  -0.144  1.00  0.00     0.135 C 
BRANCH  37  38
HETATM   38  C3  UNL     1      -2.911   4.131  -1.486  1.00  0.00     0.020 C 
BRANCH  38  39
HETATM   39  C2  UNL     1      -1.773   4.460  -2.323  1.00  0.00    -0.003 C 
HETATM   40  C1  UNL     1      -0.813   5.504  -1.842  1.00  0.00     0.005 C 
ENDBRANCH  38  39
ENDBRANCH  37  38
ENDBRANCH   1  37
TORSDOF 13
