REMARK  11 active torsions:
REMARK  status: ('A' for Active; 'I' for Inactive)
REMARK    1  A    between atoms: O1_2  and  C2_3 
REMARK    2  A    between atoms: C2_3  and  C3_4 
REMARK    3  A    between atoms: C3_4  and  N1_5 
REMARK    4  A    between atoms: C4_6  and  C5_7 
REMARK       I    between atoms: C5_7  and  N2_9 
REMARK    5  A    between atoms: N2_9  and  C6_11 
REMARK    6  A    between atoms: C6_11  and  C7_12 
REMARK    7  A    between atoms: C7_12  and  C8_13 
REMARK    8  A    between atoms: C8_13  and  C9_14 
REMARK       I    between atoms: C9_14  and  N3_16 
REMARK    9  A    between atoms: N3_16  and  C10_18 
REMARK   10  A    between atoms: C10_18  and  C11_19 
REMARK   11  A    between atoms: C15_23  and  N4_24 
ROOT
HETATM    1  C5  UNL     1      -3.935  -1.378  -0.022  1.00  0.00     0.268 C 
HETATM    2  O2  UNL     1      -3.885  -2.572  -0.466  1.00  0.00    -0.266 OA
HETATM    3  N2  UNL     1      -2.971  -0.996   0.908  1.00  0.00    -0.356 N 
ATOM      4  H2  UNL     1      -2.989  -0.040   1.263  1.00  0.00     0.162 HD
ENDROOT
BRANCH   3   5
HETATM    5  C6  UNL     1      -1.936  -1.902   1.398  1.00  0.00     0.123 C 
BRANCH   5   6
HETATM    6  C7  UNL     1      -1.022  -1.261   2.391  1.00  0.00     0.029 C 
BRANCH   6   7
HETATM    7  C8  UNL     1      -0.269  -0.074   1.920  1.00  0.00     0.104 C 
BRANCH   7   8
HETATM    8  C9  UNL     1       0.659  -0.306   0.793  1.00  0.00     0.217 C 
HETATM    9  O3  UNL     1       0.872  -1.433   0.291  1.00  0.00    -0.274 OA
HETATM   10  N3  UNL     1       1.354   0.790   0.237  1.00  0.00    -0.361 N 
ATOM     11  H3  UNL     1       1.187   1.715   0.633  1.00  0.00     0.162 HD
BRANCH  10  12
HETATM   12  C10 UNL     1       2.271   0.680  -0.841  1.00  0.00     0.127 C 
BRANCH  12  13
HETATM   13  C11 UNL     1       3.479  -0.187  -0.584  1.00  0.00     0.005 C 
HETATM   14  C12 UNL     1       4.306  -0.151  -1.856  1.00  0.00     0.006 C 
HETATM   15  C13 UNL     1       5.009   1.149  -2.070  1.00  0.00     0.002 C 
HETATM   16  C14 UNL     1       5.334   1.885  -0.813  1.00  0.00     0.036 C 
HETATM   17  C15 UNL     1       5.539   0.937   0.348  1.00  0.00     0.223 C 
HETATM   18  C21 UNL     1       4.250   0.253   0.632  1.00  0.00     0.042 C 
BRANCH  17  19
HETATM   19  N4  UNL     1       6.645   0.073   0.019  1.00  0.00     0.093 N 
HETATM   20  C16 UNL     1       7.815   0.956  -0.118  1.00  0.00     0.273 C 
HETATM   21  C17 UNL     1       9.068   0.342   0.432  1.00  0.00     0.030 C 
HETATM   22  C18 UNL     1       9.178  -1.078  -0.035  1.00  0.00     0.003 C 
HETATM   23  C19 UNL     1       8.002  -1.839   0.481  1.00  0.00     0.030 C 
HETATM   24  C20 UNL     1       6.975  -0.862   1.069  1.00  0.00     0.273 C 
ENDBRANCH  17  19
ENDBRANCH  12  13
ENDBRANCH  10  12
ENDBRANCH   7   8
ENDBRANCH   6   7
ENDBRANCH   5   6
ENDBRANCH   3   5
BRANCH   1  25
HETATM   25  C4  UNL     1      -4.973  -0.527  -0.525  1.00  0.00     0.108 A 
HETATM   26  N1  UNL     1      -5.804   0.161   0.240  1.00  0.00    -0.307 N 
HETATM   27  C27 UNL     1      -6.716   1.030  -0.319  1.00  0.00     0.262 A 
HETATM   28  C26 UNL     1      -6.751   1.166  -1.678  1.00  0.00     0.084 A 
HETATM   29  O4  UNL     1      -7.487   1.671   0.453  1.00  0.00    -0.267 OA
HETATM   30  C23 UNL     1      -5.912   0.473  -2.525  1.00  0.00     0.068 A 
HETATM   31  C24 UNL     1      -7.545   1.947  -2.505  1.00  0.00     0.040 A 
HETATM   32  C22 UNL     1      -5.019  -0.378  -1.942  1.00  0.00     0.067 A 
HETATM   33  N5  UNL     1      -6.206   0.834  -3.791  1.00  0.00    -0.300 N 
HETATM   34  N6  UNL     1      -7.188   1.719  -3.762  1.00  0.00    -0.304 N 
ATOM     35  H5  UNL     1      -5.747   0.483  -4.631  1.00  0.00     0.187 HD
ATOM     36  H6  UNL     1      -7.607   2.159  -4.581  1.00  0.00     0.186 HD
HETATM   37  C25 UNL     1      -8.605   2.867  -2.022  1.00  0.00     0.071 C 
BRANCH  26  38
HETATM   38  C3  UNL     1      -5.866  -0.002   1.667  1.00  0.00     0.159 C 
BRANCH  38  39
HETATM   39  C2  UNL     1      -6.866  -1.146   1.939  1.00  0.00     0.187 C 
BRANCH  39  40
HETATM   40  O1  UNL     1      -8.122  -0.887   1.464  1.00  0.00    -0.394 OA
HETATM   41  C1  UNL     1      -9.030  -1.896   1.699  1.00  0.00     0.201 C 
ENDBRANCH  39  40
ENDBRANCH  38  39
ENDBRANCH  26  38
ENDBRANCH   1  25
TORSDOF 11
