REMARK  14 active torsions:
REMARK  status: ('A' for Active; 'I' for Inactive)
REMARK       I    between atoms: C2_2  and  N1_4 
REMARK    1  A    between atoms: C5_7  and  C6_8 
REMARK    2  A    between atoms: C7_9  and  C8_10 
REMARK    3  A    between atoms: C8_10  and  C9_11 
REMARK    4  A    between atoms: C9_11  and  C10_12 
REMARK    5  A    between atoms: C10_12  and  C11_13 
REMARK    6  A    between atoms: C11_13  and  C12_14 
REMARK    7  A    between atoms: C12_14  and  C13_15 
REMARK    8  A    between atoms: C13_15  and  C14_16 
REMARK    9  A    between atoms: C14_16  and  C15_17 
REMARK   10  A    between atoms: C15_17  and  C16_19 
REMARK   11  A    between atoms: C16_19  and  N2_20 
REMARK   12  A    between atoms: N2_20  and  C17_22 
REMARK   13  A    between atoms: C20_26  and  O3_27 
REMARK   14  A    between atoms: C21_29  and  C22_30 
ROOT
HETATM    1  C15 UNL     1      -1.394   1.023  -0.727  1.00  0.00     0.144 C 
HETATM    2  O2  UNL     1      -1.051   2.101  -0.288  1.00  0.00    -0.296 OA
ENDROOT
BRANCH   1   3
HETATM    3  C14 UNL     1      -0.370   0.162  -1.370  1.00  0.00     0.080 C 
BRANCH   3   4
HETATM    4  C13 UNL     1      -0.096  -0.996  -0.438  1.00  0.00     0.007 C 
BRANCH   4   5
HETATM    5  C12 UNL     1       0.387  -0.584   0.918  1.00  0.00     0.000 C 
BRANCH   5   6
HETATM    6  C11 UNL     1       0.600  -1.819   1.739  1.00  0.00     0.000 C 
BRANCH   6   7
HETATM    7  C10 UNL     1       1.641  -2.719   1.128  1.00  0.00     0.001 C 
BRANCH   7   8
HETATM    8  C9  UNL     1       2.940  -1.982   1.072  1.00  0.00     0.012 C 
BRANCH   8   9
HETATM    9  C8  UNL     1       4.052  -2.847   0.469  1.00  0.00     0.094 C 
BRANCH   9  10
HETATM   10  C7  UNL     1       5.319  -2.069   0.464  1.00  0.00    -0.106 C 
HETATM   11  C6  UNL     1       6.348  -1.442   0.489  1.00  0.00    -0.094 C 
BRANCH  11  12
HETATM   12  C5  UNL     1       7.585  -0.701   0.547  1.00  0.00     0.138 C 
HETATM   13  C4  UNL     1       8.755  -1.626   0.295  1.00  0.00     0.045 C 
HETATM   14  C3  UNL     1       9.999  -0.775   0.560  1.00  0.00     0.128 C 
HETATM   15  N1  UNL     1      10.006   0.424  -0.262  1.00  0.00    -0.345 N 
HETATM   16  C2  UNL     1      11.112   0.714  -1.096  1.00  0.00     0.216 C 
HETATM   17  C28 UNL     1       8.869   1.330  -0.227  1.00  0.00     0.205 C 
HETATM   18  C1  UNL     1      11.139   1.925  -1.934  1.00  0.00     0.117 C 
HETATM   19  O1  UNL     1      12.082  -0.073  -1.119  1.00  0.00    -0.274 OA
HETATM   20  C27 UNL     1       7.637   0.470  -0.367  1.00  0.00     0.160 C 
HETATM   21  O5  UNL     1       6.771   0.748  -1.179  1.00  0.00    -0.295 OA
ENDBRANCH  11  12
ENDBRANCH   9  10
ENDBRANCH   8   9
ENDBRANCH   7   8
ENDBRANCH   6   7
ENDBRANCH   5   6
ENDBRANCH   4   5
ENDBRANCH   3   4
ENDBRANCH   1   3
BRANCH   1  22
HETATM   22  C16 UNL     1      -2.799   0.501  -0.658  1.00  0.00     0.192 C 
BRANCH  22  23
HETATM   23  N2  UNL     1      -3.573   1.523  -0.020  1.00  0.00    -0.410 N 
ATOM     24  H2  UNL     1      -3.167   2.420   0.245  1.00  0.00     0.154 HD
BRANCH  23  25
HETATM   25  C17 UNL     1      -4.940   1.214   0.222  1.00  0.00     0.084 C 
HETATM   26  C18 UNL     1      -5.117   0.046   1.191  1.00  0.00     0.045 C 
HETATM   27  C19 UNL     1      -6.522  -0.017   1.671  1.00  0.00     0.133 C 
HETATM   28  N3  UNL     1      -7.503   0.487   0.698  1.00  0.00    -0.330 N 
HETATM   29  C20 UNL     1      -8.834   0.622   0.895  1.00  0.00     0.158 A 
HETATM   30  C25 UNL     1      -7.176   0.881  -0.542  1.00  0.00     0.022 A 
HETATM   31  C21 UNL     1      -9.348   1.123  -0.282  1.00  0.00     0.088 A 
HETATM   32  C23 UNL     1      -8.304   1.287  -1.189  1.00  0.00    -0.019 A 
HETATM   33  C24 UNL     1      -8.383   1.797  -2.583  1.00  0.00     0.051 C 
HETATM   34  C26 UNL     1      -5.735   0.836  -1.007  1.00  0.00     0.082 C 
BRANCH  29  35
HETATM   35  O3  UNL     1      -9.562   0.316   2.060  1.00  0.00    -0.345 OA
ATOM     36  H3  UNL     1     -10.497   0.411   2.198  1.00  0.00     0.219 HD
ENDBRANCH  29  35
BRANCH  31  37
HETATM   37  C22 UNL     1     -10.736   1.446  -0.568  1.00  0.00     0.269 C 
HETATM   38  N4  UNL     1     -11.704   1.245   0.442  1.00  0.00    -0.057 NA
HETATM   39  O4  UNL     1     -11.068   1.888  -1.668  1.00  0.00    -0.271 OA
ENDBRANCH  31  37
ENDBRANCH  23  25
ENDBRANCH  22  23
ENDBRANCH   1  22
TORSDOF 14
