REMARK  14 active torsions:
REMARK  status: ('A' for Active; 'I' for Inactive)
REMARK    1  A    between atoms: O1_2  and  C2_3 
REMARK    2  A    between atoms: C5_6  and  C6_7 
REMARK    3  A    between atoms: C6_7  and  C7_8 
REMARK    4  A    between atoms: C7_8  and  N1_9 
REMARK    5  A    between atoms: N1_9  and  C8_11 
REMARK    6  A    between atoms: C8_11  and  N2_13 
REMARK    7  A    between atoms: N2_13  and  C9_15 
REMARK    8  A    between atoms: C9_15  and  C10_16 
REMARK    9  A    between atoms: C10_16  and  C11_17 
REMARK   10  A    between atoms: C13_20  and  N3_21 
REMARK   11  A    between atoms: N3_21  and  C14_23 
REMARK   12  A    between atoms: C14_23  and  C17_26 
REMARK   13  A    between atoms: C19_29  and  N5_30 
REMARK   14  A    between atoms: C23_36  and  O2_37 
ROOT
HETATM    1  C17 UNL     1       5.424  -1.410   0.399  1.00  0.00     0.065 C 
HETATM    2  C18 UNL     1       4.168  -2.220   0.468  1.00  0.00     0.099 C 
HETATM    3  N4  UNL     1       3.199  -2.844   0.542  1.00  0.00    -0.192 NA
HETATM    4  C19 UNL     1       5.954  -1.102   1.529  1.00  0.00     0.105 C 
ENDROOT
BRANCH   1   5
HETATM    5  C14 UNL     1       5.867  -1.152  -0.960  1.00  0.00     0.063 C 
HETATM    6  C15 UNL     1       6.364  -2.465  -1.621  1.00  0.00     0.044 C 
HETATM    7  C16 UNL     1       6.916  -0.128  -1.155  1.00  0.00     0.044 C 
BRANCH   5   8
HETATM    8  N3  UNL     1       4.719  -0.740  -1.812  1.00  0.00    -0.357 N 
ATOM      9  H3  UNL     1       4.466  -1.247  -2.660  1.00  0.00     0.162 HD
BRANCH   8  10
HETATM   10  C13 UNL     1       4.053   0.313  -1.408  1.00  0.00     0.145 A 
HETATM   11  S2  UNL     1       4.277   1.316  -0.049  1.00  0.00    -0.064 SA
HETATM   12  C12 UNL     1       2.990   2.403  -0.314  1.00  0.00     0.078 A 
HETATM   13  C11 UNL     1       2.446   1.914  -1.472  1.00  0.00     0.019 A 
HETATM   14  N6  UNL     1       2.989   0.866  -2.009  1.00  0.00    -0.340 N 
ATOM     15  H6  UNL     1       2.614   0.470  -2.871  1.00  0.00     0.168 HD
BRANCH  13  16
HETATM   16  C10 UNL     1       1.239   2.616  -2.068  1.00  0.00     0.077 C 
BRANCH  16  17
HETATM   17  C9  UNL     1      -0.051   2.060  -1.580  1.00  0.00     0.128 C 
BRANCH  17  18
HETATM   18  N2  UNL     1      -0.274   2.128  -0.169  1.00  0.00    -0.367 N 
ATOM     19  H2  UNL     1       0.434   2.543   0.438  1.00  0.00     0.161 HD
BRANCH  18  20
HETATM   20  C8  UNL     1      -1.469   1.624   0.388  1.00  0.00     0.167 C 
HETATM   21  S1  UNL     1      -1.767   1.681   2.000  1.00  0.00    -0.041 SA
BRANCH  20  22
HETATM   22  N1  UNL     1      -2.436   1.052  -0.482  1.00  0.00    -0.367 N 
ATOM     23  H1  UNL     1      -2.265   1.009  -1.487  1.00  0.00     0.161 HD
BRANCH  22  24
HETATM   24  C7  UNL     1      -3.652   0.537   0.069  1.00  0.00     0.126 C 
BRANCH  24  25
HETATM   25  C6  UNL     1      -4.576  -0.032  -0.958  1.00  0.00     0.058 C 
BRANCH  25  26
HETATM   26  C5  UNL     1      -5.793  -0.525  -0.221  1.00  0.00    -0.054 A 
HETATM   27  C4  UNL     1      -5.845  -1.820   0.252  1.00  0.00     0.010 A 
HETATM   28  C3  UNL     1      -6.978  -2.230   0.922  1.00  0.00     0.040 A 
HETATM   29  C2  UNL     1      -8.055  -1.363   1.124  1.00  0.00     0.101 A 
HETATM   30  C23 UNL     1      -8.003  -0.084   0.657  1.00  0.00     0.102 A 
HETATM   31  C22 UNL     1      -6.875   0.335  -0.015  1.00  0.00     0.046 A 
BRANCH  29  32
HETATM   32  O1  UNL     1      -9.181  -1.782   1.794  1.00  0.00    -0.353 OA
HETATM   33  C1  UNL     1      -9.245  -3.100   2.281  1.00  0.00     0.210 C 
ENDBRANCH  29  32
BRANCH  30  34
HETATM   34  O2  UNL     1      -9.048   0.822   0.830  1.00  0.00    -0.353 OA
HETATM   35  C24 UNL     1      -8.986   2.140   0.344  1.00  0.00     0.210 C 
ENDBRANCH  30  34
ENDBRANCH  25  26
ENDBRANCH  24  25
ENDBRANCH  22  24
ENDBRANCH  20  22
ENDBRANCH  18  20
ENDBRANCH  17  18
ENDBRANCH  16  17
ENDBRANCH  13  16
ENDBRANCH   8  10
ENDBRANCH   5   8
ENDBRANCH   1   5
BRANCH   4  36
HETATM   36  N5  UNL     1       7.110  -0.433   1.918  1.00  0.00    -0.397 N 
HETATM   37  C20 UNL     1       7.120   0.874   2.606  1.00  0.00     0.148 C 
HETATM   38  C21 UNL     1       8.446  -0.997   1.715  1.00  0.00     0.148 C 
ENDBRANCH   4  36
TORSDOF 14
