REMARK  12 active torsions:
REMARK  status: ('A' for Active; 'I' for Inactive)
REMARK    1  A    between atoms: C2_2  and  C3_3 
REMARK       I    between atoms: C3_3  and  N1_5 
REMARK    2  A    between atoms: N1_5  and  C4_6 
REMARK    3  A    between atoms: C9_14  and  C10_15 
REMARK    4  A    between atoms: C10_15  and  C11_16 
REMARK    5  A    between atoms: C11_16  and  C12_17 
REMARK    6  A    between atoms: C12_17  and  N2_18 
REMARK       I    between atoms: N2_18  and  C13_20 
REMARK    7  A    between atoms: C13_20  and  C14_22 
REMARK    8  A    between atoms: C14_22  and  C15_23 
REMARK    9  A    between atoms: C15_23  and  C16_24 
REMARK   10  A    between atoms: C16_24  and  C17_25 
REMARK   11  A    between atoms: C17_25  and  C18_26 
REMARK   12  A    between atoms: C25_33  and  O6_34 
ROOT
HETATM    1  N2  UNL     1       0.596  -1.393   1.893  1.00  0.00    -0.361 N 
ATOM      2  H2  UNL     1       0.571  -1.598   2.892  1.00  0.00     0.162 HD
HETATM    3  C13 UNL     1      -0.280  -0.450   1.377  1.00  0.00     0.217 C 
HETATM    4  O5  UNL     1      -0.342  -0.249   0.123  1.00  0.00    -0.274 OA
ENDROOT
BRANCH   1   5
HETATM    5  C12 UNL     1       1.542  -2.093   1.058  1.00  0.00     0.122 C 
BRANCH   5   6
HETATM    6  C11 UNL     1       2.771  -1.274   0.827  1.00  0.00     0.022 C 
BRANCH   6   7
HETATM    7  C10 UNL     1       2.639   0.092   0.339  1.00  0.00     0.036 C 
BRANCH   7   8
HETATM    8  C9  UNL     1       3.938   0.831   0.136  1.00  0.00     0.152 C 
HETATM    9  C8  UNL     1       4.830   0.905   1.336  1.00  0.00     0.206 C 
HETATM   10  O4  UNL     1       6.148   0.681   0.749  1.00  0.00    -0.324 OA
HETATM   11  C7  UNL     1       5.909   1.217  -0.500  1.00  0.00     0.344 C 
HETATM   12  C4  UNL     1       6.969   1.233  -1.506  1.00  0.00     0.181 C 
HETATM   13  O3  UNL     1       5.414   2.543  -0.343  1.00  0.00    -0.302 OA
HETATM   14  O7  UNL     1       4.776   0.407  -0.867  1.00  0.00    -0.319 OA
HETATM   15  C5  UNL     1       7.559   2.583  -1.862  1.00  0.00     0.247 C 
HETATM   16  O2  UNL     1       7.327   3.606  -0.995  1.00  0.00    -0.360 OA
HETATM   17  C6  UNL     1       6.542   3.242   0.098  1.00  0.00     0.344 C 
BRANCH  12  18
HETATM   18  N1  UNL     1       7.950   0.223  -1.479  1.00  0.00    -0.365 NA
HETATM   19  C3  UNL     1       8.864  -0.740  -1.380  1.00  0.00     0.315 C 
HETATM   20  O1  UNL     1       9.209  -1.381  -0.330  1.00  0.00    -0.252 OA
BRANCH  19  21
HETATM   21  C2  UNL     1       9.641  -1.198  -2.580  1.00  0.00     0.080 C 
HETATM   22  C1  UNL     1      10.566  -2.123  -2.488  1.00  0.00     0.018 C 
ENDBRANCH  19  21
ENDBRANCH  12  18
ENDBRANCH   7   8
ENDBRANCH   6   7
ENDBRANCH   5   6
ENDBRANCH   1   5
BRANCH   3  23
HETATM   23  C14 UNL     1      -1.179   0.382   2.220  1.00  0.00     0.103 C 
BRANCH  23  24
HETATM   24  C15 UNL     1      -2.268   0.888   1.257  1.00  0.00     0.009 C 
BRANCH  24  25
HETATM   25  C16 UNL     1      -3.159  -0.270   0.873  1.00  0.00     0.001 C 
BRANCH  25  26
HETATM   26  C17 UNL     1      -4.127   0.178  -0.182  1.00  0.00     0.005 C 
BRANCH  26  27
HETATM   27  C18 UNL     1      -5.174  -0.866  -0.495  1.00  0.00    -0.006 C 
HETATM   28  C19 UNL     1      -6.018  -1.163   0.729  1.00  0.00    -0.007 C 
HETATM   29  C20 UNL     1      -7.087  -2.143   0.340  1.00  0.00     0.010 C 
HETATM   30  C27 UNL     1      -6.709   0.105   1.205  1.00  0.00     0.043 C 
HETATM   31  C21 UNL     1      -8.000  -1.601  -0.726  1.00  0.00    -0.011 C 
HETATM   32  C22 UNL     1      -7.126  -1.362  -1.938  1.00  0.00     0.010 C 
HETATM   33  C26 UNL     1      -8.646  -0.360  -0.225  1.00  0.00     0.042 C 
HETATM   34  C23 UNL     1      -6.074  -0.338  -1.568  1.00  0.00    -0.007 C 
HETATM   35  C24 UNL     1      -6.820   0.913  -1.156  1.00  0.00     0.043 C 
HETATM   36  C25 UNL     1      -7.578   0.654   0.125  1.00  0.00     0.059 C 
BRANCH  36  37
HETATM   37  O6  UNL     1      -8.100   1.870   0.567  1.00  0.00    -0.390 OA
ATOM     38  H6  UNL     1      -8.577   1.707   1.372  1.00  0.00     0.210 HD
ENDBRANCH  36  37
ENDBRANCH  26  27
ENDBRANCH  25  26
ENDBRANCH  24  25
ENDBRANCH  23  24
ENDBRANCH   3  23
TORSDOF 12
