REMARK  14 active torsions:
REMARK  status: ('A' for Active; 'I' for Inactive)
REMARK    1  A    between atoms: C2_2  and  N2_6 
REMARK    2  A    between atoms: C5_9  and  O1_10 
REMARK    3  A    between atoms: C7_13  and  C8_14 
REMARK       I    between atoms: C8_14  and  N4_16 
REMARK    4  A    between atoms: N4_16  and  C9_18 
REMARK    5  A    between atoms: C9_18  and  C10_19 
REMARK    6  A    between atoms: C9_18  and  C17_26 
REMARK    7  A    between atoms: C10_19  and  C11_20 
REMARK       I    between atoms: C17_26  and  N5_28 
REMARK    8  A    between atoms: C18_30  and  C19_31 
REMARK    9  A    between atoms: C18_30  and  C22_36 
REMARK   10  A    between atoms: C19_31  and  C20_32 
REMARK   11  A    between atoms: C20_32  and  C21_33 
REMARK   12  A    between atoms: C22_36  and  C23_37 
REMARK   13  A    between atoms: C23_37  and  O7_39 
REMARK   14  A    between atoms: O7_39  and  C24_40 
ROOT
HETATM    1  O1  UNL     1      -3.867  -0.744  -2.494  1.00  0.00    -0.275 OA
HETATM    2  C6  UNL     1      -3.511   0.261  -3.335  1.00  0.00     0.229 C 
HETATM    3  N3  UNL     1      -3.216   1.114  -4.060  1.00  0.00    -0.164 NA
ENDROOT
BRANCH   1   4
HETATM    4  C5  UNL     1      -4.667  -0.475  -1.382  1.00  0.00     0.175 C 
HETATM    5  C4  UNL     1      -5.942  -1.327  -1.605  1.00  0.00     0.056 C 
HETATM    6  C3  UNL     1      -5.252  -2.704  -1.687  1.00  0.00     0.128 C 
HETATM    7  N2  UNL     1      -4.409  -2.628  -0.513  1.00  0.00    -0.355 N 
HETATM    8  C7  UNL     1      -4.132  -1.246  -0.152  1.00  0.00     0.208 C 
BRANCH   7   9
HETATM    9  C2  UNL     1      -3.923  -3.740   0.212  1.00  0.00     0.069 C 
HETATM   10  C1  UNL     1      -2.848  -4.651  -0.225  1.00  0.00     0.088 C 
HETATM   11  N1  UNL     1      -4.500  -3.961   1.369  1.00  0.00    -0.389 N 
ATOM     12  H12 UNL     1      -4.149  -4.763   1.892  1.00  0.00     0.157 HD
ATOM     13  H11 UNL     1      -5.243  -3.331   1.671  1.00  0.00     0.157 HD
ENDBRANCH   7   9
BRANCH   8  14
HETATM   14  C8  UNL     1      -2.691  -0.963   0.022  1.00  0.00     0.243 C 
HETATM   15  O2  UNL     1      -1.830  -1.745  -0.467  1.00  0.00    -0.271 OA
HETATM   16  N4  UNL     1      -2.278   0.181   0.738  1.00  0.00    -0.346 N 
ATOM     17  H4  UNL     1      -2.975   0.811   1.135  1.00  0.00     0.163 HD
BRANCH  16  18
HETATM   18  C9  UNL     1      -0.887   0.460   0.908  1.00  0.00     0.177 C 
BRANCH  18  19
HETATM   19  C10 UNL     1      -0.474   1.879   0.926  1.00  0.00     0.044 C 
BRANCH  19  20
HETATM   20  C11 UNL     1      -0.742   2.736  -0.232  1.00  0.00    -0.042 C 
HETATM   21  C12 UNL     1      -2.145   2.955  -0.651  1.00  0.00     0.015 C 
HETATM   22  C13 UNL     1      -0.152   4.120   0.085  1.00  0.00     0.009 C 
HETATM   23  C14 UNL     1       0.034   4.785  -1.256  1.00  0.00     0.001 C 
HETATM   24  C15 UNL     1       0.372   3.660  -2.178  1.00  0.00     0.001 C 
HETATM   25  C16 UNL     1       0.062   2.379  -1.465  1.00  0.00     0.009 C 
ENDBRANCH  19  20
ENDBRANCH  18  19
BRANCH  18  26
HETATM   26  C17 UNL     1      -0.517  -0.075   2.278  1.00  0.00     0.244 C 
HETATM   27  O3  UNL     1      -1.382  -0.669   2.939  1.00  0.00    -0.271 OA
HETATM   28  N5  UNL     1       0.769   0.102   2.776  1.00  0.00    -0.332 N 
HETATM   29  C18 UNL     1       1.696  -0.790   2.592  1.00  0.00    -0.001 C 
ATOM     30  H5  UNL     1       0.990   0.951   3.297  1.00  0.00     0.168 HD
BRANCH  29  31
HETATM   31  C19 UNL     1       1.380  -2.000   1.848  1.00  0.00     0.063 C 
BRANCH  31  32
HETATM   32  C20 UNL     1       2.133  -2.087   0.565  1.00  0.00     0.119 C 
BRANCH  32  33
HETATM   33  C21 UNL     1       1.763  -3.332  -0.199  1.00  0.00     0.172 C 
HETATM   34  O4  UNL     1       2.306  -3.530  -1.291  1.00  0.00    -0.648 OA
HETATM   35  O5  UNL     1       0.852  -4.205   0.316  1.00  0.00    -0.648 OA
ENDBRANCH  32  33
ENDBRANCH  31  32
ENDBRANCH  29  31
BRANCH  29  36
HETATM   36  C22 UNL     1       3.007  -0.484   3.165  1.00  0.00     0.163 C 
BRANCH  36  37
HETATM   37  C23 UNL     1       4.125  -0.280   2.256  1.00  0.00     0.264 C 
HETATM   38  O6  UNL     1       5.169  -1.002   2.345  1.00  0.00    -0.265 OA
BRANCH  37  39
HETATM   39  O7  UNL     1       4.164   0.673   1.256  1.00  0.00    -0.311 OA
BRANCH  39  40
HETATM   40  C24 UNL     1       5.193   0.917   0.367  1.00  0.00     0.060 C 
HETATM   41  C25 UNL     1       4.729   2.075  -0.533  1.00  0.00     0.045 C 
HETATM   42  C26 UNL     1       6.480   1.380   1.002  1.00  0.00     0.045 C 
HETATM   43  C27 UNL     1       5.516  -0.263  -0.512  1.00  0.00     0.045 C 
ENDBRANCH  39  40
ENDBRANCH  37  39
ENDBRANCH  36  37
ENDBRANCH  29  36
ENDBRANCH  18  26
ENDBRANCH  16  18
ENDBRANCH   8  14
ENDBRANCH   1   4
TORSDOF 14
