REMARK  17 active torsions:
REMARK  status: ('A' for Active; 'I' for Inactive)
REMARK    1  A    between atoms: C3_3  and  C4_4 
REMARK    2  A    between atoms: C4_4  and  O1_5 
REMARK    3  A    between atoms: O1_5  and  C5_6 
REMARK       I    between atoms: C5_6  and  N1_8 
REMARK    4  A    between atoms: N1_8  and  C6_10 
REMARK    5  A    between atoms: C6_10  and  C7_11 
REMARK    6  A    between atoms: C6_10  and  C13_19 
REMARK    7  A    between atoms: C7_11  and  C8_12 
REMARK    8  A    between atoms: C8_12  and  O4_14 
REMARK    9  A    between atoms: O4_14  and  C9_15 
REMARK   10  A    between atoms: C13_19  and  C14_23 
REMARK   11  A    between atoms: C14_23  and  O5_24 
REMARK   12  A    between atoms: O5_24  and  C15_25 
REMARK   13  A    between atoms: C15_25  and  C16_26 
REMARK   14  A    between atoms: C16_26  and  N3_27 
REMARK       I    between atoms: N3_27  and  C17_29 
REMARK   15  A    between atoms: C17_29  and  C18_31 
REMARK       I    between atoms: N4_34  and  C21_35 
REMARK   16  A    between atoms: C21_35  and  O8_37 
REMARK   17  A    between atoms: O8_37  and  C22_38 
ROOT
HETATM    1  C1  UNL     1      -8.670   3.155   2.259  1.00  0.00     0.112 C 
HETATM    2  C2  UNL     1      -8.113   3.381   0.919  1.00  0.00    -0.109 C 
HETATM    3  C3  UNL     1      -7.654   3.557  -0.183  1.00  0.00    -0.080 C 
ENDROOT
BRANCH   3   4
HETATM    4  C4  UNL     1      -7.100   3.761  -1.535  1.00  0.00     0.274 C 
BRANCH   4   5
HETATM    5  O1  UNL     1      -6.542   2.560  -2.040  1.00  0.00    -0.292 OA
BRANCH   5   6
HETATM    6  C5  UNL     1      -5.497   1.937  -1.360  1.00  0.00     0.362 C 
HETATM    7  O2  UNL     1      -5.096   2.494  -0.309  1.00  0.00    -0.238 OA
HETATM    8  N1  UNL     1      -4.918   0.715  -1.859  1.00  0.00    -0.327 N 
ATOM      9  H1  UNL     1      -5.285   0.311  -2.721  1.00  0.00     0.165 HD
BRANCH   8  10
HETATM   10  C6  UNL     1      -3.848   0.052  -1.186  1.00  0.00     0.143 C 
BRANCH  10  11
HETATM   11  C7  UNL     1      -4.106  -1.416  -0.953  1.00  0.00     0.142 C 
BRANCH  11  12
HETATM   12  C8  UNL     1      -5.301  -1.690  -0.136  1.00  0.00     0.261 C 
HETATM   13  O3  UNL     1      -5.981  -0.719   0.282  1.00  0.00    -0.265 OA
BRANCH  12  14
HETATM   14  O4  UNL     1      -5.720  -2.948   0.198  1.00  0.00    -0.311 OA
BRANCH  14  15
HETATM   15  C9  UNL     1      -6.853  -3.240   0.974  1.00  0.00     0.060 C 
HETATM   16  C10 UNL     1      -6.797  -2.645   2.362  1.00  0.00     0.045 C 
HETATM   17  C11 UNL     1      -8.139  -2.854   0.260  1.00  0.00     0.045 C 
HETATM   18  C12 UNL     1      -6.899  -4.755   1.138  1.00  0.00     0.045 C 
ENDBRANCH  14  15
ENDBRANCH  12  14
ENDBRANCH  11  12
ENDBRANCH  10  11
BRANCH  10  19
HETATM   19  C13 UNL     1      -2.611   0.170  -2.004  1.00  0.00     0.027 C 
HETATM   20  N2  UNL     1      -2.685   0.747  -3.139  1.00  0.00    -0.402 N 
ATOM     21  H22 UNL     1      -3.558   1.129  -3.503  1.00  0.00     0.155 HD
ATOM     22  H21 UNL     1      -1.837   0.828  -3.700  1.00  0.00     0.155 HD
BRANCH  19  23
HETATM   23  C14 UNL     1      -1.339  -0.386  -1.474  1.00  0.00     0.221 C 
BRANCH  23  24
HETATM   24  O5  UNL     1      -0.971   0.221  -0.253  1.00  0.00    -0.384 OA
BRANCH  24  25
HETATM   25  C15 UNL     1      -0.787   1.553  -0.367  1.00  0.00     0.187 C 
BRANCH  25  26
HETATM   26  C16 UNL     1       0.353   2.122  -1.100  1.00  0.00     0.148 C 
BRANCH  26  27
HETATM   27  N3  UNL     1       1.671   1.874  -0.623  1.00  0.00    -0.359 N 
HETATM   28  C17 UNL     1       2.345   0.667  -0.473  1.00  0.00     0.222 C 
HETATM   29  O6  UNL     1       1.910  -0.467  -0.738  1.00  0.00    -0.273 OA
ATOM     30  H3  UNL     1       2.199   2.704  -0.351  1.00  0.00     0.162 HD
BRANCH  28  31
HETATM   31  C18 UNL     1       3.761   0.767   0.073  1.00  0.00     0.081 C 
HETATM   32  C19 UNL     1       4.371  -0.585   0.231  1.00  0.00     0.034 C 
HETATM   33  C20 UNL     1       5.698  -0.391   0.957  1.00  0.00     0.129 C 
HETATM   34  N4  UNL     1       6.492   0.638   0.367  1.00  0.00    -0.328 N 
HETATM   35  C21 UNL     1       7.890   0.464   0.210  1.00  0.00     0.363 C 
HETATM   36  C26 UNL     1       5.918   1.888  -0.091  1.00  0.00     0.129 C 
HETATM   37  O7  UNL     1       8.635   1.337  -0.305  1.00  0.00    -0.238 OA
HETATM   38  C27 UNL     1       4.628   1.592  -0.829  1.00  0.00     0.034 C 
BRANCH  35  39
HETATM   39  O8  UNL     1       8.484  -0.702   0.630  1.00  0.00    -0.294 OA
BRANCH  39  40
HETATM   40  C22 UNL     1       9.877  -0.905   0.486  1.00  0.00     0.061 C 
HETATM   41  C23 UNL     1      10.583   0.182   1.262  1.00  0.00     0.046 C 
HETATM   42  C24 UNL     1      10.312  -0.982  -0.943  1.00  0.00     0.046 C 
HETATM   43  C25 UNL     1      10.191  -2.237   1.136  1.00  0.00     0.046 C 
ENDBRANCH  39  40
ENDBRANCH  35  39
ENDBRANCH  28  31
ENDBRANCH  26  27
ENDBRANCH  25  26
ENDBRANCH  24  25
ENDBRANCH  23  24
ENDBRANCH  19  23
ENDBRANCH  10  19
ENDBRANCH   8  10
ENDBRANCH   5   6
ENDBRANCH   4   5
ENDBRANCH   3   4
TORSDOF 17
