REMARK  13 active torsions:
REMARK  status: ('A' for Active; 'I' for Inactive)
REMARK    1  A    between atoms: C2_2  and  C3_3 
REMARK    2  A    between atoms: C3_3  and  C4_4 
REMARK    3  A    between atoms: C7_7  and  C8_8 
REMARK    4  A    between atoms: C8_8  and  C9_9 
REMARK    5  A    between atoms: C9_9  and  N1_11 
REMARK    6  A    between atoms: N1_11  and  C11_13 
REMARK    7  A    between atoms: C12_16  and  N3_17 
REMARK    8  A    between atoms: C15_22  and  N5_23 
REMARK    9  A    between atoms: C16_25  and  C17_26 
REMARK   10  A    between atoms: C17_26  and  N6_27 
REMARK   11  A    between atoms: C24_36  and  C25_37 
REMARK   12  A    between atoms: C25_37  and  N8_38 
REMARK   13  A    between atoms: C30_44  and  O2_45 
ROOT
HETATM    1  N1  UNL     1       0.274   0.990   0.055  1.00  0.00    -0.198 N 
ATOM      2  H1  UNL     1       0.064   1.949   0.331  1.00  0.00     0.183 HD
ENDROOT
BRANCH   1   3
HETATM    3  C9  UNL     1      -0.895   0.245  -0.154  1.00  0.00     0.004 C 
HETATM    4  C10 UNL     1      -0.941  -0.408  -1.476  1.00  0.00     0.064 C 
BRANCH   3   5
HETATM    5  C8  UNL     1      -1.412  -0.527   1.040  1.00  0.00     0.091 C 
BRANCH   5   6
HETATM    6  C7  UNL     1      -2.836  -0.850   0.794  1.00  0.00    -0.046 A 
HETATM    7  C5  UNL     1      -3.271  -2.030   0.252  1.00  0.00    -0.046 A 
HETATM    8  C4  UNL     1      -4.613  -2.206  -0.099  1.00  0.00    -0.018 A 
HETATM    9  C6  UNL     1      -2.364  -3.164   0.128  1.00  0.00     0.049 C 
HETATM   10  C30 UNL     1      -5.493  -1.168   0.116  1.00  0.00     0.080 A 
HETATM   11  C24 UNL     1      -5.084   0.061   0.676  1.00  0.00     0.004 A 
HETATM   12  C23 UNL     1      -3.766   0.188   1.002  1.00  0.00     0.019 A 
BRANCH   8  13
HETATM   13  C3  UNL     1      -5.043  -3.471  -0.686  1.00  0.00     0.042 C 
BRANCH  13  14
HETATM   14  C2  UNL     1      -5.270  -4.609   0.237  1.00  0.00     0.000 C 
HETATM   15  C1  UNL     1      -5.712  -5.804  -0.626  1.00  0.00     0.005 C 
ENDBRANCH  13  14
ENDBRANCH   8  13
BRANCH  10  16
HETATM   16  O2  UNL     1      -6.829  -1.269  -0.203  1.00  0.00    -0.360 OA
ATOM     17  H2  UNL     1      -7.436  -0.553  -0.055  1.00  0.00     0.217 HD
ENDBRANCH  10  16
BRANCH  11  18
HETATM   18  C25 UNL     1      -6.130   1.093   0.867  1.00  0.00     0.314 C 
BRANCH  18  19
HETATM   19  N8  UNL     1      -5.694   2.334   1.404  1.00  0.00     0.096 N 
HETATM   20  C26 UNL     1      -6.795   3.223   1.720  1.00  0.00     0.299 C 
HETATM   21  C27 UNL     1      -7.564   3.525   0.461  1.00  0.00     0.198 C 
HETATM   22  O1  UNL     1      -6.725   3.827  -0.622  1.00  0.00    -0.388 OA
HETATM   23  C28 UNL     1      -5.483   4.226  -0.079  1.00  0.00     0.198 C 
HETATM   24  C29 UNL     1      -4.780   3.053   0.552  1.00  0.00     0.299 C 
ENDBRANCH  18  19
ENDBRANCH  11  18
ENDBRANCH   5   6
ENDBRANCH   3   5
ENDBRANCH   1   3
BRANCH   1  25
HETATM   25  C11 UNL     1       1.510   0.787  -0.008  1.00  0.00     0.711 A 
HETATM   26  N2  UNL     1       2.102  -0.368  -0.338  1.00  0.00    -0.021 N 
HETATM   27  C12 UNL     1       3.462  -0.498  -0.417  1.00  0.00     0.708 A 
ATOM     28  H2  UNL     1       1.518  -1.180  -0.538  1.00  0.00     0.203 HD
HETATM   29  N4  UNL     1       4.164   0.600  -0.141  1.00  0.00    -0.021 N 
HETATM   30  C15 UNL     1       3.666   1.781   0.195  1.00  0.00     0.711 A 
ATOM     31  H4  UNL     1       5.180   0.525  -0.193  1.00  0.00     0.203 HD
HETATM   32  N7  UNL     1       2.308   1.853   0.257  1.00  0.00    -0.021 N 
ATOM     33  H7  UNL     1       1.874   2.740   0.512  1.00  0.00     0.203 HD
BRANCH  27  34
HETATM   34  N3  UNL     1       4.036  -1.749  -0.780  1.00  0.00    -0.225 N 
HETATM   35  C13 UNL     1       3.219  -2.909  -1.069  1.00  0.00     0.168 C 
HETATM   36  C14 UNL     1       5.474  -1.871  -0.872  1.00  0.00     0.168 C 
ENDBRANCH  27  34
BRANCH  30  37
HETATM   37  N5  UNL     1       4.298   2.796   0.440  1.00  0.00    -0.203 N 
HETATM   38  C16 UNL     1       5.544   3.333   0.531  1.00  0.00     0.109 C 
ATOM     39  H5  UNL     1       3.627   3.531   0.665  1.00  0.00     0.183 HD
BRANCH  38  40
HETATM   40  C17 UNL     1       6.702   2.518   0.990  1.00  0.00     0.317 C 
BRANCH  40  41
HETATM   41  N6  UNL     1       7.075   1.397   0.188  1.00  0.00     0.096 N 
HETATM   42  C18 UNL     1       7.618   1.756  -1.082  1.00  0.00     0.300 C 
HETATM   43  C19 UNL     1       9.099   1.902  -1.108  1.00  0.00    -0.001 C 
HETATM   44  C20 UNL     1       9.774   0.931  -0.515  1.00  0.00    -0.027 C 
HETATM   45  C21 UNL     1       8.932  -0.145   0.077  1.00  0.00     0.057 C 
HETATM   46  C22 UNL     1       7.943   0.557   0.978  1.00  0.00     0.277 C 
ENDBRANCH  40  41
ENDBRANCH  38  40
ENDBRANCH  30  37
ENDBRANCH   1  25
TORSDOF 13
