REMARK  15 active torsions:
REMARK  status: ('A' for Active; 'I' for Inactive)
REMARK    1  A    between atoms: C3_3  and  C4_4 
REMARK    2  A    between atoms: C4_4  and  C5_5 
REMARK    3  A    between atoms: C5_5  and  C6_6 
REMARK    4  A    between atoms: C11_17  and  C12_18 
REMARK    5  A    between atoms: C12_18  and  C13_19 
REMARK    6  A    between atoms: C13_19  and  C14_20 
REMARK    7  A    between atoms: C14_20  and  C15_21 
REMARK    8  A    between atoms: C15_21  and  N3_22 
REMARK    9  A    between atoms: C18_30  and  C19_31 
REMARK   10  A    between atoms: C19_31  and  C20_32 
REMARK   11  A    between atoms: C23_37  and  O4_38 
REMARK   12  A    between atoms: C24_40  and  C25_41 
REMARK   13  A    between atoms: C25_41  and  C26_42 
REMARK   14  A    between atoms: C30_49  and  C31_50 
REMARK   15  A    between atoms: C31_50  and  C32_51 
ROOT
HETATM    1  C1  UNL     1       6.066   7.814  -1.841  1.00  0.00     0.112 C 
HETATM    2  C2  UNL     1       5.737   6.580  -1.138  1.00  0.00    -0.111 C 
HETATM    3  C3  UNL     1       5.447   5.576  -0.563  1.00  0.00    -0.107 C 
ENDROOT
BRANCH   3   4
HETATM    4  C4  UNL     1       5.056   4.320   0.168  1.00  0.00     0.096 C 
BRANCH   4   5
HETATM    5  C5  UNL     1       4.013   3.645  -0.637  1.00  0.00     0.047 C 
BRANCH   5   6
HETATM    6  C6  UNL     1       3.403   2.385  -0.087  1.00  0.00     0.177 C 
HETATM    7  N1  UNL     1       2.421   1.991  -1.106  1.00  0.00    -0.346 N 
HETATM    8  C7  UNL     1       1.049   2.206  -1.056  1.00  0.00     0.240 C 
ATOM      9  H1  UNL     1       2.782   1.513  -1.931  1.00  0.00     0.163 HD
HETATM   10  O1  UNL     1       0.276   1.684  -1.918  1.00  0.00    -0.271 OA
HETATM   11  C8  UNL     1       0.326   3.042  -0.030  1.00  0.00     0.172 C 
HETATM   12  C9  UNL     1       0.295   2.254   1.236  1.00  0.00     0.042 C 
HETATM   13  N2  UNL     1      -0.917   3.569  -0.480  1.00  0.00    -0.346 N 
HETATM   14  C10 UNL     1      -2.004   3.006  -1.132  1.00  0.00     0.241 C 
ATOM     15  H2  UNL     1      -1.032   4.563  -0.283  1.00  0.00     0.163 HD
HETATM   16  O2  UNL     1      -2.276   3.466  -2.312  1.00  0.00    -0.271 OA
HETATM   17  C11 UNL     1      -2.938   1.942  -0.704  1.00  0.00     0.178 C 
HETATM   18  N4  UNL     1      -3.120   0.881  -1.679  1.00  0.00    -0.341 N 
HETATM   19  C16 UNL     1      -3.754   1.125  -2.993  1.00  0.00     0.153 C 
HETATM   20  C17 UNL     1      -2.687  -0.435  -1.381  1.00  0.00     0.243 C 
HETATM   21  O3  UNL     1      -2.185  -1.076  -2.377  1.00  0.00    -0.271 OA
HETATM   22  C18 UNL     1      -2.734  -1.159  -0.115  1.00  0.00     0.176 C 
HETATM   23  N5  UNL     1      -1.561  -1.170   0.696  1.00  0.00    -0.359 N 
HETATM   24  C23 UNL     1      -0.529  -2.065   0.912  1.00  0.00     0.135 C 
ATOM     25  H5  UNL     1      -1.459  -0.317   1.246  1.00  0.00     0.162 HD
HETATM   26  C24 UNL     1       0.546  -2.585   0.066  1.00  0.00     0.159 C 
HETATM   27  N6  UNL     1       1.159  -1.679  -0.852  1.00  0.00    -0.347 N 
HETATM   28  C29 UNL     1       2.537  -1.404  -1.007  1.00  0.00     0.241 C 
ATOM     29  H6  UNL     1       0.527  -1.169  -1.470  1.00  0.00     0.163 HD
HETATM   30  O5  UNL     1       3.072  -1.377  -2.170  1.00  0.00    -0.271 OA
HETATM   31  C30 UNL     1       3.460  -1.129   0.119  1.00  0.00     0.177 C 
HETATM   32  N7  UNL     1       4.346  -0.032  -0.179  1.00  0.00    -0.346 N 
HETATM   33  C35 UNL     1       4.343   1.297   0.226  1.00  0.00     0.241 C 
ATOM     34  H7  UNL     1       5.116  -0.276  -0.801  1.00  0.00     0.163 HD
HETATM   35  O6  UNL     1       5.314   1.660   1.005  1.00  0.00    -0.271 OA
BRANCH  17  36
HETATM   36  C12 UNL     1      -4.335   2.486  -0.461  1.00  0.00     0.035 C 
BRANCH  36  37
HETATM   37  C13 UNL     1      -4.443   3.527   0.582  1.00  0.00     0.004 C 
BRANCH  37  38
HETATM   38  C14 UNL     1      -4.002   3.045   1.946  1.00  0.00     0.027 C 
BRANCH  38  39
HETATM   39  C15 UNL     1      -4.842   1.872   2.416  1.00  0.00     0.229 C 
BRANCH  39  40
HETATM   40  N3  UNL     1      -6.234   2.240   2.506  1.00  0.00    -0.079 N 
ATOM     41  H33 UNL     1      -6.369   3.061   3.096  1.00  0.00     0.274 HD
ATOM     42  H32 UNL     1      -6.580   2.623   1.626  1.00  0.00     0.274 HD
ATOM     43  H31 UNL     1      -6.799   1.451   2.822  1.00  0.00     0.274 HD
ENDBRANCH  39  40
ENDBRANCH  38  39
ENDBRANCH  37  38
ENDBRANCH  36  37
ENDBRANCH  17  36
BRANCH  22  44
HETATM   44  C19 UNL     1      -3.325  -2.528  -0.426  1.00  0.00     0.038 C 
BRANCH  44  45
HETATM   45  C20 UNL     1      -4.735  -2.307  -1.001  1.00  0.00    -0.020 C 
HETATM   46  C21 UNL     1      -5.281  -3.705  -1.296  1.00  0.00     0.009 C 
HETATM   47  C22 UNL     1      -5.651  -1.653  -0.024  1.00  0.00     0.009 C 
ENDBRANCH  44  45
ENDBRANCH  22  44
BRANCH  24  48
HETATM   48  O4  UNL     1      -0.488  -2.561   2.120  1.00  0.00    -0.348 OA
ATOM     49  H4  UNL     1       0.221  -3.176   2.268  1.00  0.00     0.219 HD
ENDBRANCH  24  48
BRANCH  26  50
HETATM   50  C25 UNL     1       0.172  -3.823  -0.736  1.00  0.00     0.037 C 
BRANCH  50  51
HETATM   51  C26 UNL     1      -0.236  -4.985   0.129  1.00  0.00    -0.020 C 
HETATM   52  C27 UNL     1       0.850  -5.414   1.054  1.00  0.00     0.009 C 
HETATM   53  C28 UNL     1      -0.555  -6.132  -0.822  1.00  0.00     0.009 C 
ENDBRANCH  50  51
ENDBRANCH  26  50
BRANCH  31  54
HETATM   54  C31 UNL     1       4.308  -2.416   0.235  1.00  0.00     0.038 C 
BRANCH  54  55
HETATM   55  C32 UNL     1       5.311  -2.320   1.339  1.00  0.00    -0.020 C 
HETATM   56  C33 UNL     1       6.079  -3.625   1.361  1.00  0.00     0.009 C 
HETATM   57  C34 UNL     1       4.633  -2.183   2.684  1.00  0.00     0.009 C 
ENDBRANCH  54  55
ENDBRANCH  31  54
ENDBRANCH   5   6
ENDBRANCH   4   5
ENDBRANCH   3   4
TORSDOF 15
