REMARK  13 active torsions:
REMARK  status: ('A' for Active; 'I' for Inactive)
REMARK    1  A    between atoms: C2_2  and  C4_4 
REMARK    2  A    between atoms: C4_4  and  C5_5 
REMARK    3  A    between atoms: C5_5  and  C6_6 
REMARK    4  A    between atoms: C6_6  and  C7_7 
REMARK    5  A    between atoms: C6_6  and  N1_10 
REMARK    6  A    between atoms: C7_7  and  C8_8 
REMARK    7  A    between atoms: C18_29  and  C19_30 
REMARK    8  A    between atoms: C19_30  and  C20_31 
REMARK    9  A    between atoms: C23_36  and  O4_37 
REMARK   10  A    between atoms: C24_39  and  C25_40 
REMARK   11  A    between atoms: C25_40  and  C26_41 
REMARK   12  A    between atoms: C30_48  and  C31_49 
REMARK   13  A    between atoms: C31_49  and  C32_50 
ROOT
HETATM    1  N1  UNL     1       3.470  -0.114   0.670  1.00  0.00    -0.222 N 
ATOM      2  H1  UNL     1       3.634   0.563   1.415  1.00  0.00     0.178 HD
HETATM    3  C10 UNL     1       2.228  -0.456   0.478  1.00  0.00     0.677 C 
HETATM    4  N2  UNL     1       1.992  -1.398  -0.553  1.00  0.00    -0.158 N 
ATOM      5  H2  UNL     1       2.512  -1.250  -1.418  1.00  0.00     0.187 HD
HETATM    6  C11 UNL     1       1.130  -2.515  -0.537  1.00  0.00     0.258 C 
HETATM    7  O1  UNL     1       0.660  -2.838  -1.704  1.00  0.00    -0.270 OA
HETATM    8  C12 UNL     1       0.664  -3.380   0.535  1.00  0.00     0.173 C 
HETATM    9  C13 UNL     1       1.604  -3.543   1.711  1.00  0.00     0.042 C 
HETATM   10  N3  UNL     1      -0.620  -3.045   1.106  1.00  0.00    -0.343 N 
ATOM     11  H3  UNL     1      -0.654  -2.141   1.578  1.00  0.00     0.163 HD
HETATM   12  C14 UNL     1      -1.814  -3.749   1.118  1.00  0.00     0.264 C 
HETATM   13  O2  UNL     1      -2.313  -4.014   2.288  1.00  0.00    -0.266 OA
HETATM   14  C15 UNL     1      -2.630  -4.256   0.017  1.00  0.00     0.076 C 
HETATM   15  C16 UNL     1      -3.038  -5.719   0.200  1.00  0.00     0.074 C 
HETATM   16  N4  UNL     1      -3.030  -3.662  -1.000  1.00  0.00    -0.324 N 
ATOM     17  H4  UNL     1      -3.571  -4.339  -1.538  1.00  0.00     0.169 HD
HETATM   18  C17 UNL     1      -3.055  -2.516  -1.691  1.00  0.00     0.244 C 
HETATM   19  O3  UNL     1      -2.514  -2.456  -2.856  1.00  0.00    -0.271 OA
HETATM   20  C18 UNL     1      -3.654  -1.155  -1.329  1.00  0.00     0.176 C 
HETATM   21  N5  UNL     1      -2.492  -0.397  -0.914  1.00  0.00    -0.359 N 
ATOM     22  H5  UNL     1      -2.203  -0.626   0.037  1.00  0.00     0.162 HD
HETATM   23  C23 UNL     1      -1.682   0.557  -1.489  1.00  0.00     0.135 C 
HETATM   24  C24 UNL     1      -1.735   2.038  -1.531  1.00  0.00     0.159 C 
HETATM   25  N6  UNL     1      -0.542   2.590  -0.850  1.00  0.00    -0.347 N 
ATOM     26  H6  UNL     1      -0.402   3.593  -0.970  1.00  0.00     0.163 HD
HETATM   27  C29 UNL     1       0.409   1.956  -0.079  1.00  0.00     0.242 C 
HETATM   28  O5  UNL     1       1.632   2.057  -0.501  1.00  0.00    -0.271 OA
HETATM   29  C30 UNL     1       0.305   1.170   1.158  1.00  0.00     0.197 C 
HETATM   30  N9  UNL     1       1.317   0.171   1.350  1.00  0.00    -0.213 N 
ATOM     31  H9  UNL     1       1.392  -0.151   2.315  1.00  0.00     0.178 HD
ENDROOT
BRANCH   1  32
HETATM   32  C6  UNL     1       4.636  -0.566  -0.031  1.00  0.00     0.099 C 
BRANCH  32  33
HETATM   33  C5  UNL     1       5.071  -1.877   0.573  1.00  0.00     0.030 C 
BRANCH  33  34
HETATM   34  C4  UNL     1       6.386  -2.399   0.145  1.00  0.00     0.035 C 
BRANCH  34  35
HETATM   35  C2  UNL     1       6.446  -2.742  -1.282  1.00  0.00    -0.093 C 
HETATM   36  C1  UNL     1       5.392  -2.873  -2.047  1.00  0.00     0.014 C 
HETATM   37  C3  UNL     1       7.829  -2.911  -1.880  1.00  0.00     0.042 C 
ENDBRANCH  34  35
ENDBRANCH  33  34
ENDBRANCH  32  33
BRANCH  32  38
HETATM   38  C7  UNL     1       5.721   0.483   0.341  1.00  0.00     0.025 C 
BRANCH  38  39
HETATM   39  C8  UNL     1       5.348   1.845  -0.230  1.00  0.00    -0.002 C 
HETATM   40  C9  UNL     1       6.472   2.779   0.191  1.00  0.00     0.005 C 
ENDBRANCH  38  39
ENDBRANCH  32  38
ENDBRANCH   1  32
BRANCH  29  41
HETATM   41  C31 UNL     1       0.383   2.067   2.403  1.00  0.00     0.093 C 
BRANCH  41  42
HETATM   42  C32 UNL     1      -0.666   3.076   2.512  1.00  0.00     0.028 A 
HETATM   43  C33 UNL     1      -1.905   2.863   3.133  1.00  0.00     0.114 A 
HETATM   44  N7  UNL     1      -2.622   3.996   3.096  1.00  0.00    -0.360 N 
HETATM   45  C34 UNL     1      -1.878   4.920   2.471  1.00  0.00     0.180 A 
ATOM     46  H7  UNL     1      -3.560   4.130   3.474  1.00  0.00     0.166 HD
HETATM   47  N8  UNL     1      -0.707   4.359   2.124  1.00  0.00    -0.354 N 
ATOM     48  H8  UNL     1       0.046   4.842   1.634  1.00  0.00     0.166 HD
ENDBRANCH  41  42
ENDBRANCH  29  41
BRANCH  24  49
HETATM   49  C25 UNL     1      -2.995   2.658  -1.053  1.00  0.00     0.037 C 
BRANCH  49  50
HETATM   50  C26 UNL     1      -2.921   4.163  -1.186  1.00  0.00    -0.020 C 
HETATM   51  C27 UNL     1      -2.718   4.456  -2.677  1.00  0.00     0.009 C 
HETATM   52  C28 UNL     1      -4.297   4.708  -0.782  1.00  0.00     0.009 C 
ENDBRANCH  49  50
ENDBRANCH  24  49
BRANCH  23  53
HETATM   53  O4  UNL     1      -0.608   0.209  -2.165  1.00  0.00    -0.348 OA
ATOM     54  H4  UNL     1      -0.049   0.867  -2.562  1.00  0.00     0.219 HD
ENDBRANCH  23  53
BRANCH  20  55
HETATM   55  C19 UNL     1      -4.672  -1.356  -0.239  1.00  0.00     0.038 C 
BRANCH  55  56
HETATM   56  C20 UNL     1      -5.389  -0.117   0.208  1.00  0.00    -0.020 C 
HETATM   57  C21 UNL     1      -6.157   0.467  -0.972  1.00  0.00     0.009 C 
HETATM   58  C22 UNL     1      -6.466  -0.564   1.205  1.00  0.00     0.009 C 
ENDBRANCH  55  56
ENDBRANCH  20  55
TORSDOF 13
