REMARK  13 active torsions:
REMARK  status: ('A' for Active; 'I' for Inactive)
REMARK    1  A    between atoms: C2_2  and  C3_3 
REMARK    2  A    between atoms: C3_3  and  C4_4 
REMARK    3  A    between atoms: C6_9  and  C7_10 
REMARK    4  A    between atoms: C7_10  and  C8_11 
REMARK    5  A    between atoms: C17_23  and  C18_24 
REMARK    6  A    between atoms: C18_24  and  C19_25 
REMARK    7  A    between atoms: C23_32  and  C24_33 
REMARK    8  A    between atoms: C24_33  and  C25_34 
REMARK    9  A    between atoms: C25_34  and  C26_35 
REMARK   10  A    between atoms: C26_35  and  N4_36 
REMARK   11  A    between atoms: C29_43  and  O4_44 
REMARK   12  A    between atoms: C30_46  and  C31_47 
REMARK   13  A    between atoms: C31_47  and  C33_49 
ROOT
HETATM    1  C4  UNL     1      -1.229   2.789   0.882  1.00  0.00     0.177 C 
HETATM    2  N1  UNL     1      -2.524   2.216   1.127  1.00  0.00    -0.346 N 
ATOM      3  H1  UNL     1      -3.075   2.663   1.860  1.00  0.00     0.163 HD
HETATM    4  C5  UNL     1      -3.132   1.120   0.489  1.00  0.00     0.244 C 
HETATM    5  O1  UNL     1      -4.360   1.308   0.137  1.00  0.00    -0.271 OA
HETATM    6  C6  UNL     1      -2.452  -0.158   0.224  1.00  0.00     0.200 C 
HETATM    7  N2  UNL     1      -2.694  -0.622  -1.141  1.00  0.00    -0.343 N 
ATOM      8  H2  UNL     1      -3.571  -1.127  -1.268  1.00  0.00     0.163 HD
HETATM    9  C16 UNL     1      -1.942  -0.493  -2.277  1.00  0.00     0.241 C 
HETATM   10  O2  UNL     1      -2.421   0.184  -3.264  1.00  0.00    -0.271 OA
HETATM   11  C17 UNL     1      -0.568  -1.045  -2.584  1.00  0.00     0.177 C 
HETATM   12  N3  UNL     1       0.030  -1.649  -1.441  1.00  0.00    -0.343 N 
ATOM     13  H3  UNL     1      -0.461  -2.462  -1.070  1.00  0.00     0.163 HD
HETATM   14  C22 UNL     1       1.206  -1.284  -0.747  1.00  0.00     0.265 C 
HETATM   15  O3  UNL     1       1.096  -1.533   0.516  1.00  0.00    -0.266 OA
HETATM   16  C23 UNL     1       2.436  -0.719  -1.183  1.00  0.00     0.081 C 
HETATM   17  N7  UNL     1       2.642   0.603  -1.617  1.00  0.00    -0.329 N 
HETATM   18  C28 UNL     1       3.683   0.647  -2.712  1.00  0.00     0.158 C 
HETATM   19  C29 UNL     1       2.132   1.867  -1.289  1.00  0.00     0.166 C 
HETATM   20  C30 UNL     1       1.773   2.606  -0.113  1.00  0.00     0.067 C 
HETATM   21  N8  UNL     1       1.170   1.888   0.995  1.00  0.00    -0.325 N 
ATOM     22  H8  UNL     1       1.725   1.141   1.412  1.00  0.00     0.169 HD
HETATM   23  C35 UNL     1      -0.112   2.118   1.559  1.00  0.00     0.244 C 
HETATM   24  O5  UNL     1      -0.368   1.728   2.756  1.00  0.00    -0.271 OA
ENDROOT
BRANCH   6  25
HETATM   25  C7  UNL     1      -2.578  -1.248   1.189  1.00  0.00     0.019 C 
BRANCH  25  26
HETATM   26  C8  UNL     1      -3.854  -1.808   1.547  1.00  0.00    -0.032 A 
HETATM   27  C9  UNL     1      -4.302  -2.931   0.841  1.00  0.00     0.012 A 
HETATM   28  C10 UNL     1      -5.517  -3.525   1.063  1.00  0.00     0.007 A 
HETATM   29  C11 UNL     1      -6.369  -3.022   2.020  1.00  0.00    -0.061 A 
HETATM   30  C12 UNL     1      -7.702  -3.634   2.297  1.00  0.00     0.048 C 
HETATM   31  C13 UNL     1      -5.960  -1.923   2.730  1.00  0.00     0.014 A 
HETATM   32  C14 UNL     1      -4.717  -1.321   2.500  1.00  0.00    -0.051 A 
HETATM   33  C15 UNL     1      -4.357  -0.169   3.365  1.00  0.00     0.049 C 
ENDBRANCH  25  26
ENDBRANCH   6  25
BRANCH   1  34
HETATM   34  C3  UNL     1      -1.257   4.239   1.396  1.00  0.00     0.034 C 
BRANCH  34  35
HETATM   35  C2  UNL     1      -2.367   4.914   0.587  1.00  0.00    -0.002 C 
HETATM   36  C1  UNL     1      -2.519   6.365   0.987  1.00  0.00     0.005 C 
ENDBRANCH  34  35
ENDBRANCH   1  34
BRANCH  11  37
HETATM   37  C18 UNL     1      -0.845  -2.200  -3.569  1.00  0.00     0.038 C 
BRANCH  37  38
HETATM   38  C19 UNL     1       0.440  -2.861  -3.988  1.00  0.00    -0.020 C 
HETATM   39  C20 UNL     1       0.052  -4.005  -4.942  1.00  0.00     0.009 C 
HETATM   40  C21 UNL     1       1.316  -1.899  -4.782  1.00  0.00     0.009 C 
ENDBRANCH  37  38
ENDBRANCH  11  37
BRANCH  20  41
HETATM   41  C31 UNL     1       2.630   3.661   0.464  1.00  0.00     0.036 C 
HETATM   42  C32 UNL     1       2.892   4.810  -0.542  1.00  0.00     0.016 C 
BRANCH  41  43
HETATM   43  C33 UNL     1       3.887   3.394   1.146  1.00  0.00     0.006 C 
HETATM   44  C34 UNL     1       4.923   2.729   0.284  1.00  0.00     0.006 C 
ENDBRANCH  41  43
ENDBRANCH  20  41
BRANCH  16  45
HETATM   45  C24 UNL     1       3.611  -1.039  -0.220  1.00  0.00     0.065 C 
BRANCH  45  46
HETATM   46  C25 UNL     1       3.811  -2.531  -0.128  1.00  0.00     0.026 C 
BRANCH  46  47
HETATM   47  C26 UNL     1       4.951  -2.839   0.805  1.00  0.00     0.122 C 
BRANCH  47  48
HETATM   48  N4  UNL     1       4.796  -2.375   2.138  1.00  0.00    -0.367 N 
HETATM   49  C27 UNL     1       3.931  -2.819   2.962  1.00  0.00     0.196 C 
HETATM   50  N5  UNL     1       3.048  -3.849   2.548  1.00  0.00    -0.067 NA
HETATM   51  N6  UNL     1       3.905  -2.249   4.269  1.00  0.00    -0.067 NA
ATOM     52  H4  UNL     1       5.420  -1.635   2.458  1.00  0.00     0.161 HD
ENDBRANCH  47  48
ENDBRANCH  46  47
ENDBRANCH  45  46
ENDBRANCH  16  45
BRANCH  19  53
HETATM   53  O4  UNL     1       1.930   2.557  -2.397  1.00  0.00    -0.344 OA
ATOM     54  H4  UNL     1       1.584   3.414  -2.175  1.00  0.00     0.219 HD
ENDBRANCH  19  53
TORSDOF 13
