REMARK  1 active torsions:
REMARK  status: ('A' for Active; 'I' for Inactive)
REMARK    1  A    between atoms: C1_2  and  C2_4 
ROOT
HETATM    1  C2  UNL     1       1.207   0.095  -0.736  1.00  0.00     0.192 C 
HETATM    2  C3  UNL     1       1.808  -1.183  -1.255  1.00  0.00     0.122 C 
HETATM    3  S1  UNL     1       0.548  -2.306  -1.928  1.00  0.00    -0.093 SA
HETATM    4  S2  UNL     1      -0.844  -2.478  -0.297  1.00  0.00    -0.072 SA
HETATM    5  C4  UNL     1      -0.630  -0.857   0.551  1.00  0.00     0.153 C 
HETATM    6  C5  UNL     1      -2.031  -0.346   0.853  1.00  0.00     0.038 C 
HETATM    7  C6  UNL     1      -2.229   0.900   0.039  1.00  0.00     0.022 C 
HETATM    8  C7  UNL     1      -0.786   1.303  -0.299  1.00  0.00     0.119 C 
HETATM    9  N1  UNL     1      -0.157   0.044  -0.429  1.00  0.00    -0.385 N 
ENDROOT
BRANCH   1  10
HETATM   10  C1  UNL     1       2.093   0.581   0.351  1.00  0.00     0.197 C 
HETATM   11  O1  UNL     1       3.336   0.685   0.229  1.00  0.00    -0.646 OA
HETATM   12  O2  UNL     1       1.519   0.936   1.554  1.00  0.00    -0.646 OA
ENDBRANCH   1  10
TORSDOF 1
