REMARK  2 active torsions:
REMARK  status: ('A' for Active; 'I' for Inactive)
REMARK    1  A    between atoms: O1_1  and  C1_3 
REMARK    2  A    between atoms: C1_3  and  C2_4 
ROOT
HETATM    1  C1  UNL     1      -0.451   0.104   0.356  1.00  0.00     0.122 C 
HETATM    2  C8  UNL     1      -0.848   1.375  -0.398  1.00  0.00     0.072 C 
HETATM    3  C9  UNL     1      -2.278   1.474  -0.765  1.00  0.00     0.171 C 
HETATM    4  O2  UNL     1      -2.969   0.294  -0.784  1.00  0.00    -0.388 OA
HETATM    5  C10 UNL     1      -2.766  -0.404   0.427  1.00  0.00     0.211 C 
HETATM    6  C11 UNL     1      -1.373  -1.024   0.209  1.00  0.00     0.138 A 
HETATM    7  C12 UNL     1      -1.173  -2.407   0.437  1.00  0.00     0.213 A 
HETATM    8  O3  UNL     1      -1.392  -1.880  -0.850  1.00  0.00    -0.369 OA
ENDROOT
BRANCH   1   9
HETATM    9  O1  UNL     1      -0.537   0.489   1.734  1.00  0.00    -0.382 OA
ATOM     10  H1  UNL     1      -1.466   0.586   1.910  1.00  0.00     0.211 HD
ENDBRANCH   1   9
BRANCH   1  11
HETATM   11  C2  UNL     1       0.982  -0.045   0.085  1.00  0.00    -0.021 A 
HETATM   12  C3  UNL     1       1.841   0.881   0.668  1.00  0.00     0.010 A 
HETATM   13  C4  UNL     1       3.201   0.883   0.429  1.00  0.00     0.001 A 
HETATM   14  C5  UNL     1       3.758  -0.049  -0.416  1.00  0.00     0.000 A 
HETATM   15  C6  UNL     1       2.943  -0.974  -1.012  1.00  0.00     0.001 A 
HETATM   16  C7  UNL     1       1.564  -0.958  -0.749  1.00  0.00     0.010 A 
ENDBRANCH   1  11
TORSDOF 2
