REMARK  8 active torsions:
REMARK  status: ('A' for Active; 'I' for Inactive)
REMARK    1  A    between atoms: N1_6  and  C6_7 
REMARK    2  A    between atoms: C7_10  and  N3_11 
REMARK    3  A    between atoms: C12_22  and  C13_23 
REMARK    4  A    between atoms: C13_23  and  C14_24 
REMARK    5  A    between atoms: C14_24  and  C17_27 
REMARK    6  A    between atoms: C17_27  and  N6_28 
REMARK    7  A    between atoms: N6_28  and  C19_30 
REMARK    8  A    between atoms: C19_30  and  C20_31 
ROOT
HETATM    1  C6  UNL     1      -2.841   0.323  -0.365  1.00  0.00     0.150 A 
HETATM    2  N2  UNL     1      -3.620   1.443  -0.284  1.00  0.00    -0.174 N 
ATOM      3  H2  UNL     1      -4.618   1.324  -0.109  1.00  0.00     0.186 HD
HETATM    4  C7  UNL     1      -3.148   2.685  -0.421  1.00  0.00     0.683 A 
HETATM    5  N4  UNL     1      -1.838   2.830  -0.650  1.00  0.00    -0.174 N 
ATOM      6  H4  UNL     1      -1.443   3.764  -0.759  1.00  0.00     0.186 HD
HETATM    7  C11 UNL     1      -1.025   1.732  -0.739  1.00  0.00     0.153 A 
HETATM    8  N5  UNL     1       0.288   1.609  -0.972  1.00  0.00    -0.330 N 
ATOM      9  H5  UNL     1       0.922   2.394  -1.118  1.00  0.00     0.168 HD
HETATM   10  C12 UNL     1       0.664   0.315  -0.989  1.00  0.00     0.086 A 
HETATM   11  N7  UNL     1      -0.462  -0.382  -0.757  1.00  0.00    -0.335 N 
HETATM   12  C22 UNL     1      -0.553  -1.851  -0.720  1.00  0.00     0.158 C 
HETATM   13  C23 UNL     1      -1.514   0.444  -0.597  1.00  0.00     0.125 A 
ENDROOT
BRANCH  10  14
HETATM   14  C13 UNL     1       2.029  -0.132  -1.246  1.00  0.00     0.087 C 
BRANCH  14  15
HETATM   15  C14 UNL     1       2.912  -0.172   0.017  1.00  0.00    -0.015 C 
HETATM   16  C15 UNL     1       2.376  -1.087   1.039  1.00  0.00     0.017 C 
HETATM   17  C16 UNL     1       2.797   1.252   0.641  1.00  0.00     0.017 C 
BRANCH  15  18
HETATM   18  C17 UNL     1       4.295  -0.329  -0.472  1.00  0.00     0.281 C 
BRANCH  18  19
HETATM   19  N6  UNL     1       5.370  -0.400   0.449  1.00  0.00     0.090 N 
HETATM   20  C18 UNL     1       5.395  -1.674   1.107  1.00  0.00     0.310 C 
BRANCH  19  21
HETATM   21  C19 UNL     1       6.601  -0.125  -0.227  1.00  0.00     0.349 C 
BRANCH  21  22
HETATM   22  C20 UNL     1       7.806   0.096   0.600  1.00  0.00     0.266 C 
HETATM   23  C21 UNL     1       8.956   0.369  -0.395  1.00  0.00     0.092 C 
HETATM   24  F3  UNL     1       8.174  -0.980   1.359  1.00  0.00    -0.205 F 
HETATM   25  F4  UNL     1       7.688   1.232   1.402  1.00  0.00    -0.205 F 
ENDBRANCH  21  22
ENDBRANCH  19  21
ENDBRANCH  18  19
ENDBRANCH  15  18
ENDBRANCH  14  15
ENDBRANCH  10  14
BRANCH   1  26
HETATM   26  N1  UNL     1      -3.496  -0.897  -0.152  1.00  0.00    -0.360 N 
HETATM   27  C4  UNL     1      -3.531  -1.648   1.071  1.00  0.00     0.082 C 
HETATM   28  C3  UNL     1      -4.251  -2.936   0.784  1.00  0.00     0.031 C 
HETATM   29  C5  UNL     1      -4.454  -0.888   2.066  1.00  0.00     0.032 C 
HETATM   30  C2  UNL     1      -4.263  -3.002  -0.719  1.00  0.00     0.001 C 
HETATM   31  C1  UNL     1      -5.496  -3.710  -1.255  1.00  0.00     0.011 C 
HETATM   32  C24 UNL     1      -4.296  -1.580  -1.143  1.00  0.00     0.129 C 
ENDBRANCH   1  26
BRANCH   4  33
HETATM   33  N3  UNL     1      -4.021   3.822  -0.334  1.00  0.00    -0.206 N 
HETATM   34  C8  UNL     1      -5.472   3.943  -0.246  1.00  0.00     0.222 C 
HETATM   35  C9  UNL     1      -5.283   5.378   0.198  1.00  0.00     0.276 C 
HETATM   36  F1  UNL     1      -5.439   5.568   1.551  1.00  0.00    -0.203 F 
HETATM   37  F2  UNL     1      -5.957   6.287  -0.602  1.00  0.00    -0.203 F 
HETATM   38  C10 UNL     1      -3.856   5.261  -0.292  1.00  0.00     0.222 C 
ENDBRANCH   4  33
TORSDOF 8
