REMARK  9 active torsions:
REMARK  status: ('A' for Active; 'I' for Inactive)
REMARK    1  A    between atoms: C2_2  and  O2_4 
REMARK    2  A    between atoms: O2_4  and  C3_5 
REMARK    3  A    between atoms: C5_7  and  C6_8 
REMARK    4  A    between atoms: C6_8  and  O3_9 
REMARK    5  A    between atoms: O3_9  and  C7_10 
REMARK    6  A    between atoms: N1_19  and  S1_20 
REMARK    7  A    between atoms: S1_20  and  C14_22 
REMARK    8  A    between atoms: C15_25  and  O5_26 
REMARK    9  A    between atoms: O5_26  and  C16_27 
ROOT
HETATM    1  C3  UNL     1      -1.595   0.354  -1.144  1.00  0.00     0.182 C 
HETATM    2  C4  UNL     1      -0.287   0.067  -1.805  1.00  0.00     0.045 C 
HETATM    3  C5  UNL     1       0.860  -0.118  -0.846  1.00  0.00     0.031 C 
HETATM    4  C13 UNL     1       0.525  -1.017   0.311  1.00  0.00     0.142 C 
HETATM    5  N1  UNL     1      -0.868  -1.281   0.461  1.00  0.00    -0.299 N 
HETATM    6  C15 UNL     1      -1.718  -0.155   0.255  1.00  0.00     0.270 C 
ENDROOT
BRANCH   3   7
HETATM    7  C6  UNL     1       1.390   1.207  -0.349  1.00  0.00     0.182 C 
BRANCH   7   8
HETATM    8  O3  UNL     1       2.433   1.138   0.532  1.00  0.00    -0.351 OA
BRANCH   8   9
HETATM    9  C7  UNL     1       3.707   0.691   0.504  1.00  0.00     0.070 A 
HETATM   10  C8  UNL     1       4.426   0.811   1.713  1.00  0.00     0.038 A 
HETATM   11  C9  UNL     1       5.705   0.393   1.775  1.00  0.00     0.028 A 
HETATM   12  C10 UNL     1       6.376  -0.160   0.705  1.00  0.00     0.056 A 
HETATM   13 CL1  UNL     1       8.042  -0.695   0.823  1.00  0.00    -0.083 Cl
HETATM   14  C11 UNL     1       5.649  -0.264  -0.461  1.00  0.00     0.058 A 
HETATM   15 CL2  UNL     1       6.422  -0.956  -1.875  1.00  0.00    -0.082 Cl
HETATM   16  C12 UNL     1       4.341   0.149  -0.576  1.00  0.00     0.062 A 
ENDBRANCH   8   9
ENDBRANCH   7   8
ENDBRANCH   3   7
BRANCH   1  17
HETATM   17  O2  UNL     1      -1.789   1.756  -1.164  1.00  0.00    -0.312 OA
BRANCH  17  18
HETATM   18  C2  UNL     1      -2.842   2.359  -1.793  1.00  0.00     0.255 C 
HETATM   19  C1  UNL     1      -2.970   3.831  -1.766  1.00  0.00     0.126 C 
HETATM   20  O1  UNL     1      -3.686   1.633  -2.387  1.00  0.00    -0.266 OA
ENDBRANCH  17  18
ENDBRANCH   1  17
BRANCH   5  21
HETATM   21  S1  UNL     1      -1.407  -2.730  -0.245  1.00  0.00     0.148 S 
HETATM   22  O4  UNL     1      -0.218  -3.451  -1.222  1.00  0.00    -0.233 OA
BRANCH  21  23
HETATM   23  C14 UNL     1      -1.785  -3.952   1.019  1.00  0.00     0.292 C 
HETATM   24 CL3  UNL     1      -0.312  -4.298   1.990  1.00  0.00    -0.092 Cl
HETATM   25 CL4  UNL     1      -2.239  -5.481   0.236  1.00  0.00    -0.092 Cl
ENDBRANCH  21  23
ENDBRANCH   5  21
BRANCH   6  26
HETATM   26  O5  UNL     1      -3.045  -0.542   0.532  1.00  0.00    -0.292 OA
BRANCH  26  27
HETATM   27  C16 UNL     1      -3.837  -0.013   1.513  1.00  0.00     0.256 C 
HETATM   28  C17 UNL     1      -5.238  -0.443   1.783  1.00  0.00     0.126 C 
HETATM   29  O6  UNL     1      -3.366   0.897   2.242  1.00  0.00    -0.266 OA
ENDBRANCH  26  27
ENDBRANCH   6  26
TORSDOF 9
