REMARK  9 active torsions:
REMARK  status: ('A' for Active; 'I' for Inactive)
REMARK    1  A    between atoms: O1_2  and  C2_3 
REMARK    2  A    between atoms: C2_3  and  C4_5 
REMARK    3  A    between atoms: C2_3  and  C24_35 
REMARK    4  A    between atoms: C4_5  and  N1_6 
REMARK    5  A    between atoms: N2_9  and  C7_10 
REMARK    6  A    between atoms: N3_12  and  C9_13 
REMARK    7  A    between atoms: C12_20  and  C13_21 
REMARK    8  A    between atoms: C13_21  and  C16_24 
REMARK    9  A    between atoms: C16_24  and  C17_25 
ROOT
HETATM    1  C7  UNL     1       1.296  -0.868   0.540  1.00  0.00     0.276 C 
HETATM    2  C8  UNL     1       0.217  -1.490  -0.322  1.00  0.00     0.180 C 
HETATM    3  N3  UNL     1      -0.951  -1.176   0.519  1.00  0.00    -0.213 N 
HETATM    4  C20 UNL     1      -0.602  -1.632   1.823  1.00  0.00     0.180 C 
HETATM    5  C21 UNL     1       0.940  -1.494   1.892  1.00  0.00     0.223 C 
HETATM    6  F1  UNL     1       1.340  -0.723   2.942  1.00  0.00    -0.245 F 
ENDROOT
BRANCH   3   7
HETATM    7  C9  UNL     1      -2.099  -0.526   0.050  1.00  0.00     0.683 A 
HETATM    8  N4  UNL     1      -1.993   0.467  -0.892  1.00  0.00    -0.181 N 
HETATM    9  C10 UNL     1      -3.090   1.067  -1.367  1.00  0.00     0.094 A 
ATOM     10  H4  UNL     1      -1.073   0.749  -1.231  1.00  0.00     0.185 HD
HETATM   11  C11 UNL     1      -3.003   2.172  -2.388  1.00  0.00     0.089 C 
HETATM   12  N5  UNL     1      -4.272   0.669  -0.899  1.00  0.00    -0.334 N 
HETATM   13  C12 UNL     1      -4.487  -0.274   0.004  1.00  0.00     0.106 A 
ATOM     14  H5  UNL     1      -5.095   1.139  -1.275  1.00  0.00     0.168 HD
HETATM   15  N6  UNL     1      -3.315  -0.857   0.459  1.00  0.00    -0.180 N 
ATOM     16  H6  UNL     1      -3.394  -1.594   1.159  1.00  0.00     0.185 HD
BRANCH  13  17
HETATM   17  C13 UNL     1      -5.728  -0.776   0.549  1.00  0.00     0.012 C 
HETATM   18  C14 UNL     1      -5.370  -1.464   1.914  1.00  0.00     0.023 C 
HETATM   19  C15 UNL     1      -6.072  -2.036  -0.314  1.00  0.00     0.023 C 
BRANCH  17  20
HETATM   20  C16 UNL     1      -6.914  -0.002   0.823  1.00  0.00     0.020 C 
BRANCH  20  21
HETATM   21  C17 UNL     1      -7.763   0.717  -0.116  1.00  0.00    -0.022 C 
HETATM   22  C18 UNL     1      -7.140   1.825  -0.888  1.00  0.00     0.009 C 
HETATM   23  C19 UNL     1      -8.941   1.380   0.656  1.00  0.00     0.009 C 
ENDBRANCH  20  21
ENDBRANCH  17  20
ENDBRANCH  13  17
ENDBRANCH   3   7
BRANCH   1  24
HETATM   24  N2  UNL     1       2.616  -1.243   0.111  1.00  0.00     0.101 N 
HETATM   25  C6  UNL     1       2.865  -0.782  -1.239  1.00  0.00     0.303 C 
HETATM   26  C5  UNL     1       3.838   0.342  -1.303  1.00  0.00     0.302 C 
HETATM   27  N1  UNL     1       5.170  -0.078  -0.805  1.00  0.00     0.095 N 
HETATM   28  C23 UNL     1       4.983  -0.968   0.310  1.00  0.00     0.302 C 
HETATM   29  C22 UNL     1       3.637  -0.630   0.957  1.00  0.00     0.303 C 
BRANCH  27  30
HETATM   30  C4  UNL     1       5.894   1.100  -0.449  1.00  0.00     0.319 C 
BRANCH  30  31
HETATM   31  C2  UNL     1       7.345   1.018  -0.163  1.00  0.00     0.180 C 
HETATM   32  C3  UNL     1       7.754   0.582   1.204  1.00  0.00     0.057 C 
BRANCH  31  33
HETATM   33  O1  UNL     1       8.095   0.526  -1.192  1.00  0.00    -0.374 OA
HETATM   34  C1  UNL     1       8.204  -0.813  -1.361  1.00  0.00     0.203 C 
ENDBRANCH  31  33
BRANCH  31  35
HETATM   35  C24 UNL     1       7.777   2.563  -0.163  1.00  0.00     0.419 C 
HETATM   36  F2  UNL     1       7.091   3.203   0.841  1.00  0.00    -0.168 F 
HETATM   37  F3  UNL     1       9.114   2.579   0.081  1.00  0.00    -0.168 F 
HETATM   38  F4  UNL     1       7.403   3.033  -1.386  1.00  0.00    -0.168 F 
ENDBRANCH  31  35
ENDBRANCH  30  31
ENDBRANCH  27  30
ENDBRANCH   1  24
TORSDOF 9
