REMARK  8 active torsions:
REMARK  status: ('A' for Active; 'I' for Inactive)
REMARK    1  A    between atoms: C4_4  and  N1_5 
REMARK    2  A    between atoms: C9_13  and  N3_14 
REMARK    3  A    between atoms: C12_17  and  C13_18 
REMARK       I    between atoms: C13_18  and  N4_20 
REMARK    4  A    between atoms: N4_20  and  C14_21 
REMARK    5  A    between atoms: N4_20  and  C20_31 
REMARK    6  A    between atoms: C14_21  and  C15_22 
REMARK    7  A    between atoms: C15_22  and  C16_25 
REMARK    8  A    between atoms: C16_25  and  C19_28 
ROOT
HETATM    1  N3  UNL     1       1.871  -0.403   0.517  1.00  0.00    -0.217 N 
HETATM    2  C10 UNL     1       0.935  -1.046   1.415  1.00  0.00     0.142 C 
HETATM    3  C11 UNL     1      -0.310  -0.161   1.573  1.00  0.00     0.034 C 
HETATM    4  C12 UNL     1      -0.863   0.001   0.198  1.00  0.00     0.081 C 
HETATM    5  C23 UNL     1       0.082   0.933  -0.546  1.00  0.00     0.034 C 
HETATM    6  C24 UNL     1       1.364   0.123  -0.738  1.00  0.00     0.142 C 
ENDROOT
BRANCH   4   7
HETATM    7  C13 UNL     1      -2.254   0.407   0.086  1.00  0.00     0.224 C 
HETATM    8  O2  UNL     1      -2.489   1.642  -0.169  1.00  0.00    -0.273 OA
HETATM    9  N4  UNL     1      -3.417  -0.441   0.236  1.00  0.00    -0.342 N 
BRANCH   9  10
HETATM   10  C14 UNL     1      -4.696   0.219   0.085  1.00  0.00     0.206 C 
BRANCH  10  11
HETATM   11  C15 UNL     1      -5.266   0.343  -1.258  1.00  0.00     0.271 C 
HETATM   12  F1  UNL     1      -5.474  -0.929  -1.812  1.00  0.00    -0.203 F 
HETATM   13  F2  UNL     1      -4.411   1.043  -2.136  1.00  0.00    -0.203 F 
BRANCH  11  14
HETATM   14  C16 UNL     1      -6.574   1.069  -1.384  1.00  0.00     0.079 C 
HETATM   15  C17 UNL     1      -7.694   0.455  -0.592  1.00  0.00     0.027 C 
HETATM   16  C18 UNL     1      -6.987   0.888  -2.865  1.00  0.00     0.027 C 
BRANCH  14  17
HETATM   17  C19 UNL     1      -6.551   2.538  -1.155  1.00  0.00     0.366 C 
HETATM   18  F3  UNL     1      -6.138   2.930   0.093  1.00  0.00    -0.213 F 
HETATM   19  F4  UNL     1      -5.646   3.113  -2.053  1.00  0.00    -0.213 F 
ENDBRANCH  14  17
ENDBRANCH  11  14
ENDBRANCH  10  11
ENDBRANCH   9  10
BRANCH   9  20
HETATM   20  C20 UNL     1      -3.192  -1.786   0.598  1.00  0.00     0.079 C 
HETATM   21  C21 UNL     1      -3.803  -2.203   1.911  1.00  0.00     0.032 C 
HETATM   22  C22 UNL     1      -3.560  -2.868  -0.390  1.00  0.00     0.032 C 
ENDBRANCH   9  20
ENDBRANCH   4   7
BRANCH   1  23
HETATM   23  C9  UNL     1       3.236  -0.307   0.887  1.00  0.00     0.682 A 
HETATM   24  N2  UNL     1       4.168   0.234   0.096  1.00  0.00    -0.177 N 
HETATM   25  C4  UNL     1       5.475   0.321   0.466  1.00  0.00     0.121 A 
ATOM     26  H2  UNL     1       3.890   0.594  -0.817  1.00  0.00     0.186 HD
HETATM   27  C3  UNL     1       5.835  -0.168   1.696  1.00  0.00     0.074 A 
HETATM   28  C2  UNL     1       4.874  -0.732   2.526  1.00  0.00     0.026 A 
HETATM   29  C1  UNL     1       5.283  -1.259   3.863  1.00  0.00     0.069 C 
HETATM   30  N5  UNL     1       3.608  -0.779   2.087  1.00  0.00    -0.196 N 
ATOM     31  H5  UNL     1       2.897  -1.191   2.691  1.00  0.00     0.184 HD
BRANCH  25  32
HETATM   32  N1  UNL     1       6.428   0.902  -0.401  1.00  0.00    -0.363 N 
HETATM   33  C5  UNL     1       7.799   1.114  -0.062  1.00  0.00     0.150 C 
HETATM   34  C6  UNL     1       8.637   0.532  -1.195  1.00  0.00     0.187 C 
HETATM   35  O1  UNL     1       7.868  -0.176  -2.092  1.00  0.00    -0.388 OA
HETATM   36  C7  UNL     1       6.894   0.595  -2.721  1.00  0.00     0.187 C 
HETATM   37  C8  UNL     1       6.000   1.310  -1.726  1.00  0.00     0.150 C 
ENDBRANCH  25  32
ENDBRANCH   1  23
TORSDOF 8
