REMARK  7 active torsions:
REMARK  status: ('A' for Active; 'I' for Inactive)
REMARK    1  A    between atoms: C2_2  and  C4_4 
REMARK    2  A    between atoms: C5_5  and  C6_6 
REMARK    3  A    between atoms: C6_6  and  O1_7 
REMARK    4  A    between atoms: O1_7  and  C7_8 
REMARK    5  A    between atoms: C8_11  and  C9_12 
REMARK    6  A    between atoms: C12_17  and  N2_18 
REMARK    7  A    between atoms: C23_34  and  N5_35 
ROOT
HETATM    1  C7  UNL     1       0.967  -1.421  -1.388  1.00  0.00     0.170 A 
HETATM    2  N1  UNL     1       0.427  -2.429  -2.114  1.00  0.00    -0.334 N 
ATOM      3  H1  UNL     1      -0.590  -2.512  -2.127  1.00  0.00     0.168 HD
HETATM    4  C8  UNL     1       1.134  -3.324  -2.816  1.00  0.00     0.076 A 
HETATM    5  C10 UNL     1       2.507  -3.225  -2.808  1.00  0.00     0.033 A 
HETATM    6  C11 UNL     1       3.112  -2.223  -2.088  1.00  0.00     0.036 A 
HETATM    7  C12 UNL     1       2.332  -1.305  -1.366  1.00  0.00     0.082 A 
ENDROOT
BRANCH   1   8
HETATM    8  O1  UNL     1       0.188  -0.519  -0.680  1.00  0.00    -0.334 OA
BRANCH   8   9
HETATM    9  C6  UNL     1      -1.215  -0.720  -0.766  1.00  0.00     0.182 C 
BRANCH   9  10
HETATM   10  C5  UNL     1      -1.973   0.271   0.004  1.00  0.00     0.022 C 
HETATM   11  C4  UNL     1      -3.432   0.209   0.015  1.00  0.00     0.035 C 
HETATM   12  C23 UNL     1      -3.784   1.248   1.057  1.00  0.00     0.298 C 
HETATM   13  C22 UNL     1      -2.554   1.522   1.856  1.00  0.00     0.275 C 
HETATM   14  C21 UNL     1      -1.550   0.433   1.446  1.00  0.00     0.088 C 
HETATM   15  F3  UNL     1      -1.954   2.719   1.626  1.00  0.00    -0.204 F 
HETATM   16  F4  UNL     1      -2.781   1.468   3.233  1.00  0.00    -0.204 F 
BRANCH  11  17
HETATM   17  C2  UNL     1      -4.153  -1.054   0.194  1.00  0.00    -0.016 C 
HETATM   18  C1  UNL     1      -3.878  -1.789   1.491  1.00  0.00     0.010 C 
HETATM   19  C3  UNL     1      -4.094  -2.049  -0.897  1.00  0.00     0.010 C 
ENDBRANCH  11  17
BRANCH  12  20
HETATM   20  N5  UNL     1      -4.491   2.361   0.574  1.00  0.00     0.090 N 
HETATM   21  C24 UNL     1      -3.935   3.223  -0.373  1.00  0.00     0.310 C 
HETATM   22  C25 UNL     1      -5.813   1.944   0.144  1.00  0.00     0.310 C 
ENDBRANCH  12  20
ENDBRANCH   9  10
ENDBRANCH   8   9
ENDBRANCH   1   8
BRANCH   7  23
HETATM   23  N2  UNL     1       2.975  -0.314  -0.618  1.00  0.00    -0.373 N 
HETATM   24  C13 UNL     1       4.282   0.066  -1.129  1.00  0.00     0.124 C 
HETATM   25  C14 UNL     1       4.351   1.599  -0.975  1.00  0.00     0.026 C 
HETATM   26  C15 UNL     1       5.177   1.828   0.273  1.00  0.00     0.061 C 
HETATM   27  C16 UNL     1       4.493   1.392   1.484  1.00  0.00     0.037 A 
HETATM   28  C17 UNL     1       3.316   0.718   1.589  1.00  0.00     0.001 A 
HETATM   29  N4  UNL     1       4.965   1.616   2.714  1.00  0.00    -0.300 N 
HETATM   30  C18 UNL     1       3.076   0.533   2.942  1.00  0.00     0.118 A 
HETATM   31  C20 UNL     1       2.389   0.230   0.562  1.00  0.00     0.165 C 
HETATM   32  N3  UNL     1       4.113   1.099   3.613  1.00  0.00    -0.309 N 
ATOM     33  H3  UNL     1       4.225   1.126   4.626  1.00  0.00     0.186 HD
HETATM   34  C19 UNL     1       6.203   2.310   3.013  1.00  0.00     0.177 C 
ENDBRANCH   7  23
BRANCH   4  35
HETATM   35  C9  UNL     1       0.470  -4.409  -3.593  1.00  0.00     0.403 C 
HETATM   36  F1  UNL     1       0.892  -5.626  -3.076  1.00  0.00    -0.208 F 
HETATM   37  F2  UNL     1       0.846  -4.303  -4.923  1.00  0.00    -0.208 F 
ENDBRANCH   4  35
TORSDOF 7
