REMARK  16 active torsions:
REMARK  status: ('A' for Active; 'I' for Inactive)
REMARK    1  A    between atoms: N1_2  and  O1_3 
REMARK    2  A    between atoms: N1_2  and  C2_5 
REMARK    3  A    between atoms: C3_8  and  N3_9 
REMARK    4  A    between atoms: N3_9  and  C4_11 
REMARK    5  A    between atoms: C7_14  and  N4_15 
REMARK    6  A    between atoms: N4_15  and  C8_17 
REMARK    7  A    between atoms: C9_20  and  N6_21 
REMARK    8  A    between atoms: N6_21  and  C10_23 
REMARK    9  A    between atoms: C10_23  and  C11_24 
REMARK   10  A    between atoms: C15_34  and  N9_35 
REMARK   11  A    between atoms: N9_35  and  C16_37 
REMARK   12  A    between atoms: C16_37  and  C17_38 
REMARK   13  A    between atoms: C17_38  and  O3_39 
REMARK   14  A    between atoms: N12_48  and  C21_49 
REMARK   15  A    between atoms: C21_49  and  C22_50 
REMARK   16  A    between atoms: C22_50  and  O4_51 
ROOT
HETATM    1  N4  UNL     1      -1.083  -0.686   1.024  1.00  0.00    -0.220 N 
ATOM      2  H4  UNL     1      -0.800  -0.766   2.001  1.00  0.00     0.178 HD
ENDROOT
BRANCH   1   3
HETATM    3  C7  UNL     1      -0.257  -1.351   0.058  1.00  0.00     0.101 C 
HETATM    4  C6  UNL     1       0.379  -0.452  -0.961  1.00  0.00     0.028 C 
HETATM    5  C5  UNL     1       1.711  -0.085  -0.378  1.00  0.00     0.027 C 
HETATM    6  C4  UNL     1       1.926  -0.973   0.803  1.00  0.00     0.085 C 
HETATM    7  C18 UNL     1       0.896  -2.080   0.681  1.00  0.00     0.050 C 
BRANCH   6   8
HETATM    8  N3  UNL     1       3.229  -1.556   0.881  1.00  0.00    -0.369 N 
ATOM      9  H3  UNL     1       3.333  -2.551   1.078  1.00  0.00     0.161 HD
BRANCH   8  10
HETATM   10  C3  UNL     1       4.268  -0.822   0.702  1.00  0.00     0.148 A 
HETATM   11  N2  UNL     1       4.292   0.477   0.440  1.00  0.00    -0.172 N 
HETATM   12  C2  UNL     1       5.415   1.193   0.257  1.00  0.00     0.707 A 
ATOM     13  H2  UNL     1       3.399   0.966   0.373  1.00  0.00     0.186 HD
HETATM   14  N13 UNL     1       6.614   0.558   0.345  1.00  0.00    -0.172 N 
HETATM   15  C23 UNL     1       6.638  -0.749   0.608  1.00  0.00     0.155 A 
ATOM     16  H13 UNL     1       7.483   1.074   0.212  1.00  0.00     0.186 HD
HETATM   17  C19 UNL     1       5.495  -1.482   0.794  1.00  0.00     0.123 A 
HETATM   18  N12 UNL     1       7.674  -1.594   0.745  1.00  0.00    -0.325 N 
HETATM   19  N11 UNL     1       5.851  -2.758   1.041  1.00  0.00    -0.346 N 
HETATM   20  C20 UNL     1       7.185  -2.831   1.012  1.00  0.00     0.185 A 
ATOM     21  H11 UNL     1       5.213  -3.534   1.219  1.00  0.00     0.167 HD
BRANCH  12  22
HETATM   22  N1  UNL     1       5.416   2.577  -0.025  1.00  0.00    -0.095 N 
HETATM   23  C1  UNL     1       5.369   3.023  -1.391  1.00  0.00     0.205 C 
BRANCH  22  24
HETATM   24  O1  UNL     1       5.461   3.464   0.973  1.00  0.00    -0.274 OA
ATOM     25  H1  UNL     1       5.492   3.169   1.876  1.00  0.00     0.245 HD
ENDBRANCH  22  24
ENDBRANCH  12  22
BRANCH  18  26
HETATM   26  C21 UNL     1       9.064  -1.269   0.633  1.00  0.00     0.157 C 
BRANCH  26  27
HETATM   27  C22 UNL     1       9.493  -1.452  -0.802  1.00  0.00     0.184 C 
BRANCH  27  28
HETATM   28  O4  UNL     1      10.843  -1.154  -0.956  1.00  0.00    -0.399 OA
ATOM     29  H4  UNL     1      11.113  -1.269  -1.859  1.00  0.00     0.209 HD
ENDBRANCH  27  28
ENDBRANCH  26  27
ENDBRANCH  18  26
ENDBRANCH   8  10
ENDBRANCH   6   8
ENDBRANCH   1   3
BRANCH   1  30
HETATM   30  C8  UNL     1      -2.140  -0.002   0.785  1.00  0.00     0.707 A 
HETATM   31  N5  UNL     1      -2.670   0.218  -0.425  1.00  0.00    -0.021 N 
HETATM   32  C9  UNL     1      -3.788   0.930  -0.629  1.00  0.00     0.711 A 
ATOM     33  H5  UNL     1      -2.197  -0.178  -1.237  1.00  0.00     0.203 HD
HETATM   34  N8  UNL     1      -4.417   1.453   0.444  1.00  0.00    -0.021 N 
HETATM   35  C15 UNL     1      -3.891   1.235   1.651  1.00  0.00     0.707 A 
ATOM     36  H8  UNL     1      -5.271   2.000   0.336  1.00  0.00     0.203 HD
HETATM   37  N10 UNL     1      -2.777   0.526   1.848  1.00  0.00    -0.022 N 
ATOM     38  H10 UNL     1      -2.413   0.386   2.791  1.00  0.00     0.203 HD
BRANCH  32  39
HETATM   39  N6  UNL     1      -4.300   1.138  -1.919  1.00  0.00    -0.202 N 
ATOM     40  H6  UNL     1      -3.904   1.889  -2.485  1.00  0.00     0.183 HD
BRANCH  39  41
HETATM   41  C10 UNL     1      -5.232   0.435  -2.412  1.00  0.00     0.114 C 
BRANCH  41  42
HETATM   42  C11 UNL     1      -5.917  -0.697  -1.721  1.00  0.00     0.248 C 
HETATM   43  C12 UNL     1      -7.308  -0.232  -1.383  1.00  0.00     0.206 C 
HETATM   44  O2  UNL     1      -8.284  -1.187  -1.519  1.00  0.00    -0.387 OA
HETATM   45  C13 UNL     1      -8.277  -1.867  -2.714  1.00  0.00     0.195 C 
HETATM   46  C14 UNL     1      -7.041  -1.620  -3.554  1.00  0.00     0.259 C 
HETATM   47  N7  UNL     1      -5.909  -1.797  -2.667  1.00  0.00    -0.062 N 
ATOM     48  H72 UNL     1      -5.024  -1.885  -3.166  1.00  0.00     0.278 HD
ATOM     49  H71 UNL     1      -5.899  -2.711  -2.214  1.00  0.00     0.278 HD
ENDBRANCH  41  42
ENDBRANCH  39  41
ENDBRANCH  32  39
BRANCH  35  50
HETATM   50  N9  UNL     1      -4.479   1.718   2.693  1.00  0.00    -0.223 N 
ATOM     51  H9  UNL     1      -4.071   1.548   3.612  1.00  0.00     0.177 HD
BRANCH  50  52
HETATM   52  C16 UNL     1      -5.696   2.492   2.601  1.00  0.00     0.164 C 
BRANCH  52  53
HETATM   53  C17 UNL     1      -6.255   2.609   4.026  1.00  0.00     0.184 C 
BRANCH  53  54
HETATM   54  O3  UNL     1      -7.421   3.339   3.992  1.00  0.00    -0.399 OA
ATOM     55  H3  UNL     1      -7.767   3.411   4.874  1.00  0.00     0.209 HD
ENDBRANCH  53  54
ENDBRANCH  52  53
ENDBRANCH  50  52
ENDBRANCH  35  50
ENDBRANCH   1  30
TORSDOF 16
