REMARK  10 active torsions:
REMARK  status: ('A' for Active; 'I' for Inactive)
REMARK    1  A    between atoms: C2_2  and  N1_3 
REMARK    2  A    between atoms: C5_8  and  S1_9 
REMARK    3  A    between atoms: S1_9  and  C6_11 
REMARK    4  A    between atoms: C6_11  and  N3_15 
REMARK    5  A    between atoms: N3_15  and  C7_17 
REMARK    6  A    between atoms: C7_17  and  C8_18 
REMARK    7  A    between atoms: C8_18  and  N4_19 
REMARK       I    between atoms: N4_19  and  C9_21 
REMARK    8  A    between atoms: C13_31  and  S3_32 
REMARK    9  A    between atoms: S3_32  and  C14_33 
REMARK   10  A    between atoms: C16_43  and  C17_44 
ROOT
HETATM    1  N1  UNL     1       0.366   4.124   0.882  1.00  0.00    -0.388 N 
ATOM      2  H1  UNL     1      -0.256   4.200   1.687  1.00  0.00     0.159 HD
HETATM    3  C3  UNL     1       0.150   3.142   0.092  1.00  0.00     0.098 C 
HETATM    4  C4  UNL     1       0.869   2.785  -1.123  1.00  0.00     0.220 C 
HETATM    5  O1  UNL     1       1.975   3.270  -1.478  1.00  0.00    -0.288 OA
HETATM    6  C5  UNL     1       0.056   1.753  -1.849  1.00  0.00     0.401 C 
HETATM    7  N7  UNL     1      -0.611   1.119  -0.755  1.00  0.00     0.152 N 
HETATM    8  C10 UNL     1      -0.898   2.138   0.237  1.00  0.00     0.341 C 
HETATM    9  S2  UNL     1      -0.789   1.239   1.837  1.00  0.00    -0.123 SA
HETATM   10  C11 UNL     1      -1.414  -0.436   1.399  1.00  0.00     0.114 C 
HETATM   11  C12 UNL     1      -2.231  -0.357   0.153  1.00  0.00    -0.021 C 
HETATM   12  C13 UNL     1      -3.419  -0.953   0.099  1.00  0.00     0.058 C 
HETATM   13  C16 UNL     1      -1.781   0.379  -1.071  1.00  0.00     0.357 C 
ENDROOT
BRANCH   6  14
HETATM   14  S1  UNL     1       0.993   0.600  -2.743  1.00  0.00     0.125 S 
HETATM   15  O2  UNL     1       1.967   1.180  -3.924  1.00  0.00    -0.247 OA
BRANCH  14  16
HETATM   16  C6  UNL     1       1.508  -0.802  -1.914  1.00  0.00     0.167 C 
HETATM   17  N2  UNL     1       1.251  -1.949  -2.505  1.00  0.00    -0.378 N 
ATOM     18  H22 UNL     1       0.770  -1.903  -3.403  1.00  0.00     0.158 HD
ATOM     19  H21 UNL     1       1.559  -2.786  -2.010  1.00  0.00     0.158 HD
BRANCH  16  20
HETATM   20  N3  UNL     1       2.171  -0.866  -0.675  1.00  0.00    -0.368 N 
ATOM     21  H3  UNL     1       1.735  -1.400   0.077  1.00  0.00     0.161 HD
BRANCH  20  22
HETATM   22  C7  UNL     1       3.423  -0.225  -0.409  1.00  0.00     0.141 C 
BRANCH  22  23
HETATM   23  C8  UNL     1       3.902  -0.484   1.004  1.00  0.00     0.142 C 
BRANCH  23  24
HETATM   24  N4  UNL     1       4.073  -1.909   1.200  1.00  0.00    -0.363 N 
HETATM   25  C9  UNL     1       5.095  -2.636   0.530  1.00  0.00     0.181 C 
HETATM   26  N5  UNL     1       4.772  -3.280  -0.537  1.00  0.00    -0.374 N 
HETATM   27  N6  UNL     1       6.442  -2.652   1.026  1.00  0.00    -0.064 NA
ATOM     28  H52 UNL     1       3.815  -3.269  -0.889  1.00  0.00     0.158 HD
ATOM     29  H51 UNL     1       5.505  -3.801  -1.018  1.00  0.00     0.158 HD
ATOM     30  H4  UNL     1       3.445  -2.403   1.834  1.00  0.00     0.162 HD
ENDBRANCH  23  24
ENDBRANCH  22  23
ENDBRANCH  20  22
ENDBRANCH  16  20
ENDBRANCH  14  16
ENDBRANCH   6  14
BRANCH  13  31
HETATM   31  C17 UNL     1      -2.931   1.227  -1.492  1.00  0.00     0.212 C 
HETATM   32  O3  UNL     1      -3.013   1.732  -2.645  1.00  0.00    -0.646 OA
HETATM   33  O4  UNL     1      -4.002   1.525  -0.640  1.00  0.00    -0.646 OA
ENDBRANCH  13  31
BRANCH   1  34
HETATM   34  C2  UNL     1       1.376   5.127   0.770  1.00  0.00     0.115 C 
HETATM   35  C1  UNL     1       0.982   6.427   1.443  1.00  0.00     0.026 C 
ENDBRANCH   1  34
BRANCH  12  36
HETATM   36  S3  UNL     1      -4.015  -1.843   1.540  1.00  0.00    -0.075 SA
BRANCH  36  37
HETATM   37  C14 UNL     1      -5.240  -3.048   0.970  1.00  0.00     0.134 A 
HETATM   38  N8  UNL     1      -5.648  -3.276  -0.270  1.00  0.00    -0.286 N 
HETATM   39  N9  UNL     1      -6.525  -4.165  -0.499  1.00  0.00    -0.279 N 
ATOM     40  H8  UNL     1      -5.257  -2.736  -1.042  1.00  0.00     0.188 HD
HETATM   41  C15 UNL     1      -7.020  -4.857   0.534  1.00  0.00     0.159 A 
ATOM     42  H9  UNL     1      -6.845  -4.348  -1.450  1.00  0.00     0.189 HD
HETATM   43  N10 UNL     1      -7.927  -5.806   0.505  1.00  0.00    -0.379 N 
HETATM   44  S4  UNL     1      -6.173  -4.177   1.850  1.00  0.00    -0.026 SA
ATOM     45 2H10 UNL     1      -8.433  -6.212  -0.282  1.00  0.00     0.158 HD
ATOM     46 1H10 UNL     1      -8.304  -6.333   1.292  1.00  0.00     0.158 HD
ENDBRANCH  36  37
ENDBRANCH  12  36
TORSDOF 10
