REMARK  13 active torsions:
REMARK  status: ('A' for Active; 'I' for Inactive)
REMARK    1  A    between atoms: N1_2  and  C3_4 
REMARK    2  A    between atoms: C4_7  and  N3_8 
REMARK    3  A    between atoms: N3_8  and  C5_10 
REMARK    4  A    between atoms: C6_14  and  O1_15 
REMARK    5  A    between atoms: O1_15  and  C7_16 
REMARK    6  A    between atoms: C7_16  and  C8_17 
REMARK    7  A    between atoms: C8_17  and  N5_18 
REMARK    8  A    between atoms: N6_21  and  C11_22 
REMARK    9  A    between atoms: C11_22  and  C12_23 
REMARK   10  A    between atoms: C15_26  and  C16_27 
REMARK   11  A    between atoms: C20_41  and  N12_42 
REMARK   12  A    between atoms: C22_47  and  N13_48 
REMARK   13  A    between atoms: C23_54  and  N15_55 
ROOT
HETATM    1  C5  UNL     1      -3.440   0.137  -0.878  1.00  0.00     0.333 C 
HETATM    2  N4  UNL     1      -2.397  -0.557  -0.102  1.00  0.00    -0.023 N 
ATOM      3  H41 UNL     1      -2.355  -1.563  -0.264  1.00  0.00     0.282 HD
ATOM      4  H42 UNL     1      -2.587  -0.613   0.899  1.00  0.00     0.282 HD
HETATM    5  C6  UNL     1      -1.134   0.177  -0.449  1.00  0.00     0.354 C 
HETATM    6  C20 UNL     1      -0.757  -0.287  -1.857  1.00  0.00     0.241 C 
HETATM    7  C21 UNL     1      -1.948  -0.944  -2.511  1.00  0.00     0.074 C 
HETATM    8  C22 UNL     1      -3.121  -0.013  -2.364  1.00  0.00     0.236 C 
ENDROOT
BRANCH   5   9
HETATM    9  O1  UNL     1      -1.312   1.496  -0.311  1.00  0.00    -0.356 OA
BRANCH   9  10
HETATM   10  C7  UNL     1      -0.581   2.322   0.445  1.00  0.00     0.190 C 
BRANCH  10  11
HETATM   11  C8  UNL     1       0.809   2.653   0.010  1.00  0.00     0.148 C 
BRANCH  11  12
HETATM   12  N5  UNL     1       1.723   1.582  -0.066  1.00  0.00    -0.385 N 
HETATM   13  C9  UNL     1       2.189   1.068   1.152  1.00  0.00     0.102 C 
HETATM   14  C10 UNL     1       3.695   0.896   1.227  1.00  0.00     0.107 C 
HETATM   15  N6  UNL     1       4.354   1.924   0.535  1.00  0.00    -0.361 N 
HETATM   16  C18 UNL     1       4.043   1.886  -0.868  1.00  0.00     0.147 C 
HETATM   17  C19 UNL     1       2.611   1.652  -1.181  1.00  0.00     0.142 C 
BRANCH  15  18
HETATM   18  C11 UNL     1       5.639   2.341   0.897  1.00  0.00     0.119 C 
BRANCH  18  19
HETATM   19  C12 UNL     1       6.630   1.254   0.750  1.00  0.00     0.047 A 
HETATM   20  C13 UNL     1       7.318   1.075  -0.446  1.00  0.00     0.032 A 
HETATM   21  C14 UNL     1       8.259   0.088  -0.608  1.00  0.00     0.019 A 
HETATM   22  C15 UNL     1       8.544  -0.762   0.433  1.00  0.00     0.026 A 
HETATM   23  C17 UNL     1       7.843  -0.557   1.605  1.00  0.00     0.103 A 
HETATM   24  N11 UNL     1       6.927   0.414   1.744  1.00  0.00    -0.364 N 
ATOM     25  H11 UNL     1       6.443   0.513   2.636  1.00  0.00     0.165 HD
BRANCH  22  26
HETATM   26  C16 UNL     1       9.531  -1.844   0.337  1.00  0.00     0.148 A 
HETATM   27  N7  UNL     1      10.302  -2.211  -0.691  1.00  0.00    -0.268 N 
HETATM   28  N8  UNL     1      11.043  -3.262  -0.326  1.00  0.00    -0.227 N 
ATOM     29  H7  UNL     1      10.322  -1.762  -1.606  1.00  0.00     0.190 HD
HETATM   30  N9  UNL     1      10.750  -3.561   0.912  1.00  0.00    -0.227 N 
ATOM     31  H8  UNL     1      11.721  -3.748  -0.913  1.00  0.00     0.210 HD
HETATM   32  N10 UNL     1       9.830  -2.704   1.327  1.00  0.00    -0.268 N 
ATOM     33  H9  UNL     1      11.157  -4.319   1.460  1.00  0.00     0.210 HD
ATOM     34  H10 UNL     1       9.411  -2.697   2.257  1.00  0.00     0.190 HD
ENDBRANCH  22  26
ENDBRANCH  18  19
ENDBRANCH  15  18
ENDBRANCH  11  12
ENDBRANCH  10  11
ENDBRANCH   9  10
ENDBRANCH   5   9
BRANCH   6  35
HETATM   35  N12 UNL     1       0.255  -1.341  -1.753  1.00  0.00    -0.071 N 
ATOM     36 3H12 UNL     1       1.067  -1.049  -1.209  1.00  0.00     0.274 HD
ATOM     37 2H12 UNL     1      -0.046  -2.112  -1.157  1.00  0.00     0.274 HD
ATOM     38 1H12 UNL     1       0.506  -1.650  -2.692  1.00  0.00     0.274 HD
ENDBRANCH   6  35
BRANCH   1  39
HETATM   39  N3  UNL     1      -4.733  -0.113  -0.539  1.00  0.00    -0.193 N 
ATOM     40  H3  UNL     1      -5.279   0.503  -1.141  1.00  0.00     0.180 HD
BRANCH  39  41
HETATM   41  C4  UNL     1      -5.564  -0.706   0.125  1.00  0.00     0.709 A 
HETATM   42  N2  UNL     1      -6.917  -0.479  -0.020  1.00  0.00    -0.021 N 
HETATM   43  C3  UNL     1      -7.861  -1.075   0.694  1.00  0.00     0.708 A 
ATOM     44  H2  UNL     1      -7.212   0.195  -0.727  1.00  0.00     0.203 HD
HETATM   45  N16 UNL     1      -7.474  -1.978   1.637  1.00  0.00    -0.022 N 
HETATM   46  C23 UNL     1      -6.175  -2.247   1.830  1.00  0.00     0.705 A 
ATOM     47  H16 UNL     1      -8.178  -2.454   2.201  1.00  0.00     0.203 HD
HETATM   48  N14 UNL     1      -5.256  -1.608   1.073  1.00  0.00    -0.022 N 
ATOM     49  H14 UNL     1      -4.271  -1.823   1.230  1.00  0.00     0.203 HD
BRANCH  43  50
HETATM   50  N1  UNL     1      -9.249  -0.833   0.516  1.00  0.00    -0.225 N 
HETATM   51  C1  UNL     1      -9.791  -0.787  -0.817  1.00  0.00     0.168 C 
HETATM   52  C2  UNL     1     -10.081  -0.628   1.676  1.00  0.00     0.168 C 
ENDBRANCH  43  50
BRANCH  46  53
HETATM   53  N15 UNL     1      -5.879  -3.119   2.735  1.00  0.00    -0.234 N 
ATOM     54 2H15 UNL     1      -4.891  -3.324   2.882  1.00  0.00     0.174 HD
ATOM     55 1H15 UNL     1      -6.573  -3.601   3.306  1.00  0.00     0.174 HD
ENDBRANCH  46  53
ENDBRANCH  39  41
ENDBRANCH   1  39
BRANCH   8  56
HETATM   56  N13 UNL     1      -2.822   1.245  -2.967  1.00  0.00    -0.071 N 
ATOM     57 3H13 UNL     1      -3.572   1.919  -2.813  1.00  0.00     0.274 HD
ATOM     58 2H13 UNL     1      -2.071   1.726  -2.472  1.00  0.00     0.274 HD
ATOM     59 1H13 UNL     1      -2.609   1.145  -3.959  1.00  0.00     0.274 HD
ENDBRANCH   8  56
TORSDOF 13
