REMARK  12 active torsions:
REMARK  status: ('A' for Active; 'I' for Inactive)
REMARK    1  A    between atoms: S1_2  and  C2_3 
REMARK    2  A    between atoms: N3_9  and  S2_11 
REMARK    3  A    between atoms: S2_11  and  N4_14 
REMARK    4  A    between atoms: N4_14  and  C4_16 
REMARK    5  A    between atoms: C4_16  and  C5_17 
REMARK    6  A    between atoms: C7_21  and  O4_22 
REMARK    7  A    between atoms: O4_22  and  C8_23 
REMARK    8  A    between atoms: C8_23  and  C9_24 
REMARK    9  A    between atoms: C9_24  and  C10_25 
REMARK   10  A    between atoms: C10_25  and  C11_26 
REMARK   11  A    between atoms: C12_27  and  O5_28 
REMARK   12  A    between atoms: C15_38  and  N8_39 
ROOT
HETATM    1  C4  UNL     1       1.863   0.517   0.683  1.00  0.00     0.226 C 
HETATM    2  C6  UNL     1       0.435   0.155   0.970  1.00  0.00     0.106 C 
HETATM    3  C7  UNL     1      -0.601   0.887   0.194  1.00  0.00     0.159 C 
HETATM    4  C15 UNL     1      -0.148   1.533  -1.069  1.00  0.00     0.236 C 
HETATM    5  C16 UNL     1       1.308   1.869  -1.135  1.00  0.00     0.207 C 
HETATM    6  O8  UNL     1       2.132   0.933  -0.588  1.00  0.00    -0.350 OA
ENDROOT
BRANCH   1   7
HETATM    7  N4  UNL     1       2.615  -0.742   0.859  1.00  0.00    -0.261 N 
ATOM      8  H4  UNL     1       2.191  -1.604   1.202  1.00  0.00     0.177 HD
BRANCH   7   9
HETATM    9  S2  UNL     1       4.254  -0.615   0.435  1.00  0.00     0.323 S 
HETATM   10  O1  UNL     1       5.183  -1.386   1.291  1.00  0.00    -0.182 OA
HETATM   11  O2  UNL     1       4.630   0.833   0.287  1.00  0.00    -0.182 OA
BRANCH   9  12
HETATM   12  N3  UNL     1       4.404  -1.271  -1.188  1.00  0.00    -0.246 N 
HETATM   13  C3  UNL     1       5.648  -1.467  -1.567  1.00  0.00     0.176 A 
HETATM   14  N2  UNL     1       6.071  -1.951  -2.738  1.00  0.00    -0.278 N 
HETATM   15  S3  UNL     1       7.128  -1.194  -0.753  1.00  0.00    -0.026 SA
HETATM   16  N1  UNL     1       7.316  -2.075  -2.938  1.00  0.00    -0.286 N 
ATOM     17  H2  UNL     1       5.402  -2.217  -3.460  1.00  0.00     0.189 HD
HETATM   18  C2  UNL     1       8.183  -1.729  -1.995  1.00  0.00     0.129 A 
ATOM     19  H1  UNL     1       7.653  -2.442  -3.828  1.00  0.00     0.188 HD
ATOM     20  H3  UNL     1       3.601  -1.480  -1.781  1.00  0.00     0.182 HD
BRANCH  18  21
HETATM   21  S1  UNL     1       9.982  -1.806  -2.026  1.00  0.00    -0.108 SA
HETATM   22  C1  UNL     1      10.539  -1.173  -0.398  1.00  0.00     0.097 C 
ENDBRANCH  18  21
ENDBRANCH   9  12
ENDBRANCH   7   9
ENDBRANCH   1   7
BRANCH   1  23
HETATM   23  C5  UNL     1       2.306   1.471   1.728  1.00  0.00     0.287 C 
HETATM   24  N5  UNL     1       1.812   2.799   1.769  1.00  0.00    -0.058 NA
HETATM   25  O3  UNL     1       3.143   1.176   2.644  1.00  0.00    -0.271 OA
ENDBRANCH   1  23
BRANCH   3  26
HETATM   26  O4  UNL     1      -1.701   0.063  -0.096  1.00  0.00    -0.384 OA
BRANCH  26  27
HETATM   27  C8  UNL     1      -2.815   0.589   0.533  1.00  0.00     0.168 C 
BRANCH  27  28
HETATM   28  C9  UNL     1      -4.015  -0.294   0.233  1.00  0.00     0.031 C 
BRANCH  28  29
HETATM   29  C10 UNL     1      -5.255   0.258   0.913  1.00  0.00     0.051 C 
BRANCH  29  30
HETATM   30  C11 UNL     1      -6.429  -0.583   0.636  1.00  0.00     0.061 A 
HETATM   31  C12 UNL     1      -7.031  -0.500  -0.600  1.00  0.00     0.155 A 
HETATM   32  N6  UNL     1      -8.107  -1.260  -0.874  1.00  0.00    -0.288 N 
HETATM   33  C13 UNL     1      -8.619  -2.107   0.029  1.00  0.00     0.329 A 
ATOM     34  H6  UNL     1      -8.544  -1.189  -1.793  1.00  0.00     0.172 HD
HETATM   35  O6  UNL     1      -9.632  -2.807  -0.261  1.00  0.00    -0.247 OA
HETATM   36  N7  UNL     1      -8.035  -2.192   1.238  1.00  0.00    -0.275 N 
HETATM   37  C14 UNL     1      -6.965  -1.458   1.558  1.00  0.00     0.259 A 
ATOM     38  H7  UNL     1      -8.420  -2.835   1.930  1.00  0.00     0.173 HD
HETATM   39  O7  UNL     1      -6.409  -1.527   2.684  1.00  0.00    -0.267 OA
BRANCH  31  40
HETATM   40  O5  UNL     1      -6.531   0.366  -1.566  1.00  0.00    -0.345 OA
ATOM     41  H5  UNL     1      -6.946   0.423  -2.419  1.00  0.00     0.219 HD
ENDBRANCH  31  40
ENDBRANCH  29  30
ENDBRANCH  28  29
ENDBRANCH  27  28
ENDBRANCH  26  27
ENDBRANCH   3  26
BRANCH   4  42
HETATM   42  N8  UNL     1      -0.980   2.713  -1.310  1.00  0.00    -0.070 N 
ATOM     43  H83 UNL     1      -1.976   2.495  -1.317  1.00  0.00     0.274 HD
ATOM     44  H82 UNL     1      -0.984   3.358  -0.520  1.00  0.00     0.274 HD
ATOM     45  H81 UNL     1      -0.670   3.155  -2.175  1.00  0.00     0.274 HD
ENDBRANCH   4  42
TORSDOF 12
