REMARK  6 active torsions:
REMARK  status: ('A' for Active; 'I' for Inactive)
REMARK    1  A    between atoms: C2_2  and  O1_3 
REMARK    2  A    between atoms: O1_3  and  C3_4 
REMARK       I    between atoms: C3_4  and  N1_6 
REMARK    3  A    between atoms: C8_12  and  O4_13 
REMARK    4  A    between atoms: O4_13  and  C9_14 
REMARK    5  A    between atoms: C9_14  and  C10_15 
REMARK       I    between atoms: C10_15  and  N2_17 
REMARK    6  A    between atoms: N2_17  and  C11_19 
ROOT
HETATM    1  C3  UNL     1       5.658   0.644  -0.157  1.00  0.00     0.367 C 
HETATM    2  O2  UNL     1       6.918   0.393  -0.147  1.00  0.00    -0.238 OA
HETATM    3  N1  UNL     1       4.800  -0.419  -0.389  1.00  0.00    -0.287 N 
HETATM    4  C4  UNL     1       5.346  -1.656  -0.991  1.00  0.00     0.161 C 
HETATM    5  C5  UNL     1       4.428  -2.135  -2.095  1.00  0.00     0.196 C 
HETATM    6  O3  UNL     1       3.255  -1.347  -2.244  1.00  0.00    -0.347 OA
HETATM    7  C6  UNL     1       2.574  -0.833  -1.149  1.00  0.00     0.100 A 
HETATM    8  C7  UNL     1       1.219  -0.783  -0.987  1.00  0.00     0.076 A 
HETATM    9  C8  UNL     1       0.678  -0.241   0.166  1.00  0.00     0.073 A 
HETATM   10  C17 UNL     1       1.522   0.249   1.155  1.00  0.00     0.063 A 
HETATM   11  C18 UNL     1       2.889   0.194   0.983  1.00  0.00     0.066 A 
HETATM   12 CL1  UNL     1       3.961   0.733   2.231  1.00  0.00    -0.082 Cl
HETATM   13  C19 UNL     1       3.424  -0.335  -0.150  1.00  0.00     0.094 A 
ENDROOT
BRANCH   9  14
HETATM   14  O4  UNL     1      -0.693  -0.170   0.371  1.00  0.00    -0.342 OA
BRANCH  14  15
HETATM   15  C9  UNL     1      -1.215   0.390   1.558  1.00  0.00     0.278 C 
BRANCH  15  16
HETATM   16  C10 UNL     1      -2.705   0.359   1.559  1.00  0.00     0.242 C 
HETATM   17  O5  UNL     1      -3.339   0.823   2.540  1.00  0.00    -0.271 OA
HETATM   18  N2  UNL     1      -3.451  -0.183   0.480  1.00  0.00    -0.355 N 
ATOM     19  H2  UNL     1      -2.957  -0.566  -0.326  1.00  0.00     0.162 HD
BRANCH  18  20
HETATM   20  C11 UNL     1      -4.893  -0.203   0.501  1.00  0.00     0.084 C 
HETATM   21  C12 UNL     1      -5.322  -1.647   0.327  1.00  0.00     0.025 C 
HETATM   22  C13 UNL     1      -6.811  -1.800   0.323  1.00  0.00     0.002 C 
HETATM   23  C14 UNL     1      -7.423  -0.856  -0.666  1.00  0.00     0.000 C 
HETATM   24  C15 UNL     1      -6.990   0.574  -0.480  1.00  0.00     0.002 C 
HETATM   25  C16 UNL     1      -5.469   0.592  -0.674  1.00  0.00     0.025 C 
ENDBRANCH  18  20
ENDBRANCH  15  16
ENDBRANCH  14  15
ENDBRANCH   9  14
BRANCH   1  26
HETATM   26  O1  UNL     1       5.319   1.950   0.053  1.00  0.00    -0.304 OA
BRANCH  26  27
HETATM   27  C2  UNL     1       6.336   2.954   0.254  1.00  0.00     0.176 C 
HETATM   28  C1  UNL     1       7.197   2.965  -0.980  1.00  0.00     0.034 C 
ENDBRANCH  26  27
ENDBRANCH   1  26
TORSDOF 6
