REMARK  7 active torsions:
REMARK  status: ('A' for Active; 'I' for Inactive)
REMARK    1  A    between atoms: S1_2  and  C2_3 
REMARK    2  A    between atoms: C3_4  and  S2_5 
REMARK    3  A    between atoms: S2_5  and  C4_6 
REMARK    4  A    between atoms: C4_6  and  C5_7 
REMARK       I    between atoms: C5_7  and  N1_9 
REMARK    5  A    between atoms: N1_9  and  C6_11 
REMARK    6  A    between atoms: C10_16  and  C11_17 
REMARK    7  A    between atoms: C11_17  and  N2_18 
ROOT
HETATM    1  C2  UNL     1      -1.083  -1.807  -0.642  1.00  0.00     0.065 A 
HETATM    2  C3  UNL     1      -0.342  -0.751  -0.018  1.00  0.00     0.131 A 
HETATM    3  O2  UNL     1      -1.094   0.258   0.084  1.00  0.00    -0.303 OA
HETATM    4  C10 UNL     1      -2.284   0.027  -0.410  1.00  0.00     0.105 A 
HETATM    5  C16 UNL     1      -2.307  -1.321  -0.889  1.00  0.00     0.085 A 
HETATM    6 CL1  UNL     1      -3.705  -2.065  -1.603  1.00  0.00    -0.080 Cl
ENDROOT
BRANCH   2   7
HETATM    7  S2  UNL     1       1.358  -1.213   0.385  1.00  0.00    -0.094 SA
BRANCH   7   8
HETATM    8  C4  UNL     1       2.473  -0.972  -0.981  1.00  0.00     0.184 C 
BRANCH   8   9
HETATM    9  C5  UNL     1       3.401   0.151  -0.743  1.00  0.00     0.227 C 
HETATM   10  O1  UNL     1       3.081   1.343  -0.908  1.00  0.00    -0.273 OA
HETATM   11  N1  UNL     1       4.736  -0.172  -0.300  1.00  0.00    -0.352 N 
ATOM     12  H1  UNL     1       4.967  -1.156  -0.163  1.00  0.00     0.163 HD
BRANCH  11  13
HETATM   13  C6  UNL     1       5.775   0.813  -0.036  1.00  0.00     0.022 C 
HETATM   14  C7  UNL     1       5.361   1.780   1.040  1.00  0.00     0.037 C 
HETATM   15  C8  UNL     1       6.163   1.581  -1.300  1.00  0.00     0.037 C 
HETATM   16  C9  UNL     1       7.017   0.103   0.467  1.00  0.00     0.037 C 
ENDBRANCH  11  13
ENDBRANCH   8   9
ENDBRANCH   7   8
ENDBRANCH   2   7
BRANCH   1  17
HETATM   17  S1  UNL     1      -0.444  -3.400  -1.052  1.00  0.00    -0.129 SA
HETATM   18  C1  UNL     1      -0.372  -4.468   0.422  1.00  0.00     0.095 C 
ENDBRANCH   1  17
BRANCH   4  19
HETATM   19  C11 UNL     1      -3.459   0.881  -0.552  1.00  0.00     0.339 C 
BRANCH  19  20
HETATM   20  N2  UNL     1      -4.664   0.486   0.153  1.00  0.00     0.098 N 
HETATM   21  C12 UNL     1      -5.739   0.961  -0.767  1.00  0.00     0.299 C 
HETATM   22  C13 UNL     1      -6.987   0.346  -0.169  1.00  0.00     0.198 C 
HETATM   23  O3  UNL     1      -7.260   1.132   0.928  1.00  0.00    -0.388 OA
HETATM   24  C14 UNL     1      -6.281   1.163   1.870  1.00  0.00     0.198 C 
HETATM   25  C15 UNL     1      -4.847   1.074   1.417  1.00  0.00     0.299 C 
ENDBRANCH  19  20
ENDBRANCH   4  19
TORSDOF 7
