REMARK  8 active torsions:
REMARK  status: ('A' for Active; 'I' for Inactive)
REMARK    1  A    between atoms: C3_4  and  C4_5 
REMARK    2  A    between atoms: C5_6  and  C6_7 
REMARK    3  A    between atoms: C6_7  and  O3_9 
REMARK    4  A    between atoms: O3_9  and  C7_10 
REMARK    5  A    between atoms: C7_10  and  C8_11 
REMARK    6  A    between atoms: C14_19  and  N1_20 
REMARK       I    between atoms: N1_20  and  C15_22 
REMARK    7  A    between atoms: C15_22  and  O6_24 
REMARK    8  A    between atoms: O6_24  and  C16_25 
ROOT
HETATM    1  C1  UNL     1       0.481   0.383   1.480  1.00  0.00     0.042 C 
HETATM    2  C2  UNL     1       0.878  -0.090   0.102  1.00  0.00     0.149 C 
HETATM    3  O1  UNL     1      -0.222  -0.790  -0.438  1.00  0.00    -0.344 OA
HETATM    4  C3  UNL     1      -0.480  -2.115  -0.101  1.00  0.00     0.067 C 
HETATM    5  C12 UNL     1       0.616  -2.881  -0.101  1.00  0.00     0.032 C 
HETATM    6  C13 UNL     1       1.933  -2.299  -0.438  1.00  0.00     0.133 C 
HETATM    7 CL1  UNL     1       3.188  -3.350   0.257  1.00  0.00    -0.118 Cl
HETATM    8  C14 UNL     1       2.129  -0.924   0.142  1.00  0.00     0.138 C 
ENDROOT
BRANCH   4   9
HETATM    9  C4  UNL     1      -1.743  -2.693   0.226  1.00  0.00     0.042 C 
HETATM   10  C5  UNL     1      -2.937  -2.189   0.299  1.00  0.00     0.085 C 
BRANCH  10  11
HETATM   11  C6  UNL     1      -3.409  -0.853   0.073  1.00  0.00     0.283 C 
HETATM   12  O2  UNL     1      -2.746   0.143  -0.255  1.00  0.00    -0.260 OA
BRANCH  11  13
HETATM   13  O3  UNL     1      -4.795  -0.592   0.233  1.00  0.00    -0.316 OA
BRANCH  13  14
HETATM   14  C7  UNL     1      -5.314   0.715   0.021  1.00  0.00     0.211 C 
BRANCH  14  15
HETATM   15  C8  UNL     1      -6.821   0.615   0.281  1.00  0.00     0.145 C 
HETATM   16  C9  UNL     1      -7.493   1.936   0.030  1.00  0.00     0.036 C 
HETATM   17  C10 UNL     1      -8.314   1.645  -1.208  1.00  0.00     0.029 C 
HETATM   18  C11 UNL     1      -8.548   0.156  -1.070  1.00  0.00     0.168 C 
HETATM   19  O4  UNL     1      -7.317  -0.299  -0.622  1.00  0.00    -0.384 OA
ENDBRANCH  14  15
ENDBRANCH  13  14
ENDBRANCH  11  13
ENDBRANCH  10  11
ENDBRANCH   4   9
BRANCH   8  20
HETATM   20  N1  UNL     1       3.249  -0.317  -0.545  1.00  0.00    -0.328 N 
HETATM   21  C15 UNL     1       4.469   0.007   0.100  1.00  0.00     0.361 C 
HETATM   22  O5  UNL     1       4.572  -0.249   1.325  1.00  0.00    -0.238 OA
ATOM     23  H1  UNL     1       3.156  -0.113  -1.540  1.00  0.00     0.165 HD
BRANCH  21  24
HETATM   24  O6  UNL     1       5.531   0.577  -0.529  1.00  0.00    -0.294 OA
BRANCH  24  25
HETATM   25  C16 UNL     1       6.757   0.922   0.039  1.00  0.00     0.061 C 
HETATM   26  C17 UNL     1       7.619   1.526  -1.059  1.00  0.00     0.046 C 
HETATM   27  C18 UNL     1       6.684   1.919   1.149  1.00  0.00     0.046 C 
HETATM   28  C19 UNL     1       7.505  -0.296   0.552  1.00  0.00     0.046 C 
ENDBRANCH  24  25
ENDBRANCH  21  24
ENDBRANCH   8  20
TORSDOF 8
