REMARK  6 active torsions:
REMARK  status: ('A' for Active; 'I' for Inactive)
REMARK    1  A    between atoms: N1_5  and  C4_6 
REMARK    2  A    between atoms: C4_6  and  C5_7 
REMARK    3  A    between atoms: C5_7  and  N2_8 
REMARK    4  A    between atoms: C6_9  and  N3_10 
REMARK    5  A    between atoms: N3_10  and  N4_12 
REMARK    6  A    between atoms: C7_14  and  C8_15 
ROOT
HETATM    1  N2  UNL     1       0.061  -1.291  -0.327  1.00  0.00    -0.310 N 
HETATM    2  C6  UNL     1       1.270  -0.820  -0.088  1.00  0.00     0.168 A 
HETATM    3  S1  UNL     1       2.204  -2.221   0.176  1.00  0.00    -0.049 SA
HETATM    4  C12 UNL     1       0.969  -3.382  -0.038  1.00  0.00     0.052 A 
HETATM    5  C13 UNL     1       0.917  -4.789   0.013  1.00  0.00     0.024 A 
HETATM    6  C14 UNL     1      -0.273  -5.450  -0.215  1.00  0.00     0.018 A 
HETATM    7  C15 UNL     1      -1.344  -4.625  -0.482  1.00  0.00     0.090 A 
HETATM    8  N6  UNL     1      -1.295  -3.315  -0.529  1.00  0.00    -0.351 N 
ATOM      9  H6  UNL     1      -2.150  -2.799  -0.736  1.00  0.00     0.166 HD
HETATM   10  C16 UNL     1      -0.120  -2.604  -0.307  1.00  0.00     0.126 A 
ENDROOT
BRANCH   2  11
HETATM   11  N3  UNL     1       1.660   0.444  -0.060  1.00  0.00    -0.280 N 
ATOM     12  H3  UNL     1       0.996   1.198  -0.236  1.00  0.00     0.189 HD
BRANCH  11  13
HETATM   13  N4  UNL     1       3.004   0.724   0.217  1.00  0.00    -0.308 N 
HETATM   14  C7  UNL     1       3.850   0.881  -0.737  1.00  0.00     0.136 C 
ATOM     15  H4  UNL     1       3.314   0.804   1.185  1.00  0.00     0.186 HD
BRANCH  14  16
HETATM   16  C8  UNL     1       5.246   1.172  -0.462  1.00  0.00     0.049 A 
HETATM   17  C9  UNL     1       5.836   1.313   0.801  1.00  0.00     0.032 A 
HETATM   18  C10 UNL     1       7.158   1.581   0.563  1.00  0.00     0.019 A 
HETATM   19  C11 UNL     1       7.376   1.603  -0.789  1.00  0.00     0.088 A 
HETATM   20  N5  UNL     1       6.200   1.352  -1.387  1.00  0.00    -0.365 N 
ATOM     21  H5  UNL     1       6.054   1.305  -2.395  1.00  0.00     0.165 HD
ENDBRANCH  14  16
ENDBRANCH  11  13
ENDBRANCH   2  11
BRANCH   1  22
HETATM   22  C5  UNL     1      -1.042  -0.335  -0.612  1.00  0.00     0.152 C 
BRANCH  22  23
HETATM   23  C4  UNL     1      -1.698   0.066   0.681  1.00  0.00     0.137 C 
BRANCH  23  24
HETATM   24  N1  UNL     1      -2.771   0.977   0.523  1.00  0.00    -0.411 N 
HETATM   25  C3  UNL     1      -3.946   0.493  -0.109  1.00  0.00     0.118 C 
HETATM   26  C2  UNL     1      -4.715   1.588  -0.838  1.00  0.00     0.039 C 
HETATM   27  C1  UNL     1      -4.527   2.901  -0.108  1.00  0.00     0.085 C 
HETATM   28 CL1  UNL     1      -3.169   3.806  -0.792  1.00  0.00    -0.125 Cl
HETATM   29  C18 UNL     1      -4.298   2.615   1.357  1.00  0.00     0.039 C 
HETATM   30  C17 UNL     1      -2.941   1.970   1.519  1.00  0.00     0.118 C 
ENDBRANCH  23  24
ENDBRANCH  22  23
ENDBRANCH   1  22
TORSDOF 6
