REMARK  14 active torsions:
REMARK  status: ('A' for Active; 'I' for Inactive)
REMARK    1  A    between atoms: O1_2  and  N1_3 
REMARK    2  A    between atoms: N1_3  and  C2_5 
REMARK    3  A    between atoms: C3_8  and  N3_9 
REMARK    4  A    between atoms: C4_14  and  N5_15 
REMARK    5  A    between atoms: N5_15  and  C5_17 
REMARK    6  A    between atoms: C5_17  and  C6_18 
REMARK    7  A    between atoms: C5_17  and  C9_25 
REMARK    8  A    between atoms: C6_18  and  C7_19 
REMARK    9  A    between atoms: C7_19  and  C8_20 
REMARK   10  A    between atoms: C8_20  and  N6_21 
REMARK   11  A    between atoms: C9_25  and  N7_26 
REMARK   12  A    between atoms: N7_26  and  C10_29 
REMARK   13  A    between atoms: C10_29  and  C11_30 
REMARK   14  A    between atoms: C11_30  and  N8_31 
ROOT
HETATM    1  N5  UNL     1       0.112  -0.312   0.558  1.00  0.00    -0.219 N 
ATOM      2  H5  UNL     1      -0.251  -0.699   1.429  1.00  0.00     0.178 HD
ENDROOT
BRANCH   1   3
HETATM    3  C4  UNL     1       1.357  -0.527   0.245  1.00  0.00     0.707 A 
HETATM    4  N4  UNL     1       1.924  -0.058  -0.880  1.00  0.00    -0.022 N 
HETATM    5  C3  UNL     1       3.235  -0.306  -1.172  1.00  0.00     0.705 A 
ATOM      6  H4  UNL     1       1.364   0.494  -1.529  1.00  0.00     0.203 HD
HETATM    7  N2  UNL     1       4.002  -1.030  -0.340  1.00  0.00    -0.020 N 
HETATM    8  C2  UNL     1       3.443  -1.501   0.785  1.00  0.00     0.731 A 
ATOM      9  H2  UNL     1       4.981  -1.216  -0.557  1.00  0.00     0.203 HD
HETATM   10  N9  UNL     1       2.141  -1.249   1.065  1.00  0.00    -0.020 N 
ATOM     11  H9  UNL     1       1.742  -1.620   1.927  1.00  0.00     0.203 HD
BRANCH   5  12
HETATM   12  N3  UNL     1       3.715   0.180  -2.279  1.00  0.00    -0.234 N 
ATOM     13  H32 UNL     1       4.694  -0.005  -2.497  1.00  0.00     0.174 HD
ATOM     14  H31 UNL     1       3.133   0.730  -2.911  1.00  0.00     0.174 HD
ENDBRANCH   5  12
BRANCH   8  15
HETATM   15  N1  UNL     1       4.167  -2.193   1.586  1.00  0.00    -0.096 N 
ATOM     16  H1  UNL     1       3.762  -2.561   2.447  1.00  0.00     0.213 HD
BRANCH  15  17
HETATM   17  O1  UNL     1       5.479  -2.440   1.292  1.00  0.00    -0.271 OA
HETATM   18  C1  UNL     1       6.537  -1.588   1.702  1.00  0.00     0.238 C 
ENDBRANCH  15  17
ENDBRANCH   8  15
ENDBRANCH   1   3
BRANCH   1  19
HETATM   19  C5  UNL     1      -0.780   0.463  -0.295  1.00  0.00     0.125 C 
BRANCH  19  20
HETATM   20  C6  UNL     1      -0.616   1.931  -0.086  1.00  0.00     0.029 C 
BRANCH  20  21
HETATM   21  C7  UNL     1      -1.536   2.690  -0.985  1.00  0.00     0.029 C 
BRANCH  21  22
HETATM   22  C8  UNL     1      -1.389   4.197  -0.808  1.00  0.00     0.230 C 
BRANCH  22  23
HETATM   23  N6  UNL     1      -2.304   4.852  -1.704  1.00  0.00    -0.079 N 
ATOM     24  H63 UNL     1      -2.182   4.558  -2.673  1.00  0.00     0.274 HD
ATOM     25  H62 UNL     1      -3.266   4.535  -1.582  1.00  0.00     0.274 HD
ATOM     26  H61 UNL     1      -2.206   5.860  -1.586  1.00  0.00     0.274 HD
ENDBRANCH  22  23
ENDBRANCH  21  22
ENDBRANCH  20  21
ENDBRANCH  19  20
BRANCH  19  27
HETATM   27  C9  UNL     1      -2.183   0.077   0.198  1.00  0.00     0.257 C 
BRANCH  27  28
HETATM   28  N7  UNL     1      -2.334  -1.363   0.027  1.00  0.00    -0.072 N 
ATOM     29  H72 UNL     1      -2.153  -1.681  -0.925  1.00  0.00     0.277 HD
ATOM     30  H71 UNL     1      -1.599  -1.906   0.480  1.00  0.00     0.277 HD
BRANCH  28  31
HETATM   31  C10 UNL     1      -3.674  -1.687   0.504  1.00  0.00     0.259 C 
BRANCH  31  32
HETATM   32  C11 UNL     1      -3.957  -3.167   0.380  1.00  0.00     0.257 C 
BRANCH  32  33
HETATM   33  N8  UNL     1      -5.315  -3.371   0.884  1.00  0.00    -0.078 N 
ATOM     34  H83 UNL     1      -5.455  -3.010   1.828  1.00  0.00     0.274 HD
ATOM     35  H82 UNL     1      -6.011  -2.786   0.421  1.00  0.00     0.274 HD
ATOM     36  H81 UNL     1      -5.506  -4.369   0.800  1.00  0.00     0.274 HD
ENDBRANCH  32  33
ENDBRANCH  31  32
ENDBRANCH  28  31
ENDBRANCH  27  28
ENDBRANCH  19  27
ENDBRANCH   1  19
TORSDOF 14
