REMARK  13 active torsions:
REMARK  status: ('A' for Active; 'I' for Inactive)
REMARK    1  A    between atoms: O1_2  and  C2_3 
REMARK    2  A    between atoms: C2_3  and  N1_4 
REMARK    3  A    between atoms: C2_3  and  N2_8 
REMARK    4  A    between atoms: C4_13  and  N4_14 
REMARK    5  A    between atoms: C5_19  and  N6_20 
REMARK    6  A    between atoms: N6_20  and  C6_22 
REMARK    7  A    between atoms: C6_22  and  C7_23 
REMARK    8  A    between atoms: C7_23  and  C8_24 
REMARK    9  A    between atoms: C8_24  and  N7_25 
REMARK   10  A    between atoms: N7_25  and  C9_28 
REMARK   11  A    between atoms: C9_28  and  C10_29 
REMARK   12  A    between atoms: C10_29  and  N8_30 
REMARK   13  A    between atoms: C10_29  and  C11_34 
ROOT
HETATM    1  N2  UNL     1      -3.352   0.750   0.269  1.00  0.00    -0.078 N 
HETATM    2  C3  UNL     1      -3.791   1.961   0.621  1.00  0.00     0.358 A 
HETATM    3  O2  UNL     1      -5.021   2.238   0.728  1.00  0.00    -0.245 OA
HETATM    4  N3  UNL     1      -2.908   2.961   0.882  1.00  0.00    -0.140 N 
ATOM      5  H3  UNL     1      -3.252   3.883   1.150  1.00  0.00     0.189 HD
HETATM    6  C4  UNL     1      -1.594   2.746   0.791  1.00  0.00     0.694 A 
HETATM    7  N5  UNL     1      -1.170   1.524   0.436  1.00  0.00    -0.022 N 
ATOM      8  H5  UNL     1      -0.168   1.347   0.362  1.00  0.00     0.203 HD
HETATM    9  C5  UNL     1      -2.032   0.529   0.176  1.00  0.00     0.702 A 
ENDROOT
BRANCH   9  10
HETATM   10  N6  UNL     1      -1.614  -0.643  -0.164  1.00  0.00    -0.225 N 
ATOM     11  H6  UNL     1      -2.327  -1.350  -0.346  1.00  0.00     0.177 HD
BRANCH  10  12
HETATM   12  C6  UNL     1      -0.253  -1.050  -0.311  1.00  0.00     0.139 C 
BRANCH  12  13
HETATM   13  C7  UNL     1       0.365  -0.662  -1.609  1.00  0.00     0.048 C 
BRANCH  13  14
HETATM   14  C8  UNL     1       1.792  -1.120  -1.713  1.00  0.00     0.234 C 
BRANCH  14  15
HETATM   15  N7  UNL     1       2.616  -0.559  -0.685  1.00  0.00    -0.073 N 
ATOM     16  H72 UNL     1       2.543   0.458  -0.666  1.00  0.00     0.277 HD
ATOM     17  H71 UNL     1       2.243  -0.764   0.242  1.00  0.00     0.277 HD
BRANCH  15  18
HETATM   18  C9  UNL     1       4.000  -0.988  -0.805  1.00  0.00     0.270 C 
BRANCH  18  19
HETATM   19  C10 UNL     1       4.842  -0.376   0.300  1.00  0.00     0.246 C 
BRANCH  19  20
HETATM   20  N8  UNL     1       6.216  -0.830   0.142  1.00  0.00    -0.069 N 
ATOM     21  H83 UNL     1       6.291  -1.847   0.111  1.00  0.00     0.275 HD
ATOM     22  H82 UNL     1       6.588  -0.634  -0.787  1.00  0.00     0.275 HD
ATOM     23  H81 UNL     1       6.782  -0.419   0.884  1.00  0.00     0.275 HD
ENDBRANCH  19  20
BRANCH  19  24
HETATM   24  C11 UNL     1       4.847   1.100   0.255  1.00  0.00     0.087 C 
HETATM   25  N9  UNL     1       5.835   1.743   0.720  1.00  0.00    -0.409 N 
ATOM     26  H92 UNL     1       6.618   1.227   1.121  1.00  0.00     0.155 HD
ATOM     27  H91 UNL     1       5.838   2.763   0.689  1.00  0.00     0.155 HD
ENDBRANCH  19  24
ENDBRANCH  18  19
ENDBRANCH  15  18
ENDBRANCH  14  15
ENDBRANCH  13  14
ENDBRANCH  12  13
ENDBRANCH  10  12
ENDBRANCH   9  10
BRANCH   1  28
HETATM   28  C2  UNL     1      -4.350  -0.278   0.003  1.00  0.00     0.452 C 
BRANCH  28  29
HETATM   29  O1  UNL     1      -3.830  -1.543   0.067  1.00  0.00    -0.348 OA
HETATM   30  C1  UNL     1      -4.443  -2.254   1.093  1.00  0.00     0.206 C 
ENDBRANCH  28  29
BRANCH  28  31
HETATM   31  N1  UNL     1      -4.889   0.020  -1.320  1.00  0.00    -0.034 N 
ATOM     32  H13 UNL     1      -4.191  -0.132  -2.048  1.00  0.00     0.279 HD
ATOM     33  H12 UNL     1      -5.575  -0.678  -1.608  1.00  0.00     0.279 HD
ATOM     34  H11 UNL     1      -5.276   0.962  -1.368  1.00  0.00     0.279 HD
ENDBRANCH  28  31
ENDBRANCH   1  28
BRANCH   6  35
HETATM   35  N4  UNL     1      -0.707   3.669   1.030  1.00  0.00    -0.234 N 
ATOM     36  H42 UNL     1      -1.029   4.598   1.300  1.00  0.00     0.174 HD
ATOM     37  H41 UNL     1       0.297   3.505   0.960  1.00  0.00     0.174 HD
ENDBRANCH   6  35
TORSDOF 13
