REMARK  8 active torsions:
REMARK  status: ('A' for Active; 'I' for Inactive)
REMARK    1  A    between atoms: C2_2  and  N1_3 
REMARK    2  A    between atoms: C3_4  and  C4_5 
REMARK    3  A    between atoms: C10_16  and  N5_17 
REMARK    4  A    between atoms: N5_17  and  C11_19 
REMARK    5  A    between atoms: C13_21  and  C14_22 
REMARK       I    between atoms: C14_22  and  N6_24 
REMARK    6  A    between atoms: N6_24  and  C15_26 
REMARK    7  A    between atoms: C17_28  and  C18_29 
REMARK    8  A    between atoms: C18_29  and  O2_30 
ROOT
HETATM    1  N5  UNL     1      -0.706   0.385   1.130  1.00  0.00    -0.340 N 
ATOM      2  H5  UNL     1      -1.445   1.070   0.973  1.00  0.00     0.167 HD
ENDROOT
BRANCH   1   3
HETATM    3  C10 UNL     1      -1.018  -0.811   0.894  1.00  0.00     0.137 A 
HETATM    4  C9  UNL     1      -2.325  -1.055   0.449  1.00  0.00     0.123 A 
HETATM    5  N4  UNL     1      -3.352  -0.233   0.216  1.00  0.00    -0.335 N 
HETATM    6  C27 UNL     1      -2.739  -2.332   0.170  1.00  0.00     0.141 A 
HETATM    7  C3  UNL     1      -4.437  -0.982  -0.215  1.00  0.00     0.123 A 
ATOM      8  H4  UNL     1      -3.340   0.780   0.336  1.00  0.00     0.168 HD
HETATM    9  N1  UNL     1      -4.058  -2.255  -0.242  1.00  0.00    -0.317 N 
HETATM   10  N8  UNL     1      -1.882  -3.353   0.327  1.00  0.00    -0.336 N 
HETATM   11  C26 UNL     1      -0.627  -3.092   0.758  1.00  0.00     0.183 A 
ATOM     12  H8  UNL     1      -2.172  -4.310   0.125  1.00  0.00     0.168 HD
HETATM   13  N7  UNL     1      -0.199  -1.858   1.036  1.00  0.00    -0.337 N 
ATOM     14  H7  UNL     1       0.758  -1.714   1.358  1.00  0.00     0.168 HD
BRANCH   7  15
HETATM   15  C4  UNL     1      -5.642  -0.270  -0.604  1.00  0.00     0.049 A 
HETATM   16  C5  UNL     1      -5.575   0.986  -1.260  1.00  0.00     0.127 A 
HETATM   17  N2  UNL     1      -6.808   1.469  -1.449  1.00  0.00    -0.307 N 
HETATM   18  C6  UNL     1      -7.145   2.724  -2.087  1.00  0.00     0.177 C 
HETATM   19  N3  UNL     1      -7.627   0.588  -0.949  1.00  0.00    -0.303 N 
HETATM   20  C7  UNL     1      -6.960  -0.476  -0.428  1.00  0.00     0.037 A 
ATOM     21  H3  UNL     1      -8.642   0.684  -0.948  1.00  0.00     0.186 HD
HETATM   22  C8  UNL     1      -7.694  -1.578   0.249  1.00  0.00     0.070 C 
ENDBRANCH   7  15
BRANCH   9  23
HETATM   23  C2  UNL     1      -4.789  -3.426  -0.652  1.00  0.00     0.128 C 
HETATM   24  C1  UNL     1      -4.660  -3.660  -2.154  1.00  0.00     0.027 C 
ENDBRANCH   9  23
ENDBRANCH   1   3
BRANCH   1  25
HETATM   25  C11 UNL     1       0.522   0.911   1.581  1.00  0.00     0.040 A 
HETATM   26  C12 UNL     1       1.705   0.712   0.919  1.00  0.00     0.050 A 
HETATM   27  C13 UNL     1       2.945   1.224   1.339  1.00  0.00     0.073 A 
HETATM   28  C22 UNL     1       2.905   1.958   2.491  1.00  0.00     0.132 A 
HETATM   29  F3  UNL     1       4.030   2.480   3.023  1.00  0.00    -0.205 F 
HETATM   30  C23 UNL     1       1.714   2.184   3.199  1.00  0.00     0.052 A 
HETATM   31  C24 UNL     1       0.530   1.664   2.747  1.00  0.00    -0.032 A 
HETATM   32  C25 UNL     1      -0.763   1.875   3.459  1.00  0.00     0.050 C 
BRANCH  27  33
HETATM   33  C14 UNL     1       4.129   0.974   0.520  1.00  0.00     0.259 C 
HETATM   34  O1  UNL     1       4.059  -0.068  -0.181  1.00  0.00    -0.267 OA
HETATM   35  N6  UNL     1       5.245   1.776   0.481  1.00  0.00    -0.320 N 
ATOM     36  H6  UNL     1       5.197   2.601   1.078  1.00  0.00     0.169 HD
BRANCH  35  37
HETATM   37  C15 UNL     1       6.452   1.645  -0.253  1.00  0.00     0.074 A 
HETATM   38  C16 UNL     1       6.693   0.599  -1.095  1.00  0.00     0.045 A 
HETATM   39  C17 UNL     1       7.907   0.516  -1.795  1.00  0.00     0.006 A 
HETATM   40  C19 UNL     1       8.874   1.483  -1.649  1.00  0.00     0.127 A 
HETATM   41  F1  UNL     1      10.060   1.423  -2.318  1.00  0.00    -0.205 F 
HETATM   42  C20 UNL     1       8.628   2.527  -0.807  1.00  0.00     0.087 A 
HETATM   43  C21 UNL     1       7.450   2.610  -0.126  1.00  0.00     0.146 A 
HETATM   44  F2  UNL     1       7.228   3.656   0.705  1.00  0.00    -0.204 F 
BRANCH  39  45
HETATM   45  C18 UNL     1       8.173  -0.633  -2.717  1.00  0.00     0.206 C 
BRANCH  45  46
HETATM   46  O2  UNL     1       7.061  -1.470  -2.699  1.00  0.00    -0.396 OA
ATOM     47  H2  UNL     1       7.230  -2.199  -3.284  1.00  0.00     0.209 HD
ENDBRANCH  45  46
ENDBRANCH  39  45
ENDBRANCH  35  37
ENDBRANCH  27  33
ENDBRANCH   1  25
TORSDOF 8
