REMARK  8 active torsions:
REMARK  status: ('A' for Active; 'I' for Inactive)
REMARK    1  A    between atoms: C2_2  and  C3_3 
REMARK    2  A    between atoms: N1_5  and  N2_7 
REMARK    3  A    between atoms: C7_13  and  C8_14 
REMARK    4  A    between atoms: C8_14  and  O3_15 
REMARK    5  A    between atoms: C8_14  and  N3_17 
REMARK    6  A    between atoms: N3_17  and  C9_19 
REMARK    7  A    between atoms: C10_20  and  C11_21 
REMARK       I    between atoms: C11_21  and  N4_23 
REMARK    8  A    between atoms: N4_23  and  C12_25 
ROOT
HETATM    1  C12 UNL     1       3.092   0.277   0.645  1.00  0.00     0.058 A 
HETATM    2  C13 UNL     1       2.304   1.353   0.923  1.00  0.00     0.041 A 
HETATM    3  C14 UNL     1       2.804   2.516   1.523  1.00  0.00    -0.019 A 
HETATM    4  C15 UNL     1       1.894   3.650   1.799  1.00  0.00     0.051 C 
HETATM    5  C16 UNL     1       4.138   2.554   1.837  1.00  0.00     0.148 A 
HETATM    6  F1  UNL     1       4.686   3.654   2.422  1.00  0.00    -0.203 F 
HETATM    7  C17 UNL     1       4.961   1.466   1.563  1.00  0.00     0.108 A 
HETATM    8  N5  UNL     1       6.334   1.469   1.871  1.00  0.00    -0.097 NA
HETATM    9  C18 UNL     1       4.453   0.338   0.975  1.00  0.00     0.098 A 
HETATM   10  C19 UNL     1       5.312  -0.803   0.685  1.00  0.00     0.104 C 
HETATM   11  N6  UNL     1       6.003  -1.703   0.462  1.00  0.00    -0.191 NA
ENDROOT
BRANCH   1  12
HETATM   12  N4  UNL     1       2.577  -0.902   0.043  1.00  0.00    -0.321 N 
HETATM   13  C11 UNL     1       1.266  -1.152  -0.381  1.00  0.00     0.258 C 
HETATM   14  O4  UNL     1       0.320  -0.356  -0.296  1.00  0.00    -0.267 OA
ATOM     15  H4  UNL     1       3.245  -1.660  -0.098  1.00  0.00     0.169 HD
BRANCH  13  16
HETATM   16  C10 UNL     1       0.937  -2.465  -0.988  1.00  0.00     0.060 A 
HETATM   17  C9  UNL     1      -0.357  -2.698  -1.372  1.00  0.00     0.073 A 
HETATM   18  C23 UNL     1      -0.693  -3.892  -1.960  1.00  0.00     0.083 A 
HETATM   19  C22 UNL     1       0.264  -4.886  -2.178  1.00  0.00     0.058 A 
HETATM   20 CL3  UNL     1      -2.338  -4.196  -2.453  1.00  0.00    -0.080 Cl
HETATM   21  C21 UNL     1       1.561  -4.646  -1.789  1.00  0.00     0.027 A 
HETATM   22 CL2  UNL     1      -0.211  -6.394  -2.933  1.00  0.00    -0.082 Cl
HETATM   23  C20 UNL     1       1.919  -3.434  -1.189  1.00  0.00     0.021 A 
BRANCH  17  24
HETATM   24  N3  UNL     1      -1.450  -1.752  -1.174  1.00  0.00    -0.333 N 
ATOM     25  H3  UNL     1      -1.639  -1.020  -1.859  1.00  0.00     0.168 HD
BRANCH  24  26
HETATM   26  C8  UNL     1      -2.231  -1.875  -0.023  1.00  0.00     0.172 C 
BRANCH  26  27
HETATM   27  C7  UNL     1      -3.359  -1.053   0.369  1.00  0.00     0.132 C 
HETATM   28  N2  UNL     1      -3.881   0.044  -0.364  1.00  0.00    -0.216 N 
HETATM   29  C4  UNL     1      -5.041   0.794   0.107  1.00  0.00     0.267 C 
HETATM   30  O1  UNL     1      -5.705   1.505  -0.691  1.00  0.00    -0.269 OA
HETATM   31  C5  UNL     1      -5.380   0.671   1.546  1.00  0.00     0.279 C 
HETATM   32  O2  UNL     1      -5.078  -0.659   1.977  1.00  0.00    -0.351 OA
HETATM   33  C6  UNL     1      -3.997  -1.355   1.525  1.00  0.00     0.171 C 
BRANCH  28  34
HETATM   34  N1  UNL     1      -3.353   0.485  -1.548  1.00  0.00    -0.298 N 
HETATM   35  C2  UNL     1      -2.846   1.635  -1.752  1.00  0.00     0.014 C 
HETATM   36  C1  UNL     1      -2.311   1.958  -3.129  1.00  0.00     0.066 C 
ATOM     37  H1  UNL     1      -3.367  -0.164  -2.335  1.00  0.00     0.187 HD
BRANCH  35  38
HETATM   38  C3  UNL     1      -2.749   2.654  -0.696  1.00  0.00     0.168 C 
HETATM   39 CL1  UNL     1      -1.082   3.353  -0.716  1.00  0.00    -0.124 Cl
ENDBRANCH  35  38
ENDBRANCH  28  34
ENDBRANCH  26  27
BRANCH  26  40
HETATM   40  O3  UNL     1      -1.933  -2.833   0.810  1.00  0.00    -0.344 OA
ATOM     41  H3  UNL     1      -1.194  -3.372   0.553  1.00  0.00     0.219 HD
ENDBRANCH  26  40
ENDBRANCH  24  26
ENDBRANCH  17  24
ENDBRANCH  13  16
ENDBRANCH   1  12
TORSDOF 8
