REMARK  2 active torsions:
REMARK  status: ('A' for Active; 'I' for Inactive)
REMARK    1  A    between atoms: N1_2  and  C2_3 
REMARK    2  A    between atoms: N1_2  and  C11_13 
ROOT
HETATM    1  C2  UNL     1       0.720  -1.014  -0.378  1.00  0.00     0.246 C 
HETATM    2  C3  UNL     1       1.733  -1.950   0.187  1.00  0.00     0.010 C 
HETATM    3  C4  UNL     1       3.015  -1.808   0.495  1.00  0.00     0.017 C 
HETATM    4  C5  UNL     1       3.796  -0.568   0.327  1.00  0.00     0.011 A 
HETATM    5  S1  UNL     1       5.507  -0.462   0.197  1.00  0.00    -0.102 SA
HETATM    6  C6  UNL     1       5.675   1.228   0.033  1.00  0.00     0.051 A 
HETATM    7  C7  UNL     1       4.377   1.660   0.084  1.00  0.00     0.015 A 
HETATM    8  C8  UNL     1       3.414   0.745   0.234  1.00  0.00    -0.041 A 
HETATM    9  C9  UNL     1       1.935   1.116   0.302  1.00  0.00     0.042 C 
HETATM   10  C10 UNL     1       1.234   0.324  -0.736  1.00  0.00     0.044 C 
ENDROOT
BRANCH   1  11
HETATM   11  N1  UNL     1      -0.447  -1.065   0.416  1.00  0.00     0.097 N 
HETATM   12  C1  UNL     1      -1.009  -2.395   0.364  1.00  0.00     0.311 C 
BRANCH  11  13
HETATM   13  C11 UNL     1      -1.424  -0.055   0.185  1.00  0.00     0.223 C 
HETATM   14  C12 UNL     1      -2.076  -0.097  -1.162  1.00  0.00     0.036 C 
HETATM   15  C13 UNL     1      -2.803   1.234  -1.342  1.00  0.00     0.002 C 
HETATM   16  C14 UNL     1      -3.885   1.318  -0.285  1.00  0.00     0.000 C 
HETATM   17  C15 UNL     1      -3.384   1.073   1.099  1.00  0.00     0.002 C 
HETATM   18  C16 UNL     1      -2.531  -0.190   1.206  1.00  0.00     0.036 C 
ENDBRANCH  11  13
ENDBRANCH   1  11
TORSDOF 2
