REMARK  2 active torsions:
REMARK  status: ('A' for Active; 'I' for Inactive)
REMARK    1  A    between atoms: C3_4  and  C4_5 
REMARK    2  A    between atoms: N2_10  and  C7_11 
ROOT
HETATM    1  C4  UNL     1       1.837  -1.266  -0.427  1.00  0.00     0.069 A 
HETATM    2  C5  UNL     1       2.438  -2.464  -0.912  1.00  0.00     0.119 A 
HETATM    3  N1  UNL     1       1.438  -3.293  -1.115  1.00  0.00    -0.360 N 
ATOM      4  H1  UNL     1       1.524  -4.248  -1.464  1.00  0.00     0.166 HD
HETATM    5  C6  UNL     1       0.301  -2.693  -0.795  1.00  0.00     0.184 A 
HETATM    6  N2  UNL     1       0.542  -1.399  -0.358  1.00  0.00    -0.330 N 
ENDROOT
BRANCH   6   7
HETATM    7  C7  UNL     1      -0.516  -0.537  -0.019  1.00  0.00     0.043 C 
HETATM    8  C8  UNL     1      -0.913  -0.529   1.460  1.00  0.00     0.036 C 
HETATM    9  C9  UNL     1      -1.883   0.631   1.474  1.00  0.00    -0.011 C 
HETATM   10  C10 UNL     1      -3.127   0.371   0.642  1.00  0.00     0.009 C 
HETATM   11  C14 UNL     1      -1.075   1.675   0.726  1.00  0.00     0.012 C 
HETATM   12  C11 UNL     1      -2.733  -0.034  -0.748  1.00  0.00    -0.011 C 
HETATM   13  C12 UNL     1      -1.829   0.968  -1.429  1.00  0.00     0.012 C 
HETATM   14  C15 UNL     1      -1.791  -1.189  -0.656  1.00  0.00     0.036 C 
HETATM   15  C13 UNL     1      -0.611   0.830  -0.480  1.00  0.00     0.015 C 
ENDBRANCH   6   7
BRANCH   1  16
HETATM   16  C3  UNL     1       2.704  -0.128  -0.141  1.00  0.00     0.033 A 
HETATM   17  S1  UNL     1       4.268   0.170  -0.875  1.00  0.00    -0.100 SA
HETATM   18  C2  UNL     1       4.738   1.547  -0.004  1.00  0.00     0.050 A 
HETATM   19  C1  UNL     1       3.681   1.743   0.832  1.00  0.00     0.008 A 
HETATM   20  C16 UNL     1       2.657   0.888   0.755  1.00  0.00     0.021 A 
ENDBRANCH   1  16
TORSDOF 2
