REMARK  2 active torsions:
REMARK  status: ('A' for Active; 'I' for Inactive)
REMARK    1  A    between atoms: C4_4  and  C5_5 
REMARK    2  A    between atoms: N2_14  and  C12_15 
ROOT
HETATM    1  C5  UNL     1       1.577   0.582   0.138  1.00  0.00     0.136 A 
HETATM    2  N1  UNL     1       1.861   1.911   0.165  1.00  0.00    -0.339 N 
ATOM      3  H1  UNL     1       2.799   2.311   0.193  1.00  0.00     0.167 HD
HETATM    4  C6  UNL     1       0.728   2.612   0.149  1.00  0.00     0.060 A 
HETATM    5  C7  UNL     1       0.483   3.996   0.164  1.00  0.00     0.032 A 
HETATM    6  C8  UNL     1      -0.807   4.466   0.142  1.00  0.00     0.002 A 
HETATM    7  C9  UNL     1      -1.844   3.565   0.104  1.00  0.00     0.002 A 
HETATM    8  C10 UNL     1      -1.568   2.195   0.089  1.00  0.00     0.032 A 
HETATM    9  C11 UNL     1      -0.286   1.688   0.111  1.00  0.00     0.063 A 
HETATM   10  N2  UNL     1       0.248   0.415   0.104  1.00  0.00    -0.325 N 
ENDROOT
BRANCH   1  11
HETATM   11  C4  UNL     1       2.628  -0.421   0.148  1.00  0.00     0.076 A 
HETATM   12  C3  UNL     1       3.970  -0.006   0.186  1.00  0.00     0.033 A 
HETATM   13  C2  UNL     1       4.944  -0.961   0.194  1.00  0.00     0.004 A 
HETATM   14  C1  UNL     1       4.587  -2.291   0.166  1.00  0.00     0.017 A 
HETATM   15  C18 UNL     1       3.264  -2.692   0.128  1.00  0.00     0.088 A 
HETATM   16  N3  UNL     1       2.346  -1.719   0.121  1.00  0.00    -0.363 N 
ATOM     17  H3  UNL     1       1.364  -1.992   0.093  1.00  0.00     0.165 HD
ENDBRANCH   1  11
BRANCH  10  18
HETATM   18  C12 UNL     1      -0.576  -0.761   0.065  1.00  0.00     0.092 C 
HETATM   19  C13 UNL     1      -1.351  -0.822   1.355  1.00  0.00     0.026 C 
HETATM   20  C14 UNL     1      -2.546  -1.704   1.341  1.00  0.00     0.002 C 
HETATM   21  C15 UNL     1      -3.449  -1.454   0.160  1.00  0.00     0.000 C 
HETATM   22  C16 UNL     1      -2.644  -1.649  -1.079  1.00  0.00     0.002 C 
HETATM   23  C17 UNL     1      -1.409  -0.834  -1.189  1.00  0.00     0.026 C 
ENDBRANCH  10  18
TORSDOF 2
