REMARK  2 active torsions:
REMARK  status: ('A' for Active; 'I' for Inactive)
REMARK    1  A    between atoms: C3_5  and  C4_6 
REMARK    2  A    between atoms: C7_9  and  N2_10 
ROOT
HETATM    1  C4  UNL     1       1.786   0.033  -0.094  1.00  0.00     0.036 C 
HETATM    2  C5  UNL     1       1.203  -1.332   0.151  1.00  0.00     0.013 C 
HETATM    3  C6  UNL     1      -0.264  -1.110   0.477  1.00  0.00     0.026 C 
HETATM    4  C7  UNL     1      -0.991  -0.374  -0.593  1.00  0.00     0.079 C 
HETATM    5  C13 UNL     1      -0.269   0.865  -1.073  1.00  0.00     0.026 C 
HETATM    6  C14 UNL     1       1.183   0.520  -1.413  1.00  0.00     0.013 C 
ENDROOT
BRANCH   1   7
HETATM    7  C3  UNL     1       3.298  -0.075  -0.227  1.00  0.00     0.020 A 
HETATM    8  N1  UNL     1       4.089   0.658   0.504  1.00  0.00    -0.357 N 
HETATM    9  C2  UNL     1       5.388   0.555   0.379  1.00  0.00     0.047 A 
ATOM     10  H1  UNL     1       3.694   1.315   1.177  1.00  0.00     0.166 HD
HETATM   11  C1  UNL     1       6.489   1.294   1.111  1.00  0.00     0.076 C 
HETATM   12  S1  UNL     1       5.551  -0.637  -0.834  1.00  0.00    -0.087 SA
HETATM   13  C15 UNL     1       3.896  -0.940  -1.116  1.00  0.00     0.076 A 
ENDBRANCH   1   7
BRANCH   4  14
HETATM   14  N2  UNL     1      -2.306  -0.083  -0.178  1.00  0.00    -0.408 N 
HETATM   15  C8  UNL     1      -2.443   0.758   0.951  1.00  0.00     0.117 C 
HETATM   16  C9  UNL     1      -3.868   1.188   1.202  1.00  0.00     0.019 C 
HETATM   17  C10 UNL     1      -4.773   0.573   0.135  1.00  0.00     0.003 C 
HETATM   18  C11 UNL     1      -4.567  -0.932   0.244  1.00  0.00     0.019 C 
HETATM   19  C12 UNL     1      -3.159  -1.206  -0.241  1.00  0.00     0.117 C 
ENDBRANCH   4  14
TORSDOF 2
