REMARK  2 active torsions:
REMARK  status: ('A' for Active; 'I' for Inactive)
REMARK    1  A    between atoms: N2_12  and  C9_14 
REMARK    2  A    between atoms: N3_22  and  O2_23 
ROOT
HETATM    1  C9  UNL     1       0.684   0.249   0.714  1.00  0.00     0.123 A 
HETATM    2  C10 UNL     1       1.653   0.861  -0.057  1.00  0.00     0.063 A 
HETATM    3  C11 UNL     1       2.972   0.446  -0.055  1.00  0.00    -0.002 A 
HETATM    4  C12 UNL     1       3.951   1.043  -0.817  1.00  0.00     0.014 A 
HETATM    5  C13 UNL     1       5.251   0.591  -0.778  1.00  0.00     0.001 A 
HETATM    6  C14 UNL     1       5.577  -0.479   0.040  1.00  0.00     0.002 A 
HETATM    7  C15 UNL     1       4.610  -1.092   0.812  1.00  0.00     0.035 A 
HETATM    8  C16 UNL     1       3.312  -0.624   0.758  1.00  0.00     0.091 A 
HETATM    9  N3  UNL     1       2.354  -1.205   1.501  1.00  0.00    -0.161 N 
HETATM   10  N4  UNL     1       1.086  -0.783   1.479  1.00  0.00    -0.259 N 
ATOM     11  H4  UNL     1       0.399  -1.260   2.063  1.00  0.00     0.191 HD
ENDROOT
BRANCH   1  12
HETATM   12  N2  UNL     1      -0.676   0.669   0.718  1.00  0.00    -0.336 N 
HETATM   13  C8  UNL     1      -1.580   0.026   0.063  1.00  0.00     0.115 A 
HETATM   14  C1  UNL     1      -1.426  -1.163  -0.751  1.00  0.00     0.273 A 
HETATM   15  C7  UNL     1      -2.988   0.400   0.023  1.00  0.00     0.023 A 
HETATM   16  O1  UNL     1      -0.356  -1.799  -0.972  1.00  0.00    -0.266 OA
HETATM   17  N1  UNL     1      -2.735  -1.462  -1.249  1.00  0.00    -0.321 N 
HETATM   18  C2  UNL     1      -3.671  -0.505  -0.771  1.00  0.00     0.047 A 
ATOM     19  H1  UNL     1      -2.963  -2.248  -1.858  1.00  0.00     0.169 HD
HETATM   20  C3  UNL     1      -5.033  -0.394  -0.987  1.00  0.00     0.030 A 
HETATM   21  C4  UNL     1      -5.689   0.657  -0.381  1.00  0.00     0.002 A 
HETATM   22  C5  UNL     1      -5.033   1.563   0.407  1.00  0.00     0.001 A 
HETATM   23  C6  UNL     1      -3.667   1.442   0.618  1.00  0.00     0.016 A 
ATOM     24  H2  UNL     1      -0.941   1.497   1.251  1.00  0.00     0.168 HD
ENDBRANCH   1  12
BRANCH   9  25
HETATM   25  O2  UNL     1       2.739  -2.268   2.296  1.00  0.00    -0.267 OA
ATOM     26  H2  UNL     1       2.062  -2.679   2.821  1.00  0.00     0.247 HD
ENDBRANCH   9  25
TORSDOF 2
