REMARK  2 active torsions:
REMARK  status: ('A' for Active; 'I' for Inactive)
REMARK    1  A    between atoms: C7_7  and  O1_8 
REMARK    2  A    between atoms: C10_12  and  C11_13 
ROOT
HETATM    1  C1  UNL     1       5.344  -0.900  -0.118  1.00  0.00     0.026 C 
HETATM    2  C2  UNL     1       4.231  -0.223  -0.296  1.00  0.00    -0.012 A 
HETATM    3  C3  UNL     1       4.228   0.950  -0.999  1.00  0.00     0.015 A 
HETATM    4  C4  UNL     1       3.054   1.637  -1.169  1.00  0.00     0.031 A 
HETATM    5  C5  UNL     1       1.873   1.122  -0.619  1.00  0.00     0.043 A 
HETATM    6  C6  UNL     1       1.862  -0.062   0.090  1.00  0.00     0.006 A 
HETATM    7  C7  UNL     1       3.072  -0.755   0.260  1.00  0.00     0.084 A 
HETATM    8  C8  UNL     1       0.880  -0.914   0.757  1.00  0.00     0.072 C 
HETATM    9  C9  UNL     1      -0.551  -0.671   0.563  1.00  0.00    -0.007 C 
HETATM   10  C10 UNL     1      -1.497   0.150   0.185  1.00  0.00     0.003 C 
HETATM   11  C16 UNL     1      -1.443   1.524  -0.329  1.00  0.00     0.089 A 
HETATM   12  C17 UNL     1      -0.382   2.272  -0.791  1.00  0.00     0.134 A 
HETATM   13  N2  UNL     1       0.993   2.003  -0.935  1.00  0.00    -0.340 N 
ATOM     14  H2  UNL     1       1.435   2.755  -1.464  1.00  0.00     0.167 HD
HETATM   15  N3  UNL     1      -1.644   2.872  -0.787  1.00  0.00    -0.337 N 
ATOM     16  H3  UNL     1      -2.253   3.670  -0.971  1.00  0.00     0.167 HD
ENDROOT
BRANCH  10  17
HETATM   17  C11 UNL     1      -2.856  -0.326   0.268  1.00  0.00    -0.008 A 
HETATM   18  C12 UNL     1      -3.885   0.554  -0.141  1.00  0.00     0.015 A 
HETATM   19  C13 UNL     1      -5.217   0.223  -0.110  1.00  0.00     0.018 A 
HETATM   20  C14 UNL     1      -5.546  -1.031   0.343  1.00  0.00     0.087 A 
HETATM   21  N1  UNL     1      -4.606  -1.887   0.736  1.00  0.00    -0.374 N 
HETATM   22  C15 UNL     1      -3.282  -1.552   0.703  1.00  0.00     0.100 A 
ATOM     23  H1  UNL     1      -4.879  -2.812   1.069  1.00  0.00     0.164 HD
ENDBRANCH  10  17
BRANCH   7  24
HETATM   24  O1  UNL     1       3.123  -1.928   0.958  1.00  0.00    -0.359 OA
ATOM     25  H1  UNL     1       2.332  -2.291   1.338  1.00  0.00     0.217 HD
ENDBRANCH   7  24
TORSDOF 2
