REMARK  2 active torsions:
REMARK  status: ('A' for Active; 'I' for Inactive)
REMARK    1  A    between atoms: C9_16  and  C10_17 
REMARK    2  A    between atoms: C11_18  and  C12_19 
ROOT
HETATM    1  O1  UNL     1       0.763  -3.383   0.252  1.00  0.00    -0.267 OA
HETATM    2  C1  UNL     1      -0.205  -2.580   0.235  1.00  0.00     0.264 A 
HETATM    3  N1  UNL     1      -1.440  -3.090   0.267  1.00  0.00    -0.332 N 
ATOM      4  H1  UNL     1      -1.589  -4.098   0.303  1.00  0.00     0.168 HD
HETATM    5  C2  UNL     1      -2.481  -2.240   0.250  1.00  0.00     0.106 A 
HETATM    6  C3  UNL     1      -2.326  -0.875   0.200  1.00  0.00     0.025 A 
HETATM    7  C4  UNL     1      -3.472  -0.014   0.183  1.00  0.00     0.116 A 
HETATM    8  N2  UNL     1      -4.718  -0.524   0.216  1.00  0.00    -0.352 N 
ATOM      9  H2  UNL     1      -4.829  -1.537   0.253  1.00  0.00     0.166 HD
HETATM   10  C5  UNL     1      -5.820   0.240   0.202  1.00  0.00     0.091 A 
HETATM   11  C6  UNL     1      -5.667   1.610   0.152  1.00  0.00     0.034 A 
HETATM   12  C7  UNL     1      -4.413   2.156   0.118  1.00  0.00     0.091 A 
HETATM   13  N3  UNL     1      -3.338   1.327   0.135  1.00  0.00    -0.352 N 
ATOM     14  H3  UNL     1      -2.401   1.730   0.111  1.00  0.00     0.166 HD
HETATM   15  C8  UNL     1      -1.045  -0.359   0.167  1.00  0.00     0.043 A 
HETATM   16  C9  UNL     1       0.031  -1.209   0.184  1.00  0.00     0.087 A 
ENDROOT
BRANCH  16  17
HETATM   17  C10 UNL     1       1.352  -0.653   0.149  1.00  0.00    -0.054 C 
HETATM   18  C11 UNL     1       2.474  -0.204   0.118  1.00  0.00    -0.043 C 
BRANCH  18  19
HETATM   19  C12 UNL     1       3.828   0.315   0.093  1.00  0.00     0.086 A 
HETATM   20  C13 UNL     1       4.171   1.338  -0.773  1.00  0.00     0.039 A 
HETATM   21  C14 UNL     1       5.436   1.846  -0.819  1.00  0.00     0.004 A 
HETATM   22  C15 UNL     1       6.378   1.290   0.048  1.00  0.00     0.017 A 
HETATM   23  C16 UNL     1       6.044   0.269   0.915  1.00  0.00     0.089 A 
HETATM   24  N4  UNL     1       4.784  -0.174   0.899  1.00  0.00    -0.359 N 
ATOM     25  H4  UNL     1       4.533  -0.929   1.537  1.00  0.00     0.166 HD
ENDBRANCH  18  19
ENDBRANCH  16  17
TORSDOF 2
