REMARK  8 active torsions:
REMARK  status: ('A' for Active; 'I' for Inactive)
REMARK    1  A    between atoms: N1_1  and  N2_4 
REMARK       I    between atoms: C1_6  and  N4_8 
REMARK       I    between atoms: N4_8  and  C2_10 
REMARK    2  A    between atoms: C2_10  and  C3_12 
REMARK    3  A    between atoms: C3_12  and  C4_13 
REMARK    4  A    between atoms: C4_13  and  S1_14 
REMARK    5  A    between atoms: S1_14  and  C5_15 
REMARK    6  A    between atoms: C5_15  and  C6_16 
REMARK    7  A    between atoms: N5_22  and  S2_24 
REMARK    8  A    between atoms: S2_24  and  C10_27 
ROOT
HETATM    1  C3  UNL     1      -0.013   0.744  -0.698  1.00  0.00     0.097 C 
HETATM    2  N5  UNL     1      -0.896   0.285   0.062  1.00  0.00    -0.278 N 
ATOM      3  H5  UNL     1      -1.204  -0.659  -0.172  1.00  0.00     0.179 HD
ENDROOT
BRANCH   1   4
HETATM    4  C2  UNL     1       0.587   2.057  -0.579  1.00  0.00     0.271 C 
HETATM    5  N4  UNL     1       1.586   2.495  -1.489  1.00  0.00    -0.295 N 
HETATM    6  C1  UNL     1       2.175   3.773  -1.383  1.00  0.00     0.209 C 
ATOM      7  H4  UNL     1       1.885   1.870  -2.238  1.00  0.00     0.171 HD
HETATM    8  N2  UNL     1       3.087   4.194  -2.197  1.00  0.00    -0.280 N 
HETATM    9  N3  UNL     1       1.769   4.658  -0.352  1.00  0.00    -0.062 NA
ATOM     10  H2  UNL     1       3.398   3.576  -2.947  1.00  0.00     0.189 HD
HETATM   11  O1  UNL     1       0.228   2.851   0.350  1.00  0.00    -0.266 OA
BRANCH   8  12
HETATM   12  N1  UNL     1       3.659   5.451  -2.091  1.00  0.00    -0.343 N 
ATOM     13  H12 UNL     1       3.337   6.056  -1.336  1.00  0.00     0.176 HD
ATOM     14  H11 UNL     1       4.379   5.783  -2.733  1.00  0.00     0.176 HD
ENDBRANCH   8  12
ENDBRANCH   1   4
BRANCH   1  15
HETATM   15  C4  UNL     1       0.460  -0.145  -1.822  1.00  0.00     0.137 C 
BRANCH  15  16
HETATM   16  S1  UNL     1      -0.373  -1.748  -1.787  1.00  0.00    -0.156 SA
BRANCH  16  17
HETATM   17  C5  UNL     1       0.082  -2.706  -0.321  1.00  0.00     0.139 C 
BRANCH  17  18
HETATM   18  C6  UNL     1       1.489  -3.116  -0.302  1.00  0.00     0.063 A 
HETATM   19  C7  UNL     1       1.942  -4.322  -0.847  1.00  0.00     0.037 A 
HETATM   20  C8  UNL     1       3.302  -4.390  -0.659  1.00  0.00     0.048 A 
HETATM   21  C9  UNL     1       3.633  -3.223  -0.006  1.00  0.00     0.121 A 
HETATM   22 BR1  UNL     1       5.365  -2.666   0.563  1.00  0.00    -0.023 Br
HETATM   23  O2  UNL     1       2.549  -2.520   0.178  1.00  0.00    -0.307 OA
ENDBRANCH  17  18
ENDBRANCH  16  17
ENDBRANCH  15  16
ENDBRANCH   1  15
BRANCH   2  24
HETATM   24  S2  UNL     1      -1.667   0.957   1.408  1.00  0.00     0.263 S 
HETATM   25  O3  UNL     1      -2.456   2.217   1.098  1.00  0.00    -0.200 OA
HETATM   26  O4  UNL     1      -0.746   1.281   2.550  1.00  0.00    -0.200 OA
BRANCH  24  27
HETATM   27  C10 UNL     1      -2.900  -0.189   1.970  1.00  0.00     0.080 A 
HETATM   28  C11 UNL     1      -4.185  -0.134   1.512  1.00  0.00     0.027 A 
HETATM   29  C12 UNL     1      -5.197  -0.990   1.900  1.00  0.00     0.025 A 
HETATM   30  C13 UNL     1      -4.855  -1.968   2.823  1.00  0.00     0.034 A 
HETATM   31 CL1  UNL     1      -6.106  -3.080   3.347  1.00  0.00    -0.084 Cl
HETATM   32  C14 UNL     1      -3.561  -2.059   3.313  1.00  0.00     0.025 A 
HETATM   33  C15 UNL     1      -2.589  -1.172   2.887  1.00  0.00     0.027 A 
ENDBRANCH  24  27
ENDBRANCH   2  24
TORSDOF 8
