REMARK  12 active torsions:
REMARK  status: ('A' for Active; 'I' for Inactive)
REMARK    1  A    between atoms: C2_2  and  C4_4 
REMARK    2  A    between atoms: C4_4  and  N1_5 
REMARK    3  A    between atoms: C4_4  and  C20_33 
REMARK       I    between atoms: N1_5  and  C5_7 
REMARK    4  A    between atoms: C5_7  and  C6_9 
REMARK    5  A    between atoms: C7_11  and  C8_12 
REMARK    6  A    between atoms: N2_15  and  C9_16 
REMARK    7  A    between atoms: C9_16  and  O5_17 
REMARK    8  A    between atoms: C9_16  and  C10_19 
REMARK    9  A    between atoms: C10_19  and  N3_20 
REMARK   10  A    between atoms: C10_19  and  C16_29 
REMARK       I    between atoms: N3_20  and  C11_22 
REMARK   11  A    between atoms: C11_22  and  O7_24 
REMARK   12  A    between atoms: O7_24  and  C12_25 
ROOT
HETATM    1  C6  UNL     1      -1.778  -1.277   1.749  1.00  0.00     0.324 C 
HETATM    2  O2  UNL     1      -2.245  -2.481   1.269  1.00  0.00    -0.322 OA
HETATM    3  C7  UNL     1      -1.129  -2.455   0.356  1.00  0.00     0.333 C 
HETATM    4  N2  UNL     1      -0.429  -1.560   1.194  1.00  0.00    -0.289 N 
ENDROOT
BRANCH   4   5
HETATM    5  C9  UNL     1       0.805  -1.039   1.537  1.00  0.00     0.167 C 
BRANCH   5   6
HETATM    6  O5  UNL     1       0.701  -0.008   2.394  1.00  0.00    -0.345 OA
ATOM      7  H5  UNL     1       1.549   0.350   2.630  1.00  0.00     0.219 HD
ENDBRANCH   5   6
BRANCH   5   8
HETATM    8  C10 UNL     1       2.202  -1.317   1.223  1.00  0.00     0.072 C 
BRANCH   8   9
HETATM    9  N3  UNL     1       2.952  -0.108   1.013  1.00  0.00    -0.301 N 
HETATM   10  C11 UNL     1       3.551   0.338  -0.148  1.00  0.00     0.365 C 
HETATM   11  O6  UNL     1       3.531  -0.240  -1.243  1.00  0.00    -0.238 OA
ATOM     12  H3  UNL     1       3.055   0.498   1.827  1.00  0.00     0.171 HD
BRANCH  10  13
HETATM   13  O7  UNL     1       4.280   1.564  -0.183  1.00  0.00    -0.294 OA
BRANCH  13  14
HETATM   14  C12 UNL     1       4.895   2.032  -1.347  1.00  0.00     0.061 C 
HETATM   15  C13 UNL     1       5.938   1.068  -1.881  1.00  0.00     0.046 C 
HETATM   16  C14 UNL     1       3.921   2.333  -2.456  1.00  0.00     0.046 C 
HETATM   17  C15 UNL     1       5.623   3.311  -1.000  1.00  0.00     0.046 C 
ENDBRANCH  13  14
ENDBRANCH  10  13
ENDBRANCH   8   9
BRANCH   8  18
HETATM   18  C16 UNL     1       2.633  -2.539   0.565  1.00  0.00    -0.004 C 
HETATM   19  C17 UNL     1       4.162  -2.604   0.443  1.00  0.00     0.021 C 
HETATM   20  C18 UNL     1       2.099  -2.926  -0.760  1.00  0.00     0.021 C 
HETATM   21  C19 UNL     1       2.308  -3.760   1.494  1.00  0.00     0.021 C 
ENDBRANCH   8  18
ENDBRANCH   5   8
ENDBRANCH   4   5
BRANCH   1  22
HETATM   22  C5  UNL     1      -2.426  -0.036   1.554  1.00  0.00     0.267 C 
HETATM   23  N1  UNL     1      -3.722   0.202   1.037  1.00  0.00    -0.349 N 
ATOM     24  H1  UNL     1      -4.274  -0.610   0.760  1.00  0.00     0.163 HD
HETATM   25  O1  UNL     1      -1.808   1.044   1.875  1.00  0.00    -0.269 OA
BRANCH  23  26
HETATM   26  C4  UNL     1      -4.325   1.509   0.871  1.00  0.00     0.126 C 
BRANCH  26  27
HETATM   27  C2  UNL     1      -4.490   1.846  -0.565  1.00  0.00     0.003 C 
HETATM   28  C1  UNL     1      -5.332   0.936  -1.383  1.00  0.00     0.011 C 
HETATM   29  C3  UNL     1      -4.934   3.277  -0.793  1.00  0.00     0.011 C 
ENDBRANCH  26  27
BRANCH  26  30
HETATM   30  C20 UNL     1      -5.505   1.716   1.756  1.00  0.00     0.130 C 
HETATM   31  C21 UNL     1      -6.729   0.921   1.385  1.00  0.00     0.052 C 
HETATM   32 CL1  UNL     1      -5.971   3.414   1.946  1.00  0.00    -0.100 Cl
HETATM   33 CL2  UNL     1      -5.064   1.153   3.415  1.00  0.00    -0.100 Cl
ENDBRANCH  26  30
ENDBRANCH  23  26
ENDBRANCH   1  22
BRANCH   3  34
HETATM   34  C8  UNL     1      -1.659  -2.126  -0.951  1.00  0.00     0.224 C 
HETATM   35  O3  UNL     1      -2.931  -2.238  -1.148  1.00  0.00    -0.645 OA
HETATM   36  O4  UNL     1      -1.000  -1.686  -2.083  1.00  0.00    -0.645 OA
ENDBRANCH   3  34
TORSDOF 12
