REMARK  12 active torsions:
REMARK  status: ('A' for Active; 'I' for Inactive)
REMARK       I    between atoms: C2_2  and  N1_4 
REMARK    1  A    between atoms: N2_7  and  S1_8 
REMARK    2  A    between atoms: S1_8  and  C5_11 
REMARK    3  A    between atoms: C5_11  and  C6_12 
REMARK    4  A    between atoms: C6_12  and  C7_13 
REMARK    5  A    between atoms: C7_13  and  C8_14 
REMARK    6  A    between atoms: C9_15  and  C10_16 
REMARK    7  A    between atoms: C10_16  and  O4_17 
REMARK    8  A    between atoms: N3_19  and  O5_21 
REMARK    9  A    between atoms: C13_25  and  C14_26 
REMARK   10  A    between atoms: C15_29  and  C17_31 
REMARK   11  A    between atoms: C18_32  and  C19_33 
REMARK   12  A    between atoms: C19_33  and  C20_34 
ROOT
HETATM    1  C8  UNL     1      -2.363   1.037  -0.146  1.00  0.00     0.018 C 
HETATM    2  C9  UNL     1      -2.582   2.392   0.365  1.00  0.00     0.068 C 
HETATM    3  C11 UNL     1      -4.070   2.676   0.467  1.00  0.00     0.014 C 
HETATM    4  C12 UNL     1      -4.917   1.584  -0.078  1.00  0.00     0.018 C 
HETATM    5  C13 UNL     1      -4.645   0.231   0.544  1.00  0.00     0.107 C 
HETATM    6  C15 UNL     1      -3.170  -0.080   0.440  1.00  0.00     0.037 C 
HETATM    7  C16 UNL     1      -2.684  -0.614   1.738  1.00  0.00     0.030 C 
ENDROOT
BRANCH   1   8
HETATM    8  C7  UNL     1      -0.922   0.598  -0.306  1.00  0.00     0.008 C 
BRANCH   8   9
HETATM    9  C6  UNL     1      -0.155   1.455  -1.232  1.00  0.00     0.017 C 
BRANCH   9  10
HETATM   10  C5  UNL     1       1.261   1.071  -1.477  1.00  0.00     0.157 C 
BRANCH  10  11
HETATM   11  S1  UNL     1       2.296   1.086  -0.074  1.00  0.00     0.211 S 
HETATM   12  O2  UNL     1       1.800   0.090   0.949  1.00  0.00    -0.211 OA
HETATM   13  O3  UNL     1       2.333   2.428   0.589  1.00  0.00    -0.211 OA
BRANCH  11  14
HETATM   14  N2  UNL     1       3.941   0.681  -0.495  1.00  0.00    -0.208 NA
HETATM   15  C4  UNL     1       3.962  -0.642  -1.037  1.00  0.00     0.127 C 
HETATM   16  C3  UNL     1       5.310  -1.276  -1.090  1.00  0.00     0.141 C 
HETATM   17  N1  UNL     1       6.220  -0.841  -0.079  1.00  0.00    -0.350 N 
HETATM   18  C2  UNL     1       7.196  -1.716   0.487  1.00  0.00     0.215 C 
HETATM   19  C22 UNL     1       6.153   0.531   0.389  1.00  0.00     0.141 C 
HETATM   20  C1  UNL     1       7.265  -3.121   0.008  1.00  0.00     0.117 C 
HETATM   21  O1  UNL     1       7.988  -1.313   1.375  1.00  0.00    -0.274 OA
HETATM   22  C21 UNL     1       4.714   0.821   0.723  1.00  0.00     0.127 C 
ENDBRANCH  11  14
ENDBRANCH  10  11
ENDBRANCH   9  10
ENDBRANCH   8   9
ENDBRANCH   1   8
BRANCH   2  23
HETATM   23  C10 UNL     1      -1.921   2.842   1.572  1.00  0.00     0.140 C 
HETATM   24  N3  UNL     1      -1.104   2.215   2.316  1.00  0.00    -0.251 N 
ATOM     25  H3  UNL     1      -0.857   1.260   2.056  1.00  0.00     0.196 HD
BRANCH  23  26
HETATM   26  O4  UNL     1      -2.219   4.157   1.988  1.00  0.00    -0.348 OA
ATOM     27  H4  UNL     1      -1.785   4.452   2.780  1.00  0.00     0.219 HD
ENDBRANCH  23  26
BRANCH  24  28
HETATM   28  O5  UNL     1      -0.534   2.741   3.445  1.00  0.00    -0.288 OA
ATOM     29  H5  UNL     1       0.077   2.272   4.001  1.00  0.00     0.244 HD
ENDBRANCH  24  28
ENDBRANCH   2  23
BRANCH   6  30
HETATM   30  C17 UNL     1      -3.011  -1.210  -0.538  1.00  0.00    -0.095 C 
HETATM   31  C18 UNL     1      -2.909  -2.124  -1.319  1.00  0.00    -0.100 C 
BRANCH  31  32
HETATM   32  C19 UNL     1      -2.807  -3.225  -2.274  1.00  0.00     0.165 C 
BRANCH  32  33
HETATM   33  C20 UNL     1      -4.125  -3.960  -2.419  1.00  0.00     0.364 C 
HETATM   34  F1  UNL     1      -5.111  -3.087  -2.868  1.00  0.00    -0.213 F 
HETATM   35  F2  UNL     1      -4.010  -4.941  -3.377  1.00  0.00    -0.213 F 
ENDBRANCH  32  33
ENDBRANCH  31  32
ENDBRANCH   6  30
BRANCH   5  36
HETATM   36  C14 UNL     1      -5.228   0.104   1.873  1.00  0.00     0.178 C 
HETATM   37  O6  UNL     1      -5.770   1.119   2.406  1.00  0.00    -0.648 OA
HETATM   38  O7  UNL     1      -5.245  -1.053   2.629  1.00  0.00    -0.648 OA
ENDBRANCH   5  36
TORSDOF 12
