REMARK  8 active torsions:
REMARK  status: ('A' for Active; 'I' for Inactive)
REMARK    1  A    between atoms: C2_2  and  C3_3 
REMARK    2  A    between atoms: C5_5  and  C6_6 
REMARK    3  A    between atoms: C17_21  and  C18_22 
REMARK    4  A    between atoms: C18_22  and  O4_23 
REMARK    5  A    between atoms: C19_25  and  O5_26 
REMARK    6  A    between atoms: C20_28  and  O6_29 
REMARK    7  A    between atoms: C25_35  and  O7_36 
REMARK    8  A    between atoms: C28_40  and  C30_42 
ROOT
HETATM    1  C3  UNL     1       4.047  -1.329   0.885  1.00  0.00     0.012 C 
HETATM    2  C4  UNL     1       5.127  -0.453   0.391  1.00  0.00     0.043 C 
HETATM    3  C5  UNL     1       4.685   0.974   0.627  1.00  0.00    -0.074 C 
HETATM    4  C10 UNL     1       3.269   1.226   0.783  1.00  0.00    -0.007 C 
HETATM    5  C11 UNL     1       2.183   0.812  -0.155  1.00  0.00     0.087 C 
HETATM    6  S1  UNL     1       0.786   1.766   0.531  1.00  0.00    -0.082 SA
HETATM    7  C12 UNL     1      -0.538   2.190  -0.395  1.00  0.00     0.200 C 
HETATM    8  O1  UNL     1      -0.463   3.005  -1.322  1.00  0.00    -0.284 OA
HETATM    9  C13 UNL     1      -1.900   1.589  -0.133  1.00  0.00     0.082 C 
HETATM   10  C14 UNL     1      -2.659   2.799   0.234  1.00  0.00     0.030 C 
HETATM   11  C15 UNL     1      -1.803   0.595   1.046  1.00  0.00     0.280 C 
HETATM   12  O2  UNL     1      -3.142   0.454   1.482  1.00  0.00    -0.329 OA
HETATM   13  C16 UNL     1      -4.120   0.434   0.577  1.00  0.00     0.274 C 
HETATM   14  O3  UNL     1      -5.138  -0.535   0.798  1.00  0.00    -0.350 OA
HETATM   15  C17 UNL     1      -6.354  -0.000   0.294  1.00  0.00     0.179 C 
HETATM   16  C19 UNL     1      -6.222   0.925  -0.833  1.00  0.00     0.178 C 
HETATM   17  C20 UNL     1      -4.935   0.897  -1.639  1.00  0.00     0.162 C 
HETATM   18  C21 UNL     1      -3.800   0.226  -0.863  1.00  0.00     0.039 C 
HETATM   19  C22 UNL     1      -4.007  -1.234  -1.302  1.00  0.00     0.024 C 
HETATM   20  C23 UNL     1      -2.413   0.738  -1.257  1.00  0.00     0.025 C 
HETATM   21  C24 UNL     1      -1.558  -0.333  -1.776  1.00  0.00     0.039 C 
HETATM   22  C25 UNL     1      -0.123  -0.461  -1.665  1.00  0.00     0.130 C 
HETATM   23  C26 UNL     1       0.552  -1.175  -0.488  1.00  0.00     0.022 C 
HETATM   24  C27 UNL     1       0.649  -2.614  -0.973  1.00  0.00     0.022 C 
HETATM   25  C28 UNL     1      -0.225  -1.236   0.765  1.00  0.00     0.070 C 
HETATM   26  C29 UNL     1       0.321  -1.052   2.113  1.00  0.00     0.047 C 
HETATM   27  O8  UNL     1      -1.355  -0.515   0.664  1.00  0.00    -0.348 OA
HETATM   28  C32 UNL     1       1.980  -0.595  -0.477  1.00  0.00    -0.015 C 
HETATM   29  C33 UNL     1       2.505  -0.621  -1.939  1.00  0.00     0.018 C 
HETATM   30  C34 UNL     1       2.867  -1.649   0.121  1.00  0.00     0.020 C 
ENDROOT
BRANCH   3  31
HETATM   31  C6  UNL     1       5.542   1.984  -0.066  1.00  0.00    -0.028 C 
HETATM   32  C7  UNL     1       6.978   1.815   0.459  1.00  0.00     0.019 C 
HETATM   33  C8  UNL     1       5.587   2.030  -1.518  1.00  0.00     0.019 C 
HETATM   34  C9  UNL     1       5.134   3.375   0.438  1.00  0.00     0.019 C 
ENDBRANCH   3  31
BRANCH   1  35
HETATM   35  C2  UNL     1       4.666  -2.593   1.375  1.00  0.00    -0.032 C 
HETATM   36  C1  UNL     1       4.178  -3.783   1.131  1.00  0.00     0.007 C 
ENDBRANCH   1  35
BRANCH  22  37
HETATM   37  O7  UNL     1       0.249  -1.252  -2.830  1.00  0.00    -0.395 OA
ATOM     38  H7  UNL     1       1.192  -1.336  -2.757  1.00  0.00     0.210 HD
ENDBRANCH  22  37
BRANCH  25  39
HETATM   39  C30 UNL     1      -0.921  -2.632   0.981  1.00  0.00     0.034 C 
HETATM   40  C31 UNL     1      -1.709  -2.623   2.277  1.00  0.00     0.008 C 
ENDBRANCH  25  39
BRANCH  17  41
HETATM   41  O6  UNL     1      -5.159   0.223  -2.878  1.00  0.00    -0.392 OA
ATOM     42  H6  UNL     1      -4.354   0.205  -3.382  1.00  0.00     0.210 HD
ENDBRANCH  17  41
BRANCH  16  43
HETATM   43  O5  UNL     1      -6.518   2.257  -0.632  1.00  0.00    -0.390 OA
ATOM     44  H5  UNL     1      -6.432   2.857  -1.363  1.00  0.00     0.210 HD
ENDBRANCH  16  43
BRANCH  15  45
HETATM   45  C18 UNL     1      -7.076   0.502   1.518  1.00  0.00     0.198 C 
BRANCH  45  46
HETATM   46  O4  UNL     1      -8.317   1.056   1.264  1.00  0.00    -0.398 OA
ATOM     47  H4  UNL     1      -8.772   1.372   2.036  1.00  0.00     0.209 HD
ENDBRANCH  45  46
ENDBRANCH  15  45
TORSDOF 8
