REMARK  9 active torsions:
REMARK  status: ('A' for Active; 'I' for Inactive)
REMARK    1  A    between atoms: C2_2  and  C3_3 
REMARK    2  A    between atoms: C3_3  and  O1_4 
REMARK    3  A    between atoms: C20_22  and  S1_23 
REMARK    4  A    between atoms: S1_23  and  S2_24 
REMARK    5  A    between atoms: S2_24  and  C21_25 
REMARK    6  A    between atoms: C23_28  and  O4_30 
REMARK    7  A    between atoms: C27_34  and  N1_35 
REMARK    8  A    between atoms: C31_42  and  O5_43 
REMARK    9  A    between atoms: C32_45  and  O6_46 
ROOT
HETATM    1  C3  UNL     1      -3.746  -1.236   0.672  1.00  0.00     0.098 C 
HETATM    2  C5  UNL     1      -3.480   0.067   0.050  1.00  0.00     0.089 C 
HETATM    3  C6  UNL     1      -2.989   0.222  -1.317  1.00  0.00     0.021 C 
HETATM    4  C7  UNL     1      -2.600   0.944   0.920  1.00  0.00     0.137 C 
HETATM    5  O2  UNL     1      -2.017   0.574   1.893  1.00  0.00    -0.297 OA
HETATM    6  C8  UNL     1      -2.482   2.364   0.493  1.00  0.00     0.052 C 
HETATM    7  C9  UNL     1      -3.443   3.290   1.191  1.00  0.00     0.018 C 
HETATM    8  C10 UNL     1      -1.083   2.901   0.685  1.00  0.00     0.016 C 
HETATM    9  C11 UNL     1      -0.773   3.978  -0.330  1.00  0.00    -0.017 C 
HETATM   10  C12 UNL     1      -0.577   5.334   0.288  1.00  0.00     0.010 C 
HETATM   11  C13 UNL     1       0.423   3.594  -1.208  1.00  0.00     0.008 C 
HETATM   12  C14 UNL     1       1.740   3.904  -0.579  1.00  0.00    -0.018 C 
HETATM   13  C15 UNL     1       2.474   5.060  -1.211  1.00  0.00     0.010 C 
HETATM   14  C16 UNL     1       2.619   2.720  -0.317  1.00  0.00     0.008 C 
HETATM   15  C17 UNL     1       3.216   2.016  -1.435  1.00  0.00    -0.017 C 
HETATM   16  C18 UNL     1       3.173   2.667  -2.786  1.00  0.00     0.010 C 
HETATM   17  C19 UNL     1       2.702   0.587  -1.633  1.00  0.00     0.023 C 
HETATM   18  C20 UNL     1       3.139  -0.229  -0.475  1.00  0.00     0.093 C 
HETATM   19  C23 UNL     1       2.735  -1.673  -0.534  1.00  0.00     0.072 C 
HETATM   20  C24 UNL     1       3.570  -2.370  -1.556  1.00  0.00     0.047 C 
HETATM   21  C25 UNL     1       1.230  -1.861  -0.769  1.00  0.00     0.048 C 
HETATM   22  C26 UNL     1       1.049  -2.325  -2.164  1.00  0.00     0.015 C 
HETATM   23  C27 UNL     1       0.702  -2.663   0.327  1.00  0.00     0.200 C 
HETATM   24  C28 UNL     1      -0.569  -3.409   0.200  1.00  0.00     0.009 C 
HETATM   25  C29 UNL     1      -0.287  -4.584  -0.760  1.00  0.00     0.020 C 
HETATM   26  C30 UNL     1      -0.771  -4.109   1.535  1.00  0.00     0.020 C 
HETATM   27  C31 UNL     1      -1.761  -2.595  -0.253  1.00  0.00     0.159 C 
HETATM   28  C32 UNL     1      -2.653  -2.219   0.839  1.00  0.00     0.183 C 
ENDROOT
BRANCH  18  29
HETATM   29  S1  UNL     1       4.980  -0.243  -0.492  1.00  0.00    -0.082 SA
BRANCH  29  30
HETATM   30  S2  UNL     1       5.750  -1.371   1.116  1.00  0.00    -0.020 SA
BRANCH  30  31
HETATM   31  C21 UNL     1       6.000  -0.347   2.543  1.00  0.00     0.192 C 
HETATM   32  C22 UNL     1       6.530  -0.846   3.830  1.00  0.00     0.105 C 
HETATM   33  O3  UNL     1       5.724   0.840   2.478  1.00  0.00    -0.285 OA
ENDBRANCH  30  31
ENDBRANCH  29  30
ENDBRANCH  18  29
BRANCH  19  34
HETATM   34  O4  UNL     1       3.112  -2.222   0.715  1.00  0.00    -0.389 OA
ATOM     35  H4  UNL     1       2.856  -3.136   0.678  1.00  0.00     0.210 HD
ENDBRANCH  19  34
BRANCH  23  36
HETATM   36  N1  UNL     1       0.605  -1.826   1.524  1.00  0.00    -0.074 N 
ATOM     37  H13 UNL     1       1.492  -1.381   1.760  1.00  0.00     0.274 HD
ATOM     38  H12 UNL     1       0.059  -0.980   1.363  1.00  0.00     0.274 HD
ATOM     39  H11 UNL     1       0.235  -2.387   2.291  1.00  0.00     0.274 HD
ENDBRANCH  23  36
BRANCH  27  40
HETATM   40  O5  UNL     1      -2.316  -3.340  -1.291  1.00  0.00    -0.392 OA
ATOM     41  H5  UNL     1      -3.065  -2.829  -1.575  1.00  0.00     0.210 HD
ENDBRANCH  27  40
BRANCH  28  42
HETATM   42  O6  UNL     1      -3.318  -3.390   1.291  1.00  0.00    -0.390 OA
ATOM     43  H6  UNL     1      -2.616  -4.021   1.398  1.00  0.00     0.210 HD
ENDBRANCH  28  42
BRANCH   1  44
HETATM   44  C2  UNL     1      -5.030  -1.923   0.358  1.00  0.00     0.037 C 
HETATM   45  C1  UNL     1      -5.263  -2.484  -0.980  1.00  0.00     0.008 C 
ENDBRANCH   1  44
BRANCH   1  46
HETATM   46  O1  UNL     1      -3.916  -0.864   2.050  1.00  0.00    -0.381 OA
HETATM   47  C4  UNL     1      -4.952  -0.123   2.395  1.00  0.00     0.202 C 
ENDBRANCH   1  46
TORSDOF 9
