REMARK  8 active torsions:
REMARK  status: ('A' for Active; 'I' for Inactive)
REMARK    1  A    between atoms: O1_2  and  C2_3 
REMARK    2  A    between atoms: C2_3  and  C3_4 
REMARK    3  A    between atoms: C8_9  and  O2_10 
REMARK    4  A    between atoms: O2_10  and  C9_11 
REMARK    5  A    between atoms: C9_11  and  C10_13 
REMARK    6  A    between atoms: C21_24  and  O4_25 
REMARK    7  A    between atoms: N1_31  and  O5_33 
REMARK    8  A    between atoms: C33_46  and  O7_47 
ROOT
HETATM    1  C10 UNL     1      -1.452  -0.931  -0.369  1.00  0.00     0.048 C 
HETATM    2  C11 UNL     1      -1.278  -2.334  -0.944  1.00  0.00     0.026 C 
HETATM    3  C12 UNL     1      -1.844  -1.081   1.059  1.00  0.00     0.020 C 
HETATM    4  C13 UNL     1      -3.283  -1.607   0.958  1.00  0.00     0.007 C 
HETATM    5  C14 UNL     1      -3.710  -1.389  -0.444  1.00  0.00    -0.002 C 
HETATM    6  C15 UNL     1      -2.741  -0.383  -1.002  1.00  0.00     0.008 C 
HETATM    7  C16 UNL     1      -2.971   1.004  -0.477  1.00  0.00     0.007 C 
HETATM    8  C17 UNL     1      -4.304   1.221   0.156  1.00  0.00     0.010 C 
HETATM    9  C18 UNL     1      -5.427   0.435  -0.545  1.00  0.00    -0.033 C 
HETATM   10  C19 UNL     1      -5.481   1.080  -1.945  1.00  0.00     0.016 C 
HETATM   11  C20 UNL     1      -5.156  -1.013  -0.646  1.00  0.00     0.027 C 
HETATM   12  C21 UNL     1      -5.973  -1.946   0.175  1.00  0.00     0.124 C 
HETATM   13  C22 UNL     1      -7.232  -1.439   0.746  1.00  0.00     0.047 C 
HETATM   14  C23 UNL     1      -7.769  -0.181   0.144  1.00  0.00     0.003 C 
HETATM   15  C24 UNL     1      -8.416  -0.393  -1.201  1.00  0.00     0.022 C 
HETATM   16  C25 UNL     1      -8.735   0.402   1.121  1.00  0.00     0.018 C 
HETATM   17  N1  UNL     1     -10.008   0.252   1.168  1.00  0.00    -0.277 N 
ATOM     18  H1  UNL     1     -10.469  -0.332   0.470  1.00  0.00     0.193 HD
HETATM   19  C26 UNL     1      -7.956   1.224   2.078  1.00  0.00     0.056 C 
HETATM   20  C27 UNL     1      -6.517   1.160   1.605  1.00  0.00     0.012 C 
HETATM   21  C28 UNL     1      -6.683   0.837   0.140  1.00  0.00     0.008 C 
ENDROOT
BRANCH   1  22
HETATM   22  C9  UNL     1      -0.306  -0.072  -0.624  1.00  0.00     0.269 C 
HETATM   23  O3  UNL     1      -0.313   1.008  -1.271  1.00  0.00    -0.264 OA
BRANCH  22  24
HETATM   24  O2  UNL     1       0.929  -0.427  -0.134  1.00  0.00    -0.287 OA
BRANCH  24  25
HETATM   25  C8  UNL     1       2.114   0.306  -0.304  1.00  0.00     0.330 C 
HETATM   26  C7  UNL     1       2.741   0.751   0.990  1.00  0.00     0.067 C 
HETATM   27  C6  UNL     1       4.114   1.204   0.722  1.00  0.00    -0.000 C 
HETATM   28  C5  UNL     1       4.948   1.609   1.863  1.00  0.00     0.006 C 
HETATM   29  C30 UNL     1       4.976   0.132   0.032  1.00  0.00    -0.010 C 
HETATM   30  C4  UNL     1       6.288   1.784   1.130  1.00  0.00     0.009 C 
HETATM   31  C3  UNL     1       6.300   0.812  -0.000  1.00  0.00     0.033 C 
HETATM   32  C29 UNL     1       4.296  -0.006  -1.312  1.00  0.00     0.245 C 
HETATM   33  C31 UNL     1       4.854  -1.106   0.828  1.00  0.00     0.018 C 
HETATM   34  N2  UNL     1       2.982  -0.540  -1.084  1.00  0.00    -0.048 N 
ATOM     35  H22 UNL     1       3.045  -1.467  -0.662  1.00  0.00     0.280 HD
ATOM     36  H21 UNL     1       2.539  -0.780  -1.971  1.00  0.00     0.280 HD
BRANCH  31  37
HETATM   37  C2  UNL     1       7.494  -0.050  -0.135  1.00  0.00     0.094 C 
HETATM   38  C32 UNL     1       7.395  -0.820  -1.467  1.00  0.00     0.210 C 
HETATM   39  O6  UNL     1       8.736  -1.267  -1.574  1.00  0.00    -0.358 OA
HETATM   40  C33 UNL     1       9.520  -0.164  -1.348  1.00  0.00     0.263 C 
HETATM   41  C34 UNL     1       8.708   0.803  -0.512  1.00  0.00     0.074 C 
HETATM   42  C35 UNL     1       8.382   1.980  -1.361  1.00  0.00     0.018 C 
BRANCH  37  43
HETATM   43  O1  UNL     1       7.793  -0.949   0.801  1.00  0.00    -0.382 OA
HETATM   44  C1  UNL     1       8.054  -0.677   2.080  1.00  0.00     0.202 C 
ENDBRANCH  37  43
BRANCH  40  45
HETATM   45  O7  UNL     1       9.836   0.390  -2.605  1.00  0.00    -0.371 OA
ATOM     46  H7  UNL     1      10.379   1.154  -2.449  1.00  0.00     0.212 HD
ENDBRANCH  40  45
ENDBRANCH  31  37
ENDBRANCH  24  25
ENDBRANCH  22  24
ENDBRANCH   1  22
BRANCH  12  47
HETATM   47  O4  UNL     1      -6.296  -3.121  -0.560  1.00  0.00    -0.395 OA
ATOM     48  H4  UNL     1      -6.818  -3.717  -0.036  1.00  0.00     0.210 HD
ENDBRANCH  12  47
BRANCH  17  49
HETATM   49  O5  UNL     1     -10.753   0.855   2.128  1.00  0.00    -0.290 OA
ATOM     50  H5  UNL     1     -11.696   0.744   2.163  1.00  0.00     0.244 HD
ENDBRANCH  17  49
TORSDOF 8
