REMARK  1 active torsions:
REMARK  status: ('A' for Active; 'I' for Inactive)
REMARK       I    between atoms: C2_5  and  N3_6 
REMARK       I    between atoms: C2_5  and  N5_10 
REMARK    1  A    between atoms: N5_10  and  C4_12 
ROOT
HETATM    1  N1  UNL     1       2.927   2.952  -1.953  1.00  0.00    -0.171 NA
HETATM    2  C1  UNL     1       3.117   2.081  -1.213  1.00  0.00     0.196 C 
HETATM    3  N2  UNL     1       3.330   1.020  -0.297  1.00  0.00    -0.125 N 
ATOM      4  H2  UNL     1       4.219   0.890   0.185  1.00  0.00     0.197 HD
HETATM    5  C2  UNL     1       2.329   0.232  -0.113  1.00  0.00     0.696 C 
HETATM    6  N3  UNL     1       2.480  -0.849   0.792  1.00  0.00    -0.125 N 
ATOM      7  H3  UNL     1       2.137  -0.735   1.746  1.00  0.00     0.197 HD
HETATM    8  C3  UNL     1       3.076  -2.063   0.441  1.00  0.00     0.196 C 
HETATM    9  N4  UNL     1       3.576  -3.080   0.163  1.00  0.00    -0.171 NA
HETATM   10  N5  UNL     1       1.074   0.369  -0.755  1.00  0.00    -0.215 N 
ATOM     11  H5  UNL     1       1.037   0.499  -1.766  1.00  0.00     0.178 HD
ENDROOT
BRANCH  10  12
HETATM   12  C4  UNL     1      -0.097   0.329  -0.032  1.00  0.00     0.055 C 
HETATM   13  C5  UNL     1      -0.308   1.377   1.069  1.00  0.00     0.037 C 
HETATM   14  C6  UNL     1      -1.774   1.019   0.849  1.00  0.00    -0.005 C 
HETATM   15  C7  UNL     1      -1.803  -0.401   1.337  1.00  0.00     0.012 C 
HETATM   16  C11 UNL     1      -1.384   0.877  -0.626  1.00  0.00     0.019 C 
HETATM   17  C8  UNL     1      -0.646  -0.966   0.490  1.00  0.00     0.015 C 
HETATM   18  C9  UNL     1      -1.293  -1.525  -0.752  1.00  0.00     0.007 C 
HETATM   19  C10 UNL     1      -2.089  -0.299  -1.223  1.00  0.00     0.008 C 
ENDBRANCH  10  12
TORSDOF 1
