REMARK  3 active torsions:
REMARK  status: ('A' for Active; 'I' for Inactive)
REMARK    1  A    between atoms: C2_2  and  C3_3 
REMARK    2  A    between atoms: C3_3  and  N1_4 
REMARK    3  A    between atoms: N1_4  and  C4_6 
ROOT
HETATM    1  C4  UNL     1       0.878   0.230   0.363  1.00  0.00     0.123 A 
HETATM    2  N2  UNL     1       0.584  -1.005   0.790  1.00  0.00    -0.332 N 
ATOM      3  H2  UNL     1       1.325  -1.577   1.194  1.00  0.00     0.168 HD
HETATM    4  C5  UNL     1      -0.679  -1.523   0.701  1.00  0.00     0.109 A 
HETATM    5  S1  UNL     1      -0.984  -3.045   1.240  1.00  0.00    -0.060 SA
HETATM    6  C6  UNL     1      -1.711  -0.789   0.164  1.00  0.00    -0.009 A 
HETATM    7  C7  UNL     1      -1.453   0.487  -0.288  1.00  0.00    -0.024 A 
HETATM    8  C8  UNL     1      -0.167   0.958  -0.175  1.00  0.00     0.095 A 
HETATM    9  C9  UNL     1       0.117   2.297  -0.646  1.00  0.00     0.104 C 
HETATM   10  N3  UNL     1       0.336   3.353  -1.034  1.00  0.00    -0.191 NA
HETATM   11  C10 UNL     1      -2.534   1.317  -0.875  1.00  0.00     0.043 C 
HETATM   12  C11 UNL     1      -3.864   1.087  -0.258  1.00  0.00     0.042 C 
HETATM   13  C12 UNL     1      -4.029  -0.198   0.460  1.00  0.00     0.174 C 
HETATM   14  F1  UNL     1      -5.332  -0.684   0.276  1.00  0.00    -0.249 F 
HETATM   15  C13 UNL     1      -3.097  -1.287   0.037  1.00  0.00     0.079 C 
ENDROOT
BRANCH   1  16
HETATM   16  N1  UNL     1       2.176   0.783   0.464  1.00  0.00    -0.375 N 
ATOM     17  H1  UNL     1       2.284   1.744   0.139  1.00  0.00     0.161 HD
BRANCH  16  18
HETATM   18  C3  UNL     1       3.346   0.153   0.967  1.00  0.00     0.121 C 
BRANCH  18  19
HETATM   19  C2  UNL     1       3.905  -0.958   0.136  1.00  0.00     0.015 C 
HETATM   20  C1  UNL     1       4.294  -0.499  -1.253  1.00  0.00     0.006 C 
ENDBRANCH  18  19
ENDBRANCH  16  18
ENDBRANCH   1  16
TORSDOF 3
