REMARK  5 active torsions:
REMARK  status: ('A' for Active; 'I' for Inactive)
REMARK    1  A    between atoms: C2_2  and  O1_3 
REMARK    2  A    between atoms: O1_3  and  C3_4 
REMARK    3  A    between atoms: C3_4  and  C4_6 
REMARK    4  A    between atoms: C6_8  and  C7_9 
REMARK    5  A    between atoms: C13_15  and  O3_16 
ROOT
HETATM    1  C4  UNL     1       1.476  -0.174  -0.474  1.00  0.00     0.112 A 
HETATM    2  C5  UNL     1       0.204   0.370  -0.610  1.00  0.00     0.048 A 
HETATM    3  C6  UNL     1      -0.669  -0.460   0.087  1.00  0.00    -0.001 A 
HETATM    4  C13 UNL     1       0.120  -1.438   0.591  1.00  0.00     0.149 A 
HETATM    5  N1  UNL     1       1.419  -1.310   0.275  1.00  0.00    -0.327 N 
HETATM    6  C14 UNL     1       2.492  -2.184   0.607  1.00  0.00     0.159 C 
ENDROOT
BRANCH   3   7
HETATM    7  C7  UNL     1      -2.078  -0.175   0.374  1.00  0.00     0.023 C 
HETATM    8  C8  UNL     1      -3.035  -0.599  -0.730  1.00  0.00     0.009 C 
HETATM    9  C9  UNL     1      -4.432  -0.504  -0.109  1.00  0.00     0.001 C 
HETATM   10  C10 UNL     1      -4.779   0.897   0.297  1.00  0.00     0.000 C 
HETATM   11  C11 UNL     1      -3.630   1.730   0.711  1.00  0.00     0.001 C 
HETATM   12  C12 UNL     1      -2.262   1.395   0.297  1.00  0.00     0.009 C 
ENDBRANCH   3   7
BRANCH   4  13
HETATM   13  O3  UNL     1      -0.401  -2.477   1.362  1.00  0.00    -0.346 OA
ATOM     14  H3  UNL     1       0.153  -3.163   1.716  1.00  0.00     0.219 HD
ENDBRANCH   4  13
BRANCH   1  15
HETATM   15  C3  UNL     1       2.773   0.378  -0.848  1.00  0.00     0.310 C 
HETATM   16  O2  UNL     1       2.794   1.587  -1.275  1.00  0.00    -0.258 OA
BRANCH  15  17
HETATM   17  O1  UNL     1       3.934  -0.332  -0.759  1.00  0.00    -0.317 OA
BRANCH  17  18
HETATM   18  C2  UNL     1       5.174   0.244  -1.076  1.00  0.00     0.175 C 
HETATM   19  C1  UNL     1       5.545   1.311  -0.011  1.00  0.00     0.034 C 
ENDBRANCH  17  18
ENDBRANCH  15  17
ENDBRANCH   1  15
TORSDOF 5
