REMARK  3 active torsions:
REMARK  status: ('A' for Active; 'I' for Inactive)
REMARK    1  A    between atoms: C4_4  and  C5_5 
REMARK    2  A    between atoms: C5_5  and  C6_6 
REMARK    3  A    between atoms: C6_6  and  C7_7 
ROOT
HETATM    1  C7  UNL     1       5.023  -0.817  -0.463  1.00  0.00     0.124 C 
HETATM    2  C8  UNL     1       5.419  -2.171  -0.046  1.00  0.00     0.059 C 
HETATM    3  N1  UNL     1       5.720  -3.245   0.274  1.00  0.00    -0.197 NA
ENDROOT
BRANCH   1   4
HETATM    4  C6  UNL     1       3.582  -0.641  -0.068  1.00  0.00     0.019 C 
BRANCH   4   5
HETATM    5  C5  UNL     1       3.031   0.703  -0.433  1.00  0.00     0.043 C 
BRANCH   5   6
HETATM    6  C4  UNL     1       1.605   0.747   0.007  1.00  0.00    -0.017 A 
HETATM    7  C3  UNL     1       1.256   1.447   1.149  1.00  0.00     0.020 A 
HETATM    8  C2  UNL     1      -0.054   1.492   1.566  1.00  0.00    -0.026 A 
HETATM    9  C1  UNL     1      -0.499   2.224   2.781  1.00  0.00     0.051 C 
HETATM   10  C11 UNL     1      -0.993   0.812   0.800  1.00  0.00     0.104 A 
HETATM   11  C10 UNL     1      -0.641   0.116  -0.336  1.00  0.00     0.102 A 
HETATM   12  O1  UNL     1      -2.348   0.810   1.159  1.00  0.00    -0.346 OA
HETATM   13  C9  UNL     1       0.675   0.076  -0.747  1.00  0.00     0.151 A 
HETATM   14  N2  UNL     1      -1.629  -0.563  -1.089  1.00  0.00    -0.374 N 
HETATM   15  F1  UNL     1       0.985  -0.617  -1.867  1.00  0.00    -0.203 F 
HETATM   16  C13 UNL     1      -3.035  -0.521  -0.749  1.00  0.00     0.045 C 
ATOM     17  H2  UNL     1      -1.338  -1.103  -1.904  1.00  0.00     0.160 HD
HETATM   18  C12 UNL     1      -3.361   0.615   0.187  1.00  0.00     0.206 C 
HETATM   19  C14 UNL     1      -3.426  -1.829  -0.103  1.00  0.00     0.040 C 
HETATM   20  C15 UNL     1      -3.808  -0.363  -2.039  1.00  0.00     0.040 C 
ENDBRANCH   5   6
ENDBRANCH   4   5
ENDBRANCH   1   4
TORSDOF 3
