REMARK  5 active torsions:
REMARK  status: ('A' for Active; 'I' for Inactive)
REMARK    1  A    between atoms: C3_4  and  O1_5 
REMARK    2  A    between atoms: C4_7  and  O2_8 
REMARK    3  A    between atoms: C6_11  and  C7_12 
REMARK    4  A    between atoms: C7_12  and  C8_13 
REMARK    5  A    between atoms: C8_13  and  C9_14 
ROOT
HETATM    1  N1  UNL     1       5.206   0.936   2.902  1.00  0.00    -0.191 NA
HETATM    2  C1  UNL     1       4.490   0.641   2.038  1.00  0.00     0.105 C 
HETATM    3  C2  UNL     1       3.611   0.270   0.960  1.00  0.00     0.119 A 
HETATM    4  C3  UNL     1       3.895   0.789  -0.288  1.00  0.00     0.122 A 
HETATM    5  C4  UNL     1       3.051   0.433  -1.328  1.00  0.00     0.101 A 
HETATM    6  C5  UNL     1       1.971  -0.406  -1.118  1.00  0.00     0.049 A 
HETATM    7  C6  UNL     1       1.683  -0.926   0.127  1.00  0.00    -0.015 A 
HETATM    8  C15 UNL     1       2.529  -0.568   1.161  1.00  0.00     0.146 A 
HETATM    9  F1  UNL     1       2.291  -1.056   2.421  1.00  0.00    -0.204 F 
ENDROOT
BRANCH   4  10
HETATM   10  O1  UNL     1       4.988   1.636  -0.491  1.00  0.00    -0.356 OA
ATOM     11  H1  UNL     1       5.183   1.993  -1.349  1.00  0.00     0.218 HD
ENDBRANCH   4  10
BRANCH   5  12
HETATM   12  O2  UNL     1       3.354   0.965  -2.574  1.00  0.00    -0.358 OA
ATOM     13  H2  UNL     1       2.775   0.721  -3.287  1.00  0.00     0.217 HD
ENDBRANCH   5  12
BRANCH   7  14
HETATM   14  C7  UNL     1       0.523  -1.828   0.389  1.00  0.00     0.042 C 
BRANCH  14  15
HETATM   15  C8  UNL     1      -0.609  -1.115   1.054  1.00  0.00     0.009 C 
BRANCH  15  16
HETATM   16  C9  UNL     1      -1.170   0.048   0.262  1.00  0.00    -0.014 C 
HETATM   17  C10 UNL     1      -1.693  -0.384  -1.031  1.00  0.00     0.004 C 
HETATM   18  C11 UNL     1      -3.190  -0.486  -1.144  1.00  0.00     0.000 C 
HETATM   19  C12 UNL     1      -3.802   0.806  -0.617  1.00  0.00     0.000 C 
HETATM   20  C13 UNL     1      -3.509   0.799   0.855  1.00  0.00     0.000 C 
HETATM   21  C14 UNL     1      -2.056   0.825   1.161  1.00  0.00     0.004 C 
ENDBRANCH  15  16
ENDBRANCH  14  15
ENDBRANCH   7  14
TORSDOF 5
