REMARK  6 active torsions:
REMARK  status: ('A' for Active; 'I' for Inactive)
REMARK    1  A    between atoms: C2_2  and  C5_5 
REMARK    2  A    between atoms: C5_5  and  C8_8 
REMARK    3  A    between atoms: C8_8  and  C9_10 
REMARK    4  A    between atoms: C11_12  and  C12_13 
REMARK    5  A    between atoms: C12_13  and  O2_14 
REMARK    6  A    between atoms: N1_16  and  O3_18 
ROOT
HETATM    1  C9  UNL     1       0.780  -1.074   0.098  1.00  0.00     0.192 C 
HETATM    2  C10 UNL     1       1.836  -0.034  -0.170  1.00  0.00     0.055 C 
HETATM    3  C11 UNL     1       3.033  -0.985  -0.357  1.00  0.00     0.089 C 
HETATM    4  C13 UNL     1       2.745  -1.961   0.749  1.00  0.00     0.181 C 
HETATM    5  O4  UNL     1       1.427  -1.831   1.092  1.00  0.00    -0.378 OA
ENDROOT
BRANCH   1   6
HETATM    6  C8  UNL     1      -0.518  -0.589   0.537  1.00  0.00     0.164 C 
HETATM    7  O1  UNL     1      -0.845  -0.842   1.712  1.00  0.00    -0.294 OA
BRANCH   6   8
HETATM    8  C5  UNL     1      -1.408   0.166  -0.364  1.00  0.00     0.022 C 
HETATM    9  C6  UNL     1      -0.758   1.503  -0.672  1.00  0.00     0.024 C 
HETATM   10  C7  UNL     1      -1.597  -0.571  -1.648  1.00  0.00     0.024 C 
BRANCH   8  11
HETATM   11  C2  UNL     1      -2.755   0.456   0.297  1.00  0.00    -0.037 C 
HETATM   12  C1  UNL     1      -3.548   1.265  -0.727  1.00  0.00     0.015 C 
HETATM   13  C3  UNL     1      -3.523  -0.794   0.564  1.00  0.00     0.015 C 
HETATM   14  C4  UNL     1      -2.602   1.306   1.516  1.00  0.00     0.015 C 
ENDBRANCH   8  11
ENDBRANCH   6   8
ENDBRANCH   1   6
BRANCH   3  15
HETATM   15  C12 UNL     1       4.312  -0.273  -0.193  1.00  0.00     0.141 C 
HETATM   16  N1  UNL     1       5.152  -0.601   0.703  1.00  0.00    -0.251 N 
ATOM     17  H1  UNL     1       4.946  -1.377   1.332  1.00  0.00     0.196 HD
BRANCH  15  18
HETATM   18  O2  UNL     1       4.576   0.781  -1.059  1.00  0.00    -0.348 OA
ATOM     19  H2  UNL     1       5.401   1.240  -0.953  1.00  0.00     0.219 HD
ENDBRANCH  15  18
BRANCH  16  20
HETATM   20  O3  UNL     1       6.345   0.091   0.828  1.00  0.00    -0.288 OA
ATOM     21  H3  UNL     1       6.973  -0.154   1.498  1.00  0.00     0.244 HD
ENDBRANCH  16  20
ENDBRANCH   3  15
TORSDOF 6
