REMARK  3 active torsions:
REMARK  status: ('A' for Active; 'I' for Inactive)
REMARK    1  A    between atoms: N1_4  and  C4_5 
REMARK    2  A    between atoms: C5_7  and  N2_8 
REMARK    3  A    between atoms: C6_13  and  C7_14 
ROOT
HETATM    1  C4  UNL     1       0.853   0.838   0.134  1.00  0.00     0.099 A 
HETATM    2  S1  UNL     1       1.101   2.519   0.118  1.00  0.00    -0.035 SA
HETATM    3  C5  UNL     1       2.765   2.580   0.478  1.00  0.00     0.144 A 
HETATM    4  N3  UNL     1       3.044   1.287   0.588  1.00  0.00    -0.338 N 
ATOM      5  H3  UNL     1       3.994   0.990   0.809  1.00  0.00     0.168 HD
HETATM    6  C6  UNL     1       2.109   0.394   0.415  1.00  0.00     0.049 A 
ENDROOT
BRANCH   1   7
HETATM    7  N1  UNL     1      -0.371   0.163  -0.107  1.00  0.00    -0.369 N 
HETATM    8  C3  UNL     1      -1.488   0.967  -0.586  1.00  0.00     0.155 C 
HETATM    9  C2  UNL     1      -2.806   0.637   0.015  1.00  0.00     0.136 C 
HETATM   10  C1  UNL     1      -3.529   1.882   0.497  1.00  0.00     0.041 C 
HETATM   11  O1  UNL     1      -2.681  -0.289   1.026  1.00  0.00    -0.378 OA
HETATM   12  C11 UNL     1      -2.111  -1.429   0.486  1.00  0.00     0.136 C 
HETATM   13  C10 UNL     1      -0.645  -1.224   0.085  1.00  0.00     0.155 C 
HETATM   14  C12 UNL     1      -2.888  -1.992  -0.688  1.00  0.00     0.041 C 
ENDBRANCH   1   7
BRANCH   6  15
HETATM   15  C7  UNL     1       2.350  -1.113   0.524  1.00  0.00     0.038 A 
HETATM   16  C8  UNL     1       2.744  -1.871  -0.685  1.00  0.00     0.011 A 
HETATM   17  C9  UNL     1       3.842  -1.483   0.175  1.00  0.00     0.011 A 
ENDBRANCH   6  15
BRANCH   3  18
HETATM   18  N2  UNL     1       3.563   3.573   0.574  1.00  0.00    -0.380 N 
ATOM     19  H22 UNL     1       3.349   4.567   0.489  1.00  0.00     0.158 HD
ATOM     20  H21 UNL     1       4.559   3.610   0.790  1.00  0.00     0.158 HD
ENDBRANCH   3  18
TORSDOF 3
