REMARK  5 active torsions:
REMARK  status: ('A' for Active; 'I' for Inactive)
REMARK    1  A    between atoms: C3_7  and  C4_8 
REMARK    2  A    between atoms: C4_8  and  N3_9 
REMARK    3  A    between atoms: N3_9  and  C5_11 
REMARK    4  A    between atoms: C5_11  and  N4_13 
REMARK    5  A    between atoms: N4_13  and  C6_15 
ROOT
HETATM    1  N3  UNL     1       0.620  -0.293  -0.609  1.00  0.00    -0.361 N 
ATOM      2  H3  UNL     1       1.242  -0.626  -1.346  1.00  0.00     0.162 HD
ENDROOT
BRANCH   1   3
HETATM    3  C4  UNL     1       1.177   0.287   0.594  1.00  0.00     0.188 C 
BRANCH   3   4
HETATM    4  C3  UNL     1       2.675   0.274   0.496  1.00  0.00     0.085 A 
HETATM    5  N2  UNL     1       3.575   0.707   1.368  1.00  0.00    -0.296 N 
HETATM    6  N1  UNL     1       4.805   0.611   1.106  1.00  0.00    -0.298 N 
ATOM      7  H2  UNL     1       3.273   1.118   2.251  1.00  0.00     0.187 HD
HETATM    8  C2  UNL     1       5.201   0.075  -0.044  1.00  0.00     0.064 A 
ATOM      9  H1  UNL     1       5.497   0.945   1.777  1.00  0.00     0.187 HD
HETATM   10  C1  UNL     1       6.615  -0.098  -0.478  1.00  0.00     0.078 C 
HETATM   11  S2  UNL     1       3.697  -0.299  -0.765  1.00  0.00    -0.059 SA
ENDBRANCH   3   4
ENDBRANCH   1   3
BRANCH   1  12
HETATM   12  C5  UNL     1      -0.782  -0.401  -0.770  1.00  0.00     0.168 C 
HETATM   13  S1  UNL     1      -1.355  -1.061  -2.142  1.00  0.00    -0.041 SA
BRANCH  12  14
HETATM   14  N4  UNL     1      -1.643   0.060   0.247  1.00  0.00    -0.359 N 
ATOM     15  H4  UNL     1      -1.224   0.465   1.084  1.00  0.00     0.162 HD
BRANCH  14  16
HETATM   16  C6  UNL     1      -3.080  -0.007   0.173  1.00  0.00     0.021 C 
HETATM   17  C7  UNL     1      -3.450  -1.473   0.027  1.00  0.00     0.037 C 
HETATM   18  C8  UNL     1      -3.655   0.528   1.462  1.00  0.00     0.037 C 
HETATM   19  C9  UNL     1      -3.627   0.821  -0.961  1.00  0.00     0.037 C 
ENDBRANCH  14  16
ENDBRANCH  12  14
ENDBRANCH   1  12
TORSDOF 5
