REMARK  5 active torsions:
REMARK  status: ('A' for Active; 'I' for Inactive)
REMARK    1  A    between atoms: C2_2  and  N1_4 
REMARK    2  A    between atoms: C2_2  and  O1_12 
REMARK    3  A    between atoms: O1_12  and  C7_13 
REMARK    4  A    between atoms: C7_13  and  C8_14 
REMARK    5  A    between atoms: C8_14  and  C9_15 
ROOT
HETATM    1  C1  UNL     1      -0.507  -2.347   0.806  1.00  0.00     0.070 C 
HETATM    2  C2  UNL     1       0.349  -1.538  -0.186  1.00  0.00     0.128 C 
HETATM    3  C3  UNL     1       0.557  -2.564  -1.337  1.00  0.00     0.070 C 
ENDROOT
BRANCH   2   4
HETATM    4  N1  UNL     1      -0.394  -0.503  -0.757  1.00  0.00    -0.340 N 
HETATM    5  C4  UNL     1      -1.379   0.154  -0.359  1.00  0.00     0.142 C 
HETATM    6  N2  UNL     1      -2.062   1.202  -1.041  1.00  0.00    -0.350 N 
HETATM    7  S1  UNL     1      -2.242   0.012   1.198  1.00  0.00    -0.089 SA
HETATM    8  C5  UNL     1      -2.686   2.147  -0.234  1.00  0.00     0.073 C 
ATOM      9  H2  UNL     1      -2.091   1.256  -2.059  1.00  0.00     0.167 HD
HETATM   10  C6  UNL     1      -3.052   1.648   1.091  1.00  0.00     0.127 C 
ATOM     11  H1  UNL     1      -0.067  -0.229  -1.684  1.00  0.00     0.164 HD
ENDBRANCH   2   4
BRANCH   2  12
HETATM   12  O1  UNL     1       1.524  -1.296   0.443  1.00  0.00    -0.361 OA
BRANCH  12  13
HETATM   13  C7  UNL     1       2.506  -0.594  -0.135  1.00  0.00     0.179 C 
BRANCH  13  14
HETATM   14  C8  UNL     1       2.308   0.876  -0.349  1.00  0.00     0.144 C 
BRANCH  14  15
HETATM   15  C9  UNL     1       2.190   1.670   0.910  1.00  0.00     0.389 C 
HETATM   16  F1  UNL     1       1.994   3.007   0.575  1.00  0.00    -0.171 F 
HETATM   17  F2  UNL     1       1.253   1.289   1.792  1.00  0.00    -0.171 F 
HETATM   18  F3  UNL     1       3.446   1.595   1.545  1.00  0.00    -0.171 F 
ENDBRANCH  14  15
ENDBRANCH  13  14
ENDBRANCH  12  13
ENDBRANCH   2  12
TORSDOF 5
