REMARK  4 active torsions:
REMARK  status: ('A' for Active; 'I' for Inactive)
REMARK    1  A    between atoms: C1_4  and  S1_5 
REMARK    2  A    between atoms: S1_5  and  C2_6 
REMARK    3  A    between atoms: C5_10  and  S3_11 
REMARK    4  A    between atoms: S3_11  and  C6_13 
ROOT
HETATM    1  C2  UNL     1       0.651  -1.180  -0.636  1.00  0.00     0.032 A 
HETATM    2  C3  UNL     1       0.872  -2.487  -0.296  1.00  0.00     0.070 A 
HETATM    3  S2  UNL     1      -0.672  -3.050   0.131  1.00  0.00    -0.111 SA
HETATM    4  C4  UNL     1      -1.570  -1.624  -0.128  1.00  0.00     0.072 A 
HETATM    5  C5  UNL     1      -0.623  -0.734  -0.547  1.00  0.00     0.064 A 
ENDROOT
BRANCH   5   6
HETATM    6  S3  UNL     1      -1.061   0.940  -0.956  1.00  0.00     0.159 S 
HETATM    7  O1  UNL     1      -1.490   1.104  -2.543  1.00  0.00    -0.244 OA
BRANCH   6   8
HETATM    8  C6  UNL     1      -2.213   1.596   0.182  1.00  0.00     0.477 C 
HETATM    9  F1  UNL     1      -2.519   2.896  -0.180  1.00  0.00    -0.158 F 
HETATM   10  F2  UNL     1      -3.414   0.901   0.215  1.00  0.00    -0.158 F 
HETATM   11  F3  UNL     1      -1.627   1.662   1.435  1.00  0.00    -0.158 F 
ENDBRANCH   6   8
ENDBRANCH   5   6
BRANCH   1  12
HETATM   12  S1  UNL     1       2.086  -0.171  -1.172  1.00  0.00    -0.084 SA
BRANCH  12  13
HETATM   13  C1  UNL     1       2.822   0.615   0.246  1.00  0.00     0.131 C 
HETATM   14  N1  UNL     1       3.394   1.735   0.168  1.00  0.00    -0.403 N 
ATOM     15  H12 UNL     1       3.428   2.192  -0.743  1.00  0.00     0.155 HD
ATOM     16  H11 UNL     1       3.816   2.185   0.980  1.00  0.00     0.155 HD
ENDBRANCH  12  13
ENDBRANCH   1  12
TORSDOF 4
