REMARK  5 active torsions:
REMARK  status: ('A' for Active; 'I' for Inactive)
REMARK    1  A    between atoms: C5_5  and  C6_6 
REMARK    2  A    between atoms: C6_6  and  C7_7 
REMARK    3  A    between atoms: C6_6  and  N1_10 
REMARK    4  A    between atoms: C6_6  and  C9_16 
REMARK    5  A    between atoms: N1_10  and  O2_14 
ROOT
HETATM    1  C6  UNL     1      -1.413  -0.363   0.159  1.00  0.00     0.227 C 
ENDROOT
BRANCH   1   2
HETATM    2  C5  UNL     1       0.034  -0.101   0.118  1.00  0.00    -0.014 A 
HETATM    3  C4  UNL     1       0.580   1.178   0.035  1.00  0.00     0.011 A 
HETATM    4  C3  UNL     1       1.936   1.415  -0.023  1.00  0.00     0.007 A 
HETATM    5  C2  UNL     1       2.836   0.393  -0.002  1.00  0.00    -0.062 A 
HETATM    6  C1  UNL     1       4.302   0.654  -0.064  1.00  0.00     0.048 C 
HETATM    7  C11 UNL     1       2.333  -0.895   0.082  1.00  0.00     0.007 A 
HETATM    8  C10 UNL     1       0.974  -1.133   0.139  1.00  0.00     0.011 A 
ENDBRANCH   1   2
BRANCH   1   9
HETATM    9  C7  UNL     1      -2.173   0.926   0.015  1.00  0.00     0.191 A 
HETATM   10  C8  UNL     1      -3.302   1.152  -0.823  1.00  0.00     0.203 A 
HETATM   11  O1  UNL     1      -1.976   1.570  -1.250  1.00  0.00    -0.378 OA
ENDBRANCH   1   9
BRANCH   1  12
HETATM   12  N1  UNL     1      -1.776  -1.315  -0.888  1.00  0.00    -0.181 N 
HETATM   13  N2  UNL     1      -0.912  -1.703  -1.713  1.00  0.00    -0.322 N 
ATOM     14  H22 UNL     1       0.041  -1.348  -1.633  1.00  0.00     0.179 HD
ATOM     15  H21 UNL     1      -1.165  -2.368  -2.444  1.00  0.00     0.179 HD
BRANCH  12  16
HETATM   16  O2  UNL     1      -3.056  -1.792  -0.995  1.00  0.00    -0.271 OA
ATOM     17  H2  UNL     1      -3.292  -2.411  -1.676  1.00  0.00     0.246 HD
ENDBRANCH  12  16
ENDBRANCH   1  12
BRANCH   1  18
HETATM   18  C9  UNL     1      -1.768  -1.009   1.493  1.00  0.00     0.423 C 
HETATM   19  F1  UNL     1      -1.151  -2.203   1.727  1.00  0.00    -0.168 F 
HETATM   20  F2  UNL     1      -3.141  -1.256   1.475  1.00  0.00    -0.168 F 
HETATM   21  F3  UNL     1      -1.532  -0.124   2.536  1.00  0.00    -0.168 F 
ENDBRANCH   1  18
TORSDOF 5
