REMARK  13 active torsions:
REMARK  status: ('A' for Active; 'I' for Inactive)
REMARK    1  A    between atoms: C3_3  and  N1_5 
REMARK    2  A    between atoms: N1_5  and  C5_7 
REMARK    3  A    between atoms: C5_7  and  C6_8 
REMARK    4  A    between atoms: C6_8  and  O1_9 
REMARK    5  A    between atoms: C6_8  and  C7_11 
REMARK    6  A    between atoms: C7_11  and  O2_12 
REMARK    7  A    between atoms: O2_12  and  C8_13 
REMARK    8  A    between atoms: C13_18  and  O3_19 
REMARK    9  A    between atoms: O3_19  and  C14_20 
REMARK   10  A    between atoms: C14_20  and  C15_21 
REMARK   11  A    between atoms: C15_21  and  O4_22 
REMARK   12  A    between atoms: C15_21  and  C16_24 
REMARK   13  A    between atoms: C16_24  and  N2_25 
ROOT
HETATM    1  C1  UNL     1       8.564  -0.682   0.437  1.00  0.00     0.014 C 
HETATM    2  C2  UNL     1       7.420  -0.317   0.552  1.00  0.00    -0.092 C 
HETATM    3  C3  UNL     1       6.004   0.157   0.676  1.00  0.00     0.155 C 
HETATM    4  C4  UNL     1       6.119   1.662   0.826  1.00  0.00     0.046 C 
ENDROOT
BRANCH   3   5
HETATM    5  N1  UNL     1       5.331  -0.276  -0.494  1.00  0.00    -0.385 N 
ATOM      6  H1  UNL     1       5.509  -1.207  -0.872  1.00  0.00     0.160 HD
BRANCH   5   7
HETATM    7  C5  UNL     1       4.418   0.582  -1.131  1.00  0.00     0.090 C 
BRANCH   7   8
HETATM    8  C6  UNL     1       3.093   0.850  -0.502  1.00  0.00     0.180 C 
BRANCH   8   9
HETATM    9  O1  UNL     1       2.489   1.816  -1.377  1.00  0.00    -0.388 OA
ATOM     10  H1  UNL     1       1.645   1.987  -0.976  1.00  0.00     0.210 HD
ENDBRANCH   8   9
BRANCH   8  11
HETATM   11  C7  UNL     1       2.142  -0.362  -0.725  1.00  0.00     0.213 C 
BRANCH  11  12
HETATM   12  O2  UNL     1       0.859   0.043  -0.404  1.00  0.00    -0.348 OA
BRANCH  12  13
HETATM   13  C8  UNL     1      -0.330  -0.599  -0.477  1.00  0.00     0.078 A 
HETATM   14  C9  UNL     1      -0.482  -1.892  -0.936  1.00  0.00     0.044 A 
HETATM   15  C10 UNL     1      -1.708  -2.542  -1.016  1.00  0.00    -0.057 A 
HETATM   16  C11 UNL     1      -1.850  -3.940  -1.540  1.00  0.00     0.048 C 
HETATM   17  C12 UNL     1      -2.809  -1.826  -0.606  1.00  0.00     0.044 A 
HETATM   18  C13 UNL     1      -2.714  -0.541  -0.141  1.00  0.00     0.078 A 
HETATM   19  C17 UNL     1      -1.484   0.063  -0.077  1.00  0.00     0.005 A 
HETATM   20  C18 UNL     1      -1.391   1.461   0.459  1.00  0.00     0.054 C 
BRANCH  18  21
HETATM   21  O3  UNL     1      -3.876   0.120   0.249  1.00  0.00    -0.348 OA
BRANCH  21  22
HETATM   22  C14 UNL     1      -5.146  -0.515   0.185  1.00  0.00     0.209 C 
BRANCH  22  23
HETATM   23  C15 UNL     1      -6.223   0.448   0.606  1.00  0.00     0.167 C 
BRANCH  23  24
HETATM   24  O4  UNL     1      -6.083   0.923   1.888  1.00  0.00    -0.392 OA
ATOM     25  H4  UNL     1      -6.763   1.531   2.154  1.00  0.00     0.210 HD
ENDBRANCH  23  24
BRANCH  23  26
HETATM   26  C16 UNL     1      -6.273   1.621  -0.380  1.00  0.00     0.263 C 
BRANCH  26  27
HETATM   27  N2  UNL     1      -5.044   2.376  -0.273  1.00  0.00    -0.077 N 
ATOM     28  H23 UNL     1      -4.856   2.679   0.683  1.00  0.00     0.274 HD
ATOM     29  H22 UNL     1      -4.217   1.793  -0.403  1.00  0.00     0.274 HD
ATOM     30  H21 UNL     1      -5.077   3.156  -0.929  1.00  0.00     0.274 HD
ENDBRANCH  26  27
ENDBRANCH  23  26
ENDBRANCH  22  23
ENDBRANCH  21  22
ENDBRANCH  18  21
ENDBRANCH  12  13
ENDBRANCH  11  12
ENDBRANCH   8  11
ENDBRANCH   7   8
ENDBRANCH   5   7
ENDBRANCH   3   5
TORSDOF 13
