REMARK  12 active torsions:
REMARK  status: ('A' for Active; 'I' for Inactive)
REMARK    1  A    between atoms: C2_2  and  C3_6 
REMARK    2  A    between atoms: C3_6  and  C4_7 
REMARK    3  A    between atoms: C4_7  and  C5_8 
REMARK    4  A    between atoms: C5_8  and  N2_9 
REMARK    5  A    between atoms: C5_8  and  C6_13 
REMARK    6  A    between atoms: C6_13  and  O2_15 
REMARK    7  A    between atoms: O2_15  and  C7_16 
REMARK    8  A    between atoms: C7_16  and  C8_17 
REMARK    9  A    between atoms: C8_17  and  C9_18 
REMARK   10  A    between atoms: C8_17  and  N3_20 
REMARK       I    between atoms: N3_20  and  C10_22 
REMARK   11  A    between atoms: C10_22  and  C11_24 
REMARK   12  A    between atoms: C13_26  and  C14_27 
ROOT
HETATM    1  C8  UNL     1      -0.019   0.510  -0.188  1.00  0.00     0.170 C 
ENDROOT
BRANCH   1   2
HETATM    2  C7  UNL     1       0.606   0.196   1.126  1.00  0.00     0.211 C 
BRANCH   2   3
HETATM    3  O2  UNL     1       1.923  -0.083   1.238  1.00  0.00    -0.317 OA
BRANCH   3   4
HETATM    4  C6  UNL     1       3.002   0.709   1.148  1.00  0.00     0.289 C 
HETATM    5  O1  UNL     1       2.895   1.937   0.949  1.00  0.00    -0.263 OA
BRANCH   4   6
HETATM    6  C5  UNL     1       4.408   0.181   1.280  1.00  0.00     0.282 C 
BRANCH   6   7
HETATM    7  C4  UNL     1       4.550  -0.878   0.210  1.00  0.00     0.049 C 
BRANCH   7   8
HETATM    8  C3  UNL     1       5.915  -1.507   0.182  1.00  0.00     0.054 C 
BRANCH   8   9
HETATM    9  C2  UNL     1       7.017  -0.565  -0.077  1.00  0.00    -0.024 C 
HETATM   10  C1  UNL     1       7.123   0.247  -1.319  1.00  0.00     0.062 C 
HETATM   11  N1  UNL     1       7.921  -0.452   0.822  1.00  0.00    -0.406 N 
ATOM     12  H12 UNL     1       8.684   0.200   0.643  1.00  0.00     0.155 HD
ATOM     13  H11 UNL     1       7.848  -1.009   1.674  1.00  0.00     0.155 HD
ENDBRANCH   8   9
ENDBRANCH   7   8
ENDBRANCH   6   7
BRANCH   6  14
HETATM   14  N2  UNL     1       5.318   1.272   1.139  1.00  0.00    -0.066 N 
ATOM     15  H23 UNL     1       6.279   0.934   1.095  1.00  0.00     0.275 HD
ATOM     16  H22 UNL     1       5.239   1.687   0.211  1.00  0.00     0.275 HD
ATOM     17  H21 UNL     1       5.222   1.986   1.861  1.00  0.00     0.275 HD
ENDBRANCH   6  14
ENDBRANCH   4   6
ENDBRANCH   3   4
ENDBRANCH   2   3
ENDBRANCH   1   2
BRANCH   1  18
HETATM   18  C9  UNL     1       0.464   1.713  -0.843  1.00  0.00     0.258 C 
HETATM   19  O3  UNL     1      -0.235   2.744  -0.925  1.00  0.00    -0.305 OA
ENDBRANCH   1  18
BRANCH   1  20
HETATM   20  N3  UNL     1      -1.455   0.762   0.138  1.00  0.00    -0.343 N 
HETATM   21  C10 UNL     1      -2.468  -0.066  -0.389  1.00  0.00     0.270 C 
HETATM   22  O4  UNL     1      -2.127  -1.021  -1.140  1.00  0.00    -0.266 OA
ATOM     23  H3  UNL     1      -1.705   1.540   0.748  1.00  0.00     0.163 HD
BRANCH  21  24
HETATM   24  C11 UNL     1      -3.864   0.187  -0.067  1.00  0.00     0.117 A 
HETATM   25  C12 UNL     1      -4.943  -0.570  -0.538  1.00  0.00     0.063 A 
HETATM   26  C13 UNL     1      -6.052   0.023   0.015  1.00  0.00     0.031 A 
HETATM   27  N4  UNL     1      -5.644   1.047   0.752  1.00  0.00    -0.304 N 
HETATM   28  N5  UNL     1      -4.330   1.159   0.713  1.00  0.00    -0.295 N 
ATOM     29  H4  UNL     1      -6.262   1.665   1.278  1.00  0.00     0.186 HD
ATOM     30  H5  UNL     1      -3.772   1.864   1.194  1.00  0.00     0.187 HD
BRANCH  26  31
HETATM   31  C14 UNL     1      -7.434  -0.453  -0.217  1.00  0.00     0.029 C 
HETATM   32  C15 UNL     1      -7.512  -1.918   0.073  1.00  0.00     0.016 C 
HETATM   33  C16 UNL     1      -7.727  -0.221  -1.695  1.00  0.00     0.016 C 
ENDBRANCH  26  31
ENDBRANCH  21  24
ENDBRANCH   1  20
TORSDOF 12
