REMARK  11 active torsions:
REMARK  status: ('A' for Active; 'I' for Inactive)
REMARK    1  A    between atoms: O1_2  and  C2_3 
REMARK    2  A    between atoms: C2_3  and  C3_4 
REMARK    3  A    between atoms: C3_4  and  C4_5 
REMARK    4  A    between atoms: C3_4  and  O2_9 
REMARK    5  A    between atoms: C4_5  and  C5_6 
REMARK    6  A    between atoms: O2_9  and  C8_10 
REMARK       I    between atoms: C8_10  and  N1_12 
REMARK    7  A    between atoms: N1_12  and  C9_14 
REMARK    8  A    between atoms: C9_14  and  C10_15 
REMARK    9  A    between atoms: C9_14  and  C11_17 
REMARK   10  A    between atoms: C11_17  and  N2_18 
REMARK       I    between atoms: N2_18  and  C12_20 
REMARK   11  A    between atoms: C12_20  and  C13_22 
ROOT
HETATM    1  C9  UNL     1       1.856   0.080   0.889  1.00  0.00     0.166 C 
ENDROOT
BRANCH   1   2
HETATM    2  N1  UNL     1       0.500  -0.387   1.026  1.00  0.00    -0.324 N 
HETATM    3  C8  UNL     1      -0.571   0.150   0.285  1.00  0.00     0.361 C 
HETATM    4  O3  UNL     1      -0.317   1.070  -0.522  1.00  0.00    -0.238 OA
ATOM      5  H1  UNL     1       0.307  -1.139   1.688  1.00  0.00     0.165 HD
BRANCH   3   6
HETATM    6  O2  UNL     1      -1.874  -0.266   0.387  1.00  0.00    -0.296 OA
BRANCH   6   7
HETATM    7  C3  UNL     1      -2.963   0.258  -0.347  1.00  0.00     0.157 C 
BRANCH   7   8
HETATM    8  C2  UNL     1      -3.331  -0.751  -1.377  1.00  0.00     0.199 C 
BRANCH   8   9
HETATM    9  O1  UNL     1      -3.621  -2.007  -1.003  1.00  0.00    -0.393 OA
HETATM   10  C1  UNL     1      -4.612  -2.331  -0.164  1.00  0.00     0.201 C 
ENDBRANCH   8   9
ENDBRANCH   7   8
BRANCH   7  11
HETATM   11  C4  UNL     1      -4.011   0.922   0.425  1.00  0.00     0.038 C 
BRANCH  11  12
HETATM   12  C5  UNL     1      -5.035   1.754  -0.203  1.00  0.00    -0.020 C 
HETATM   13  C6  UNL     1      -5.941   2.275   0.941  1.00  0.00     0.009 C 
HETATM   14  C7  UNL     1      -5.936   1.228  -1.235  1.00  0.00     0.009 C 
ENDBRANCH  11  12
ENDBRANCH   7  11
ENDBRANCH   6   7
ENDBRANCH   3   6
ENDBRANCH   1   2
BRANCH   1  15
HETATM   15  C10 UNL     1       2.334   0.629   2.187  1.00  0.00     0.258 C 
HETATM   16  O4  UNL     1       1.611   0.640   3.169  1.00  0.00    -0.305 OA
ENDBRANCH   1  15
BRANCH   1  17
HETATM   17  C11 UNL     1       2.764  -1.033   0.470  1.00  0.00     0.155 C 
BRANCH  17  18
HETATM   18  N2  UNL     1       4.121  -0.551   0.336  1.00  0.00    -0.353 N 
HETATM   19  C12 UNL     1       5.196  -1.401  -0.052  1.00  0.00     0.277 C 
HETATM   20  O5  UNL     1       4.991  -2.616  -0.293  1.00  0.00    -0.265 OA
ATOM     21  H2  UNL     1       4.315   0.432   0.526  1.00  0.00     0.162 HD
BRANCH  19  22
HETATM   22  C13 UNL     1       6.554  -0.893  -0.180  1.00  0.00     0.162 A 
HETATM   23  C14 UNL     1       6.974   0.410   0.043  1.00  0.00     0.134 A 
HETATM   24  N3  UNL     1       8.293   0.473  -0.180  1.00  0.00    -0.329 N 
HETATM   25  C15 UNL     1       8.672  -0.769  -0.533  1.00  0.00     0.222 A 
ATOM     26  H3  UNL     1       8.890   1.296  -0.099  1.00  0.00     0.168 HD
HETATM   27  N4  UNL     1       9.905  -1.051  -0.819  1.00  0.00    -0.365 N 
HETATM   28  O6  UNL     1       7.629  -1.555  -0.525  1.00  0.00    -0.273 OA
ATOM     29  H42 UNL     1      10.720  -0.437  -0.825  1.00  0.00     0.159 HD
ATOM     30  H41 UNL     1      10.192  -1.992  -1.087  1.00  0.00     0.159 HD
ENDBRANCH  19  22
ENDBRANCH  17  18
ENDBRANCH   1  17
TORSDOF 11
