REMARK  11 active torsions:
REMARK  status: ('A' for Active; 'I' for Inactive)
REMARK    1  A    between atoms: O1_2  and  C2_3 
REMARK    2  A    between atoms: C5_6  and  C6_7 
REMARK    3  A    between atoms: C6_7  and  C7_8 
REMARK    4  A    between atoms: C7_8  and  N1_9 
REMARK    5  A    between atoms: N1_9  and  C8_11 
REMARK    6  A    between atoms: C8_11  and  C9_12 
REMARK    7  A    between atoms: C9_12  and  O2_13 
REMARK    8  A    between atoms: C9_12  and  C10_15 
REMARK    9  A    between atoms: C10_15  and  O3_16 
REMARK   10  A    between atoms: O3_16  and  C11_17 
REMARK   11  A    between atoms: C14_22  and  C15_23 
ROOT
HETATM    1  C9  UNL     1      -0.935   0.288  -0.347  1.00  0.00     0.180 C 
ENDROOT
BRANCH   1   2
HETATM    2  C8  UNL     1       0.528   0.291  -0.695  1.00  0.00     0.089 C 
BRANCH   2   3
HETATM    3  N1  UNL     1       1.364  -0.159   0.344  1.00  0.00    -0.399 N 
ATOM      4  H1  UNL     1       1.843  -1.054   0.250  1.00  0.00     0.158 HD
BRANCH   3   5
HETATM    5  C7  UNL     1       1.549   0.603   1.507  1.00  0.00     0.123 C 
BRANCH   5   6
HETATM    6  C6  UNL     1       2.570  -0.144   2.407  1.00  0.00     0.058 C 
BRANCH   6   7
HETATM    7  C5  UNL     1       3.837  -0.276   1.645  1.00  0.00    -0.057 A 
HETATM    8  C4  UNL     1       4.073  -1.385   0.852  1.00  0.00     0.010 A 
HETATM    9  C3  UNL     1       5.236  -1.544   0.130  1.00  0.00     0.037 A 
HETATM   10  C2  UNL     1       6.212  -0.572   0.188  1.00  0.00     0.068 A 
HETATM   11  C18 UNL     1       6.005   0.540   0.968  1.00  0.00     0.037 A 
HETATM   12  C17 UNL     1       4.819   0.680   1.690  1.00  0.00     0.010 A 
BRANCH  10  13
HETATM   13  O1  UNL     1       7.376  -0.734  -0.536  1.00  0.00    -0.356 OA
HETATM   14  C1  UNL     1       8.373   0.259  -0.474  1.00  0.00     0.210 C 
ENDBRANCH  10  13
ENDBRANCH   6   7
ENDBRANCH   5   6
ENDBRANCH   3   5
ENDBRANCH   2   3
ENDBRANCH   1   2
BRANCH   1  15
HETATM   15  O2  UNL     1      -1.115   1.159   0.714  1.00  0.00    -0.388 OA
ATOM     16  H2  UNL     1      -2.039   1.157   0.934  1.00  0.00     0.210 HD
ENDBRANCH   1  15
BRANCH   1  17
HETATM   17  C10 UNL     1      -1.768   0.736  -1.516  1.00  0.00     0.212 C 
BRANCH  17  18
HETATM   18  O3  UNL     1      -3.092   0.812  -1.378  1.00  0.00    -0.348 OA
BRANCH  18  19
HETATM   19  C11 UNL     1      -4.138   0.038  -1.097  1.00  0.00     0.072 A 
HETATM   20  C12 UNL     1      -4.099  -1.312  -0.825  1.00  0.00     0.053 A 
HETATM   21  C13 UNL     1      -5.269  -1.980  -0.550  1.00  0.00     0.091 A 
HETATM   22  N2  UNL     1      -6.457  -1.364  -0.538  1.00  0.00    -0.363 N 
HETATM   23  C14 UNL     1      -6.562  -0.039  -0.797  1.00  0.00     0.075 A 
ATOM     24  H2  UNL     1      -7.298  -1.902  -0.330  1.00  0.00     0.165 HD
HETATM   25  C16 UNL     1      -5.398   0.632  -1.071  1.00  0.00     0.069 A 
BRANCH  23  26
HETATM   26  C15 UNL     1      -7.871   0.617  -0.777  1.00  0.00     0.137 C 
HETATM   27  N3  UNL     1      -8.914  -0.073  -0.513  1.00  0.00    -0.386 N 
ATOM     28  H32 UNL     1      -8.810  -1.069  -0.321  1.00  0.00     0.157 HD
ATOM     29  H31 UNL     1      -9.826   0.384  -0.499  1.00  0.00     0.157 HD
HETATM   30  N4  UNL     1      -8.015   1.997  -1.043  1.00  0.00    -0.081 NA
ENDBRANCH  23  26
ENDBRANCH  18  19
ENDBRANCH  17  18
ENDBRANCH   1  17
TORSDOF 11
