REMARK  12 active torsions:
REMARK  status: ('A' for Active; 'I' for Inactive)
REMARK    1  A    between atoms: C2_2  and  O1_3 
REMARK    2  A    between atoms: O1_3  and  C3_4 
REMARK    3  A    between atoms: C6_7  and  C7_8 
REMARK    4  A    between atoms: C7_8  and  C8_9 
REMARK    5  A    between atoms: C8_9  and  N1_10 
REMARK    6  A    between atoms: N1_10  and  C9_12 
REMARK    7  A    between atoms: C9_12  and  C10_13 
REMARK    8  A    between atoms: C10_13  and  O2_14 
REMARK    9  A    between atoms: C10_13  and  C11_16 
REMARK   10  A    between atoms: C11_16  and  O3_17 
REMARK   11  A    between atoms: O3_17  and  C12_18 
REMARK   12  A    between atoms: C14_22  and  N3_23 
ROOT
HETATM    1  C10 UNL     1      -1.390  -0.921  -1.282  1.00  0.00     0.159 C 
ENDROOT
BRANCH   1   2
HETATM    2  C9  UNL     1      -0.937   0.508  -1.123  1.00  0.00     0.147 C 
BRANCH   2   3
HETATM    3  N1  UNL     1       0.109   0.797  -2.052  1.00  0.00    -0.418 N 
ATOM      4  H1  UNL     1       0.458   0.100  -2.710  1.00  0.00     0.153 HD
BRANCH   3   5
HETATM    5  C8  UNL     1       0.632   2.117  -2.002  1.00  0.00     0.118 C 
BRANCH   5   6
HETATM    6  C7  UNL     1       1.409   2.481  -0.786  1.00  0.00     0.057 C 
BRANCH   6   7
HETATM    7  C6  UNL     1       2.614   1.662  -0.547  1.00  0.00    -0.057 A 
HETATM    8  C5  UNL     1       3.852   1.961  -1.043  1.00  0.00     0.010 A 
HETATM    9  C4  UNL     1       4.959   1.193  -0.811  1.00  0.00     0.037 A 
HETATM   10  C3  UNL     1       4.879   0.020  -0.028  1.00  0.00     0.068 A 
HETATM   11  C17 UNL     1       3.637  -0.289   0.474  1.00  0.00     0.037 A 
HETATM   12  C16 UNL     1       2.519   0.522   0.218  1.00  0.00     0.010 A 
BRANCH  10  13
HETATM   13  O1  UNL     1       6.029  -0.713   0.169  1.00  0.00    -0.352 OA
BRANCH  13  14
HETATM   14  C2  UNL     1       6.079  -1.874   0.932  1.00  0.00     0.171 C 
HETATM   15  C1  UNL     1       5.712  -1.575   2.359  1.00  0.00     0.034 C 
ENDBRANCH  13  14
ENDBRANCH  10  13
ENDBRANCH   6   7
ENDBRANCH   5   6
ENDBRANCH   3   5
ENDBRANCH   2   3
ENDBRANCH   1   2
BRANCH   1  16
HETATM   16  O2  UNL     1      -1.872  -1.190  -2.547  1.00  0.00    -0.392 OA
ATOM     17  H2  UNL     1      -2.157  -2.091  -2.647  1.00  0.00     0.210 HD
ENDBRANCH   1  16
BRANCH   1  18
HETATM   18  C11 UNL     1      -2.469  -1.217  -0.251  1.00  0.00     0.209 C 
BRANCH  18  19
HETATM   19  O3  UNL     1      -3.607  -0.438  -0.462  1.00  0.00    -0.346 OA
BRANCH  19  20
HETATM   20  C12 UNL     1      -4.748  -0.486   0.314  1.00  0.00     0.100 A 
HETATM   21  C13 UNL     1      -4.892  -1.321   1.398  1.00  0.00     0.144 A 
HETATM   22  N2  UNL     1      -6.043  -1.298   2.095  1.00  0.00    -0.199 N 
HETATM   23  C14 UNL     1      -7.071  -0.481   1.770  1.00  0.00     0.675 A 
ATOM     24  H2  UNL     1      -6.144  -1.919   2.898  1.00  0.00     0.183 HD
HETATM   25  N4  UNL     1      -6.966   0.347   0.718  1.00  0.00    -0.199 N 
HETATM   26  C15 UNL     1      -5.827   0.338   0.013  1.00  0.00     0.144 A 
ATOM     27  H4  UNL     1      -7.734   0.967   0.462  1.00  0.00     0.183 HD
BRANCH  23  28
HETATM   28  N3  UNL     1      -8.166  -0.482   2.460  1.00  0.00    -0.234 N 
ATOM     29  H32 UNL     1      -8.246  -1.111   3.259  1.00  0.00     0.174 HD
ATOM     30  H31 UNL     1      -8.941   0.134   2.215  1.00  0.00     0.174 HD
ENDBRANCH  23  28
ENDBRANCH  19  20
ENDBRANCH  18  19
ENDBRANCH   1  18
TORSDOF 12
