REMARK  5 active torsions:
REMARK  status: ('A' for Active; 'I' for Inactive)
REMARK       I    between atoms: C1_2  and  N1_3 
REMARK       I    between atoms: C1_2  and  N3_14 
REMARK    1  A    between atoms: N1_3  and  C2_5 
REMARK    2  A    between atoms: C2_5  and  C3_6 
REMARK    3  A    between atoms: C3_6  and  C4_7 
REMARK    4  A    between atoms: C4_7  and  N2_8 
REMARK    5  A    between atoms: C15_20  and  C16_21 
ROOT
HETATM    1  O1  UNL     1      -1.449  -0.424  -3.027  1.00  0.00    -0.247 OA
HETATM    2  C1  UNL     1      -1.418  -0.514  -1.752  1.00  0.00     0.318 C 
HETATM    3  N1  UNL     1      -0.156  -0.809  -1.200  1.00  0.00    -0.343 N 
ATOM      4  H1  UNL     1      -0.077  -0.889  -0.186  1.00  0.00     0.164 HD
HETATM    5  N3  UNL     1      -2.609  -0.314  -1.047  1.00  0.00    -0.323 N 
HETATM    6  C10 UNL     1      -3.763  -0.003  -1.873  1.00  0.00     0.128 C 
HETATM    7  C11 UNL     1      -4.265   1.399  -1.603  1.00  0.00     0.020 C 
HETATM    8  C12 UNL     1      -3.202   2.198  -0.870  1.00  0.00     0.002 C 
HETATM    9  C13 UNL     1      -3.323   1.904   0.609  1.00  0.00     0.002 C 
HETATM   10  C14 UNL     1      -2.358   0.866   1.086  1.00  0.00     0.032 C 
HETATM   11  C15 UNL     1      -2.562  -0.429   0.369  1.00  0.00     0.146 C 
ENDROOT
BRANCH  11  12
HETATM   12  C16 UNL     1      -3.835  -1.045   0.913  1.00  0.00     0.073 A 
HETATM   13  N4  UNL     1      -4.558  -0.631   1.943  1.00  0.00    -0.361 N 
HETATM   14  C17 UNL     1      -5.621  -1.278   2.286  1.00  0.00     0.096 A 
ATOM     15  H4  UNL     1      -4.275   0.199   2.465  1.00  0.00     0.165 HD
HETATM   16  C18 UNL     1      -5.960  -2.387   1.552  1.00  0.00     0.068 A 
HETATM   17  S1  UNL     1      -4.700  -2.423   0.396  1.00  0.00    -0.085 SA
ENDBRANCH  11  12
BRANCH   3  18
HETATM   18  C2  UNL     1       1.030  -1.003  -1.997  1.00  0.00     0.126 C 
BRANCH  18  19
HETATM   19  C3  UNL     1       2.261  -1.304  -1.178  1.00  0.00     0.050 C 
BRANCH  19  20
HETATM   20  C4  UNL     1       2.530  -0.168  -0.261  1.00  0.00     0.274 C 
BRANCH  20  21
HETATM   21  N2  UNL     1       3.689  -0.338   0.576  1.00  0.00     0.088 N 
HETATM   22  C5  UNL     1       3.779   0.880   1.399  1.00  0.00     0.272 C 
HETATM   23  C6  UNL     1       4.819   0.623   2.436  1.00  0.00     0.030 C 
HETATM   24  C7  UNL     1       6.170   0.301   1.858  1.00  0.00     0.003 C 
HETATM   25  C8  UNL     1       6.118  -0.539   0.627  1.00  0.00     0.030 C 
HETATM   26  C9  UNL     1       4.906  -0.375  -0.208  1.00  0.00     0.272 C 
ENDBRANCH  20  21
ENDBRANCH  19  20
ENDBRANCH  18  19
ENDBRANCH   3  18
TORSDOF 5
