REMARK  5 active torsions:
REMARK  status: ('A' for Active; 'I' for Inactive)
REMARK    1  A    between atoms: O1_2  and  C2_3 
REMARK       I    between atoms: C2_3  and  N1_5 
REMARK    2  A    between atoms: N1_5  and  C3_7 
REMARK    3  A    between atoms: C3_7  and  C5_9 
REMARK       I    between atoms: C5_9  and  N2_11 
REMARK    4  A    between atoms: C11_17  and  C12_18 
REMARK    5  A    between atoms: C12_18  and  C13_19 
ROOT
HETATM    1  C5  UNL     1      -2.112  -0.868   0.226  1.00  0.00     0.243 C 
HETATM    2  O3  UNL     1      -3.140  -1.598   0.425  1.00  0.00    -0.271 OA
HETATM    3  N2  UNL     1      -0.850  -1.466   0.284  1.00  0.00    -0.341 N 
HETATM    4  C6  UNL     1      -0.640  -2.865   0.624  1.00  0.00     0.083 C 
HETATM    5  C7  UNL     1      -1.752  -3.502   1.384  1.00  0.00     0.032 C 
HETATM    6  C8  UNL     1      -0.487  -3.570  -0.710  1.00  0.00     0.025 C 
HETATM    7  C9  UNL     1       0.500  -2.813  -1.542  1.00  0.00     0.004 C 
HETATM    8  C10 UNL     1       1.291  -1.840  -0.736  1.00  0.00     0.025 C 
HETATM    9  C11 UNL     1       0.404  -0.775  -0.057  1.00  0.00     0.088 C 
ENDROOT
BRANCH   1  10
HETATM   10  C3  UNL     1      -2.390   0.558  -0.051  1.00  0.00     0.175 C 
HETATM   11  C4  UNL     1      -2.301   1.318   1.292  1.00  0.00     0.042 C 
BRANCH  10  12
HETATM   12  N1  UNL     1      -3.684   0.794  -0.626  1.00  0.00    -0.324 N 
HETATM   13  C2  UNL     1      -3.785   1.528  -1.838  1.00  0.00     0.360 C 
HETATM   14  O2  UNL     1      -2.764   1.980  -2.429  1.00  0.00    -0.239 OA
ATOM     15  H1  UNL     1      -4.523   0.438  -0.168  1.00  0.00     0.165 HD
BRANCH  13  16
HETATM   16  O1  UNL     1      -5.021   1.795  -2.457  1.00  0.00    -0.309 OA
HETATM   17  C1  UNL     1      -5.028   2.531  -3.675  1.00  0.00     0.215 C 
ENDBRANCH  13  16
ENDBRANCH  10  12
ENDBRANCH   1  10
BRANCH   9  18
HETATM   18  C12 UNL     1       1.163  -0.301   1.138  1.00  0.00     0.040 C 
BRANCH  18  19
HETATM   19  C13 UNL     1       2.428   0.406   0.677  1.00  0.00     0.051 C 
HETATM   20  C14 UNL     1       3.312   0.939   1.776  1.00  0.00     0.034 C 
HETATM   21  C15 UNL     1       3.782   2.081   0.922  1.00  0.00     0.002 C 
HETATM   22  C16 UNL     1       4.154   3.308   1.729  1.00  0.00     0.026 C 
HETATM   23  C17 UNL     1       4.862   1.772  -0.086  1.00  0.00     0.026 C 
HETATM   24  S1  UNL     1       2.118   2.145   0.210  1.00  0.00    -0.155 SA
ENDBRANCH  18  19
ENDBRANCH   9  18
TORSDOF 5
