REMARK  6 active torsions:
REMARK  status: ('A' for Active; 'I' for Inactive)
REMARK    1  A    between atoms: C2_3  and  N2_4 
REMARK    2  A    between atoms: C7_9  and  C8_10 
REMARK    3  A    between atoms: C8_10  and  C9_11 
REMARK    4  A    between atoms: C9_11  and  N3_12 
REMARK       I    between atoms: N3_12  and  C10_14 
REMARK    5  A    between atoms: C10_14  and  O2_16 
REMARK    6  A    between atoms: O2_16  and  C11_17 
ROOT
HETATM    1  N1  UNL     1       7.462   1.442  -2.535  1.00  0.00    -0.195 NA
HETATM    2  C1  UNL     1       6.443   1.342  -1.966  1.00  0.00     0.089 C 
HETATM    3  C2  UNL     1       5.163   1.241  -1.267  1.00  0.00     0.396 C 
ENDROOT
BRANCH   3   4
HETATM    4  N2  UNL     1       4.966  -0.137  -0.816  1.00  0.00     0.105 N 
HETATM    5  C3  UNL     1       5.949  -0.369   0.217  1.00  0.00     0.274 C 
HETATM    6  C4  UNL     1       5.665  -1.524   1.099  1.00  0.00     0.030 C 
HETATM    7  C5  UNL     1       4.610  -2.461   0.606  1.00  0.00     0.004 C 
HETATM    8  C6  UNL     1       3.447  -1.806  -0.055  1.00  0.00     0.036 C 
HETATM    9  C7  UNL     1       3.626  -0.360  -0.367  1.00  0.00     0.225 C 
BRANCH   9  10
HETATM   10  C8  UNL     1       3.207   0.564   0.740  1.00  0.00     0.055 C 
BRANCH  10  11
HETATM   11  C9  UNL     1       1.814   0.342   1.216  1.00  0.00     0.127 C 
BRANCH  11  12
HETATM   12  N3  UNL     1       0.823   0.525   0.173  1.00  0.00    -0.337 N 
HETATM   13  C10 UNL     1      -0.570   0.340   0.493  1.00  0.00     0.361 C 
HETATM   14  O1  UNL     1      -0.944   0.028   1.644  1.00  0.00    -0.238 OA
ATOM     15  H3  UNL     1       1.108   0.781  -0.773  1.00  0.00     0.164 HD
BRANCH  13  16
HETATM   16  O2  UNL     1      -1.573   0.496  -0.442  1.00  0.00    -0.293 OA
BRANCH  16  17
HETATM   17  C11 UNL     1      -2.932   0.345  -0.253  1.00  0.00     0.073 C 
HETATM   18  C12 UNL     1      -3.557   1.242   0.764  1.00  0.00     0.043 C 
HETATM   19  C13 UNL     1      -5.023   0.885   0.887  1.00  0.00    -0.011 C 
HETATM   20  C14 UNL     1      -5.730   1.261  -0.394  1.00  0.00     0.009 C 
HETATM   21  C18 UNL     1      -5.217  -0.566   1.247  1.00  0.00     0.009 C 
HETATM   22  C15 UNL     1      -5.106   0.430  -1.500  1.00  0.00    -0.011 C 
HETATM   23  C16 UNL     1      -5.406  -1.017  -1.174  1.00  0.00     0.009 C 
HETATM   24  C20 UNL     1      -3.611   0.681  -1.589  1.00  0.00     0.043 C 
HETATM   25  C17 UNL     1      -4.700  -1.397   0.096  1.00  0.00    -0.011 C 
HETATM   26  C19 UNL     1      -3.217  -1.126  -0.027  1.00  0.00     0.043 C 
ENDBRANCH  16  17
ENDBRANCH  13  16
ENDBRANCH  11  12
ENDBRANCH  10  11
ENDBRANCH   9  10
ENDBRANCH   3   4
TORSDOF 6
