REMARK  8 active torsions:
REMARK  status: ('A' for Active; 'I' for Inactive)
REMARK    1  A    between atoms: C2_2  and  C3_3 
REMARK    2  A    between atoms: C2_2  and  C19_29 
REMARK    3  A    between atoms: C3_3  and  N1_4 
REMARK    4  A    between atoms: C4_5  and  S1_6 
REMARK    5  A    between atoms: S1_6  and  C5_7 
REMARK    6  A    between atoms: C5_7  and  C6_8 
REMARK       I    between atoms: C6_8  and  N2_10 
REMARK    7  A    between atoms: N2_10  and  C7_12 
REMARK    8  A    between atoms: C7_12  and  C8_13 
ROOT
HETATM    1  N1  UNL     1      -2.842  -1.354   0.916  1.00  0.00    -0.322 N 
HETATM    2  C4  UNL     1      -1.862  -1.494   0.009  1.00  0.00     0.148 A 
HETATM    3  N4  UNL     1      -2.171  -2.609  -0.697  1.00  0.00    -0.335 N 
ATOM      4  H4  UNL     1      -1.612  -2.981  -1.465  1.00  0.00     0.168 HD
HETATM    5  C13 UNL     1      -3.312  -3.159  -0.251  1.00  0.00     0.063 A 
HETATM    6  C14 UNL     1      -4.035  -4.284  -0.632  1.00  0.00     0.057 A 
HETATM    7  C15 UNL     1      -5.197  -4.573   0.055  1.00  0.00     0.058 A 
HETATM    8 CL1  UNL     1      -6.100  -6.002  -0.442  1.00  0.00    -0.082 Cl
HETATM    9  C16 UNL     1      -5.657  -3.785   1.099  1.00  0.00     0.058 A 
HETATM   10 CL2  UNL     1      -7.146  -4.213   1.930  1.00  0.00    -0.082 Cl
HETATM   11  C17 UNL     1      -4.919  -2.678   1.453  1.00  0.00     0.057 A 
HETATM   12  C18 UNL     1      -3.755  -2.365   0.784  1.00  0.00     0.065 A 
ENDROOT
BRANCH   2  13
HETATM   13  S1  UNL     1      -0.394  -0.470  -0.252  1.00  0.00    -0.084 SA
BRANCH  13  14
HETATM   14  C5  UNL     1       0.941  -1.140   0.791  1.00  0.00     0.185 C 
BRANCH  14  15
HETATM   15  C6  UNL     1       2.185  -0.332   0.619  1.00  0.00     0.227 C 
HETATM   16  O1  UNL     1       3.236  -0.618   1.247  1.00  0.00    -0.273 OA
HETATM   17  N2  UNL     1       2.223   0.783  -0.257  1.00  0.00    -0.358 N 
ATOM     18  H2  UNL     1       1.375   1.023  -0.770  1.00  0.00     0.162 HD
BRANCH  17  19
HETATM   19  C7  UNL     1       3.386   1.587  -0.458  1.00  0.00     0.158 C 
BRANCH  19  20
HETATM   20  C8  UNL     1       4.579   0.835  -1.000  1.00  0.00     0.240 C 
HETATM   21  C9  UNL     1       4.268   0.205  -2.349  1.00  0.00     0.039 C 
HETATM   22  C10 UNL     1       5.572   0.292  -3.099  1.00  0.00     0.032 C 
HETATM   23  C11 UNL     1       6.369   1.348  -2.398  1.00  0.00     0.272 C 
HETATM   24  N3  UNL     1       5.592   1.833  -1.299  1.00  0.00     0.090 N 
HETATM   25  C12 UNL     1       6.422   2.115  -0.146  1.00  0.00     0.310 C 
ENDBRANCH  19  20
ENDBRANCH  17  19
ENDBRANCH  14  15
ENDBRANCH  13  14
ENDBRANCH   2  13
BRANCH   1  26
HETATM   26  C3  UNL     1      -2.949  -0.300   1.868  1.00  0.00     0.165 C 
BRANCH  26  27
HETATM   27  C2  UNL     1      -3.792   0.856   1.451  1.00  0.00    -0.067 C 
HETATM   28  C1  UNL     1      -4.822   1.137   2.214  1.00  0.00     0.016 C 
BRANCH  27  29
HETATM   29  C19 UNL     1      -3.510   1.660   0.253  1.00  0.00     0.015 A 
HETATM   30  C20 UNL     1      -2.996   3.064   0.360  1.00  0.00     0.010 A 
HETATM   31  C21 UNL     1      -4.381   2.847  -0.124  1.00  0.00     0.010 A 
ENDBRANCH  27  29
ENDBRANCH  26  27
ENDBRANCH   1  26
TORSDOF 8
