REMARK  9 active torsions:
REMARK  status: ('A' for Active; 'I' for Inactive)
REMARK    1  A    between atoms: C4_4  and  C5_5 
REMARK    2  A    between atoms: C5_5  and  C6_6 
REMARK    3  A    between atoms: C6_6  and  C7_7 
REMARK    4  A    between atoms: C9_9  and  C10_10 
REMARK    5  A    between atoms: C10_10  and  O1_11 
REMARK    6  A    between atoms: O1_11  and  C11_12 
REMARK    7  A    between atoms: C12_13  and  N1_14 
REMARK    8  A    between atoms: N2_18  and  C15_19 
REMARK    9  A    between atoms: C15_19  and  C16_20 
ROOT
HETATM    1  C11 UNL     1      -0.026  -1.994  -0.256  1.00  0.00     0.163 A 
HETATM    2  C12 UNL     1      -1.279  -2.287   0.196  1.00  0.00     0.142 A 
HETATM    3  N3  UNL     1      -1.473  -3.496   0.837  1.00  0.00    -0.344 N 
ATOM      4  H3  UNL     1      -2.405  -3.728   1.180  1.00  0.00     0.167 HD
HETATM    5  C20 UNL     1      -0.482  -4.371   1.022  1.00  0.00     0.011 A 
HETATM    6  C21 UNL     1      -0.761  -5.644   1.717  1.00  0.00     0.068 C 
HETATM    7  C22 UNL     1       0.788  -4.110   0.581  1.00  0.00     0.082 A 
HETATM    8  C23 UNL     1       1.012  -2.918  -0.059  1.00  0.00     0.210 A 
HETATM    9  O3  UNL     1       2.164  -2.615  -0.491  1.00  0.00    -0.285 OA
ENDROOT
BRANCH   2  10
HETATM   10  N1  UNL     1      -2.344  -1.400   0.027  1.00  0.00    -0.358 N 
HETATM   11  C13 UNL     1      -2.860  -1.248  -1.305  1.00  0.00     0.153 C 
HETATM   12  C14 UNL     1      -3.331   0.094  -1.723  1.00  0.00     0.221 C 
HETATM   13  O2  UNL     1      -4.568   0.541  -1.364  1.00  0.00    -0.273 OA
HETATM   14  N2  UNL     1      -4.780   0.754  -0.045  1.00  0.00    -0.246 N 
HETATM   15  C18 UNL     1      -3.953   0.147   0.872  1.00  0.00     0.115 C 
HETATM   16  C19 UNL     1      -2.861  -0.739   1.218  1.00  0.00     0.171 C 
BRANCH  14  17
HETATM   17  C15 UNL     1      -5.396   1.930   0.350  1.00  0.00     0.154 C 
BRANCH  17  18
HETATM   18  C16 UNL     1      -4.563   3.146   0.566  1.00  0.00     0.209 C 
HETATM   19  C17 UNL     1      -5.530   4.263   0.992  1.00  0.00     0.076 C 
HETATM   20  F1  UNL     1      -3.652   3.031   1.583  1.00  0.00    -0.220 F 
HETATM   21 CL1  UNL     1      -3.845   3.654  -0.963  1.00  0.00    -0.077 Cl
ENDBRANCH  17  18
ENDBRANCH  14  17
ENDBRANCH   2  10
BRANCH   1  22
HETATM   22  O1  UNL     1       0.269  -0.818  -0.906  1.00  0.00    -0.340 OA
BRANCH  22  23
HETATM   23  C10 UNL     1       0.739   0.285  -0.086  1.00  0.00     0.203 C 
BRANCH  23  24
HETATM   24  C9  UNL     1       1.018   1.406  -0.940  1.00  0.00     0.002 C 
HETATM   25  C7  UNL     1       2.082   2.080  -1.178  1.00  0.00    -0.085 C 
HETATM   26  C8  UNL     1       1.913   3.259  -2.226  1.00  0.00     0.043 C 
BRANCH  25  27
HETATM   27  C6  UNL     1       3.445   2.021  -0.709  1.00  0.00     0.037 C 
BRANCH  27  28
HETATM   28  C5  UNL     1       3.789   0.986   0.280  1.00  0.00     0.031 C 
BRANCH  28  29
HETATM   29  C4  UNL     1       5.282   1.146   0.577  1.00  0.00    -0.024 C 
HETATM   30  C2  UNL     1       6.069   0.119   0.329  1.00  0.00    -0.091 C 
HETATM   31  C1  UNL     1       7.526   0.254   0.610  1.00  0.00     0.042 C 
HETATM   32  C3  UNL     1       5.550  -1.148  -0.216  1.00  0.00     0.042 C 
ENDBRANCH  28  29
ENDBRANCH  27  28
ENDBRANCH  25  27
ENDBRANCH  23  24
ENDBRANCH  22  23
ENDBRANCH   1  22
TORSDOF 9
