REMARK  2 active torsions:
REMARK  status: ('A' for Active; 'I' for Inactive)
REMARK    1  A    between atoms: C5_5  and  O1_6 
REMARK    2  A    between atoms: C5_5  and  N1_8 
ROOT
HETATM    1  C1  UNL     1      -2.807  -1.977  -2.589  1.00  0.00     0.013 C 
HETATM    2  C2  UNL     1      -2.160  -1.941  -1.198  1.00  0.00     0.026 C 
HETATM    3  C3  UNL     1      -3.195  -1.987  -0.156  1.00  0.00     0.012 C 
HETATM    4  C4  UNL     1      -3.720  -0.721   0.362  1.00  0.00     0.072 C 
HETATM    5  C5  UNL     1      -2.688   0.461   0.429  1.00  0.00     0.267 C 
HETATM    6  C8  UNL     1      -1.370  -0.222   0.355  1.00  0.00     0.125 C 
HETATM    7  C9  UNL     1      -0.140   0.243   0.987  1.00  0.00     0.142 C 
HETATM    8  O2  UNL     1       0.392  -0.697   1.925  1.00  0.00    -0.382 OA
HETATM    9  C10 UNL     1       0.458  -1.980   1.510  1.00  0.00     0.200 C 
HETATM   10  C11 UNL     1       1.257  -2.198   0.255  1.00  0.00     0.149 C 
HETATM   11  C12 UNL     1       2.516  -1.403   0.524  1.00  0.00     0.040 C 
HETATM   12  C13 UNL     1       2.355   0.059   0.680  1.00  0.00     0.007 C 
HETATM   13  C14 UNL     1       3.599   0.667   0.056  1.00  0.00    -0.043 C 
HETATM   14  C15 UNL     1       4.768  -0.314   0.307  1.00  0.00     0.015 C 
HETATM   15  C16 UNL     1       4.061   1.938   0.739  1.00  0.00     0.015 C 
HETATM   16  C17 UNL     1       3.472   0.779  -1.432  1.00  0.00     0.010 C 
HETATM   17  C18 UNL     1       2.235   0.159  -2.017  1.00  0.00     0.012 C 
HETATM   18  C19 UNL     1       0.972   0.291  -1.284  1.00  0.00     0.065 C 
HETATM   19  C20 UNL     1       1.061   0.639   0.164  1.00  0.00    -0.004 C 
HETATM   20  C21 UNL     1       1.131   2.164   0.212  1.00  0.00     0.019 C 
HETATM   21  C22 UNL     1       0.176  -0.960  -1.387  1.00  0.00     0.237 C 
HETATM   22  O3  UNL     1      -0.445  -0.989  -2.634  1.00  0.00    -0.196 OA
HETATM   23  O4  UNL     1      -1.235  -0.020  -2.131  1.00  0.00    -0.220 OA
HETATM   24  C23 UNL     1      -1.255  -0.786  -1.011  1.00  0.00     0.169 C 
HETATM   25  O5  UNL     1       0.707  -2.090  -0.935  1.00  0.00    -0.342 OA
ENDROOT
BRANCH   5  26
HETATM   26  O1  UNL     1      -3.036   1.258  -0.631  1.00  0.00    -0.362 OA
ATOM     27  H1  UNL     1      -2.412   1.973  -0.590  1.00  0.00     0.212 HD
ENDBRANCH   5  26
BRANCH   5  28
HETATM   28  N1  UNL     1      -3.010   1.196   1.649  1.00  0.00     0.115 N 
HETATM   29  C6  UNL     1      -4.467   1.572   1.557  1.00  0.00     0.313 C 
HETATM   30  C7  UNL     1      -2.455   2.568   1.631  1.00  0.00     0.313 C 
ENDBRANCH   5  28
TORSDOF 2
