REMARK  7 active torsions:
REMARK  status: ('A' for Active; 'I' for Inactive)
REMARK    1  A    between atoms: C2_4  and  N2_6 
REMARK    2  A    between atoms: C4_8  and  N3_9 
REMARK    3  A    between atoms: C4_8  and  O5_28 
REMARK    4  A    between atoms: C5_11  and  N4_12 
REMARK    5  A    between atoms: C5_11  and  O3_24 
REMARK    6  A    between atoms: O3_24  and  C14_25 
REMARK    7  A    between atoms: O5_28  and  C16_29 
ROOT
HETATM    1  N3  UNL     1      -0.960  -1.196   0.681  1.00  0.00    -0.287 N 
ATOM      2  H3  UNL     1      -1.544  -2.032   0.674  1.00  0.00     0.173 HD
HETATM    3  C5  UNL     1       0.198  -1.269   1.195  1.00  0.00     0.234 C 
ENDROOT
BRANCH   3   4
HETATM    4  N4  UNL     1       1.092  -0.166   1.259  1.00  0.00    -0.319 N 
HETATM    5  C6  UNL     1       2.181  -0.126   0.619  1.00  0.00     0.082 C 
HETATM    6  C7  UNL     1       2.583  -1.228  -0.230  1.00  0.00     0.037 C 
HETATM    7  C13 UNL     1       3.113   1.013   0.680  1.00  0.00     0.191 C 
HETATM    8  C8  UNL     1       3.705  -1.250  -0.922  1.00  0.00     0.054 C 
HETATM    9  C9  UNL     1       4.598  -0.111  -0.834  1.00  0.00     0.165 C 
HETATM   10  O1  UNL     1       5.850  -0.246  -1.060  1.00  0.00    -0.292 OA
HETATM   11  C10 UNL     1       4.025   1.209  -0.477  1.00  0.00     0.084 C 
HETATM   12  C11 UNL     1       5.086   2.235  -0.194  1.00  0.00     0.032 C 
HETATM   13  C12 UNL     1       3.235   1.675  -1.706  1.00  0.00     0.032 C 
HETATM   14  O2  UNL     1       3.096   1.756   1.693  1.00  0.00    -0.289 OA
ATOM     15  H4  UNL     1       0.844   0.629   1.848  1.00  0.00     0.169 HD
ENDBRANCH   3   4
BRANCH   3  16
HETATM   16  O3  UNL     1       0.601  -2.490   1.719  1.00  0.00    -0.246 OA
BRANCH  16  17
HETATM   17  C14 UNL     1      -0.193  -3.616   1.704  1.00  0.00     0.262 C 
HETATM   18  C15 UNL     1       0.318  -4.866   2.282  1.00  0.00     0.126 C 
HETATM   19  O4  UNL     1      -1.346  -3.507   1.181  1.00  0.00    -0.265 OA
ENDBRANCH  16  17
ENDBRANCH   3  16
BRANCH   1  20
HETATM   20  C4  UNL     1      -1.484   0.015   0.108  1.00  0.00     0.228 C 
HETATM   21  N2  UNL     1      -2.625   0.045  -0.482  1.00  0.00    -0.312 N 
ATOM     22  H2  UNL     1      -2.932   0.939  -0.864  1.00  0.00     0.170 HD
BRANCH  21  23
HETATM   23  C2  UNL     1      -3.480  -1.051  -0.642  1.00  0.00     0.075 C 
HETATM   24  N1  UNL     1      -3.245  -1.921  -1.566  1.00  0.00    -0.384 N 
HETATM   25  C1  UNL     1      -4.080  -3.078  -1.794  1.00  0.00     0.147 C 
ATOM     26  H1  UNL     1      -2.430  -1.785  -2.164  1.00  0.00     0.160 HD
HETATM   27  C3  UNL     1      -4.674  -1.277   0.214  1.00  0.00     0.089 C 
ENDBRANCH  21  23
BRANCH  20  28
HETATM   28  O5  UNL     1      -0.779   1.217   0.166  1.00  0.00    -0.312 OA
BRANCH  28  29
HETATM   29  C16 UNL     1      -1.424   2.458   0.199  1.00  0.00     0.060 C 
HETATM   30  C17 UNL     1      -0.356   3.540   0.259  1.00  0.00     0.046 C 
HETATM   31  C18 UNL     1      -2.307   2.717  -0.978  1.00  0.00     0.046 C 
HETATM   32  C19 UNL     1      -2.262   2.628   1.464  1.00  0.00     0.046 C 
ENDBRANCH  28  29
ENDBRANCH  20  28
ENDBRANCH   1  20
TORSDOF 7
