REMARK  1 active torsions:
REMARK  status: ('A' for Active; 'I' for Inactive)
REMARK    1  A    between atoms: C20_23  and  O4_24 
ROOT
HETATM    1  C1  UNL     1       5.950   0.360  -0.797  1.00  0.00     0.010 C 
HETATM    2  C2  UNL     1       4.700   1.103  -1.042  1.00  0.00    -0.013 C 
HETATM    3  C3  UNL     1       4.271   2.084   0.062  1.00  0.00     0.012 C 
HETATM    4  C4  UNL     1       2.913   1.701  -0.204  1.00  0.00     0.020 C 
HETATM    5  C5  UNL     1       1.931   1.324   0.877  1.00  0.00     0.127 C 
HETATM    6  C6  UNL     1       2.705   0.654   1.972  1.00  0.00     0.033 C 
HETATM    7  C7  UNL     1       3.480  -0.516   1.474  1.00  0.00     0.007 C 
HETATM    8  C8  UNL     1       3.328  -0.794   0.006  1.00  0.00    -0.009 C 
HETATM    9  C9  UNL     1       2.211  -1.716  -0.350  1.00  0.00     0.014 C 
HETATM   10  C10 UNL     1       1.121  -1.847   0.613  1.00  0.00     0.048 C 
HETATM   11  C11 UNL     1       0.233  -3.046   0.557  1.00  0.00     0.176 C 
HETATM   12  O1  UNL     1      -0.816  -2.148   0.906  1.00  0.00    -0.376 OA
HETATM   13  C12 UNL     1      -0.192  -1.245   0.130  1.00  0.00     0.097 C 
HETATM   14  C13 UNL     1      -0.420  -1.225  -1.331  1.00  0.00     0.047 C 
HETATM   15  C14 UNL     1      -1.929  -1.047  -1.462  1.00  0.00     0.072 C 
HETATM   16  C15 UNL     1      -2.328   0.206  -0.720  1.00  0.00     0.168 C 
HETATM   17  C16 UNL     1      -1.170   1.010  -0.222  1.00  0.00     0.109 C 
HETATM   18  C17 UNL     1      -0.160   0.218   0.597  1.00  0.00     0.094 C 
HETATM   19  C18 UNL     1      -0.476   0.342   2.042  1.00  0.00     0.049 C 
HETATM   20  O2  UNL     1       1.062   0.590   0.186  1.00  0.00    -0.372 OA
HETATM   21  O3  UNL     1      -2.963   1.004  -1.685  1.00  0.00    -0.352 OA
HETATM   22  C19 UNL     1      -3.824   1.925  -1.103  1.00  0.00     0.206 C 
HETATM   23  C20 UNL     1      -5.000   1.072  -0.616  1.00  0.00     0.176 C 
HETATM   24  C21 UNL     1      -4.444   0.011   0.261  1.00  0.00     0.085 C 
HETATM   25  C22 UNL     1      -5.085  -1.320  -0.157  1.00  0.00     0.048 C 
HETATM   26  C23 UNL     1      -4.975   0.279   1.680  1.00  0.00     0.048 C 
HETATM   27  O5  UNL     1      -3.122  -0.139   0.327  1.00  0.00    -0.342 OA
HETATM   28  C24 UNL     1       3.385   0.433  -0.855  1.00  0.00    -0.000 C 
ENDROOT
BRANCH  23  29
HETATM   29  O4  UNL     1      -5.607   0.576  -1.775  1.00  0.00    -0.390 OA
ATOM     30  H4  UNL     1      -6.336   0.047  -1.473  1.00  0.00     0.210 HD
ENDBRANCH  23  29
TORSDOF 1
