REMARK  2 active torsions:
REMARK  status: ('A' for Active; 'I' for Inactive)
REMARK    1  A    between atoms: N1_1  and  C1_4 
REMARK    2  A    between atoms: C3_6  and  N2_7 
ROOT
HETATM    1  N2  UNL     1      -0.493  -0.343   0.425  1.00  0.00    -0.205 N 
HETATM    2  N3  UNL     1      -1.205  -1.050   1.284  1.00  0.00    -0.231 N 
ATOM      3  H3  UNL     1      -0.743  -1.721   1.897  1.00  0.00     0.209 HD
HETATM    4  N4  UNL     1      -2.511  -0.890   1.350  1.00  0.00    -0.268 N 
ATOM      5  H4  UNL     1      -3.045  -1.444   2.019  1.00  0.00     0.190 HD
HETATM    6  C4  UNL     1      -3.152  -0.026   0.569  1.00  0.00     0.153 A 
HETATM    7  N5  UNL     1      -4.450   0.299   0.463  1.00  0.00    -0.284 N 
ATOM      8  H5  UNL     1      -5.219  -0.093   1.006  1.00  0.00     0.188 HD
HETATM    9  N6  UNL     1      -4.543   1.209  -0.463  1.00  0.00    -0.309 N 
ATOM     10  H6  UNL     1      -5.421   1.640  -0.753  1.00  0.00     0.186 HD
HETATM   11  C5  UNL     1      -3.342   1.514  -0.993  1.00  0.00     0.128 A 
HETATM   12  C6  UNL     1      -2.429   0.730  -0.342  1.00  0.00     0.097 A 
HETATM   13  C7  UNL     1      -1.063   0.554  -0.402  1.00  0.00     0.283 A 
HETATM   14  O1  UNL     1      -0.372   1.208  -1.203  1.00  0.00    -0.265 OA
ENDROOT
BRANCH   1  15
HETATM   15  C3  UNL     1       0.937  -0.510   0.344  1.00  0.00     0.066 A 
HETATM   16  C2  UNL     1       1.801   0.564   0.403  1.00  0.00     0.079 A 
HETATM   17  C1  UNL     1       3.164   0.367   0.322  1.00  0.00     0.100 A 
HETATM   18  N7  UNL     1       3.714  -0.854   0.185  1.00  0.00    -0.353 N 
HETATM   19  C9  UNL     1       2.887  -1.911   0.126  1.00  0.00     0.092 A 
ATOM     20  H7  UNL     1       4.725  -0.973   0.128  1.00  0.00     0.166 HD
HETATM   21  C8  UNL     1       1.517  -1.755   0.203  1.00  0.00     0.049 A 
BRANCH  17  22
HETATM   22  N1  UNL     1       3.968   1.390   0.380  1.00  0.00    -0.385 N 
ATOM     23  H12 UNL     1       3.551   2.315   0.484  1.00  0.00     0.157 HD
ATOM     24  H11 UNL     1       4.976   1.244   0.320  1.00  0.00     0.157 HD
ENDBRANCH  17  22
ENDBRANCH   1  15
TORSDOF 2
