REMARK  4 active torsions:
REMARK  status: ('A' for Active; 'I' for Inactive)
REMARK    1  A    between atoms: C2_2  and  C4_4 
REMARK    2  A    between atoms: N2_9  and  N3_10 
REMARK    3  A    between atoms: C6_13  and  N4_14 
REMARK    4  A    between atoms: C7_17  and  C8_18 
ROOT
HETATM    1  C8  UNL     1       0.036   1.972  -0.452  1.00  0.00     0.267 C 
HETATM    2  O2  UNL     1      -0.208   2.518  -1.508  1.00  0.00    -0.275 OA
HETATM    3  C9  UNL     1      -0.119   2.687   0.798  1.00  0.00     0.144 C 
HETATM    4  N5  UNL     1      -0.259   3.232   1.807  1.00  0.00    -0.188 NA
ENDROOT
BRANCH   1   5
HETATM    5  C7  UNL     1       0.468   0.615  -0.319  1.00  0.00     0.097 A 
HETATM    6  C4  UNL     1      -0.416  -0.398  -0.108  1.00  0.00     0.056 A 
HETATM    7  N1  UNL     1       0.142  -1.655   0.053  1.00  0.00    -0.306 N 
HETATM    8  C5  UNL     1       1.461  -1.866   0.010  1.00  0.00     0.347 A 
ATOM      9  H1  UNL     1      -0.477  -2.450   0.210  1.00  0.00     0.171 HD
HETATM   10  O1  UNL     1       1.960  -3.022   0.140  1.00  0.00    -0.245 OA
HETATM   11  N2  UNL     1       2.325  -0.830  -0.198  1.00  0.00    -0.195 N 
HETATM   12  C6  UNL     1       1.860   0.412  -0.367  1.00  0.00     0.142 A 
BRANCH   6  13
HETATM   13  C2  UNL     1      -1.872  -0.264  -0.107  1.00  0.00    -0.060 C 
HETATM   14  C1  UNL     1      -2.380  -0.726   1.282  1.00  0.00     0.045 C 
HETATM   15  C3  UNL     1      -2.611   0.753  -0.783  1.00  0.00     0.045 C 
ENDBRANCH   6  13
BRANCH  11  16
HETATM   16  N3  UNL     1       3.719  -1.005  -0.183  1.00  0.00    -0.333 N 
ATOM     17  H32 UNL     1       4.074  -1.953  -0.054  1.00  0.00     0.177 HD
ATOM     18  H31 UNL     1       4.365  -0.231  -0.338  1.00  0.00     0.177 HD
ENDBRANCH  11  16
BRANCH  12  19
HETATM   19  N4  UNL     1       2.626   1.467  -0.501  1.00  0.00    -0.383 N 
ATOM     20  H42 UNL     1       3.635   1.320  -0.536  1.00  0.00     0.157 HD
ATOM     21  H41 UNL     1       2.271   2.415  -0.630  1.00  0.00     0.157 HD
ENDBRANCH  12  19
ENDBRANCH   1   5
TORSDOF 4
