REMARK  1 active torsions:
REMARK  status: ('A' for Active; 'I' for Inactive)
REMARK    1  A    between atoms: C4_10  and  N4_11 
ROOT
HETATM    1  O1  UNL     1      -3.319  -1.945  -2.059  1.00  0.00    -0.264 OA
HETATM    2  C1  UNL     1      -3.388  -0.898  -1.368  1.00  0.00     0.291 A 
HETATM    3  N1  UNL     1      -4.563  -0.266  -1.199  1.00  0.00    -0.329 N 
ATOM      4  H1  UNL     1      -5.410  -0.633  -1.633  1.00  0.00     0.168 HD
HETATM    5  C2  UNL     1      -4.616   0.859  -0.451  1.00  0.00     0.111 A 
HETATM    6  C3  UNL     1      -3.484   1.382   0.150  1.00  0.00     0.136 A 
HETATM    7  N2  UNL     1      -2.303   0.737  -0.027  1.00  0.00    -0.230 N 
HETATM    8  N3  UNL     1      -1.073   0.972   0.402  1.00  0.00    -0.124 N 
ATOM      9  H3  UNL     1      -0.812   1.761   0.993  1.00  0.00     0.206 HD
HETATM   10  C4  UNL     1      -0.212   0.039  -0.039  1.00  0.00     0.697 A 
HETATM   11  N6  UNL     1      -0.955  -0.809  -0.775  1.00  0.00    -0.168 N 
ATOM     12  H6  UNL     1      -0.604  -1.636  -1.258  1.00  0.00     0.186 HD
HETATM   13  C9  UNL     1      -2.245  -0.387  -0.772  1.00  0.00     0.211 A 
ENDROOT
BRANCH  10  14
HETATM   14  N4  UNL     1       1.189  -0.060   0.201  1.00  0.00    -0.213 N 
HETATM   15  C5  UNL     1       1.904   0.899   1.004  1.00  0.00     0.168 C 
HETATM   16  C6  UNL     1       3.381   0.923   0.708  1.00  0.00     0.252 C 
HETATM   17  N5  UNL     1       3.991  -0.374   0.737  1.00  0.00    -0.072 N 
HETATM   18  C7  UNL     1       3.038  -1.460   0.687  1.00  0.00     0.252 C 
ATOM     19  H52 UNL     1       4.682  -0.465  -0.008  1.00  0.00     0.277 HD
ATOM     20  H51 UNL     1       4.603  -0.467   1.548  1.00  0.00     0.277 HD
HETATM   21  C8  UNL     1       1.962  -1.147  -0.363  1.00  0.00     0.168 C 
ENDBRANCH  10  14
TORSDOF 1
