REMARK  9 active torsions:
REMARK  status: ('A' for Active; 'I' for Inactive)
REMARK    1  A    between atoms: C2_2  and  N1_3 
REMARK    2  A    between atoms: N1_3  and  S1_5 
REMARK    3  A    between atoms: S1_5  and  N2_8 
REMARK       I    between atoms: N2_8  and  C3_10 
REMARK    4  A    between atoms: C3_10  and  C4_12 
REMARK    5  A    between atoms: C4_12  and  C5_13 
REMARK    6  A    between atoms: C4_12  and  N3_20 
REMARK    7  A    between atoms: C5_13  and  C6_14 
REMARK    8  A    between atoms: C16_25  and  C17_26 
REMARK       I    between atoms: C17_26  and  N4_28 
REMARK    9  A    between atoms: N4_28  and  C18_30 
ROOT
HETATM    1  C4  UNL     1      -0.989  -0.897   0.228  1.00  0.00     0.173 C 
ENDROOT
BRANCH   1   2
HETATM    2  C3  UNL     1      -1.809   0.095  -0.486  1.00  0.00     0.254 C 
HETATM    3  N2  UNL     1      -1.288   1.316  -0.979  1.00  0.00    -0.236 N 
ATOM      4  H2  UNL     1      -0.301   1.535  -0.841  1.00  0.00     0.183 HD
HETATM    5  O3  UNL     1      -3.026  -0.120  -0.688  1.00  0.00    -0.270 OA
BRANCH   3   6
HETATM    6  S1  UNL     1      -2.303   2.442  -1.813  1.00  0.00     0.321 S 
HETATM    7  O1  UNL     1      -3.738   1.982  -1.661  1.00  0.00    -0.182 OA
HETATM    8  O2  UNL     1      -2.002   2.493  -3.274  1.00  0.00    -0.182 OA
BRANCH   6   9
HETATM    9  N1  UNL     1      -2.171   4.020  -1.165  1.00  0.00    -0.303 N 
ATOM     10  H1  UNL     1      -1.509   4.721  -1.498  1.00  0.00     0.173 HD
BRANCH   9  11
HETATM   11  C2  UNL     1      -3.114   4.242  -0.085  1.00  0.00     0.129 C 
HETATM   12  C1  UNL     1      -2.993   5.631   0.480  1.00  0.00     0.027 C 
ENDBRANCH   9  11
ENDBRANCH   6   9
ENDBRANCH   3   6
ENDBRANCH   1   2
BRANCH   1  13
HETATM   13  C5  UNL     1      -0.821  -2.192  -0.466  1.00  0.00     0.039 C 
BRANCH  13  14
HETATM   14  C6  UNL     1      -2.111  -2.963  -0.748  1.00  0.00    -0.012 C 
HETATM   15  C7  UNL     1      -2.855  -3.317   0.475  1.00  0.00     0.005 C 
HETATM   16  C8  UNL     1      -3.752  -4.519   0.351  1.00  0.00     0.000 C 
HETATM   17  C9  UNL     1      -2.953  -5.668  -0.192  1.00  0.00     0.000 C 
HETATM   18  C10 UNL     1      -2.609  -5.271  -1.631  1.00  0.00     0.000 C 
HETATM   19  C11 UNL     1      -1.646  -4.154  -1.562  1.00  0.00     0.005 C 
ENDBRANCH  13  14
ENDBRANCH   1  13
BRANCH   1  20
HETATM   20  N3  UNL     1       0.197  -0.290   0.725  1.00  0.00    -0.387 N 
HETATM   21  C12 UNL     1      -0.025   0.694   1.745  1.00  0.00     0.118 C 
HETATM   22  C13 UNL     1      -0.362  -0.050   3.023  1.00  0.00     0.020 C 
HETATM   23  C14 UNL     1       0.364  -1.347   3.037  1.00  0.00     0.004 C 
HETATM   24  C15 UNL     1       1.655  -1.378   2.270  1.00  0.00     0.035 C 
HETATM   25  C16 UNL     1       1.388  -1.003   0.811  1.00  0.00     0.172 C 
BRANCH  25  26
HETATM   26  C17 UNL     1       2.631  -0.302   0.378  1.00  0.00     0.240 C 
HETATM   27  O4  UNL     1       3.738  -0.964   0.460  1.00  0.00    -0.271 OA
HETATM   28  N4  UNL     1       2.725   0.993  -0.107  1.00  0.00    -0.355 N 
ATOM     29  H4  UNL     1       1.869   1.542  -0.184  1.00  0.00     0.162 HD
BRANCH  28  30
HETATM   30  C18 UNL     1       3.978   1.613  -0.513  1.00  0.00     0.088 C 
HETATM   31  C19 UNL     1       3.984   1.886  -2.012  1.00  0.00     0.051 C 
HETATM   32  C20 UNL     1       5.417   2.303  -2.347  1.00  0.00     0.169 C 
HETATM   33  O5  UNL     1       6.149   2.612  -1.209  1.00  0.00    -0.391 OA
HETATM   34  C21 UNL     1       5.513   3.493  -0.366  1.00  0.00     0.169 C 
HETATM   35  C22 UNL     1       4.187   2.949   0.160  1.00  0.00     0.051 C 
ENDBRANCH  28  30
ENDBRANCH  25  26
ENDBRANCH   1  20
TORSDOF 9
