REMARK  11 active torsions:
REMARK  status: ('A' for Active; 'I' for Inactive)
REMARK    1  A    between atoms: C2_2  and  C3_3 
REMARK    2  A    between atoms: C3_3  and  N1_4 
REMARK    3  A    between atoms: C3_3  and  C22_34 
REMARK       I    between atoms: N1_4  and  C4_6 
REMARK    4  A    between atoms: C4_6  and  C5_8 
REMARK    5  A    between atoms: C5_8  and  N2_10 
REMARK       I    between atoms: N2_10  and  C7_12 
REMARK    6  A    between atoms: C7_12  and  C8_14 
REMARK       I    between atoms: N3_17  and  C11_18 
REMARK    7  A    between atoms: C11_18  and  C12_20 
REMARK    8  A    between atoms: C12_20  and  N4_21 
REMARK    9  A    between atoms: C12_20  and  C18_30 
REMARK       I    between atoms: N4_21  and  C13_23 
REMARK   10  A    between atoms: C13_23  and  O5_25 
REMARK   11  A    between atoms: O5_25  and  C14_26 
ROOT
HETATM    1  C8  UNL     1      -0.293   1.144  -3.961  1.00  0.00     0.180 C 
HETATM    2  C9  UNL     1      -0.173   0.709  -5.410  1.00  0.00     0.055 C 
HETATM    3  C10 UNL     1      -0.287  -0.658  -4.811  1.00  0.00     0.129 C 
HETATM    4  N3  UNL     1      -1.008  -0.067  -3.669  1.00  0.00    -0.337 N 
HETATM    5  C11 UNL     1      -1.956  -0.624  -2.793  1.00  0.00     0.244 C 
HETATM    6  O3  UNL     1      -2.215  -1.876  -2.988  1.00  0.00    -0.271 OA
ENDROOT
BRANCH   1   7
HETATM    7  C7  UNL     1       1.019   1.260  -3.254  1.00  0.00     0.241 C 
HETATM    8  N2  UNL     1       1.484   0.295  -2.347  1.00  0.00    -0.346 N 
ATOM      9  H2  UNL     1       0.883  -0.511  -2.175  1.00  0.00     0.163 HD
HETATM   10  O2  UNL     1       1.731   2.268  -3.487  1.00  0.00    -0.271 OA
BRANCH   8  11
HETATM   11  C5  UNL     1       2.740   0.345  -1.636  1.00  0.00     0.172 C 
HETATM   12  C6  UNL     1       3.540  -0.885  -2.020  1.00  0.00     0.042 C 
BRANCH  11  13
HETATM   13  C4  UNL     1       2.552   0.415  -0.154  1.00  0.00     0.240 C 
HETATM   14  N1  UNL     1       3.699   0.434   0.665  1.00  0.00    -0.354 N 
ATOM     15  H1  UNL     1       4.621   0.399   0.231  1.00  0.00     0.162 HD
HETATM   16  O1  UNL     1       1.416   0.455   0.366  1.00  0.00    -0.271 OA
BRANCH  14  17
HETATM   17  C3  UNL     1       3.598   0.503   2.138  1.00  0.00     0.087 C 
BRANCH  17  18
HETATM   18  C2  UNL     1       4.194  -0.768   2.627  1.00  0.00     0.021 C 
HETATM   19  C1  UNL     1       4.227  -0.985   4.094  1.00  0.00     0.007 C 
ENDBRANCH  17  18
BRANCH  17  20
HETATM   20  C22 UNL     1       4.279   1.762   2.524  1.00  0.00     0.000 C 
HETATM   21  C23 UNL     1       4.384   2.055   3.980  1.00  0.00     0.011 C 
HETATM   22  C24 UNL     1       5.658   1.898   1.891  1.00  0.00     0.011 C 
ENDBRANCH  17  20
ENDBRANCH  14  17
ENDBRANCH  11  13
ENDBRANCH   8  11
ENDBRANCH   1   7
BRANCH   5  23
HETATM   23  C12 UNL     1      -2.680   0.001  -1.700  1.00  0.00     0.186 C 
BRANCH  23  24
HETATM   24  N4  UNL     1      -3.209  -1.087  -0.839  1.00  0.00    -0.323 N 
HETATM   25  C13 UNL     1      -2.895  -1.068   0.545  1.00  0.00     0.362 C 
HETATM   26  O4  UNL     1      -2.197  -0.163   1.032  1.00  0.00    -0.238 OA
ATOM     27  H4  UNL     1      -3.785  -1.831  -1.233  1.00  0.00     0.165 HD
BRANCH  25  28
HETATM   28  O5  UNL     1      -3.349  -2.053   1.416  1.00  0.00    -0.294 OA
BRANCH  28  29
HETATM   29  C14 UNL     1      -3.062  -2.063   2.804  1.00  0.00     0.061 C 
HETATM   30  C15 UNL     1      -1.561  -2.105   2.967  1.00  0.00     0.046 C 
HETATM   31  C16 UNL     1      -3.604  -0.805   3.475  1.00  0.00     0.046 C 
HETATM   32  C17 UNL     1      -3.684  -3.279   3.465  1.00  0.00     0.046 C 
ENDBRANCH  28  29
ENDBRANCH  25  28
ENDBRANCH  23  24
BRANCH  23  33
HETATM   33  C18 UNL     1      -3.918   0.779  -2.096  1.00  0.00    -0.022 C 
HETATM   34  C19 UNL     1      -4.498   1.327  -0.781  1.00  0.00     0.017 C 
HETATM   35  C20 UNL     1      -3.668   1.979  -2.953  1.00  0.00     0.017 C 
HETATM   36  C21 UNL     1      -4.994  -0.071  -2.708  1.00  0.00     0.017 C 
ENDBRANCH  23  33
ENDBRANCH   5  23
TORSDOF 11
