REMARK  10 active torsions:
REMARK  status: ('A' for Active; 'I' for Inactive)
REMARK    1  A    between atoms: C2_2  and  C4_4 
REMARK    2  A    between atoms: C4_4  and  O1_5 
REMARK    3  A    between atoms: C4_4  and  C21_32 
REMARK    4  A    between atoms: O1_5  and  C5_6 
REMARK       I    between atoms: C5_6  and  N1_8 
REMARK    5  A    between atoms: C8_11  and  N2_12 
REMARK       I    between atoms: N2_12  and  C9_14 
REMARK    6  A    between atoms: C9_14  and  C10_16 
REMARK    7  A    between atoms: C10_16  and  C11_17 
REMARK    8  A    between atoms: C10_16  and  N3_24 
REMARK    9  A    between atoms: C11_17  and  C12_18 
REMARK       I    between atoms: N3_24  and  C18_26 
REMARK   10  A    between atoms: C18_26  and  C19_28 
ROOT
HETATM    1  N2  UNL     1       1.873  -0.541   0.099  1.00  0.00    -0.353 N 
ATOM      2  H2  UNL     1       2.228  -0.791  -0.824  1.00  0.00     0.163 HD
HETATM    3  C9  UNL     1       2.688  -0.701   1.218  1.00  0.00     0.240 C 
HETATM    4  O3  UNL     1       2.245  -0.397   2.356  1.00  0.00    -0.271 OA
ENDROOT
BRANCH   1   5
HETATM    5  C8  UNL     1       0.535  -0.027   0.232  1.00  0.00     0.104 C 
HETATM    6  C7  UNL     1       0.231   1.045  -0.788  1.00  0.00     0.047 C 
HETATM    7  C6  UNL     1      -1.229   0.804  -1.194  1.00  0.00     0.130 C 
HETATM    8  N1  UNL     1      -1.675  -0.282  -0.351  1.00  0.00    -0.326 N 
HETATM    9  C5  UNL     1      -2.958  -0.548   0.166  1.00  0.00     0.363 C 
HETATM   10  C20 UNL     1      -0.502  -1.095  -0.129  1.00  0.00     0.153 C 
HETATM   11  O2  UNL     1      -3.168  -1.551   0.912  1.00  0.00    -0.238 OA
BRANCH   9  12
HETATM   12  O1  UNL     1      -4.001   0.273  -0.129  1.00  0.00    -0.297 OA
BRANCH  12  13
HETATM   13  C4  UNL     1      -5.354   0.062   0.374  1.00  0.00     0.144 C 
BRANCH  13  14
HETATM   14  C2  UNL     1      -5.650   1.254   1.177  1.00  0.00     0.008 C 
HETATM   15  C1  UNL     1      -6.961   1.353   1.866  1.00  0.00     0.012 C 
HETATM   16  C3  UNL     1      -4.576   1.333   2.279  1.00  0.00     0.012 C 
ENDBRANCH  13  14
BRANCH  13  17
HETATM   17  C21 UNL     1      -6.162  -0.231  -0.830  1.00  0.00    -0.024 C 
HETATM   18  C22 UNL     1      -7.611  -0.438  -0.503  1.00  0.00     0.017 C 
HETATM   19  C23 UNL     1      -5.687  -1.540  -1.485  1.00  0.00     0.017 C 
HETATM   20  C24 UNL     1      -6.055   0.818  -1.910  1.00  0.00     0.017 C 
ENDBRANCH  13  17
ENDBRANCH  12  13
ENDBRANCH   9  12
ENDBRANCH   1   5
BRANCH   3  21
HETATM   21  C10 UNL     1       4.064  -1.222   1.113  1.00  0.00     0.177 C 
BRANCH  21  22
HETATM   22  C11 UNL     1       5.039  -0.034   1.059  1.00  0.00     0.039 C 
BRANCH  22  23
HETATM   23  C12 UNL     1       4.816   0.854  -0.130  1.00  0.00    -0.012 C 
HETATM   24  C13 UNL     1       5.832   1.990   0.006  1.00  0.00     0.005 C 
HETATM   25  C14 UNL     1       5.908   2.797  -1.269  1.00  0.00     0.000 C 
HETATM   26  C15 UNL     1       6.293   1.916  -2.446  1.00  0.00     0.000 C 
HETATM   27  C16 UNL     1       5.156   0.899  -2.608  1.00  0.00     0.000 C 
HETATM   28  C17 UNL     1       5.145   0.049  -1.380  1.00  0.00     0.005 C 
ENDBRANCH  22  23
ENDBRANCH  21  22
BRANCH  21  29
HETATM   29  N3  UNL     1       4.315  -1.942   2.368  1.00  0.00    -0.339 N 
HETATM   30  C18 UNL     1       4.750  -3.291   2.258  1.00  0.00     0.319 C 
HETATM   31  O4  UNL     1       4.914  -3.846   1.156  1.00  0.00    -0.261 OA
ATOM     32  H3  UNL     1       4.183  -1.495   3.276  1.00  0.00     0.163 HD
BRANCH  30  33
HETATM   33  C19 UNL     1       5.007  -4.029   3.482  1.00  0.00     0.270 C 
HETATM   34  O5  UNL     1       4.856  -3.494   4.604  1.00  0.00    -0.640 OA
HETATM   35  O6  UNL     1       5.423  -5.341   3.400  1.00  0.00    -0.640 OA
ENDBRANCH  30  33
ENDBRANCH  21  29
ENDBRANCH   3  21
TORSDOF 10
