REMARK  8 active torsions:
REMARK  status: ('A' for Active; 'I' for Inactive)
REMARK       I    between atoms: C2_2  and  N1_4 
REMARK    1  A    between atoms: C5_7  and  C6_8 
REMARK    2  A    between atoms: C6_8  and  C7_9 
REMARK       I    between atoms: C7_9  and  N2_11 
REMARK    3  A    between atoms: N2_11  and  C8_12 
REMARK    4  A    between atoms: C11_15  and  C12_16 
REMARK    5  A    between atoms: C12_16  and  C13_17 
REMARK    6  A    between atoms: C13_17  and  N3_18 
REMARK    7  A    between atoms: C16_21  and  N4_23 
REMARK    8  A    between atoms: C20_26  and  O3_28 
ROOT
HETATM    1  C12 UNL     1       0.514   0.664   0.943  1.00  0.00     0.034 C 
ENDROOT
BRANCH   1   2
HETATM    2  C11 UNL     1      -0.820   0.306   0.392  1.00  0.00    -0.013 C 
HETATM    3  C10 UNL     1      -1.646  -0.098   1.605  1.00  0.00     0.007 C 
HETATM    4  C9  UNL     1      -2.958   0.600   1.705  1.00  0.00     0.040 C 
HETATM    5  C8  UNL     1      -3.630   0.431   0.297  1.00  0.00     0.166 C 
HETATM    6  C27 UNL     1      -2.917   1.340  -0.612  1.00  0.00     0.040 C 
HETATM    7  C26 UNL     1      -1.435   1.409  -0.391  1.00  0.00     0.007 C 
BRANCH   5   8
HETATM    8  N2  UNL     1      -4.991   0.413   0.403  1.00  0.00    -0.410 NA
HETATM    9  C7  UNL     1      -6.373   0.395   0.512  1.00  0.00     0.288 C 
HETATM   10  O2  UNL     1      -7.065   1.168   1.154  1.00  0.00    -0.258 OA
BRANCH   9  11
HETATM   11  C6  UNL     1      -7.062  -0.716  -0.249  1.00  0.00     0.144 C 
BRANCH  11  12
HETATM   12  C5  UNL     1      -8.462  -0.986  -0.046  1.00  0.00     0.098 C 
HETATM   13  N1  UNL     1      -9.587  -0.198  -0.320  1.00  0.00    -0.347 N 
HETATM   14  C2  UNL     1     -10.171   1.070  -0.483  1.00  0.00     0.216 C 
HETATM   15  C3  UNL     1     -10.324  -1.528  -0.465  1.00  0.00     0.128 C 
HETATM   16  C1  UNL     1     -11.666   1.127  -0.789  1.00  0.00     0.117 C 
HETATM   17  O1  UNL     1      -9.576   2.182  -0.403  1.00  0.00    -0.274 OA
HETATM   18  C4  UNL     1      -9.034  -2.033  -1.047  1.00  0.00     0.045 C 
ENDBRANCH  11  12
ENDBRANCH   9  11
ENDBRANCH   5   8
ENDBRANCH   1   2
BRANCH   1  19
HETATM   19  C13 UNL     1       1.600   1.080   0.045  1.00  0.00     0.272 C 
BRANCH  19  20
HETATM   20  N3  UNL     1       1.954   0.086  -0.939  1.00  0.00     0.088 N 
HETATM   21  C14 UNL     1       2.533  -1.119  -0.382  1.00  0.00     0.275 C 
HETATM   22  C15 UNL     1       3.948  -0.994   0.049  1.00  0.00     0.060 C 
HETATM   23  C16 UNL     1       4.869  -0.398  -1.016  1.00  0.00     0.027 C 
HETATM   24  C17 UNL     1       4.863  -1.207  -2.286  1.00  0.00     0.038 C 
HETATM   25  C24 UNL     1       4.238   0.945  -1.353  1.00  0.00     0.060 C 
HETATM   26  C25 UNL     1       2.871   0.669  -1.930  1.00  0.00     0.275 C 
BRANCH  23  27
HETATM   27  N4  UNL     1       6.156  -0.294  -0.413  1.00  0.00    -0.404 N 
HETATM   28  C18 UNL     1       6.750  -1.515   0.016  1.00  0.00     0.120 C 
HETATM   29  C19 UNL     1       8.263  -1.425   0.100  1.00  0.00     0.057 C 
HETATM   30  C20 UNL     1       8.702  -0.152   0.801  1.00  0.00     0.057 C 
HETATM   31  C21 UNL     1       9.339   0.741  -0.237  1.00  0.00     0.046 C 
HETATM   32  C22 UNL     1       7.512   0.586   1.359  1.00  0.00     0.057 C 
HETATM   33  C23 UNL     1       6.431   0.861   0.354  1.00  0.00     0.120 C 
BRANCH  30  34
HETATM   34  O3  UNL     1       9.666  -0.387   1.772  1.00  0.00    -0.390 OA
ATOM     35  H3  UNL     1       9.941   0.410   2.211  1.00  0.00     0.210 HD
ENDBRANCH  30  34
ENDBRANCH  23  27
ENDBRANCH  19  20
ENDBRANCH   1  19
TORSDOF 8
