REMARK  8 active torsions:
REMARK  status: ('A' for Active; 'I' for Inactive)
REMARK    1  A    between atoms: C7_9  and  C8_10 
REMARK    2  A    between atoms: C8_10  and  O1_11 
REMARK    3  A    between atoms: N2_19  and  C15_20 
REMARK    4  A    between atoms: C15_20  and  C16_21 
REMARK    5  A    between atoms: C16_21  and  C17_22 
REMARK    6  A    between atoms: C17_22  and  N3_23 
REMARK    7  A    between atoms: N4_26  and  C20_27 
REMARK    8  A    between atoms: C20_27  and  C21_28 
ROOT
HETATM    1  C1  UNL     1      11.973  -0.964   0.179  1.00  0.00     0.018 C 
HETATM    2  C2  UNL     1      10.766  -0.903   0.154  1.00  0.00    -0.078 C 
HETATM    3  C3  UNL     1       9.335  -0.825   0.099  1.00  0.00     0.018 A 
HETATM    4  C4  UNL     1       8.615  -1.958  -0.220  1.00  0.00     0.023 A 
HETATM    5  C5  UNL     1       7.237  -1.879  -0.283  1.00  0.00     0.032 A 
HETATM    6  C6  UNL     1       6.595  -0.681  -0.028  1.00  0.00     0.046 A 
HETATM    7  N1  UNL     1       5.268  -0.673  -0.112  1.00  0.00    -0.356 N 
ATOM      8  H1  UNL     1       4.781  -1.536  -0.352  1.00  0.00     0.166 HD
HETATM    9  C7  UNL     1       4.531   0.475   0.117  1.00  0.00     0.048 A 
HETATM   10  C26 UNL     1       5.178   1.641   0.442  1.00  0.00     0.083 A 
HETATM   11  C27 UNL     1       6.567   1.609   0.525  1.00  0.00     0.186 A 
HETATM   12  O2  UNL     1       7.221   2.618   0.814  1.00  0.00    -0.287 OA
HETATM   13  C28 UNL     1       7.294   0.443   0.288  1.00  0.00     0.042 A 
HETATM   14  C29 UNL     1       8.661   0.366   0.351  1.00  0.00     0.038 A 
ENDROOT
BRANCH   9  15
HETATM   15  C8  UNL     1       3.081   0.372  -0.025  1.00  0.00     0.104 C 
HETATM   16  C9  UNL     1       2.309   1.418   0.703  1.00  0.00     0.080 C 
HETATM   17  C10 UNL     1       0.815   1.325   0.308  1.00  0.00     0.226 C 
HETATM   18  C11 UNL     1       0.549   2.431  -0.710  1.00  0.00     0.038 C 
HETATM   19  N2  UNL     1       0.654   0.127  -0.428  1.00  0.00     0.098 N 
HETATM   20  C12 UNL     1       0.872   1.842  -2.050  1.00  0.00     0.038 C 
HETATM   21  C13 UNL     1       1.268   0.426  -1.719  1.00  0.00     0.226 C 
HETATM   22  C14 UNL     1       2.777   0.417  -1.525  1.00  0.00     0.080 C 
BRANCH  15  23
HETATM   23  O1  UNL     1       2.720  -0.914   0.438  1.00  0.00    -0.383 OA
ATOM     24  H1  UNL     1       1.777  -0.981   0.346  1.00  0.00     0.211 HD
ENDBRANCH  15  23
BRANCH  19  25
HETATM   25  C15 UNL     1      -0.650  -0.360  -0.599  1.00  0.00     0.275 C 
BRANCH  25  26
HETATM   26  C16 UNL     1      -1.255  -0.826   0.705  1.00  0.00     0.060 C 
BRANCH  26  27
HETATM   27  C17 UNL     1      -2.609  -1.434   0.504  1.00  0.00     0.274 C 
BRANCH  27  28
HETATM   28  N3  UNL     1      -3.600  -0.631  -0.089  1.00  0.00     0.091 N 
HETATM   29  C18 UNL     1      -4.122   0.459   0.694  1.00  0.00     0.292 C 
HETATM   30  C19 UNL     1      -5.637   0.613   0.405  1.00  0.00     0.152 C 
HETATM   31  N4  UNL     1      -6.236  -0.578   0.886  1.00  0.00    -0.390 N 
HETATM   32  C24 UNL     1      -5.571  -1.798   0.525  1.00  0.00     0.152 C 
HETATM   33  C25 UNL     1      -4.629  -1.501  -0.623  1.00  0.00     0.292 C 
BRANCH  31  34
HETATM   34  C20 UNL     1      -7.616  -0.643   1.085  1.00  0.00     0.062 C 
BRANCH  34  35
HETATM   35  C21 UNL     1      -8.526  -0.615  -0.086  1.00  0.00     0.024 A 
HETATM   36  C22 UNL     1      -8.597   0.505  -1.054  1.00  0.00     0.010 A 
HETATM   37  C23 UNL     1      -9.677   0.374  -0.002  1.00  0.00     0.010 A 
ENDBRANCH  34  35
ENDBRANCH  31  34
ENDBRANCH  27  28
ENDBRANCH  26  27
ENDBRANCH  25  26
ENDBRANCH  19  25
ENDBRANCH   9  15
TORSDOF 8
