REMARK  2 active torsions:
REMARK  status: ('A' for Active; 'I' for Inactive)
REMARK    1  A    between atoms: C1_4  and  C2_5 
REMARK    2  A    between atoms: C2_5  and  N3_9 
ROOT
HETATM    1  N3  UNL     1       0.650  -0.280  -0.056  1.00  0.00    -0.357 N 
HETATM    2  C3  UNL     1      -0.276  -0.118  -1.142  1.00  0.00     0.086 C 
HETATM    3  C4  UNL     1      -1.490   0.702  -0.745  1.00  0.00     0.025 C 
HETATM    4  C5  UNL     1      -1.337   1.375   0.594  1.00  0.00     0.004 C 
HETATM    5  C6  UNL     1      -0.867   0.429   1.664  1.00  0.00     0.025 C 
HETATM    6  C7  UNL     1      -0.184  -0.738   1.036  1.00  0.00     0.086 C 
HETATM    7  C8  UNL     1      -1.154  -1.691   0.343  1.00  0.00     0.027 C 
HETATM    8  C9  UNL     1      -0.824  -1.574  -1.158  1.00  0.00     0.027 C 
ENDROOT
BRANCH   1   9
HETATM    9  C2  UNL     1       2.041  -0.093  -0.004  1.00  0.00     0.112 C 
HETATM   10  N2  UNL     1       2.789  -1.058   0.531  1.00  0.00    -0.384 N 
ATOM     11  H22 UNL     1       3.799  -0.922   0.569  1.00  0.00     0.157 HD
ATOM     12  H21 UNL     1       2.279  -1.875   0.867  1.00  0.00     0.157 HD
BRANCH   9  13
HETATM   13  C1  UNL     1       2.758   1.057  -0.477  1.00  0.00     0.129 C 
HETATM   14  N1  UNL     1       2.183   2.048  -1.007  1.00  0.00    -0.405 N 
ATOM     15  H12 UNL     1       1.167   2.014  -1.095  1.00  0.00     0.155 HD
ATOM     16  H11 UNL     1       2.693   2.865  -1.343  1.00  0.00     0.155 HD
ENDBRANCH   9  13
ENDBRANCH   1   9
TORSDOF 2
