REMARK  1 active torsions:
REMARK  status: ('A' for Active; 'I' for Inactive)
REMARK    1  A    between atoms: O1_1  and  C1_3 
ROOT
HETATM    1  C1  UNL     1      -1.849   0.468   0.607  1.00  0.00     0.118 C 
HETATM    2  C2  UNL     1      -2.488  -0.230  -0.556  1.00  0.00     0.032 C 
HETATM    3  C3  UNL     1      -1.592  -1.390  -0.945  1.00  0.00     0.003 C 
HETATM    4  C4  UNL     1      -0.179  -1.008  -1.172  1.00  0.00     0.010 C 
HETATM    5  C5  UNL     1       0.378   0.013  -0.252  1.00  0.00    -0.038 C 
HETATM    6  C6  UNL     1       1.633   0.595  -0.917  1.00  0.00     0.010 C 
HETATM    7  C7  UNL     1       2.580   0.883   0.237  1.00  0.00     0.001 C 
HETATM    8  C8  UNL     1       2.351  -0.340   1.111  1.00  0.00     0.001 C 
HETATM    9  C9  UNL     1       0.843  -0.527   1.073  1.00  0.00     0.010 C 
HETATM   10  C10 UNL     1      -0.591   1.140   0.032  1.00  0.00     0.041 C 
ENDROOT
BRANCH   1  11
HETATM   11  O1  UNL     1      -2.660   1.383   1.234  1.00  0.00    -0.396 OA
ATOM     12  H1  UNL     1      -2.255   1.825   1.971  1.00  0.00     0.210 HD
ENDBRANCH   1  11
TORSDOF 1
