REMARK  2 active torsions:
REMARK  status: ('A' for Active; 'I' for Inactive)
REMARK    1  A    between atoms: O1_1  and  C1_3 
REMARK    2  A    between atoms: C3_5  and  O2_6 
ROOT
HETATM    1  C1  UNL     1       2.153   0.219  -0.093  1.00  0.00     0.128 C 
HETATM    2  C2  UNL     1       1.638  -1.096   0.511  1.00  0.00     0.070 C 
HETATM    3  C3  UNL     1       0.521  -0.975  -0.538  1.00  0.00     0.066 C 
HETATM    4  C4  UNL     1      -0.755  -1.582  -0.220  1.00  0.00     0.038 C 
HETATM    5  C5  UNL     1      -1.827  -0.723   0.342  1.00  0.00     0.003 C 
HETATM    6  C6  UNL     1      -2.032   0.565  -0.377  1.00  0.00     0.000 C 
HETATM    7  C7  UNL     1      -1.360   1.662   0.440  1.00  0.00     0.001 C 
HETATM    8  C8  UNL     1       0.050   1.140   0.740  1.00  0.00     0.010 C 
HETATM    9  C9  UNL     1       0.676   0.490  -0.432  1.00  0.00     0.049 C 
ENDROOT
BRANCH   1  10
HETATM   10  O1  UNL     1       2.669   1.105   0.806  1.00  0.00    -0.395 OA
ATOM     11  H1  UNL     1       2.988   1.918   0.432  1.00  0.00     0.210 HD
ENDBRANCH   1  10
BRANCH   3  12
HETATM   12  O2  UNL     1       1.067  -1.432  -1.758  1.00  0.00    -0.389 OA
ATOM     13  H2  UNL     1       0.377  -1.357  -2.406  1.00  0.00     0.210 HD
ENDBRANCH   3  12
TORSDOF 2
