REMARK  12 active torsions:
REMARK  status: ('A' for Active; 'I' for Inactive)
REMARK    1  A    between atoms: C3_3  and  C4_4 
REMARK    2  A    between atoms: C4_4  and  C5_5 
REMARK    3  A    between atoms: C5_5  and  C6_6 
REMARK    4  A    between atoms: C8_8  and  O1_9 
REMARK    5  A    between atoms: C10_12  and  O2_13 
REMARK    6  A    between atoms: O2_13  and  C11_14 
REMARK    7  A    between atoms: C11_14  and  C12_16 
REMARK    8  A    between atoms: C12_16  and  C14_18 
REMARK    9  A    between atoms: C14_18  and  N1_19 
REMARK   10  A    between atoms: C17_22  and  C18_23 
REMARK   11  A    between atoms: C18_23  and  C19_24 
REMARK   12  A    between atoms: C27_38  and  C28_39 
ROOT
HETATM    1  C6  UNL     1      -4.292  -0.917   2.053  1.00  0.00     0.006 C 
HETATM    2  C7  UNL     1      -2.889  -1.578   2.087  1.00  0.00     0.046 C 
HETATM    3  C8  UNL     1      -2.105  -0.804   1.067  1.00  0.00     0.087 C 
HETATM    4  C9  UNL     1      -1.494  -1.719   0.015  1.00  0.00     0.075 C 
HETATM    5  C10 UNL     1      -0.863  -0.906  -1.096  1.00  0.00     0.158 C 
HETATM    6  C25 UNL     1      -1.453   0.465  -1.150  1.00  0.00     0.200 C 
HETATM    7  O5  UNL     1      -2.847   0.323  -0.908  1.00  0.00    -0.380 OA
HETATM    8  C26 UNL     1      -3.112   0.130   0.410  1.00  0.00     0.160 C 
HETATM    9  C27 UNL     1      -4.429  -0.693   0.627  1.00  0.00     0.028 C 
ENDROOT
BRANCH   5  10
HETATM   10  O2  UNL     1       0.541  -0.959  -1.009  1.00  0.00    -0.313 OA
BRANCH  10  11
HETATM   11  C11 UNL     1       1.339  -1.461  -2.046  1.00  0.00     0.264 C 
HETATM   12  O3  UNL     1       0.812  -1.844  -3.058  1.00  0.00    -0.265 OA
BRANCH  11  13
HETATM   13  C12 UNL     1       2.787  -1.486  -1.795  1.00  0.00     0.100 C 
HETATM   14  C13 UNL     1       3.625  -1.643  -3.017  1.00  0.00     0.022 C 
BRANCH  13  15
HETATM   15  C14 UNL     1       3.283  -0.340  -0.934  1.00  0.00     0.142 C 
BRANCH  15  16
HETATM   16  N1  UNL     1       4.728  -0.457  -0.739  1.00  0.00    -0.366 N 
HETATM   17  C15 UNL     1       5.606   0.162  -1.508  1.00  0.00     0.091 A 
HETATM   18  C16 UNL     1       6.950  -0.012  -1.305  1.00  0.00     0.024 A 
HETATM   19  C17 UNL     1       7.412  -0.838  -0.295  1.00  0.00    -0.052 A 
HETATM   20  C23 UNL     1       6.474  -1.468   0.487  1.00  0.00     0.024 A 
HETATM   21  C24 UNL     1       5.135  -1.269   0.256  1.00  0.00     0.091 A 
BRANCH  19  22
HETATM   22  C18 UNL     1       8.840  -1.045  -0.047  1.00  0.00     0.085 C 
BRANCH  22  23
HETATM   23  C19 UNL     1       9.317  -0.026   0.987  1.00  0.00     0.188 A 
HETATM   24  N2  UNL     1       9.091   1.300   0.483  1.00  0.00    -0.368 N 
HETATM   25  C20 UNL     1      10.171   1.931   0.275  1.00  0.00     0.071 A 
ATOM     26  H2  UNL     1       8.165   1.691   0.311  1.00  0.00     0.161 HD
HETATM   27  C21 UNL     1      10.293   3.300  -0.240  1.00  0.00     0.074 C 
HETATM   28  C22 UNL     1      11.294   1.070   0.680  1.00  0.00     0.265 A 
HETATM   29  O4  UNL     1      12.521   1.381   0.604  1.00  0.00    -0.266 OA
HETATM   30  N3  UNL     1      10.743  -0.126   1.148  1.00  0.00    -0.335 N 
ATOM     31  H3  UNL     1      11.255  -0.920   1.531  1.00  0.00     0.164 HD
ENDBRANCH  22  23
ENDBRANCH  19  22
ENDBRANCH  15  16
ENDBRANCH  13  15
ENDBRANCH  11  13
ENDBRANCH  10  11
ENDBRANCH   5  10
BRANCH   3  32
HETATM   32  O1  UNL     1      -1.141  -0.057   1.730  1.00  0.00    -0.387 OA
ATOM     33  H1  UNL     1      -0.645   0.433   1.085  1.00  0.00     0.210 HD
ENDBRANCH   3  32
BRANCH   1  34
HETATM   34  C5  UNL     1      -4.488  -0.031   3.144  1.00  0.00     0.090 C 
BRANCH  34  35
HETATM   35  C4  UNL     1      -4.913   1.142   3.457  1.00  0.00    -0.156 C 
BRANCH  35  36
HETATM   36  C3  UNL     1      -5.343   2.358   3.849  1.00  0.00     0.046 C 
HETATM   37  C2  UNL     1      -5.897   3.380   3.199  1.00  0.00    -0.023 C 
HETATM   38  C1  UNL     1      -6.233   3.506   1.795  1.00  0.00     0.036 C 
ENDBRANCH  35  36
ENDBRANCH  34  35
ENDBRANCH   1  34
BRANCH   9  39
HETATM   39  C28 UNL     1      -5.524   0.039   0.003  1.00  0.00     0.010 A 
HETATM   40  C29 UNL     1      -5.626  -0.086  -1.490  1.00  0.00    -0.036 A 
HETATM   41  C30 UNL     1      -5.644   1.207  -2.275  1.00  0.00     0.016 C 
HETATM   42  C31 UNL     1      -5.125  -1.255  -2.272  1.00  0.00     0.016 C 
HETATM   43  C32 UNL     1      -6.778  -0.395  -0.564  1.00  0.00    -0.036 A 
HETATM   44  C33 UNL     1      -7.304  -1.805  -0.428  1.00  0.00     0.016 C 
HETATM   45  C34 UNL     1      -7.922   0.606  -0.699  1.00  0.00     0.016 C 
ENDBRANCH   9  39
TORSDOF 12
