REMARK  13 active torsions:
REMARK  status: ('A' for Active; 'I' for Inactive)
REMARK    1  A    between atoms: C3_3  and  C4_4 
REMARK    2  A    between atoms: C4_4  and  C5_5 
REMARK    3  A    between atoms: C4_4  and  C11_11 
REMARK    4  A    between atoms: C5_5  and  C6_6 
REMARK    5  A    between atoms: C6_6  and  C7_7 
REMARK    6  A    between atoms: C7_7  and  C8_8 
REMARK    7  A    between atoms: C12_12  and  C13_13 
REMARK    8  A    between atoms: C13_13  and  C14_14 
REMARK    9  A    between atoms: C15_15  and  O1_16 
REMARK   10  A    between atoms: N2_29  and  C24_30 
REMARK   11  A    between atoms: C24_30  and  C25_31 
REMARK   12  A    between atoms: N5_38  and  C27_39 
REMARK   13  A    between atoms: C27_39  and  C28_40 
ROOT
HETATM    1  C1  UNL     1      -5.157   2.143   0.287  1.00  0.00     0.112 C 
HETATM    2  C2  UNL     1      -3.882   1.443   0.376  1.00  0.00    -0.106 C 
HETATM    3  C3  UNL     1      -2.815   0.838   0.469  1.00  0.00    -0.069 C 
ENDROOT
BRANCH   3   4
HETATM    4  C4  UNL     1      -1.501   0.202   0.593  1.00  0.00     0.023 C 
BRANCH   4   5
HETATM    5  C5  UNL     1      -0.550   0.940  -0.322  1.00  0.00     0.050 C 
BRANCH   5   6
HETATM    6  C6  UNL     1      -1.319   1.322  -1.639  1.00  0.00     0.006 C 
BRANCH   6   7
HETATM    7  C7  UNL     1      -0.374   2.021  -2.572  1.00  0.00     0.004 C 
BRANCH   7   8
HETATM    8  C8  UNL     1       0.211   3.279  -2.023  1.00  0.00    -0.023 C 
HETATM    9  C9  UNL     1      -0.830   4.312  -1.673  1.00  0.00     0.009 C 
HETATM   10  C10 UNL     1       1.178   3.927  -2.993  1.00  0.00     0.009 C 
ENDBRANCH   7   8
ENDBRANCH   6   7
ENDBRANCH   5   6
ENDBRANCH   4   5
BRANCH   4  11
HETATM   11  C11 UNL     1      -1.201  -0.887   1.256  1.00  0.00     0.060 A 
HETATM   12  C12 UNL     1      -2.019  -1.758   1.977  1.00  0.00     0.000 A 
HETATM   13  C21 UNL     1      -1.198  -2.465   2.908  1.00  0.00    -0.034 A 
HETATM   14  C22 UNL     1      -1.596  -3.490   3.905  1.00  0.00     0.050 C 
HETATM   15  C23 UNL     1       0.045  -2.026   2.722  1.00  0.00     0.099 A 
HETATM   16  N2  UNL     1       0.079  -1.065   1.720  1.00  0.00    -0.348 N 
BRANCH  12  17
HETATM   17  C13 UNL     1      -3.218  -2.170   1.781  1.00  0.00     0.030 C 
BRANCH  17  18
HETATM   18  C14 UNL     1      -4.320  -2.075   0.891  1.00  0.00     0.022 A 
HETATM   19  C15 UNL     1      -5.577  -1.656   1.360  1.00  0.00     0.153 A 
HETATM   20  N1  UNL     1      -6.659  -1.606   0.571  1.00  0.00    -0.303 N 
HETATM   21  C16 UNL     1      -6.593  -1.958  -0.722  1.00  0.00     0.253 A 
ATOM     22  H1  UNL     1      -7.549  -1.295   0.960  1.00  0.00     0.171 HD
HETATM   23  O2  UNL     1      -7.587  -1.922  -1.486  1.00  0.00    -0.268 OA
HETATM   24  C17 UNL     1      -5.408  -2.381  -1.271  1.00  0.00     0.013 A 
HETATM   25  C18 UNL     1      -5.272  -2.784  -2.693  1.00  0.00     0.054 C 
HETATM   26  C19 UNL     1      -4.294  -2.434  -0.461  1.00  0.00    -0.036 A 
HETATM   27  C20 UNL     1      -3.026  -2.907  -1.039  1.00  0.00     0.050 C 
BRANCH  19  28
HETATM   28  O1  UNL     1      -5.725  -1.272   2.702  1.00  0.00    -0.345 OA
ATOM     29  H1  UNL     1      -6.575  -0.989   3.019  1.00  0.00     0.219 HD
ENDBRANCH  19  28
ENDBRANCH  17  18
ENDBRANCH  12  17
BRANCH  16  30
HETATM   30  C24 UNL     1       1.367  -0.532   1.420  1.00  0.00     0.206 C 
BRANCH  30  31
HETATM   31  C25 UNL     1       2.158  -1.397   0.494  1.00  0.00     0.121 A 
HETATM   32  N3  UNL     1       2.142  -2.753   0.583  1.00  0.00    -0.283 N 
HETATM   33  N4  UNL     1       2.914  -3.280  -0.314  1.00  0.00    -0.250 N 
ATOM     34  H3  UNL     1       1.597  -3.283   1.263  1.00  0.00     0.188 HD
HETATM   35  C26 UNL     1       3.464  -2.264  -1.022  1.00  0.00     0.342 A 
ATOM     36  H4  UNL     1       3.078  -4.276  -0.460  1.00  0.00     0.192 HD
HETATM   37  O3  UNL     1       4.259  -2.437  -1.968  1.00  0.00    -0.245 OA
HETATM   38  N5  UNL     1       2.981  -1.098  -0.502  1.00  0.00    -0.281 N 
BRANCH  38  39
HETATM   39  C27 UNL     1       3.369   0.186  -0.977  1.00  0.00     0.173 C 
BRANCH  39  40
HETATM   40  C28 UNL     1       4.605   0.655  -0.290  1.00  0.00    -0.039 A 
HETATM   41  C29 UNL     1       5.866   0.366  -0.747  1.00  0.00     0.015 A 
HETATM   42  C30 UNL     1       6.980   0.821  -0.086  1.00  0.00    -0.061 A 
HETATM   43  C31 UNL     1       8.356   0.505  -0.586  1.00  0.00     0.048 C 
HETATM   44  C32 UNL     1       6.822   1.591   1.071  1.00  0.00     0.013 A 
HETATM   45  C33 UNL     1       5.568   1.890   1.543  1.00  0.00    -0.061 A 
HETATM   46  C34 UNL     1       5.425   2.700   2.761  1.00  0.00     0.048 C 
HETATM   47  C35 UNL     1       4.472   1.415   0.852  1.00  0.00     0.015 A 
ENDBRANCH  39  40
ENDBRANCH  38  39
ENDBRANCH  30  31
ENDBRANCH  16  30
ENDBRANCH   4  11
ENDBRANCH   3   4
TORSDOF 13
