REMARK  10 active torsions:
REMARK  status: ('A' for Active; 'I' for Inactive)
REMARK    1  A    between atoms: C2_2  and  O1_3 
REMARK    2  A    between atoms: O1_3  and  C3_4 
REMARK       I    between atoms: C3_4  and  N1_6 
REMARK    3  A    between atoms: N1_6  and  C4_8 
REMARK    4  A    between atoms: C4_8  and  C5_9 
REMARK    5  A    between atoms: C4_8  and  C8_12 
REMARK    6  A    between atoms: C11_16  and  N2_17 
REMARK       I    between atoms: N2_17  and  C12_19 
REMARK    7  A    between atoms: C12_19  and  C13_21 
REMARK    8  A    between atoms: C13_21  and  N3_22 
REMARK    9  A    between atoms: C13_21  and  C27_40 
REMARK       I    between atoms: N3_22  and  C14_24 
REMARK       I    between atoms: C14_24  and  N4_26 
REMARK   10  A    between atoms: N5_30  and  C18_31 
ROOT
HETATM    1  C13 UNL     1      -0.264  -2.470  -0.854  1.00  0.00     0.181 C 
ENDROOT
BRANCH   1   2
HETATM    2  C12 UNL     1      -1.695  -2.288  -1.021  1.00  0.00     0.241 C 
HETATM    3  N2  UNL     1      -2.758  -2.905  -0.339  1.00  0.00    -0.353 N 
ATOM      4  H2  UNL     1      -2.554  -3.572   0.405  1.00  0.00     0.163 HD
HETATM    5  O3  UNL     1      -2.056  -1.440  -1.932  1.00  0.00    -0.271 OA
BRANCH   3   6
HETATM    6  C11 UNL     1      -4.162  -2.609  -0.677  1.00  0.00     0.100 C 
HETATM    7  C8  UNL     1      -4.982  -2.416   0.519  1.00  0.00     0.042 C 
HETATM    8  C9  UNL     1      -6.423  -2.797   0.264  1.00  0.00     0.082 C 
HETATM    9  S1  UNL     1      -6.349  -3.868  -1.172  1.00  0.00    -0.167 SA
HETATM   10  C10 UNL     1      -4.585  -3.804  -1.494  1.00  0.00     0.099 C 
BRANCH   7  11
HETATM   11  C4  UNL     1      -4.995  -0.938   0.920  1.00  0.00     0.097 C 
BRANCH  11  12
HETATM   12  N1  UNL     1      -3.748  -0.351   1.211  1.00  0.00    -0.331 N 
HETATM   13  C3  UNL     1      -3.215   0.833   0.631  1.00  0.00     0.360 C 
HETATM   14  O2  UNL     1      -3.921   1.418  -0.237  1.00  0.00    -0.239 OA
ATOM     15  H1  UNL     1      -3.170  -0.822   1.907  1.00  0.00     0.165 HD
BRANCH  13  16
HETATM   16  O1  UNL     1      -1.996   1.394   0.942  1.00  0.00    -0.304 OA
BRANCH  16  17
HETATM   17  C2  UNL     1      -1.622   2.598   0.259  1.00  0.00     0.176 C 
HETATM   18  C1  UNL     1      -2.647   3.699   0.503  1.00  0.00     0.034 C 
ENDBRANCH  16  17
ENDBRANCH  13  16
ENDBRANCH  11  12
BRANCH  11  19
HETATM   19  C5  UNL     1      -6.035  -0.711   2.009  1.00  0.00     0.009 A 
HETATM   20  C6  UNL     1      -6.417   0.703   2.340  1.00  0.00     0.007 A 
HETATM   21  C7  UNL     1      -5.710  -0.182   3.327  1.00  0.00     0.007 A 
ENDBRANCH  11  19
ENDBRANCH   7  11
ENDBRANCH   3   6
ENDBRANCH   1   2
BRANCH   1  22
HETATM   22  N3  UNL     1       0.509  -1.517  -1.651  1.00  0.00    -0.329 N 
HETATM   23  C14 UNL     1       1.893  -1.315  -1.551  1.00  0.00     0.319 C 
HETATM   24  O4  UNL     1       2.576  -1.994  -0.745  1.00  0.00    -0.247 OA
HETATM   25  N4  UNL     1       2.564  -0.365  -2.337  1.00  0.00    -0.333 N 
HETATM   26  C15 UNL     1       1.774   0.564  -3.125  1.00  0.00     0.129 C 
HETATM   27  C26 UNL     1       4.009  -0.403  -2.309  1.00  0.00     0.157 C 
HETATM   28  C16 UNL     1       1.333   1.619  -2.095  1.00  0.00     0.050 C 
HETATM   29  C17 UNL     1       2.576   2.373  -1.645  1.00  0.00     0.274 C 
HETATM   30  N5  UNL     1       3.546   1.533  -0.998  1.00  0.00     0.094 N 
HETATM   31  C25 UNL     1       4.531   0.995  -1.899  1.00  0.00     0.292 C 
ATOM     32  H3  UNL     1       0.001  -0.955  -2.334  1.00  0.00     0.165 HD
BRANCH  30  33
HETATM   33  C18 UNL     1       4.026   2.123   0.192  1.00  0.00     0.223 C 
HETATM   34  C19 UNL     1       5.081   1.287   0.891  1.00  0.00     0.036 C 
HETATM   35  C20 UNL     1       5.153   1.758   2.331  1.00  0.00     0.006 C 
HETATM   36  C21 UNL     1       5.522   3.225   2.403  1.00  0.00    -0.019 C 
HETATM   37  C22 UNL     1       6.995   3.427   2.101  1.00  0.00     0.010 C 
HETATM   38  C23 UNL     1       4.645   4.066   1.536  1.00  0.00     0.006 C 
HETATM   39  C24 UNL     1       4.529   3.524   0.104  1.00  0.00     0.036 C 
ENDBRANCH  30  33
ENDBRANCH   1  22
BRANCH   1  40
HETATM   40  C27 UNL     1       0.153  -3.884  -1.343  1.00  0.00     0.009 C 
HETATM   41  C28 UNL     1      -0.551  -4.940  -0.547  1.00  0.00     0.012 C 
HETATM   42  C29 UNL     1      -0.115  -4.080  -2.793  1.00  0.00     0.012 C 
ENDBRANCH   1  40
TORSDOF 10
