REMARK  16 active torsions:
REMARK  status: ('A' for Active; 'I' for Inactive)
REMARK    1  A    between atoms: O1_2  and  C2_3 
REMARK    2  A    between atoms: C2_3  and  O2_4 
REMARK    3  A    between atoms: C2_3  and  N1_6 
REMARK    4  A    between atoms: N1_6  and  C3_7 
REMARK    5  A    between atoms: N1_6  and  C8_13 
REMARK    6  A    between atoms: C3_7  and  C4_8 
REMARK    7  A    between atoms: C4_8  and  C5_9 
REMARK    8  A    between atoms: C5_9  and  N2_10 
REMARK    9  A    between atoms: C8_13  and  C9_14 
REMARK   10  A    between atoms: C9_14  and  N3_15 
REMARK   11  A    between atoms: N3_15  and  C10_17 
REMARK   12  A    between atoms: C11_20  and  N5_21 
REMARK   13  A    between atoms: N5_21  and  C12_23 
REMARK   14  A    between atoms: C12_23  and  C13_24 
REMARK   15  A    between atoms: C17_30  and  N7_31 
REMARK   16  A    between atoms: N7_31  and  C18_33 
ROOT
HETATM    1  C10 UNL     1       0.039  -1.691   0.525  1.00  0.00     0.707 A 
HETATM    2  N4  UNL     1       0.052  -3.021   0.460  1.00  0.00    -0.022 N 
ATOM      3  H4  UNL     1       0.859  -3.528   0.825  1.00  0.00     0.203 HD
HETATM    4  C11 UNL     1      -0.975  -3.718  -0.076  1.00  0.00     0.707 A 
HETATM    5  N6  UNL     1      -2.019  -3.021  -0.546  1.00  0.00    -0.021 N 
ATOM      6  H6  UNL     1      -2.809  -3.518  -0.957  1.00  0.00     0.203 HD
HETATM    7  C17 UNL     1      -2.042  -1.681  -0.485  1.00  0.00     0.711 A 
HETATM    8  N8  UNL     1      -1.016  -1.020   0.050  1.00  0.00    -0.021 N 
ATOM      9  H8  UNL     1      -1.035  -0.001   0.097  1.00  0.00     0.203 HD
ENDROOT
BRANCH   7  10
HETATM   10  N7  UNL     1      -3.077  -1.091  -0.957  1.00  0.00    -0.191 N 
ATOM     11  H7  UNL     1      -3.804  -1.693  -1.344  1.00  0.00     0.184 HD
BRANCH  10  12
HETATM   12  C18 UNL     1      -3.324   0.293  -1.002  1.00  0.00     0.049 A 
HETATM   13  C19 UNL     1      -2.554   1.157  -1.752  1.00  0.00     0.031 A 
HETATM   14  C20 UNL     1      -2.789   2.508  -1.807  1.00  0.00     0.015 A 
HETATM   15  C21 UNL     1      -3.850   3.062  -1.080  1.00  0.00    -0.018 A 
HETATM   16  C22 UNL     1      -4.634   2.233  -0.326  1.00  0.00    -0.032 A 
HETATM   17  C32 UNL     1      -4.327   4.431  -0.949  1.00  0.00    -0.018 A 
HETATM   18  C23 UNL     1      -4.365   0.848  -0.292  1.00  0.00     0.039 A 
HETATM   19  C24 UNL     1      -5.668   3.045   0.330  1.00  0.00     0.008 A 
HETATM   20  C25 UNL     1      -7.007   2.566  -0.217  1.00  0.00     0.025 C 
HETATM   21  C26 UNL     1      -5.629   2.915   1.839  1.00  0.00     0.025 C 
HETATM   22  C27 UNL     1      -5.411   4.428  -0.106  1.00  0.00    -0.035 A 
HETATM   23  C28 UNL     1      -6.016   5.654   0.151  1.00  0.00     0.009 A 
HETATM   24  C29 UNL     1      -5.537   6.810  -0.422  1.00  0.00     0.001 A 
HETATM   25  C30 UNL     1      -4.446   6.817  -1.272  1.00  0.00     0.001 A 
HETATM   26  C31 UNL     1      -3.847   5.609  -1.527  1.00  0.00     0.013 A 
ENDBRANCH  10  12
ENDBRANCH   7  10
BRANCH   4  27
HETATM   27  N5  UNL     1      -0.882  -4.996  -0.103  1.00  0.00    -0.224 N 
ATOM     28  H5  UNL     1      -1.647  -5.538  -0.505  1.00  0.00     0.177 HD
BRANCH  27  29
HETATM   29  C12 UNL     1       0.262  -5.687   0.413  1.00  0.00     0.146 C 
BRANCH  29  30
HETATM   30  C13 UNL     1       0.113  -7.176   0.184  1.00  0.00    -0.035 C 
HETATM   31  C14 UNL     1      -1.126  -7.668   0.891  1.00  0.00     0.016 C 
HETATM   32  C15 UNL     1       1.306  -7.868   0.805  1.00  0.00     0.016 C 
HETATM   33  C16 UNL     1       0.053  -7.412  -1.305  1.00  0.00     0.016 C 
ENDBRANCH  29  30
ENDBRANCH  27  29
ENDBRANCH   4  27
BRANCH   1  34
HETATM   34  N3  UNL     1       0.997  -0.995   1.020  1.00  0.00    -0.224 N 
ATOM     35  H3  UNL     1       0.930   0.023   1.043  1.00  0.00     0.177 HD
BRANCH  34  36
HETATM   36  C9  UNL     1       2.160  -1.650   1.540  1.00  0.00     0.158 C 
BRANCH  36  37
HETATM   37  C8  UNL     1       3.243  -0.751   2.007  1.00  0.00     0.147 C 
BRANCH  37  38
HETATM   38  N1  UNL     1       3.716   0.072   0.884  1.00  0.00    -0.340 N 
BRANCH  38  39
HETATM   39  C2  UNL     1       4.720  -0.487   0.087  1.00  0.00     0.259 C 
BRANCH  39  40
HETATM   40  O1  UNL     1       5.332   0.023  -1.016  1.00  0.00    -0.322 OA
HETATM   41  C1  UNL     1       6.324  -0.680  -1.704  1.00  0.00     0.213 C 
ENDBRANCH  39  40
BRANCH  39  42
HETATM   42  O2  UNL     1       5.150  -1.675   0.422  1.00  0.00    -0.327 OA
ATOM     43  H2  UNL     1       4.723  -2.031   1.192  1.00  0.00     0.221 HD
ENDBRANCH  39  42
ENDBRANCH  38  39
BRANCH  38  44
HETATM   44  C3  UNL     1       3.111   1.362   0.767  1.00  0.00     0.132 C 
BRANCH  44  45
HETATM   45  C4  UNL     1       3.701   2.444   1.607  1.00  0.00     0.064 C 
BRANCH  45  46
HETATM   46  C5  UNL     1       5.036   2.952   1.330  1.00  0.00     0.058 C 
BRANCH  46  47
HETATM   47  N2  UNL     1       5.346   3.739   0.241  1.00  0.00    -0.402 N 
HETATM   48  C6  UNL     1       5.378   3.422  -1.093  1.00  0.00     0.148 C 
HETATM   49  C7  UNL     1       5.576   5.150   0.548  1.00  0.00     0.148 C 
ENDBRANCH  46  47
ENDBRANCH  45  46
ENDBRANCH  44  45
ENDBRANCH  38  44
ENDBRANCH  37  38
ENDBRANCH  36  37
ENDBRANCH  34  36
ENDBRANCH   1  34
TORSDOF 16
