REMARK  4 active torsions:
REMARK  status: ('A' for Active; 'I' for Inactive)
REMARK    1  A    between atoms: C7_7  and  N1_8 
REMARK    2  A    between atoms: N1_8  and  C8_10 
REMARK    3  A    between atoms: C11_15  and  N3_16 
REMARK    4  A    between atoms: N3_16  and  C12_18 
ROOT
HETATM    1  C1  UNL     1      -5.681   1.678   3.968  1.00  0.00     0.018 C 
HETATM    2  C2  UNL     1      -5.335   1.535   2.821  1.00  0.00    -0.078 C 
HETATM    3  C3  UNL     1      -4.909   1.386   1.456  1.00  0.00     0.019 A 
HETATM    4  C4  UNL     1      -5.771   1.620   0.403  1.00  0.00     0.021 A 
HETATM    5  C5  UNL     1      -5.364   1.478  -0.913  1.00  0.00     0.004 A 
HETATM    6  C6  UNL     1      -4.074   1.094  -1.215  1.00  0.00     0.029 A 
HETATM    7  C7  UNL     1      -3.205   0.857  -0.171  1.00  0.00     0.035 A 
HETATM    8  C21 UNL     1      -3.607   0.999   1.148  1.00  0.00     0.050 A 
ENDROOT
BRANCH   7   9
HETATM    9  N1  UNL     1      -1.866   0.460  -0.442  1.00  0.00    -0.342 N 
ATOM     10  H1  UNL     1      -1.128   1.162  -0.495  1.00  0.00     0.167 HD
BRANCH   9  11
HETATM   11  C8  UNL     1      -1.586  -0.770  -0.619  1.00  0.00     0.122 A 
HETATM   12  C9  UNL     1      -2.539  -1.767  -0.559  1.00  0.00     0.066 A 
HETATM   13  C10 UNL     1      -2.185  -3.104  -0.760  1.00  0.00     0.110 A 
HETATM   14  N2  UNL     1      -0.911  -3.412  -1.011  1.00  0.00    -0.202 N 
HETATM   15  C11 UNL     1       0.031  -2.421  -1.070  1.00  0.00     0.684 A 
ATOM     16  H2  UNL     1      -0.640  -4.384  -1.159  1.00  0.00     0.183 HD
HETATM   17  N6  UNL     1      -0.319  -1.136  -0.875  1.00  0.00    -0.176 N 
ATOM     18  H6  UNL     1       0.402  -0.416  -0.923  1.00  0.00     0.186 HD
BRANCH  15  19
HETATM   19  N3  UNL     1       1.259  -2.693  -1.309  1.00  0.00    -0.192 N 
ATOM     20  H3  UNL     1       1.552  -3.658  -1.460  1.00  0.00     0.184 HD
BRANCH  19  21
HETATM   21  C12 UNL     1       2.205  -1.644  -1.362  1.00  0.00     0.051 A 
HETATM   22  C13 UNL     1       2.477  -1.014  -2.567  1.00  0.00     0.032 A 
HETATM   23  C14 UNL     1       3.402  -0.002  -2.567  1.00  0.00     0.034 A 
HETATM   24  C15 UNL     1       4.060   0.402  -1.420  1.00  0.00     0.059 A 
HETATM   25  N4  UNL     1       4.974   1.415  -1.464  1.00  0.00    -0.362 N 
HETATM   26  C19 UNL     1       3.787  -0.226  -0.225  1.00  0.00     0.061 A 
HETATM   27  C16 UNL     1       5.599   1.782  -0.314  1.00  0.00     0.113 A 
ATOM     28  H4  UNL     1       5.184   1.888  -2.343  1.00  0.00     0.165 HD
HETATM   29  C17 UNL     1       5.336   1.163   0.890  1.00  0.00     0.021 A 
HETATM   30  C18 UNL     1       6.006   1.546   2.162  1.00  0.00     0.069 C 
HETATM   31  N5  UNL     1       4.432   0.168   0.907  1.00  0.00    -0.357 N 
ATOM     32  H5  UNL     1       4.225  -0.302   1.788  1.00  0.00     0.166 HD
HETATM   33  C20 UNL     1       2.859  -1.244  -0.212  1.00  0.00     0.061 A 
ENDBRANCH  19  21
ENDBRANCH  15  19
ENDBRANCH   9  11
ENDBRANCH   7   9
TORSDOF 4
