REMARK  3 active torsions:
REMARK  status: ('A' for Active; 'I' for Inactive)
REMARK    1  A    between atoms: C3_6  and  N3_7 
REMARK    2  A    between atoms: N3_7  and  C4_9 
REMARK    3  A    between atoms: C16_24  and  N6_25 
ROOT
HETATM    1  C1  UNL     1       1.498   0.461   3.019  1.00  0.00     0.231 C 
HETATM    2  N1  UNL     1       1.164   0.232   1.755  1.00  0.00    -0.410 NA
HETATM    3  C2  UNL     1       0.945   0.032   0.615  1.00  0.00     0.204 A 
HETATM    4  N2  UNL     1      -0.328  -0.148   0.103  1.00  0.00    -0.163 N 
ATOM      5  H2  UNL     1      -1.118  -0.102   0.747  1.00  0.00     0.187 HD
HETATM    6  C3  UNL     1      -0.578  -0.378  -1.183  1.00  0.00     0.685 A 
HETATM    7  N5  UNL     1       0.443  -0.443  -2.055  1.00  0.00    -0.191 N 
ATOM      8  H5  UNL     1       0.248  -0.619  -3.041  1.00  0.00     0.184 HD
HETATM    9  C13 UNL     1       1.718  -0.280  -1.654  1.00  0.00     0.064 A 
HETATM   10  C14 UNL     1       2.777  -0.349  -2.559  1.00  0.00     0.033 A 
HETATM   11  C15 UNL     1       4.091  -0.185  -2.158  1.00  0.00     0.031 A 
HETATM   12  C16 UNL     1       4.353   0.053  -0.830  1.00  0.00     0.030 A 
HETATM   13  C19 UNL     1       3.304   0.120   0.064  1.00  0.00     0.048 A 
HETATM   14  C20 UNL     1       1.996  -0.043  -0.336  1.00  0.00     0.052 A 
ENDROOT
BRANCH   6  15
HETATM   15  N3  UNL     1      -1.763  -0.542  -1.665  1.00  0.00    -0.192 N 
ATOM     16  H3  UNL     1      -1.848  -0.713  -2.667  1.00  0.00     0.184 HD
BRANCH  15  17
HETATM   17  C4  UNL     1      -2.957  -0.501  -0.899  1.00  0.00     0.051 A 
HETATM   18  C5  UNL     1      -3.845   0.536  -1.084  1.00  0.00     0.037 A 
HETATM   19  C6  UNL     1      -5.032   0.653  -0.380  1.00  0.00    -0.052 A 
HETATM   20  C7  UNL     1      -5.969   1.766  -0.589  1.00  0.00     0.049 C 
HETATM   21  C8  UNL     1      -5.337  -0.313   0.548  1.00  0.00    -0.035 A 
HETATM   22  C9  UNL     1      -6.580  -0.230   1.314  1.00  0.00     0.050 C 
HETATM   23  C10 UNL     1      -4.472  -1.361   0.756  1.00  0.00     0.053 A 
HETATM   24  C11 UNL     1      -4.732  -2.415   1.719  1.00  0.00     0.100 C 
HETATM   25  C12 UNL     1      -3.276  -1.463   0.035  1.00  0.00     0.053 A 
HETATM   26  N4  UNL     1      -4.955  -3.259   2.480  1.00  0.00    -0.191 NA
ENDBRANCH  15  17
ENDBRANCH   6  15
BRANCH  12  27
HETATM   27  N6  UNL     1       5.691   0.225  -0.389  1.00  0.00    -0.390 N 
HETATM   28  C17 UNL     1       6.003   0.474   1.001  1.00  0.00     0.149 C 
HETATM   29  C18 UNL     1       6.791   0.153  -1.343  1.00  0.00     0.149 C 
ENDBRANCH  12  27
TORSDOF 3
