REMARK  5 active torsions:
REMARK  status: ('A' for Active; 'I' for Inactive)
REMARK    1  A    between atoms: C1_2  and  N1_3 
REMARK    2  A    between atoms: C1_2  and  C12_21 
REMARK    3  A    between atoms: N1_3  and  C2_5 
REMARK    4  A    between atoms: C5_10  and  N3_11 
REMARK    5  A    between atoms: N3_11  and  C6_13 
ROOT
HETATM    1  C2  UNL     1       0.195  -1.501   0.254  1.00  0.00     0.123 A 
HETATM    2  C3  UNL     1      -0.429  -2.655  -0.185  1.00  0.00     0.066 A 
HETATM    3  C4  UNL     1      -1.786  -2.671  -0.283  1.00  0.00     0.110 A 
HETATM    4  N2  UNL     1      -2.466  -1.561   0.053  1.00  0.00    -0.202 N 
ATOM      5  H2  UNL     1      -3.483  -1.580  -0.022  1.00  0.00     0.183 HD
HETATM    6  C5  UNL     1      -1.888  -0.434   0.480  1.00  0.00     0.684 A 
HETATM    7  N4  UNL     1      -0.549  -0.421   0.576  1.00  0.00    -0.176 N 
ATOM      8  H4  UNL     1      -0.082   0.426   0.900  1.00  0.00     0.186 HD
ENDROOT
BRANCH   1   9
HETATM    9  N1  UNL     1       1.477  -1.530   0.332  1.00  0.00    -0.331 N 
ATOM     10  H1  UNL     1       1.955  -2.392   0.069  1.00  0.00     0.168 HD
BRANCH   9  11
HETATM   11  C1  UNL     1       2.269  -0.430   0.764  1.00  0.00     0.131 C 
HETATM   12  S1  UNL     1       2.382  -0.149   2.367  1.00  0.00    -0.058 SA
BRANCH  11  13
HETATM   13  C12 UNL     1       2.962   0.425  -0.202  1.00  0.00     0.094 A 
HETATM   14  C13 UNL     1       2.428   1.328  -1.097  1.00  0.00     0.123 A 
HETATM   15  N5  UNL     1       3.426   1.897  -1.793  1.00  0.00    -0.350 N 
HETATM   16  C14 UNL     1       4.600   1.374  -1.361  1.00  0.00     0.111 A 
ATOM     17  H5  UNL     1       3.319   2.602  -2.522  1.00  0.00     0.166 HD
HETATM   18  C15 UNL     1       5.896   1.643  -1.771  1.00  0.00     0.049 A 
HETATM   19  N6  UNL     1       4.303   0.485  -0.399  1.00  0.00    -0.304 N 
HETATM   20  C16 UNL     1       6.920   0.959  -1.156  1.00  0.00     0.005 A 
HETATM   21  C17 UNL     1       6.611   0.047  -0.167  1.00  0.00     0.018 A 
HETATM   22  C18 UNL     1       5.313  -0.189   0.209  1.00  0.00     0.099 A 
ENDBRANCH  11  13
ENDBRANCH   9  11
ENDBRANCH   1   9
BRANCH   6  23
HETATM   23  N3  UNL     1      -2.538   0.624   0.800  1.00  0.00    -0.192 N 
ATOM     24  H3  UNL     1      -2.036   1.452   1.119  1.00  0.00     0.184 HD
BRANCH  23  25
HETATM   25  C6  UNL     1      -3.974   0.646   0.710  1.00  0.00     0.049 A 
HETATM   26  C7  UNL     1      -4.752   0.039   1.661  1.00  0.00     0.030 A 
HETATM   27  C8  UNL     1      -6.121   0.053   1.588  1.00  0.00     0.002 A 
HETATM   28  C9  UNL     1      -6.713   0.704   0.514  1.00  0.00     0.000 A 
HETATM   29  C10 UNL     1      -5.929   1.320  -0.450  1.00  0.00     0.002 A 
HETATM   30  C11 UNL     1      -4.563   1.287  -0.346  1.00  0.00     0.030 A 
ENDBRANCH  23  25
ENDBRANCH   6  23
TORSDOF 5
