REMARK  13 active torsions:
REMARK  status: ('A' for Active; 'I' for Inactive)
REMARK    1  A    between atoms: N1_1  and  C1_5 
REMARK    2  A    between atoms: C1_5  and  C2_6 
REMARK    3  A    between atoms: C4_8  and  C5_9 
REMARK    4  A    between atoms: C5_9  and  C6_10 
REMARK    5  A    between atoms: C5_9  and  N2_12 
REMARK    6  A    between atoms: N2_12  and  C7_14 
REMARK    7  A    between atoms: C7_14  and  C8_15 
REMARK    8  A    between atoms: C7_14  and  C9_17 
REMARK    9  A    between atoms: C9_17  and  N3_18 
REMARK   10  A    between atoms: C9_17  and  N4_22 
REMARK   11  A    between atoms: N4_22  and  C10_25 
REMARK   12  A    between atoms: C10_25  and  C11_26 
REMARK   13  A    between atoms: C11_26  and  N5_27 
ROOT
HETATM    1  C7  UNL     1      -0.169  -1.204  -0.798  1.00  0.00     0.197 C 
ENDROOT
BRANCH   1   2
HETATM    2  N2  UNL     1      -1.293  -1.242   0.008  1.00  0.00    -0.396 N 
ATOM      3  H2  UNL     1      -1.789  -2.133  -0.008  1.00  0.00     0.154 HD
BRANCH   2   4
HETATM    4  C5  UNL     1      -1.860  -0.297   0.824  1.00  0.00     0.173 C 
BRANCH   4   5
HETATM    5  C4  UNL     1      -3.353  -0.228   0.769  1.00  0.00     0.238 C 
HETATM    6  C3  UNL     1      -3.990   0.385  -0.374  1.00  0.00     0.014 C 
HETATM    7  C2  UNL     1      -5.215   0.752   0.069  1.00  0.00    -0.031 C 
HETATM    8  C13 UNL     1      -5.370   0.295   1.515  1.00  0.00     0.269 C 
HETATM    9  N8  UNL     1      -3.986   0.309   1.926  1.00  0.00    -0.062 N 
ATOM     10  H82 UNL     1      -3.784  -0.175   2.801  1.00  0.00     0.278 HD
ATOM     11  H81 UNL     1      -3.631   1.212   2.240  1.00  0.00     0.278 HD
BRANCH   7  12
HETATM   12  C1  UNL     1      -6.330   1.439  -0.603  1.00  0.00     0.265 C 
BRANCH  12  13
HETATM   13  N1  UNL     1      -6.049   1.888  -1.926  1.00  0.00    -0.076 N 
ATOM     14  H13 UNL     1      -5.218   2.479  -1.929  1.00  0.00     0.274 HD
ATOM     15  H12 UNL     1      -5.717   1.112  -2.499  1.00  0.00     0.274 HD
ATOM     16  H11 UNL     1      -6.822   2.364  -2.392  1.00  0.00     0.274 HD
ENDBRANCH  12  13
ENDBRANCH   7  12
ENDBRANCH   4   5
BRANCH   4  17
HETATM   17  C6  UNL     1      -1.638  -0.739   2.296  1.00  0.00     0.258 C 
HETATM   18  O1  UNL     1      -0.821  -0.046   2.951  1.00  0.00    -0.305 OA
ENDBRANCH   4  17
ENDBRANCH   2   4
ENDBRANCH   1   2
BRANCH   1  19
HETATM   19  C8  UNL     1       0.310  -2.651  -0.962  1.00  0.00     0.259 C 
HETATM   20  O2  UNL     1       0.171  -3.310   0.085  1.00  0.00    -0.305 OA
ENDBRANCH   1  19
BRANCH   1  21
HETATM   21  C9  UNL     1       1.011  -0.501  -0.245  1.00  0.00     0.408 C 
BRANCH  21  22
HETATM   22  N3  UNL     1       1.433  -1.159   1.026  1.00  0.00    -0.048 N 
ATOM     23  H33 UNL     1       0.670  -1.220   1.700  1.00  0.00     0.276 HD
ATOM     24  H32 UNL     1       1.601  -2.158   0.905  1.00  0.00     0.276 HD
ATOM     25  H31 UNL     1       2.246  -0.675   1.407  1.00  0.00     0.276 HD
ENDBRANCH  21  22
BRANCH  21  26
HETATM   26  N4  UNL     1       2.180  -0.640  -1.069  1.00  0.00    -0.042 N 
ATOM     27  H42 UNL     1       2.500  -1.608  -1.105  1.00  0.00     0.279 HD
ATOM     28  H41 UNL     1       1.960  -0.511  -2.057  1.00  0.00     0.279 HD
BRANCH  26  29
HETATM   29  C10 UNL     1       3.212   0.233  -0.648  1.00  0.00     0.254 C 
BRANCH  29  30
HETATM   30  C11 UNL     1       4.638  -0.134  -0.906  1.00  0.00     0.149 C 
BRANCH  30  31
HETATM   31  N5  UNL     1       5.513   0.885  -0.452  1.00  0.00    -0.365 N 
HETATM   32  C12 UNL     1       6.617   0.964   0.102  1.00  0.00     0.197 C 
HETATM   33  N6  UNL     1       7.464  -0.130   0.511  1.00  0.00    -0.067 NA
HETATM   34  N7  UNL     1       7.176   2.284   0.409  1.00  0.00    -0.067 NA
ATOM     35  H5  UNL     1       5.125   1.811  -0.632  1.00  0.00     0.161 HD
ENDBRANCH  30  31
ENDBRANCH  29  30
ENDBRANCH  26  29
ENDBRANCH  21  26
ENDBRANCH   1  21
TORSDOF 13
