REMARK  13 active torsions:
REMARK  status: ('A' for Active; 'I' for Inactive)
REMARK       I    between atoms: C1_4  and  N3_6 
REMARK    1  A    between atoms: N3_6  and  O1_8 
REMARK    2  A    between atoms: O1_8  and  C2_9 
REMARK    3  A    between atoms: C2_9  and  C3_10 
REMARK    4  A    between atoms: C3_10  and  N4_11 
REMARK    5  A    between atoms: N4_11  and  C4_12 
REMARK    6  A    between atoms: N4_11  and  C6_18 
REMARK    7  A    between atoms: C4_12  and  C5_13 
REMARK    8  A    between atoms: C5_13  and  N5_14 
REMARK    9  A    between atoms: C6_18  and  C7_19 
REMARK       I    between atoms: C7_19  and  N6_21 
REMARK   10  A    between atoms: N6_21  and  C8_23 
REMARK   11  A    between atoms: C8_23  and  C9_24 
REMARK   12  A    between atoms: C9_24  and  N7_25 
REMARK   13  A    between atoms: N7_25  and  C10_27 
ROOT
HETATM    1  N4  UNL     1       1.372   0.271  -0.495  1.00  0.00    -0.284 NA
ENDROOT
BRANCH   1   2
HETATM    2  C3  UNL     1       2.613   0.112  -1.177  1.00  0.00     0.123 C 
BRANCH   2   3
HETATM    3  C2  UNL     1       3.613  -0.828  -0.649  1.00  0.00     0.216 C 
BRANCH   3   4
HETATM    4  O1  UNL     1       4.106  -0.608   0.619  1.00  0.00    -0.277 OA
BRANCH   4   5
HETATM    5  N3  UNL     1       4.997  -1.565   0.960  1.00  0.00    -0.239 N 
HETATM    6  C1  UNL     1       6.058  -2.000   0.151  1.00  0.00     0.205 C 
HETATM    7  N1  UNL     1       5.909  -3.000  -0.652  1.00  0.00    -0.372 N 
HETATM    8  N2  UNL     1       7.313  -1.343   0.207  1.00  0.00    -0.062 NA
ATOM      9  H12 UNL     1       6.680  -3.316  -1.240  1.00  0.00     0.158 HD
ATOM     10  H11 UNL     1       5.006  -3.473  -0.692  1.00  0.00     0.158 HD
ATOM     11  H3  UNL     1       4.890  -2.004   1.874  1.00  0.00     0.197 HD
ENDBRANCH   4   5
ENDBRANCH   3   4
ENDBRANCH   2   3
ENDBRANCH   1   2
BRANCH   1  12
HETATM   12  C4  UNL     1       1.401   0.919   0.768  1.00  0.00     0.122 C 
BRANCH  12  13
HETATM   13  C5  UNL     1       1.731   2.389   0.780  1.00  0.00     0.244 C 
BRANCH  13  14
HETATM   14  N5  UNL     1       2.997   2.781   0.302  1.00  0.00    -0.078 N 
ATOM     15  H53 UNL     1       3.720   2.270   0.809  1.00  0.00     0.274 HD
ATOM     16  H52 UNL     1       3.128   2.415  -0.641  1.00  0.00     0.274 HD
ATOM     17  H51 UNL     1       3.220   3.776   0.310  1.00  0.00     0.274 HD
ENDBRANCH  13  14
ENDBRANCH  12  13
ENDBRANCH   1  12
BRANCH   1  18
HETATM   18  C6  UNL     1       0.334   0.719  -1.382  1.00  0.00     0.134 C 
BRANCH  18  19
HETATM   19  C7  UNL     1      -1.039   0.450  -1.044  1.00  0.00     0.252 C 
HETATM   20  O2  UNL     1      -1.922   0.940  -1.832  1.00  0.00    -0.268 OA
HETATM   21  N6  UNL     1      -1.532  -0.293   0.042  1.00  0.00    -0.352 N 
ATOM     22  H6  UNL     1      -0.837  -0.695   0.671  1.00  0.00     0.163 HD
BRANCH  21  23
HETATM   23  C8  UNL     1      -2.919  -0.550   0.364  1.00  0.00     0.167 C 
BRANCH  23  24
HETATM   24  C9  UNL     1      -3.761   0.643   0.631  1.00  0.00     0.076 C 
BRANCH  24  25
HETATM   25  N7  UNL     1      -5.090   0.458   0.986  1.00  0.00    -0.381 N 
ATOM     26  H7  UNL     1      -5.333   0.708   1.945  1.00  0.00     0.160 HD
BRANCH  25  27
HETATM   27  C10 UNL     1      -6.117  -0.017   0.216  1.00  0.00     0.207 C 
HETATM   28  C11 UNL     1      -6.212  -1.386  -0.339  1.00  0.00     0.174 C 
HETATM   29  N8  UNL     1      -7.113  -0.731  -1.320  1.00  0.00    -0.143 NA
HETATM   30  N9  UNL     1      -6.260   0.407  -1.173  1.00  0.00    -0.122 NA
ENDBRANCH  25  27
ENDBRANCH  24  25
ENDBRANCH  23  24
ENDBRANCH  21  23
ENDBRANCH  18  19
ENDBRANCH   1  18
TORSDOF 13
