REMARK  15 active torsions:
REMARK  status: ('A' for Active; 'I' for Inactive)
REMARK    1  A    between atoms: N1_1  and  C1_5 
REMARK    2  A    between atoms: C1_5  and  C2_6 
REMARK    3  A    between atoms: C2_6  and  N2_7 
REMARK    4  A    between atoms: N2_7  and  C3_10 
REMARK    5  A    between atoms: C3_10  and  C4_11 
REMARK       I    between atoms: C4_11  and  N3_13 
REMARK    6  A    between atoms: N3_13  and  C5_15 
REMARK    7  A    between atoms: C5_15  and  C6_16 
REMARK    8  A    between atoms: C7_17  and  N4_18 
REMARK    9  A    between atoms: N4_18  and  N5_19 
REMARK   10  A    between atoms: C8_22  and  N6_23 
REMARK   11  A    between atoms: N6_23  and  C9_26 
REMARK   12  A    between atoms: C9_26  and  C10_27 
REMARK   13  A    between atoms: C10_27  and  N7_28 
REMARK       I    between atoms: N7_28  and  C11_30 
REMARK   14  A    between atoms: C11_30  and  C12_32 
REMARK   15  A    between atoms: C12_32  and  O3_33 
ROOT
HETATM    1  C6  UNL     1      -0.451  -0.319  -0.069  1.00  0.00     0.059 A 
HETATM    2  C7  UNL     1      -0.281  -1.341  -1.081  1.00  0.00     0.137 A 
HETATM    3  C8  UNL     1      -1.633  -0.631  -1.004  1.00  0.00     0.214 A 
ENDROOT
BRANCH   1   4
HETATM    4  C5  UNL     1       0.047   1.076  -0.091  1.00  0.00     0.131 C 
BRANCH   4   5
HETATM    5  N3  UNL     1       1.447   1.294  -0.140  1.00  0.00    -0.359 N 
HETATM    6  C4  UNL     1       2.317   0.862   0.895  1.00  0.00     0.243 C 
HETATM    7  O1  UNL     1       1.895   0.257   1.920  1.00  0.00    -0.272 OA
ATOM      8  H3  UNL     1       1.842   1.778  -0.946  1.00  0.00     0.162 HD
BRANCH   6   9
HETATM    9  C3  UNL     1       3.761   1.123   0.783  1.00  0.00     0.334 C 
BRANCH   9  10
HETATM   10  N2  UNL     1       4.500   0.627   1.923  1.00  0.00    -0.065 N 
ATOM     11  H22 UNL     1       4.342  -0.365   2.099  1.00  0.00     0.277 HD
ATOM     12  H21 UNL     1       4.143   0.977   2.812  1.00  0.00     0.277 HD
BRANCH  10  13
HETATM   13  C2  UNL     1       5.898   0.949   1.707  1.00  0.00     0.260 C 
BRANCH  13  14
HETATM   14  C1  UNL     1       6.532   0.184   0.592  1.00  0.00     0.257 C 
BRANCH  14  15
HETATM   15  N1  UNL     1       6.479  -1.234   0.852  1.00  0.00    -0.078 N 
ATOM     16  H13 UNL     1       6.892  -1.469   1.754  1.00  0.00     0.274 HD
ATOM     17  H12 UNL     1       5.526  -1.550   1.033  1.00  0.00     0.274 HD
ATOM     18  H11 UNL     1       6.912  -1.756   0.090  1.00  0.00     0.274 HD
ENDBRANCH  14  15
ENDBRANCH  13  14
ENDBRANCH  10  13
ENDBRANCH   9  10
ENDBRANCH   6   9
ENDBRANCH   4   5
ENDBRANCH   1   4
BRANCH   2  19
HETATM   19  N4  UNL     1       0.442  -1.295  -2.298  1.00  0.00    -0.141 NA
BRANCH  19  20
HETATM   20  N5  UNL     1       1.783  -1.177  -2.112  1.00  0.00    -0.348 N 
ATOM     21  H52 UNL     1       2.209  -1.128  -1.186  1.00  0.00     0.172 HD
ATOM     22  H51 UNL     1       2.304  -1.144  -2.988  1.00  0.00     0.172 HD
ENDBRANCH  19  20
ENDBRANCH   2  19
BRANCH   3  23
HETATM   23  N6  UNL     1      -2.755  -1.297  -0.381  1.00  0.00    -0.067 N 
ATOM     24  H62 UNL     1      -2.511  -2.241  -0.082  1.00  0.00     0.277 HD
ATOM     25  H61 UNL     1      -2.969  -0.894   0.531  1.00  0.00     0.277 HD
BRANCH  23  26
HETATM   26  C9  UNL     1      -3.920  -1.298  -1.250  1.00  0.00     0.252 C 
BRANCH  26  27
HETATM   27  C10 UNL     1      -4.435   0.100  -1.387  1.00  0.00     0.150 C 
BRANCH  27  28
HETATM   28  N7  UNL     1      -4.853   0.730  -0.181  1.00  0.00    -0.358 N 
HETATM   29  C11 UNL     1      -5.914   0.274   0.653  1.00  0.00     0.241 C 
HETATM   30  O2  UNL     1      -6.524  -0.767   0.287  1.00  0.00    -0.271 OA
ATOM     31  H7  UNL     1      -4.355   1.572   0.108  1.00  0.00     0.162 HD
BRANCH  29  32
HETATM   32  C12 UNL     1      -6.325   0.938   1.892  1.00  0.00     0.266 C 
BRANCH  32  33
HETATM   33  O3  UNL     1      -7.424   0.243   2.450  1.00  0.00    -0.392 OA
ATOM     34  H3  UNL     1      -7.691   0.674   3.254  1.00  0.00     0.210 HD
ENDBRANCH  32  33
ENDBRANCH  29  32
ENDBRANCH  27  28
ENDBRANCH  26  27
ENDBRANCH  23  26
ENDBRANCH   3  23
TORSDOF 15
