REMARK  13 active torsions:
REMARK  status: ('A' for Active; 'I' for Inactive)
REMARK    1  A    between atoms: N1_1  and  N2_4 
REMARK    2  A    between atoms: N2_4  and  C1_5 
REMARK    3  A    between atoms: C1_5  and  C2_6 
REMARK    4  A    between atoms: C3_7  and  N3_8 
REMARK    5  A    between atoms: N3_8  and  C4_10 
REMARK    6  A    between atoms: C5_12  and  N4_13 
REMARK    7  A    between atoms: C6_17  and  N5_18 
REMARK       I    between atoms: N5_18  and  C7_20 
REMARK    8  A    between atoms: C7_20  and  C8_22 
REMARK    9  A    between atoms: C8_22  and  N6_23 
REMARK   10  A    between atoms: C8_22  and  C9_27 
REMARK   11  A    between atoms: C9_27  and  C10_28 
REMARK   12  A    between atoms: C10_28  and  C11_29 
REMARK   13  A    between atoms: C11_29  and  N7_30 
ROOT
HETATM    1  C2  UNL     1      -3.244  -0.627   1.081  1.00  0.00     0.052 C 
HETATM    2  C3  UNL     1      -4.068  -1.762   0.442  1.00  0.00     0.123 C 
HETATM    3  C5  UNL     1      -2.982  -1.752  -0.637  1.00  0.00     0.229 C 
HETATM    4  C6  UNL     1      -2.086  -1.281   0.516  1.00  0.00     0.124 C 
ENDROOT
BRANCH   4   5
HETATM    5  N5  UNL     1      -0.920  -0.611   0.075  1.00  0.00    -0.352 N 
HETATM    6  C7  UNL     1       0.414  -0.931   0.264  1.00  0.00     0.248 C 
HETATM    7  O2  UNL     1       0.734  -1.946   0.911  1.00  0.00    -0.271 OA
ATOM      8  H5  UNL     1      -1.088   0.238  -0.465  1.00  0.00     0.163 HD
BRANCH   6   9
HETATM    9  C8  UNL     1       1.502  -0.097  -0.283  1.00  0.00     0.274 C 
BRANCH   9  10
HETATM   10  N6  UNL     1       0.919   0.976  -1.072  1.00  0.00    -0.067 N 
ATOM     11  H63 UNL     1       0.292   0.629  -1.798  1.00  0.00     0.275 HD
ATOM     12  H62 UNL     1       0.238   1.522  -0.544  1.00  0.00     0.275 HD
ATOM     13  H61 UNL     1       1.671   1.552  -1.450  1.00  0.00     0.275 HD
ENDBRANCH   9  10
BRANCH   9  14
HETATM   14  C9  UNL     1       2.337   0.512   0.799  1.00  0.00     0.044 C 
BRANCH  14  15
HETATM   15  C10 UNL     1       3.426   1.352   0.210  1.00  0.00     0.022 C 
BRANCH  15  16
HETATM   16  C11 UNL     1       4.369   0.587  -0.697  1.00  0.00     0.122 C 
BRANCH  16  17
HETATM   17  N7  UNL     1       5.408   1.485  -1.220  1.00  0.00    -0.367 N 
HETATM   18  C12 UNL     1       6.651   1.266  -0.924  1.00  0.00     0.196 C 
HETATM   19  N8  UNL     1       7.626   2.146  -1.440  1.00  0.00    -0.067 NA
HETATM   20  N9  UNL     1       7.055   0.187  -0.110  1.00  0.00    -0.067 NA
ATOM     21  H7  UNL     1       5.153   2.275  -1.812  1.00  0.00     0.161 HD
ENDBRANCH  16  17
ENDBRANCH  15  16
ENDBRANCH  14  15
ENDBRANCH   9  14
ENDBRANCH   6   9
ENDBRANCH   4   5
BRANCH   1  22
HETATM   22  C1  UNL     1      -3.753   0.679   0.619  1.00  0.00     0.143 C 
BRANCH  22  23
HETATM   23  N2  UNL     1      -2.978   1.764   1.219  1.00  0.00    -0.148 NA
BRANCH  23  24
HETATM   24  N1  UNL     1      -3.426   3.015   0.809  1.00  0.00    -0.348 N 
ATOM     25  H12 UNL     1      -4.206   3.144   0.164  1.00  0.00     0.172 HD
ATOM     26  H11 UNL     1      -2.885   3.772   1.228  1.00  0.00     0.172 HD
ENDBRANCH  23  24
ENDBRANCH  22  23
ENDBRANCH   1  22
BRANCH   3  27
HETATM   27  N4  UNL     1      -2.608  -3.061  -1.108  1.00  0.00    -0.071 N 
ATOM     28  H43 UNL     1      -2.331  -3.656  -0.327  1.00  0.00     0.274 HD
ATOM     29  H42 UNL     1      -3.429  -3.572  -1.432  1.00  0.00     0.274 HD
ATOM     30  H41 UNL     1      -1.884  -3.054  -1.827  1.00  0.00     0.274 HD
ENDBRANCH   3  27
BRANCH   2  31
HETATM   31  N3  UNL     1      -5.330  -1.383  -0.073  1.00  0.00    -0.361 N 
ATOM     32  H3  UNL     1      -5.411  -0.545  -0.649  1.00  0.00     0.162 HD
BRANCH  31  33
HETATM   33  C4  UNL     1      -6.477  -2.156   0.205  1.00  0.00     0.348 C 
HETATM   34  O1  UNL     1      -6.447  -3.197   0.906  1.00  0.00    -0.284 OA
ENDBRANCH  31  33
ENDBRANCH   2  31
TORSDOF 13
