REMARK  7 active torsions:
REMARK  status: ('A' for Active; 'I' for Inactive)
REMARK    1  A    between atoms: N3_4  and  N4_6 
REMARK       I    between atoms: C2_8  and  N6_10 
REMARK    2  A    between atoms: N6_10  and  C3_12 
REMARK    3  A    between atoms: C3_12  and  C4_13 
REMARK    4  A    between atoms: C4_13  and  N7_14 
REMARK    5  A    between atoms: N7_14  and  C5_16 
REMARK    6  A    between atoms: C5_16  and  C6_17 
REMARK    7  A    between atoms: C6_17  and  N8_18 
ROOT
HETATM    1  N7  UNL     1      -1.312  -0.944  -0.449  1.00  0.00    -0.399 N 
ATOM      2  H7  UNL     1      -1.962  -0.975  -1.234  1.00  0.00     0.158 HD
ENDROOT
BRANCH   1   3
HETATM    3  C4  UNL     1      -0.557  -2.083  -0.117  1.00  0.00     0.075 C 
BRANCH   3   4
HETATM    4  C3  UNL     1       0.914  -2.053  -0.300  1.00  0.00     0.166 C 
BRANCH   4   5
HETATM    5  N6  UNL     1       1.634  -1.118   0.516  1.00  0.00    -0.359 N 
HETATM    6  C2  UNL     1       3.050  -0.928   0.355  1.00  0.00     0.203 C 
HETATM    7  N4  UNL     1       3.472  -0.034  -0.445  1.00  0.00    -0.272 N 
HETATM    8  N5  UNL     1       3.910  -1.754   1.102  1.00  0.00    -0.062 NA
ATOM      9  H4  UNL     1       2.786   0.526  -0.951  1.00  0.00     0.189 HD
ATOM     10  H6  UNL     1       1.133  -0.579   1.222  1.00  0.00     0.162 HD
BRANCH   7  11
HETATM   11  N3  UNL     1       4.807   0.217  -0.663  1.00  0.00    -0.274 N 
HETATM   12  C1  UNL     1       5.461   1.240  -0.277  1.00  0.00     0.215 C 
HETATM   13  N1  UNL     1       4.756   2.250   0.463  1.00  0.00    -0.065 NA
HETATM   14  N2  UNL     1       6.842   1.428  -0.541  1.00  0.00    -0.065 NA
ATOM     15  H3  UNL     1       5.326  -0.488  -1.187  1.00  0.00     0.189 HD
ENDBRANCH   7  11
ENDBRANCH   4   5
ENDBRANCH   3   4
ENDBRANCH   1   3
BRANCH   1  16
HETATM   16  C5  UNL     1      -1.171   0.244   0.304  1.00  0.00     0.140 C 
BRANCH  16  17
HETATM   17  C6  UNL     1      -2.163   1.307  -0.141  1.00  0.00     0.172 C 
BRANCH  17  18
HETATM   18  N8  UNL     1      -3.544   0.915  -0.000  1.00  0.00    -0.247 N 
HETATM   19  N9  UNL     1      -4.257   0.336  -0.962  1.00  0.00    -0.246 N 
HETATM   20  C7  UNL     1      -5.548  -0.013  -0.823  1.00  0.00     0.342 A 
ATOM     21  H9  UNL     1      -3.800   0.146  -1.854  1.00  0.00     0.192 HD
HETATM   22  O1  UNL     1      -6.169  -0.561  -1.779  1.00  0.00    -0.245 OA
HETATM   23  N10 UNL     1      -6.225   0.202   0.318  1.00  0.00    -0.270 N 
HETATM   24  C8  UNL     1      -5.547   0.786   1.322  1.00  0.00     0.319 A 
ATOM     25  H10 UNL     1      -7.205  -0.065   0.418  1.00  0.00     0.174 HD
HETATM   26  O2  UNL     1      -6.175   0.992   2.399  1.00  0.00    -0.262 OA
HETATM   27  C9  UNL     1      -4.219   1.140   1.165  1.00  0.00     0.330 A 
HETATM   28  O3  UNL     1      -3.604   1.681   2.106  1.00  0.00    -0.260 OA
ENDBRANCH  17  18
ENDBRANCH  16  17
ENDBRANCH   1  16
TORSDOF 7
