REMARK  10 active torsions:
REMARK  status: ('A' for Active; 'I' for Inactive)
REMARK    1  A    between atoms: O1_3  and  C2_4 
REMARK    2  A    between atoms: C2_4  and  N4_20 
REMARK    3  A    between atoms: N2_5  and  C3_7 
REMARK    4  A    between atoms: C3_7  and  C4_8 
REMARK       I    between atoms: C4_8  and  N3_10 
REMARK    5  A    between atoms: N3_10  and  C5_12 
REMARK    6  A    between atoms: C5_12  and  C6_13 
REMARK    7  A    between atoms: C5_12  and  C7_15 
REMARK    8  A    between atoms: C7_15  and  O4_16 
REMARK    9  A    between atoms: C7_15  and  O5_18 
REMARK       I    between atoms: N4_20  and  C8_22 
REMARK       I    between atoms: C8_22  and  N6_26 
REMARK   10  A    between atoms: N6_26  and  N7_28 
ROOT
HETATM    1  N1  UNL     1       1.928  -0.433  -3.386  1.00  0.00    -0.163 NA
HETATM    2  C1  UNL     1       2.324  -0.739  -2.334  1.00  0.00     0.236 C 
HETATM    3  O1  UNL     1       2.815  -1.112  -1.096  1.00  0.00    -0.205 OA
ENDROOT
BRANCH   3   4
HETATM    4  C2  UNL     1       2.345  -0.474   0.034  1.00  0.00     0.249 C 
HETATM    5  N2  UNL     1       1.141  -0.161   0.142  1.00  0.00    -0.346 N 
ATOM      6  H2  UNL     1       0.927   0.304   1.024  1.00  0.00     0.163 HD
BRANCH   5   7
HETATM    7  C3  UNL     1       0.013  -0.311  -0.692  1.00  0.00     0.226 C 
BRANCH   7   8
HETATM    8  C4  UNL     1      -1.282  -0.266   0.087  1.00  0.00     0.236 C 
HETATM    9  O2  UNL     1      -1.303  -0.110   1.333  1.00  0.00    -0.272 OA
HETATM   10  N3  UNL     1      -2.525  -0.400  -0.585  1.00  0.00    -0.344 N 
ATOM     11  H3  UNL     1      -2.526  -0.527  -1.597  1.00  0.00     0.163 HD
BRANCH  10  12
HETATM   12  C5  UNL     1      -3.776  -0.364   0.106  1.00  0.00     0.200 C 
BRANCH  12  13
HETATM   13  C6  UNL     1      -4.556  -1.630  -0.085  1.00  0.00     0.261 C 
HETATM   14  O3  UNL     1      -4.084  -2.509  -0.765  1.00  0.00    -0.304 OA
ENDBRANCH  12  13
BRANCH  12  15
HETATM   15  C7  UNL     1      -4.634   0.762  -0.420  1.00  0.00     0.283 C 
BRANCH  15  16
HETATM   16  O4  UNL     1      -3.975   1.991  -0.232  1.00  0.00    -0.369 OA
ATOM     17  H4  UNL     1      -4.515   2.699  -0.563  1.00  0.00     0.212 HD
ENDBRANCH  15  16
BRANCH  15  18
HETATM   18  O5  UNL     1      -5.895   0.767   0.148  1.00  0.00    -0.369 OA
ATOM     19  H5  UNL     1      -6.435   1.475  -0.183  1.00  0.00     0.212 HD
ENDBRANCH  15  18
ENDBRANCH  12  15
ENDBRANCH  10  12
ENDBRANCH   7   8
ENDBRANCH   5   7
BRANCH   4  20
HETATM   20  N4  UNL     1       3.276  -0.188   1.068  1.00  0.00    -0.153 N 
HETATM   21  C8  UNL     1       4.080   0.974   0.999  1.00  0.00     0.694 C 
HETATM   22  N5  UNL     1       3.555   2.138   1.186  1.00  0.00    -0.233 N 
HETATM   23  N6  UNL     1       5.474   0.904   0.726  1.00  0.00    -0.118 N 
ATOM     24  H52 UNL     1       2.555   2.188   1.382  1.00  0.00     0.174 HD
ATOM     25  H51 UNL     1       4.135   2.976   1.136  1.00  0.00     0.174 HD
ATOM     26  H6  UNL     1       5.937   1.709   0.304  1.00  0.00     0.207 HD
ATOM     27  H4  UNL     1       3.365  -0.822   1.862  1.00  0.00     0.188 HD
BRANCH  23  28
HETATM   28  N7  UNL     1       6.228  -0.238   1.020  1.00  0.00    -0.235 N 
HETATM   29  N8  UNL     1       6.843  -0.887   0.119  1.00  0.00    -0.330 N 
ATOM     30  H82 UNL     1       6.775  -0.553  -0.842  1.00  0.00     0.178 HD
ATOM     31  H81 UNL     1       7.392  -1.719   0.333  1.00  0.00     0.178 HD
ATOM     32  H7  UNL     1       6.285  -0.558   1.987  1.00  0.00     0.208 HD
ENDBRANCH  23  28
ENDBRANCH   4  20
ENDBRANCH   3   4
TORSDOF 10
