REMARK  10 active torsions:
REMARK  status: ('A' for Active; 'I' for Inactive)
REMARK    1  A    between atoms: N1_1  and  C1_5 
REMARK    2  A    between atoms: C1_5  and  O1_6 
REMARK    3  A    between atoms: C1_5  and  C2_8 
REMARK    4  A    between atoms: C2_8  and  C3_9 
REMARK    5  A    between atoms: C3_9  and  C4_10 
REMARK    6  A    between atoms: C3_9  and  N2_12 
REMARK       I    between atoms: N2_12  and  C5_14 
REMARK    7  A    between atoms: C5_14  and  C6_16 
REMARK    8  A    between atoms: C6_16  and  N3_17 
REMARK    9  A    between atoms: C6_16  and  N4_21 
REMARK   10  A    between atoms: N4_21  and  C7_23 
ROOT
HETATM    1  C6  UNL     1      -1.111  -0.841  -1.096  1.00  0.00     0.376 C 
ENDROOT
BRANCH   1   2
HETATM    2  C5  UNL     1       0.373  -0.738  -1.026  1.00  0.00     0.268 C 
HETATM    3  N2  UNL     1       1.024   0.137  -0.127  1.00  0.00    -0.347 N 
ATOM      4  H2  UNL     1       0.457   0.716   0.493  1.00  0.00     0.163 HD
HETATM    5  O3  UNL     1       1.055  -1.457  -1.796  1.00  0.00    -0.269 OA
BRANCH   3   6
HETATM    6  C3  UNL     1       2.477   0.243  -0.053  1.00  0.00     0.150 C 
BRANCH   6   7
HETATM    7  C2  UNL     1       2.930   1.617  -0.451  1.00  0.00     0.093 C 
BRANCH   7   8
HETATM    8  C1  UNL     1       4.413   1.755  -0.442  1.00  0.00     0.318 C 
BRANCH   8   9
HETATM    9  N1  UNL     1       5.082   0.832  -1.323  1.00  0.00    -0.053 N 
ATOM     10  H13 UNL     1       6.089   0.992  -1.360  1.00  0.00     0.277 HD
ATOM     11  H12 UNL     1       5.102  -0.116  -0.948  1.00  0.00     0.277 HD
ATOM     12  H11 UNL     1       4.648   0.876  -2.245  1.00  0.00     0.277 HD
ENDBRANCH   8   9
BRANCH   8  13
HETATM   13  O1  UNL     1       5.000   1.696   0.805  1.00  0.00    -0.370 OA
ATOM     14  H1  UNL     1       4.559   2.305   1.386  1.00  0.00     0.212 HD
ENDBRANCH   8  13
ENDBRANCH   7   8
ENDBRANCH   6   7
BRANCH   6  15
HETATM   15  C4  UNL     1       2.882  -0.173   1.302  1.00  0.00     0.256 C 
HETATM   16  O2  UNL     1       2.050  -0.477   2.165  1.00  0.00    -0.305 OA
ENDBRANCH   6  15
ENDBRANCH   3   6
ENDBRANCH   1   2
BRANCH   1  17
HETATM   17  N3  UNL     1      -1.525  -1.805  -2.094  1.00  0.00    -0.049 N 
ATOM     18  H33 UNL     1      -1.121  -1.596  -3.007  1.00  0.00     0.277 HD
ATOM     19  H32 UNL     1      -1.094  -2.716  -1.936  1.00  0.00     0.277 HD
ATOM     20  H31 UNL     1      -2.541  -1.876  -2.142  1.00  0.00     0.277 HD
ENDBRANCH   1  17
BRANCH   1  21
HETATM   21  N4  UNL     1      -1.535  -1.341   0.188  1.00  0.00    -0.337 N 
ATOM     22  H4  UNL     1      -0.896  -1.922   0.732  1.00  0.00     0.163 HD
BRANCH  21  23
HETATM   23  C7  UNL     1      -2.676  -1.078   0.655  1.00  0.00     0.175 C 
HETATM   24  N5  UNL     1      -3.488  -0.318  -0.076  1.00  0.00    -0.305 N 
HETATM   25  C8  UNL     1      -4.433   0.549   0.353  1.00  0.00     0.248 C 
ATOM     26  H5  UNL     1      -3.384  -0.400  -1.087  1.00  0.00     0.170 HD
HETATM   27  O4  UNL     1      -4.875   1.321  -0.520  1.00  0.00    -0.268 OA
HETATM   28  C9  UNL     1      -4.959   0.671   1.644  1.00  0.00     0.091 C 
HETATM   29  C10 UNL     1      -4.685  -0.140   2.730  1.00  0.00     0.097 C 
HETATM   30  N6  UNL     1      -3.856  -1.196   2.769  1.00  0.00    -0.330 N 
HETATM   31  C11 UNL     1      -2.910  -1.648   1.912  1.00  0.00     0.289 C 
ATOM     32  H6  UNL     1      -3.959  -1.769   3.607  1.00  0.00     0.168 HD
HETATM   33  O5  UNL     1      -2.210  -2.625   2.261  1.00  0.00    -0.264 OA
ENDBRANCH  21  23
ENDBRANCH   1  21
TORSDOF 10
