REMARK  13 active torsions:
REMARK  status: ('A' for Active; 'I' for Inactive)
REMARK    1  A    between atoms: C1_4  and  C2_5 
REMARK    2  A    between atoms: C1_4  and  N3_10 
REMARK    3  A    between atoms: C2_5  and  N2_6 
REMARK    4  A    between atoms: N3_10  and  C3_12 
REMARK    5  A    between atoms: C3_12  and  C4_13 
REMARK    6  A    between atoms: C4_13  and  N4_14 
REMARK       I    between atoms: N4_14  and  C5_16 
REMARK    7  A    between atoms: C5_16  and  C6_18 
REMARK    8  A    between atoms: N7_21  and  C7_22 
REMARK    9  A    between atoms: C7_22  and  C8_23 
REMARK       I    between atoms: C8_23  and  N8_25 
REMARK   10  A    between atoms: N8_25  and  C9_27 
REMARK   11  A    between atoms: C9_27  and  C10_28 
REMARK   12  A    between atoms: C10_28  and  C11_29 
REMARK   13  A    between atoms: C11_29  and  N9_30 
ROOT
HETATM    1  N4  UNL     1       1.717  -0.536  -0.181  1.00  0.00    -0.357 N 
ATOM      2  H4  UNL     1       1.409  -0.695   0.778  1.00  0.00     0.162 HD
HETATM    3  C5  UNL     1       1.235  -1.404  -1.210  1.00  0.00     0.254 C 
HETATM    4  O1  UNL     1       1.643  -1.170  -2.391  1.00  0.00    -0.270 OA
ENDROOT
BRANCH   3   5
HETATM    5  C6  UNL     1       0.310  -2.518  -0.925  1.00  0.00     0.279 C 
HETATM    6  N5  UNL     1      -0.066  -3.299  -2.097  1.00  0.00    -0.100 NA
HETATM    7  N6  UNL     1      -1.428  -3.122  -1.813  1.00  0.00    -0.052 NA
HETATM    8  N7  UNL     1      -1.063  -2.068  -1.007  1.00  0.00    -0.179 NA
BRANCH   8   9
HETATM    9  C7  UNL     1      -1.751  -1.906   0.230  1.00  0.00     0.216 C 
BRANCH   9  10
HETATM   10  C8  UNL     1      -3.142  -1.460  -0.048  1.00  0.00     0.232 C 
HETATM   11  O2  UNL     1      -3.518  -1.293  -1.256  1.00  0.00    -0.272 OA
HETATM   12  N8  UNL     1      -4.048  -1.219   1.009  1.00  0.00    -0.360 N 
ATOM     13  H8  UNL     1      -3.719  -1.359   1.964  1.00  0.00     0.162 HD
BRANCH  12  14
HETATM   14  C9  UNL     1      -5.411  -0.786   0.817  1.00  0.00     0.124 C 
BRANCH  14  15
HETATM   15  C10 UNL     1      -5.568   0.517   0.116  1.00  0.00     0.047 C 
BRANCH  15  16
HETATM   16  C11 UNL     1      -4.904   1.662   0.840  1.00  0.00     0.231 C 
BRANCH  16  17
HETATM   17  N9  UNL     1      -5.078   2.911   0.131  1.00  0.00    -0.079 N 
ATOM     18  H93 UNL     1      -4.753   2.841  -0.833  1.00  0.00     0.274 HD
ATOM     19  H92 UNL     1      -6.063   3.104  -0.048  1.00  0.00     0.274 HD
ATOM     20  H91 UNL     1      -4.629   3.685   0.620  1.00  0.00     0.274 HD
ENDBRANCH  16  17
ENDBRANCH  15  16
ENDBRANCH  14  15
ENDBRANCH  12  14
ENDBRANCH   9  10
ENDBRANCH   8   9
ENDBRANCH   3   5
BRANCH   1  21
HETATM   21  C4  UNL     1       2.620   0.554  -0.447  1.00  0.00     0.142 C 
BRANCH  21  22
HETATM   22  C3  UNL     1       2.927   1.270   0.841  1.00  0.00     0.140 C 
BRANCH  22  23
HETATM   23  N3  UNL     1       3.837   2.357   0.549  1.00  0.00    -0.377 N 
ATOM     24  H3  UNL     1       3.517   3.321   0.640  1.00  0.00     0.160 HD
BRANCH  23  25
HETATM   25  C1  UNL     1       5.164   2.097   0.140  1.00  0.00     0.096 C 
HETATM   26  N1  UNL     1       5.633   2.641  -0.928  1.00  0.00    -0.388 N 
ATOM     27  H12 UNL     1       6.591   2.453  -1.223  1.00  0.00     0.157 HD
ATOM     28  H11 UNL     1       5.052   3.263  -1.490  1.00  0.00     0.157 HD
BRANCH  25  29
HETATM   29  C2  UNL     1       6.006   1.196   0.954  1.00  0.00     0.304 C 
BRANCH  29  30
HETATM   30  N2  UNL     1       7.332   1.089   0.343  1.00  0.00    -0.073 N 
ATOM     31  H23 UNL     1       7.285   0.797  -0.633  1.00  0.00     0.274 HD
ATOM     32  H22 UNL     1       7.767   2.001   0.201  1.00  0.00     0.274 HD
ATOM     33  H21 UNL     1       7.913   0.467   0.905  1.00  0.00     0.274 HD
ENDBRANCH  29  30
ENDBRANCH  25  29
ENDBRANCH  23  25
ENDBRANCH  22  23
ENDBRANCH  21  22
ENDBRANCH   1  21
TORSDOF 13
