REMARK  15 active torsions:
REMARK  status: ('A' for Active; 'I' for Inactive)
REMARK    1  A    between atoms: N2_4  and  N3_6 
REMARK       I    between atoms: N3_6  and  C1_8 
REMARK    2  A    between atoms: N5_10  and  C2_12 
REMARK    3  A    between atoms: C2_12  and  C3_13 
REMARK    4  A    between atoms: C3_13  and  C4_14 
REMARK    5  A    between atoms: C4_14  and  C5_15 
REMARK    6  A    between atoms: C5_15  and  N6_16 
REMARK    7  A    between atoms: C5_15  and  C6_20 
REMARK    8  A    between atoms: C6_20  and  C7_21 
REMARK    9  A    between atoms: C7_21  and  N8_25 
REMARK   10  A    between atoms: N8_25  and  N9_27 
REMARK       I    between atoms: N9_27  and  C8_29 
REMARK   11  A    between atoms: C8_29  and  C9_31 
REMARK   12  A    between atoms: C9_31  and  O2_32 
REMARK   13  A    between atoms: O2_32  and  C10_33 
REMARK   14  A    between atoms: C10_33  and  C11_34 
REMARK   15  A    between atoms: C11_34  and  N10_35 
ROOT
HETATM    1  C5  UNL     1      -1.040  -0.448   0.233  1.00  0.00     0.190 C 
ENDROOT
BRANCH   1   2
HETATM    2  C4  UNL     1      -2.198  -0.518  -0.720  1.00  0.00     0.035 C 
BRANCH   2   3
HETATM    3  C3  UNL     1      -2.993   0.741  -0.839  1.00  0.00     0.022 C 
BRANCH   3   4
HETATM    4  C2  UNL     1      -3.619   1.145   0.487  1.00  0.00     0.122 C 
BRANCH   4   5
HETATM    5  N5  UNL     1      -4.496   0.126   0.986  1.00  0.00    -0.363 N 
HETATM    6  C1  UNL     1      -5.739   0.043   0.703  1.00  0.00     0.204 C 
HETATM    7  N3  UNL     1      -6.409   0.956  -0.144  1.00  0.00    -0.260 N 
HETATM    8  N4  UNL     1      -6.493  -1.021   1.265  1.00  0.00    -0.062 NA
ATOM      9  H3  UNL     1      -6.586   1.917   0.147  1.00  0.00     0.191 HD
ATOM     10  H5  UNL     1      -4.101  -0.579   1.608  1.00  0.00     0.162 HD
BRANCH   7  11
HETATM   11  N2  UNL     1      -6.822   0.485  -1.406  1.00  0.00    -0.247 N 
HETATM   12  N1  UNL     1      -8.029   0.398  -1.739  1.00  0.00    -0.331 N 
ATOM     13  H12 UNL     1      -8.729   0.685  -1.054  1.00  0.00     0.178 HD
ATOM     14  H11 UNL     1      -8.328   0.057  -2.653  1.00  0.00     0.178 HD
ATOM     15  H2  UNL     1      -6.109   0.202  -2.078  1.00  0.00     0.207 HD
ENDBRANCH   7  11
ENDBRANCH   4   5
ENDBRANCH   3   4
ENDBRANCH   2   3
ENDBRANCH   1   2
BRANCH   1  16
HETATM   16  N6  UNL     1      -0.370  -1.748   0.264  1.00  0.00    -0.075 N 
ATOM     17  H63 UNL     1      -1.011  -2.510   0.486  1.00  0.00     0.274 HD
ATOM     18  H62 UNL     1      -0.090  -2.063  -0.665  1.00  0.00     0.274 HD
ATOM     19  H61 UNL     1       0.417  -1.700   0.911  1.00  0.00     0.274 HD
ENDBRANCH   1  16
BRANCH   1  20
HETATM   20  C6  UNL     1      -0.051   0.600  -0.298  1.00  0.00     0.110 C 
BRANCH  20  21
HETATM   21  C7  UNL     1       1.140   0.740   0.562  1.00  0.00     0.091 C 
HETATM   22  N7  UNL     1       1.704   1.900   0.744  1.00  0.00    -0.388 N 
ATOM     23  H72 UNL     1       1.294   2.708   0.275  1.00  0.00     0.157 HD
ATOM     24  H71 UNL     1       2.527   1.997   1.338  1.00  0.00     0.157 HD
BRANCH  21  25
HETATM   25  N8  UNL     1       1.700  -0.365   1.203  1.00  0.00    -0.287 N 
ATOM     26  H8  UNL     1       1.198  -0.773   1.992  1.00  0.00     0.188 HD
BRANCH  25  27
HETATM   27  N9  UNL     1       2.895  -0.932   0.825  1.00  0.00    -0.267 N 
HETATM   28  C8  UNL     1       3.334  -1.171  -0.479  1.00  0.00     0.259 C 
HETATM   29  O1  UNL     1       2.601  -0.862  -1.485  1.00  0.00    -0.269 OA
ATOM     30  H9  UNL     1       3.527  -1.207   1.577  1.00  0.00     0.190 HD
BRANCH  28  31
HETATM   31  C9  UNL     1       4.637  -1.792  -0.758  1.00  0.00     0.272 C 
BRANCH  31  32
HETATM   32  O2  UNL     1       5.606  -1.689   0.169  1.00  0.00    -0.380 OA
BRANCH  32  33
HETATM   33  C10 UNL     1       6.291  -0.545   0.343  1.00  0.00     0.195 C 
BRANCH  33  34
HETATM   34  C11 UNL     1       5.615   0.732   0.700  1.00  0.00     0.255 C 
BRANCH  34  35
HETATM   35  N10 UNL     1       6.711   1.738   0.784  1.00  0.00    -0.077 N 
ATOM     36 3H10 UNL     1       7.464   1.477   1.421  1.00  0.00     0.274 HD
ATOM     37 2H10 UNL     1       7.285   1.795  -0.057  1.00  0.00     0.274 HD
ATOM     38 1H10 UNL     1       6.248   2.613   1.029  1.00  0.00     0.274 HD
ENDBRANCH  34  35
ENDBRANCH  33  34
ENDBRANCH  32  33
ENDBRANCH  31  32
ENDBRANCH  28  31
ENDBRANCH  25  27
ENDBRANCH  21  25
ENDBRANCH  20  21
ENDBRANCH   1  20
TORSDOF 15
