REMARK  14 active torsions:
REMARK  status: ('A' for Active; 'I' for Inactive)
REMARK    1  A    between atoms: N2_4  and  N3_6 
REMARK       I    between atoms: N3_6  and  C1_8 
REMARK    2  A    between atoms: N5_10  and  C2_12 
REMARK    3  A    between atoms: C2_12  and  C3_13 
REMARK    4  A    between atoms: C3_13  and  N6_14 
REMARK    5  A    between atoms: N6_14  and  C4_17 
REMARK    6  A    between atoms: C4_17  and  C5_18 
REMARK    7  A    between atoms: C5_18  and  O1_19 
REMARK    8  A    between atoms: O1_19  and  C6_20 
REMARK    9  A    between atoms: C6_20  and  C7_21 
REMARK   10  A    between atoms: C7_21  and  N7_22 
REMARK   11  A    between atoms: C7_21  and  C8_26 
REMARK   12  A    between atoms: C7_21  and  C9_29 
REMARK   13  A    between atoms: C9_29  and  N9_30 
REMARK   14  A    between atoms: C9_29  and  C10_34 
ROOT
HETATM    1  C5  UNL     1      -0.612   0.664   1.121  1.00  0.00     0.195 C 
ENDROOT
BRANCH   1   2
HETATM    2  C4  UNL     1       0.342   0.512  -0.011  1.00  0.00     0.258 C 
BRANCH   2   3
HETATM    3  N6  UNL     1       1.746   0.505   0.449  1.00  0.00    -0.072 N 
ATOM      4  H62 UNL     1       1.961  -0.234   1.118  1.00  0.00     0.277 HD
ATOM      5  H61 UNL     1       1.987   1.285   1.060  1.00  0.00     0.277 HD
BRANCH   3   6
HETATM    6  C3  UNL     1       2.525   0.445  -0.763  1.00  0.00     0.252 C 
BRANCH   6   7
HETATM    7  C2  UNL     1       4.013   0.353  -0.521  1.00  0.00     0.150 C 
BRANCH   7   8
HETATM    8  N5  UNL     1       4.385  -0.811   0.205  1.00  0.00    -0.362 N 
HETATM    9  C1  UNL     1       5.613  -1.143   0.379  1.00  0.00     0.204 C 
HETATM   10  N3  UNL     1       6.727  -0.407  -0.118  1.00  0.00    -0.260 N 
HETATM   11  N4  UNL     1       5.845  -2.344   1.127  1.00  0.00    -0.062 NA
ATOM     12  H3  UNL     1       7.467  -0.909  -0.609  1.00  0.00     0.191 HD
ATOM     13  H5  UNL     1       3.653  -1.401   0.600  1.00  0.00     0.162 HD
BRANCH  10  14
HETATM   14  N2  UNL     1       6.842   0.961   0.040  1.00  0.00    -0.247 N 
HETATM   15  N1  UNL     1       7.236   1.475   1.131  1.00  0.00    -0.331 N 
ATOM     16  H12 UNL     1       7.470   0.848   1.901  1.00  0.00     0.178 HD
ATOM     17  H11 UNL     1       7.321   2.485   1.248  1.00  0.00     0.178 HD
ATOM     18  H2  UNL     1       6.604   1.573  -0.740  1.00  0.00     0.207 HD
ENDBRANCH  10  14
ENDBRANCH   7   8
ENDBRANCH   6   7
ENDBRANCH   3   6
ENDBRANCH   2   3
ENDBRANCH   1   2
BRANCH   1  19
HETATM   19  O1  UNL     1      -1.925   0.671   0.703  1.00  0.00    -0.386 OA
BRANCH  19  20
HETATM   20  C6  UNL     1      -2.299  -0.510   0.130  1.00  0.00     0.218 C 
BRANCH  20  21
HETATM   21  C7  UNL     1      -3.717  -0.522  -0.357  1.00  0.00     0.255 C 
BRANCH  21  22
HETATM   22  N7  UNL     1      -4.036  -1.850  -0.920  1.00  0.00    -0.057 N 
ATOM     23  H73 UNL     1      -3.377  -2.128  -1.647  1.00  0.00     0.276 HD
ATOM     24  H72 UNL     1      -3.850  -2.603  -0.258  1.00  0.00     0.276 HD
ATOM     25  H71 UNL     1      -5.001  -1.858  -1.251  1.00  0.00     0.276 HD
ENDBRANCH  21  22
BRANCH  21  26
HETATM   26  C8  UNL     1      -3.890   0.484  -1.425  1.00  0.00     0.272 C 
HETATM   27  N8  UNL     1      -3.632   1.857  -1.207  1.00  0.00    -0.060 NA
HETATM   28  O2  UNL     1      -4.275   0.105  -2.556  1.00  0.00    -0.274 OA
ENDBRANCH  21  26
BRANCH  21  29
HETATM   29  C9  UNL     1      -4.749  -0.270   0.713  1.00  0.00     0.291 C 
BRANCH  29  30
HETATM   30  N9  UNL     1      -4.546   1.036   1.345  1.00  0.00    -0.066 N 
ATOM     31  H93 UNL     1      -3.598   1.134   1.707  1.00  0.00     0.275 HD
ATOM     32  H92 UNL     1      -4.528   1.788   0.656  1.00  0.00     0.275 HD
ATOM     33  H91 UNL     1      -5.244   1.206   2.069  1.00  0.00     0.275 HD
ENDBRANCH  29  30
BRANCH  29  34
HETATM   34  C10 UNL     1      -6.118  -0.265   0.132  1.00  0.00     0.267 C 
HETATM   35  O3  UNL     1      -6.809   0.719   0.214  1.00  0.00    -0.305 OA
ENDBRANCH  29  34
ENDBRANCH  21  29
ENDBRANCH  20  21
ENDBRANCH  19  20
ENDBRANCH   1  19
TORSDOF 14
