REMARK  13 active torsions:
REMARK  status: ('A' for Active; 'I' for Inactive)
REMARK    1  A    between atoms: N1_1  and  C1_5 
REMARK    2  A    between atoms: C1_5  and  C2_6 
REMARK    3  A    between atoms: C2_6  and  N2_7 
REMARK    4  A    between atoms: N2_7  and  C3_9 
REMARK    5  A    between atoms: C3_9  and  C4_10 
REMARK    6  A    between atoms: C5_11  and  O1_12 
REMARK    7  A    between atoms: C6_14  and  N3_15 
REMARK    8  A    between atoms: C7_19  and  N4_20 
REMARK       I    between atoms: N4_20  and  C8_22 
REMARK    9  A    between atoms: C8_22  and  C9_24 
REMARK   10  A    between atoms: C9_24  and  N5_25 
REMARK   11  A    between atoms: N5_25  and  C10_27 
REMARK   12  A    between atoms: C10_27  and  C11_28 
REMARK   13  A    between atoms: C11_28  and  N6_29 
ROOT
HETATM    1  C4  UNL     1      -2.231   1.173   0.371  1.00  0.00     0.080 C 
HETATM    2  C5  UNL     1      -1.732   2.110   1.453  1.00  0.00     0.161 C 
HETATM    3  C6  UNL     1      -0.726   2.620   0.407  1.00  0.00     0.236 C 
HETATM    4  C7  UNL     1      -0.801   1.238  -0.205  1.00  0.00     0.129 C 
ENDROOT
BRANCH   4   5
HETATM    5  N4  UNL     1       0.072   0.274   0.411  1.00  0.00    -0.349 N 
HETATM    6  C8  UNL     1       0.750  -0.694  -0.350  1.00  0.00     0.257 C 
HETATM    7  O2  UNL     1       0.593  -0.722  -1.592  1.00  0.00    -0.267 OA
ATOM      8  H4  UNL     1       0.202   0.294   1.423  1.00  0.00     0.163 HD
BRANCH   6   9
HETATM    9  C9  UNL     1       1.663  -1.706   0.269  1.00  0.00     0.162 C 
BRANCH   9  10
HETATM   10  N5  UNL     1       2.252  -2.598  -0.646  1.00  0.00    -0.373 N 
ATOM     11  H5  UNL     1       1.986  -3.583  -0.632  1.00  0.00     0.164 HD
BRANCH  10  12
HETATM   12  C10 UNL     1       3.202  -2.150  -1.579  1.00  0.00     0.080 C 
BRANCH  12  13
HETATM   13  C11 UNL     1       4.543  -1.726  -1.045  1.00  0.00     0.166 C 
BRANCH  13  14
HETATM   14  N6  UNL     1       4.504  -0.638  -0.134  1.00  0.00    -0.362 N 
HETATM   15  C12 UNL     1       5.563   0.101   0.031  1.00  0.00     0.197 C 
HETATM   16  N7  UNL     1       5.515   1.181   0.937  1.00  0.00    -0.067 NA
HETATM   17  N8  UNL     1       6.741  -0.184  -0.695  1.00  0.00    -0.067 NA
ATOM     18  H6  UNL     1       3.651  -0.436   0.388  1.00  0.00     0.162 HD
ENDBRANCH  13  14
ENDBRANCH  12  13
ENDBRANCH  10  12
ENDBRANCH   9  10
ENDBRANCH   6   9
ENDBRANCH   4   5
BRANCH   1  19
HETATM   19  C3  UNL     1      -2.595  -0.172   0.918  1.00  0.00     0.069 C 
BRANCH  19  20
HETATM   20  N2  UNL     1      -3.067  -1.109  -0.019  1.00  0.00    -0.380 N 
ATOM     21  H2  UNL     1      -2.510  -1.932  -0.251  1.00  0.00     0.164 HD
BRANCH  20  22
HETATM   22  C2  UNL     1      -4.316  -0.899  -0.633  1.00  0.00     0.087 C 
BRANCH  22  23
HETATM   23  C1  UNL     1      -5.512  -1.022   0.296  1.00  0.00     0.274 C 
BRANCH  23  24
HETATM   24  N1  UNL     1      -6.714  -0.779  -0.511  1.00  0.00    -0.075 N 
ATOM     25  H13 UNL     1      -6.686   0.109  -1.012  1.00  0.00     0.274 HD
ATOM     26  H12 UNL     1      -6.777  -1.388  -1.327  1.00  0.00     0.274 HD
ATOM     27  H11 UNL     1      -7.517  -0.862   0.113  1.00  0.00     0.274 HD
ENDBRANCH  23  24
ENDBRANCH  22  23
ENDBRANCH  20  22
ENDBRANCH  19  20
ENDBRANCH   1  19
BRANCH   3  28
HETATM   28  N3  UNL     1      -1.333   3.670  -0.358  1.00  0.00    -0.071 N 
ATOM     29  H33 UNL     1      -2.216   3.382  -0.779  1.00  0.00     0.274 HD
ATOM     30  H32 UNL     1      -1.693   4.421   0.232  1.00  0.00     0.274 HD
ATOM     31  H31 UNL     1      -0.666   4.008  -1.052  1.00  0.00     0.274 HD
ENDBRANCH   3  28
BRANCH   2  32
HETATM   32  O1  UNL     1      -2.629   3.091   1.799  1.00  0.00    -0.393 OA
ATOM     33  H1  UNL     1      -2.316   3.678   2.477  1.00  0.00     0.210 HD
ENDBRANCH   2  32
TORSDOF 13
