REMARK  13 active torsions:
REMARK  status: ('A' for Active; 'I' for Inactive)
REMARK       I    between atoms: C2_2  and  N1_4 
REMARK    1  A    between atoms: N1_4  and  C3_6 
REMARK    2  A    between atoms: C3_6  and  C4_7 
REMARK    3  A    between atoms: C3_6  and  C6_16 
REMARK    4  A    between atoms: C3_6  and  C12_30 
REMARK    5  A    between atoms: C4_7  and  N2_8 
REMARK    6  A    between atoms: N2_8  and  C5_11 
REMARK    7  A    between atoms: C5_11  and  N3_12 
REMARK    8  A    between atoms: N3_12  and  N4_13 
REMARK    9  A    between atoms: C6_16  and  O2_17 
REMARK   10  A    between atoms: O2_17  and  C7_18 
REMARK   11  A    between atoms: C9_20  and  N5_21 
REMARK   12  A    between atoms: C10_25  and  N6_26 
REMARK   13  A    between atoms: N6_26  and  C11_28 
ROOT
HETATM    1  C3  UNL     1      -0.855  -1.125   0.079  1.00  0.00     0.157 C 
ENDROOT
BRANCH   1   2
HETATM    2  N1  UNL     1      -1.220  -1.157  -1.303  1.00  0.00    -0.341 N 
HETATM    3  C2  UNL     1      -1.085  -2.243  -2.197  1.00  0.00     0.214 C 
HETATM    4  C1  UNL     1      -1.502  -2.152  -3.624  1.00  0.00     0.117 C 
HETATM    5  O1  UNL     1      -0.609  -3.349  -1.854  1.00  0.00    -0.274 OA
ATOM      6  H1  UNL     1      -1.622  -0.301  -1.686  1.00  0.00     0.163 HD
ENDBRANCH   1   2
BRANCH   1   7
HETATM    7  C4  UNL     1      -1.197   0.234   0.641  1.00  0.00     0.276 C 
BRANCH   7   8
HETATM    8  N2  UNL     1      -2.653   0.414   0.522  1.00  0.00    -0.058 N 
ATOM      9  H22 UNL     1      -2.976   0.278  -0.436  1.00  0.00     0.278 HD
ATOM     10  H21 UNL     1      -3.168  -0.348   0.964  1.00  0.00     0.278 HD
BRANCH   8  11
HETATM   11  C5  UNL     1      -3.046   1.709   1.047  1.00  0.00     0.365 C 
BRANCH  11  12
HETATM   12  N3  UNL     1      -4.458   1.921   0.948  1.00  0.00    -0.121 NA
BRANCH  12  13
HETATM   13  N4  UNL     1      -4.780   3.180   1.467  1.00  0.00    -0.347 N 
ATOM     14  H42 UNL     1      -4.101   3.835   1.853  1.00  0.00     0.172 HD
ATOM     15  H41 UNL     1      -5.786   3.331   1.396  1.00  0.00     0.172 HD
ENDBRANCH  12  13
ENDBRANCH  11  12
ENDBRANCH   8  11
ENDBRANCH   7   8
ENDBRANCH   1   7
BRANCH   1  16
HETATM   16  C6  UNL     1       0.530  -1.554   0.407  1.00  0.00     0.210 C 
BRANCH  16  17
HETATM   17  O2  UNL     1       1.532  -0.890  -0.140  1.00  0.00    -0.381 OA
BRANCH  17  18
HETATM   18  C7  UNL     1       1.886   0.376   0.124  1.00  0.00     0.148 C 
HETATM   19  C8  UNL     1       2.126   1.126  -1.200  1.00  0.00     0.069 C 
HETATM   20  C9  UNL     1       3.508   0.513  -1.192  1.00  0.00     0.211 C 
HETATM   21  C10 UNL     1       3.426   0.532   0.318  1.00  0.00     0.143 C 
BRANCH  20  22
HETATM   22  N5  UNL     1       3.555  -0.850  -1.674  1.00  0.00    -0.073 N 
ATOM     23  H53 UNL     1       2.902  -1.435  -1.153  1.00  0.00     0.274 HD
ATOM     24  H52 UNL     1       3.142  -0.914  -2.604  1.00  0.00     0.274 HD
ATOM     25  H51 UNL     1       4.487  -1.264  -1.669  1.00  0.00     0.274 HD
ENDBRANCH  20  22
BRANCH  21  26
HETATM   26  N6  UNL     1       3.739   1.836   0.830  1.00  0.00    -0.359 N 
ATOM     27  H6  UNL     1       3.355   2.680   0.404  1.00  0.00     0.162 HD
BRANCH  26  28
HETATM   28  C11 UNL     1       4.610   1.904   1.960  1.00  0.00     0.348 C 
HETATM   29  O3  UNL     1       5.101   0.874   2.507  1.00  0.00    -0.284 OA
ENDBRANCH  26  28
ENDBRANCH  21  26
ENDBRANCH  17  18
ENDBRANCH  16  17
ENDBRANCH   1  16
BRANCH   1  30
HETATM   30  C12 UNL     1      -1.792  -2.139   0.767  1.00  0.00     0.263 C 
HETATM   31  N7  UNL     1      -1.675  -2.347   2.158  1.00  0.00    -0.060 NA
HETATM   32  O4  UNL     1      -2.629  -2.754   0.107  1.00  0.00    -0.274 OA
ENDBRANCH   1  30
TORSDOF 13
