REMARK  12 active torsions:
REMARK  status: ('A' for Active; 'I' for Inactive)
REMARK    1  A    between atoms: N1_1  and  C1_5 
REMARK    2  A    between atoms: C1_5  and  C2_6 
REMARK    3  A    between atoms: C2_6  and  N2_7 
REMARK       I    between atoms: N2_7  and  C3_9 
REMARK    4  A    between atoms: C3_9  and  C4_11 
REMARK    5  A    between atoms: C7_17  and  C8_18 
REMARK       I    between atoms: C8_18  and  N4_20 
REMARK    6  A    between atoms: N4_20  and  C9_22 
REMARK    7  A    between atoms: C9_22  and  C10_23 
REMARK       I    between atoms: C10_23  and  N5_25 
REMARK    8  A    between atoms: N5_25  and  C11_27 
REMARK    9  A    between atoms: C11_27  and  C12_28 
REMARK   10  A    between atoms: C12_28  and  N6_29 
REMARK   11  A    between atoms: N6_29  and  C13_32 
REMARK   12  A    between atoms: C13_32  and  N7_33 
ROOT
HETATM    1  C8  UNL     1       1.077   0.484  -2.177  1.00  0.00     0.224 C 
HETATM    2  O2  UNL     1       0.892  -0.637  -1.658  1.00  0.00    -0.273 OA
HETATM    3  N4  UNL     1      -0.083   1.262  -2.460  1.00  0.00    -0.352 N 
ATOM      4  H4  UNL     1       0.049   2.178  -2.889  1.00  0.00     0.162 HD
ENDROOT
BRANCH   1   5
HETATM    5  C7  UNL     1       2.376   1.032  -2.502  1.00  0.00     0.119 C 
HETATM    6  C4  UNL     1       3.587   0.239  -2.224  1.00  0.00     0.289 C 
HETATM    7  N3  UNL     1       4.639   1.266  -2.416  1.00  0.00    -0.061 N 
HETATM    8  C5  UNL     1       4.132   2.485  -1.871  1.00  0.00     0.234 C 
ATOM      9  H32 UNL     1       5.541   0.995  -2.024  1.00  0.00     0.278 HD
ATOM     10  H31 UNL     1       4.941   1.355  -3.386  1.00  0.00     0.278 HD
HETATM   11  C6  UNL     1       2.633   2.390  -1.885  1.00  0.00     0.044 C 
BRANCH   6  12
HETATM   12  C3  UNL     1       3.763  -0.248  -0.843  1.00  0.00     0.249 C 
HETATM   13  N2  UNL     1       3.509  -1.598  -0.550  1.00  0.00    -0.358 N 
ATOM     14  H2  UNL     1       3.222  -2.166  -1.347  1.00  0.00     0.162 HD
HETATM   15  O1  UNL     1       4.135   0.528   0.058  1.00  0.00    -0.271 OA
BRANCH  13  16
HETATM   16  C2  UNL     1       3.590  -2.293   0.686  1.00  0.00     0.150 C 
BRANCH  16  17
HETATM   17  C1  UNL     1       2.680  -1.895   1.786  1.00  0.00     0.249 C 
BRANCH  17  18
HETATM   18  N1  UNL     1       2.771  -0.570   2.289  1.00  0.00    -0.078 N 
ATOM     19  H13 UNL     1       3.734  -0.387   2.571  1.00  0.00     0.274 HD
ATOM     20  H12 UNL     1       2.666   0.087   1.516  1.00  0.00     0.274 HD
ATOM     21  H11 UNL     1       2.145  -0.296   3.046  1.00  0.00     0.274 HD
ENDBRANCH  17  18
ENDBRANCH  16  17
ENDBRANCH  13  16
ENDBRANCH   6  12
ENDBRANCH   1   5
BRANCH   3  22
HETATM   22  C9  UNL     1      -1.417   0.840  -2.181  1.00  0.00     0.225 C 
BRANCH  22  23
HETATM   23  C10 UNL     1      -1.679   0.608  -0.739  1.00  0.00     0.235 C 
HETATM   24  O3  UNL     1      -0.782   0.795   0.113  1.00  0.00    -0.272 OA
HETATM   25  N5  UNL     1      -2.949   0.171  -0.293  1.00  0.00    -0.358 N 
ATOM     26  H5  UNL     1      -3.700   0.010  -0.965  1.00  0.00     0.162 HD
BRANCH  25  27
HETATM   27  C11 UNL     1      -3.178  -0.046   1.112  1.00  0.00     0.150 C 
BRANCH  27  28
HETATM   28  C12 UNL     1      -4.567  -0.504   1.421  1.00  0.00     0.253 C 
BRANCH  28  29
HETATM   29  N6  UNL     1      -4.672  -0.685   2.842  1.00  0.00    -0.050 N 
ATOM     30  H62 UNL     1      -3.951  -1.316   3.192  1.00  0.00     0.279 HD
ATOM     31  H61 UNL     1      -4.402   0.159   3.346  1.00  0.00     0.279 HD
BRANCH  29  32
HETATM   32  C13 UNL     1      -6.006  -1.133   3.228  1.00  0.00     0.460 C 
BRANCH  32  33
HETATM   33  N7  UNL     1      -6.104  -1.310   4.656  1.00  0.00    -0.056 N 
ATOM     34  H73 UNL     1      -5.381  -1.939   5.006  1.00  0.00     0.276 HD
ATOM     35  H72 UNL     1      -5.832  -0.465   5.158  1.00  0.00     0.276 HD
ATOM     36  H71 UNL     1      -7.036  -1.623   4.926  1.00  0.00     0.276 HD
ENDBRANCH  32  33
ENDBRANCH  29  32
ENDBRANCH  28  29
ENDBRANCH  27  28
ENDBRANCH  25  27
ENDBRANCH  22  23
ENDBRANCH   3  22
TORSDOF 12
