REMARK  15 active torsions:
REMARK  status: ('A' for Active; 'I' for Inactive)
REMARK    1  A    between atoms: C2_7  and  C3_8 
REMARK    2  A    between atoms: C3_8  and  C4_9 
REMARK    3  A    between atoms: C4_9  and  N4_10 
REMARK    4  A    between atoms: C4_9  and  N5_14 
REMARK    5  A    between atoms: N5_14  and  C5_16 
REMARK    6  A    between atoms: C5_16  and  C6_17 
REMARK    7  A    between atoms: C6_17  and  N6_18 
REMARK    8  A    between atoms: N6_18  and  C7_20 
REMARK    9  A    between atoms: C7_20  and  C8_21 
REMARK   10  A    between atoms: C8_21  and  O1_22 
REMARK   11  A    between atoms: O1_22  and  N7_23 
REMARK       I    between atoms: N7_23  and  C9_25 
REMARK   12  A    between atoms: C9_25  and  C10_27 
REMARK   13  A    between atoms: C10_27  and  N8_28 
REMARK   14  A    between atoms: C10_27  and  C11_32 
REMARK   15  A    between atoms: C11_32  and  N9_33 
ROOT
HETATM    1  N6  UNL     1      -0.245  -0.696   0.585  1.00  0.00    -0.418 N 
ATOM      2  H6  UNL     1      -0.115  -1.128   1.500  1.00  0.00     0.153 HD
ENDROOT
BRANCH   1   3
HETATM    3  C6  UNL     1       0.078  -1.400  -0.625  1.00  0.00     0.133 C 
BRANCH   3   4
HETATM    4  C5  UNL     1       1.404  -0.711  -1.095  1.00  0.00     0.135 C 
BRANCH   4   5
HETATM    5  N5  UNL     1       2.290  -0.909  -0.039  1.00  0.00    -0.394 N 
ATOM      6  H5  UNL     1       1.959  -1.480   0.739  1.00  0.00     0.155 HD
BRANCH   5   7
HETATM    7  C4  UNL     1       3.568  -0.409   0.057  1.00  0.00     0.284 C 
BRANCH   7   8
HETATM    8  C3  UNL     1       4.630  -0.805  -0.924  1.00  0.00     0.133 C 
BRANCH   8   9
HETATM    9  C2  UNL     1       5.920  -0.416  -0.242  1.00  0.00     0.118 A 
HETATM   10  N1  UNL     1       6.699   0.640  -0.155  1.00  0.00    -0.269 N 
HETATM   11  C1  UNL     1       6.675   2.003  -0.702  1.00  0.00     0.181 C 
HETATM   12  N2  UNL     1       7.550   0.033   0.648  1.00  0.00    -0.238 N 
HETATM   13  N3  UNL     1       6.794  -1.035   0.580  1.00  0.00    -0.273 N 
ATOM     14  H2  UNL     1       8.419   0.285   1.118  1.00  0.00     0.208 HD
ATOM     15  H3  UNL     1       6.846  -1.968   0.988  1.00  0.00     0.190 HD
ENDBRANCH   8   9
ENDBRANCH   7   8
BRANCH   7  16
HETATM   16  N4  UNL     1       3.675   1.046   0.245  1.00  0.00    -0.058 N 
ATOM     17  H43 UNL     1       4.609   1.346   0.524  1.00  0.00     0.276 HD
ATOM     18  H42 UNL     1       3.626   1.567  -0.630  1.00  0.00     0.276 HD
ATOM     19  H41 UNL     1       2.952   1.315   0.913  1.00  0.00     0.276 HD
ENDBRANCH   7  16
ENDBRANCH   5   7
ENDBRANCH   4   5
ENDBRANCH   3   4
ENDBRANCH   1   3
BRANCH   1  20
HETATM   20  C7  UNL     1      -0.751   0.622   0.458  1.00  0.00     0.142 C 
BRANCH  20  21
HETATM   21  C8  UNL     1      -2.225   0.518  -0.017  1.00  0.00     0.220 C 
BRANCH  21  22
HETATM   22  O1  UNL     1      -2.843  -0.178   0.953  1.00  0.00    -0.276 OA
BRANCH  22  23
HETATM   23  N7  UNL     1      -4.096  -0.427   0.921  1.00  0.00    -0.233 N 
HETATM   24  C9  UNL     1      -5.006  -0.217  -0.124  1.00  0.00     0.273 C 
HETATM   25  O2  UNL     1      -4.673   0.272  -1.225  1.00  0.00    -0.269 OA
ATOM     26  H7  UNL     1      -4.487  -0.834   1.771  1.00  0.00     0.197 HD
BRANCH  24  27
HETATM   27  C10 UNL     1      -6.454  -0.585   0.055  1.00  0.00     0.301 C 
BRANCH  27  28
HETATM   28  N8  UNL     1      -6.684  -1.070   1.398  1.00  0.00    -0.065 N 
ATOM     29  H83 UNL     1      -6.062  -1.843   1.636  1.00  0.00     0.275 HD
ATOM     30  H82 UNL     1      -6.371  -0.403   2.103  1.00  0.00     0.275 HD
ATOM     31  H81 UNL     1      -7.666  -1.319   1.519  1.00  0.00     0.275 HD
ENDBRANCH  27  28
BRANCH  27  32
HETATM   32  C11 UNL     1      -7.312   0.616  -0.202  1.00  0.00     0.272 C 
BRANCH  32  33
HETATM   33  N9  UNL     1      -7.142   1.091  -1.563  1.00  0.00    -0.077 N 
ATOM     34  H93 UNL     1      -6.162   1.275  -1.779  1.00  0.00     0.274 HD
ATOM     35  H92 UNL     1      -7.314   0.352  -2.245  1.00  0.00     0.274 HD
ATOM     36  H91 UNL     1      -7.726   1.909  -1.738  1.00  0.00     0.274 HD
ENDBRANCH  32  33
ENDBRANCH  27  32
ENDBRANCH  24  27
ENDBRANCH  22  23
ENDBRANCH  21  22
ENDBRANCH  20  21
ENDBRANCH   1  20
TORSDOF 15
