REMARK  12 active torsions:
REMARK  status: ('A' for Active; 'I' for Inactive)
REMARK    1  A    between atoms: N2_3  and  C2_5 
REMARK    2  A    between atoms: C3_6  and  C4_7 
REMARK    3  A    between atoms: C4_7  and  N3_8 
REMARK    4  A    between atoms: N3_8  and  C5_10 
REMARK    5  A    between atoms: C6_12  and  N4_13 
REMARK    6  A    between atoms: C8_18  and  O2_19 
REMARK    7  A    between atoms: O2_19  and  C9_20 
REMARK    8  A    between atoms: C9_20  and  N7_21 
REMARK    9  A    between atoms: C9_20  and  N8_25 
REMARK   10  A    between atoms: N8_25  and  C10_28 
REMARK   11  A    between atoms: C10_28  and  C11_29 
REMARK   12  A    between atoms: C11_29  and  O3_30 
ROOT
HETATM    1  C2  UNL     1      -0.802   1.536  -0.146  1.00  0.00     0.120 C 
HETATM    2  C3  UNL     1      -1.878   0.645  -0.732  1.00  0.00     0.054 C 
HETATM    3  C6  UNL     1      -0.885  -0.505  -0.550  1.00  0.00     0.122 C 
HETATM    4  C8  UNL     1       0.191   0.555  -0.784  1.00  0.00     0.172 C 
ENDROOT
BRANCH   4   5
HETATM    5  O2  UNL     1       1.357   0.379  -0.101  1.00  0.00    -0.329 OA
BRANCH   5   6
HETATM    6  C9  UNL     1       2.425   0.528  -0.974  1.00  0.00     0.522 C 
BRANCH   6   7
HETATM    7  N7  UNL     1       3.238   1.665  -0.592  1.00  0.00    -0.027 N 
ATOM      8  H73 UNL     1       2.685   2.519  -0.520  1.00  0.00     0.279 HD
ATOM      9  H72 UNL     1       3.547   1.601   0.378  1.00  0.00     0.279 HD
ATOM     10  H71 UNL     1       4.023   1.775  -1.234  1.00  0.00     0.279 HD
ENDBRANCH   6   7
BRANCH   6  11
HETATM   11  N8  UNL     1       3.217  -0.677  -1.092  1.00  0.00    -0.021 N 
ATOM     12  H82 UNL     1       2.684  -1.436  -1.518  1.00  0.00     0.282 HD
ATOM     13  H81 UNL     1       3.944  -0.580  -1.801  1.00  0.00     0.282 HD
BRANCH  11  14
HETATM   14  C10 UNL     1       3.773  -1.070   0.195  1.00  0.00     0.263 C 
BRANCH  14  15
HETATM   15  C11 UNL     1       4.587  -2.341  -0.023  1.00  0.00     0.192 C 
BRANCH  15  16
HETATM   16  O3  UNL     1       5.103  -2.687   1.234  1.00  0.00    -0.399 OA
ATOM     17  H3  UNL     1       5.610  -3.479   1.098  1.00  0.00     0.209 HD
ENDBRANCH  15  16
ENDBRANCH  14  15
ENDBRANCH  11  14
ENDBRANCH   6  11
ENDBRANCH   5   6
ENDBRANCH   4   5
BRANCH   1  18
HETATM   18  N2  UNL     1      -0.737   2.866  -0.660  1.00  0.00    -0.380 N 
HETATM   19  C1  UNL     1      -0.755   3.849   0.176  1.00  0.00     0.185 C 
HETATM   20  N1  UNL     1      -0.693   5.210  -0.272  1.00  0.00    -0.097 NA
ATOM     21  H2  UNL     1      -0.678   3.035  -1.664  1.00  0.00     0.160 HD
ENDBRANCH   1  18
BRANCH   3  22
HETATM   22  N4  UNL     1      -0.848  -0.978   0.819  1.00  0.00    -0.359 N 
HETATM   23  C7  UNL     1      -1.243  -2.180   1.064  1.00  0.00     0.197 C 
HETATM   24  N5  UNL     1      -1.198  -2.621   2.406  1.00  0.00    -0.067 NA
HETATM   25  N6  UNL     1      -1.715  -3.071   0.067  1.00  0.00    -0.067 NA
ATOM     26  H4  UNL     1      -0.517  -0.374   1.571  1.00  0.00     0.162 HD
ENDBRANCH   3  22
BRANCH   2  27
HETATM   27  C4  UNL     1      -3.121   0.532   0.104  1.00  0.00     0.130 C 
BRANCH  27  28
HETATM   28  N3  UNL     1      -4.119  -0.308  -0.463  1.00  0.00    -0.368 N 
ATOM     29  H3  UNL     1      -3.954  -0.767  -1.359  1.00  0.00     0.161 HD
BRANCH  28  30
HETATM   30  C5  UNL     1      -5.336  -0.502   0.219  1.00  0.00     0.348 C 
HETATM   31  O1  UNL     1      -5.585   0.041   1.322  1.00  0.00    -0.284 OA
ENDBRANCH  28  30
ENDBRANCH  27  28
ENDBRANCH   2  27
TORSDOF 12
