REMARK  13 active torsions:
REMARK  status: ('A' for Active; 'I' for Inactive)
REMARK    1  A    between atoms: C2_2  and  C3_3 
REMARK    2  A    between atoms: C2_2  and  C5_6 
REMARK    3  A    between atoms: C3_3  and  S1_4 
REMARK    4  A    between atoms: C5_6  and  C6_7 
REMARK    5  A    between atoms: C6_7  and  O2_9 
REMARK    6  A    between atoms: O2_9  and  C7_10 
REMARK    7  A    between atoms: C7_10  and  C8_11 
REMARK    8  A    between atoms: C11_14  and  O3_15 
REMARK    9  A    between atoms: O3_15  and  C12_16 
REMARK   10  A    between atoms: C16_21  and  O5_22 
REMARK   11  A    between atoms: O5_22  and  C17_23 
REMARK   12  A    between atoms: C22_29  and  C24_31 
REMARK   13  A    between atoms: C25_32  and  C27_34 
ROOT
HETATM    1  C8  UNL     1       0.739   0.483   0.452  1.00  0.00     0.051 C 
HETATM    2  C9  UNL     1       0.407   0.894  -0.905  1.00  0.00    -0.027 C 
HETATM    3  C10 UNL     1       0.891   0.143  -1.878  1.00  0.00     0.022 C 
HETATM    4  C11 UNL     1      -0.421   1.999  -1.412  1.00  0.00     0.082 C 
HETATM    5  C14 UNL     1      -1.447   2.548  -0.790  1.00  0.00     0.019 C 
HETATM    6  C15 UNL     1      -2.030   2.245   0.504  1.00  0.00     0.049 C 
HETATM    7  C16 UNL     1      -1.027   1.942   1.566  1.00  0.00     0.145 C 
HETATM    8  C19 UNL     1      -0.383   0.624   1.441  1.00  0.00     0.027 C 
HETATM    9  C20 UNL     1      -1.399  -0.502   1.256  1.00  0.00     0.014 C 
HETATM   10  C21 UNL     1      -2.467  -0.145   0.286  1.00  0.00     0.007 C 
HETATM   11  C22 UNL     1      -3.433  -1.326   0.078  1.00  0.00    -0.021 C 
HETATM   12  C23 UNL     1      -4.067  -1.730   1.360  1.00  0.00     0.020 C 
HETATM   13  C28 UNL     1      -4.421  -0.956  -0.994  1.00  0.00     0.013 C 
HETATM   14  C29 UNL     1      -4.140   0.391  -1.641  1.00  0.00     0.002 C 
HETATM   15  C30 UNL     1      -4.101   1.484  -0.632  1.00  0.00     0.010 C 
HETATM   16  C31 UNL     1      -3.112   1.165   0.491  1.00  0.00    -0.030 C 
HETATM   17  C32 UNL     1      -3.883   1.355   1.763  1.00  0.00     0.016 C 
ENDROOT
BRANCH   1  18
HETATM   18  C7  UNL     1       2.032   1.014   0.994  1.00  0.00     0.188 C 
BRANCH  18  19
HETATM   19  O2  UNL     1       3.203   0.661   0.360  1.00  0.00    -0.321 OA
BRANCH  19  20
HETATM   20  C6  UNL     1       3.787  -0.565   0.224  1.00  0.00     0.262 C 
HETATM   21  O1  UNL     1       3.168  -1.541   0.761  1.00  0.00    -0.265 OA
BRANCH  20  22
HETATM   22  C5  UNL     1       5.053  -0.695  -0.506  1.00  0.00     0.145 C 
BRANCH  22  23
HETATM   23  C2  UNL     1       5.563  -2.091  -0.554  1.00  0.00    -0.071 C 
HETATM   24  C1  UNL     1       5.718  -2.663  -1.734  1.00  0.00     0.015 C 
BRANCH  23  25
HETATM   25  C3  UNL     1       5.883  -2.798   0.693  1.00  0.00     0.107 C 
BRANCH  25  26
HETATM   26  S1  UNL     1       7.171  -1.872   1.580  1.00  0.00    -0.169 SA
HETATM   27  C4  UNL     1       8.726  -1.908   0.624  1.00  0.00     0.090 C 
ENDBRANCH  25  26
ENDBRANCH  23  25
ENDBRANCH  22  23
ENDBRANCH  20  22
ENDBRANCH  19  20
ENDBRANCH  18  19
ENDBRANCH   1  18
BRANCH   4  28
HETATM   28  O3  UNL     1      -0.082   2.509  -2.671  1.00  0.00    -0.279 OA
BRANCH  28  29
HETATM   29  C12 UNL     1       0.830   3.552  -2.723  1.00  0.00     0.260 C 
HETATM   30  C13 UNL     1       1.284   4.194  -3.980  1.00  0.00     0.126 C 
HETATM   31  O4  UNL     1       1.310   3.993  -1.651  1.00  0.00    -0.265 OA
ENDBRANCH  28  29
ENDBRANCH   4  28
BRANCH   7  32
HETATM   32  O5  UNL     1      -0.124   2.987   1.679  1.00  0.00    -0.315 OA
BRANCH  32  33
HETATM   33  C17 UNL     1      -0.028   3.829   2.785  1.00  0.00     0.255 C 
HETATM   34  C18 UNL     1       0.941   4.934   2.880  1.00  0.00     0.126 C 
HETATM   35  O6  UNL     1      -0.816   3.614   3.732  1.00  0.00    -0.266 OA
ENDBRANCH  32  33
ENDBRANCH   7  32
BRANCH  11  36
HETATM   36  C24 UNL     1      -2.634  -2.446  -0.457  1.00  0.00    -0.004 C 
HETATM   37  C25 UNL     1      -2.997  -3.642  -0.789  1.00  0.00     0.011 C 
HETATM   38  C26 UNL     1      -1.849  -4.553  -1.319  1.00  0.00     0.055 C 
BRANCH  37  39
HETATM   39  C27 UNL     1      -4.249  -4.331  -0.799  1.00  0.00     0.204 C 
HETATM   40  O7  UNL     1      -5.332  -3.851  -0.460  1.00  0.00    -0.644 OA
HETATM   41  O8  UNL     1      -4.342  -5.694  -1.224  1.00  0.00    -0.644 OA
ENDBRANCH  37  39
ENDBRANCH  11  36
TORSDOF 13
