REMARK  14 active torsions:
REMARK  status: ('A' for Active; 'I' for Inactive)
REMARK    1  A    between atoms: C2_2  and  O2_4 
REMARK    2  A    between atoms: O2_4  and  C3_5 
REMARK    3  A    between atoms: C3_5  and  C4_6 
REMARK    4  A    between atoms: C7_9  and  O3_10 
REMARK    5  A    between atoms: O3_10  and  C8_11 
REMARK    6  A    between atoms: C12_18  and  C13_19 
REMARK    7  A    between atoms: C13_19  and  C15_21 
REMARK    8  A    between atoms: C15_21  and  O7_22 
REMARK    9  A    between atoms: C15_21  and  C16_24 
REMARK   10  A    between atoms: C16_24  and  C17_25 
REMARK   11  A    between atoms: C17_25  and  C18_26 
REMARK   12  A    between atoms: C19_27  and  C21_29 
REMARK   13  A    between atoms: C24_32  and  C26_34 
REMARK   14  A    between atoms: C26_34  and  C27_36 
ROOT
HETATM    1  C4  UNL     1      -1.041   1.551  -0.491  1.00  0.00    -0.033 C 
HETATM    2  C5  UNL     1      -2.185   2.243  -0.415  1.00  0.00    -0.007 C 
HETATM    3  C6  UNL     1      -3.224   1.787   0.488  1.00  0.00     0.075 C 
HETATM    4  C7  UNL     1      -3.191   2.050   1.922  1.00  0.00     0.287 C 
HETATM    5  O5  UNL     1      -2.634   0.946   2.577  1.00  0.00    -0.288 OA
HETATM    6  C10 UNL     1      -2.421  -0.353   2.138  1.00  0.00     0.276 C 
HETATM    7  O6  UNL     1      -2.513  -1.199   2.985  1.00  0.00    -0.264 OA
HETATM    8  C11 UNL     1      -2.102  -0.483   0.637  1.00  0.00     0.095 C 
HETATM    9  C12 UNL     1      -0.935   0.385   0.481  1.00  0.00    -0.045 C 
HETATM   10  C24 UNL     1      -2.218  -1.889   0.175  1.00  0.00     0.043 C 
HETATM   11  C25 UNL     1      -2.292  -2.967   1.243  1.00  0.00     0.025 C 
HETATM   12  C30 UNL     1      -3.614  -2.193  -0.453  1.00  0.00     0.019 C 
HETATM   13  C31 UNL     1      -4.108  -1.278  -1.471  1.00  0.00     0.002 C 
HETATM   14  C32 UNL     1      -3.745   0.154  -1.203  1.00  0.00     0.011 C 
HETATM   15  C33 UNL     1      -3.383   0.262   0.231  1.00  0.00    -0.010 C 
HETATM   16  C34 UNL     1      -4.608  -0.067   1.001  1.00  0.00     0.018 C 
ENDROOT
BRANCH   9  17
HETATM   17  C13 UNL     1       0.498   0.133   0.690  1.00  0.00     0.041 C 
HETATM   18  C14 UNL     1       1.064   1.463   1.313  1.00  0.00     0.017 C 
BRANCH  17  19
HETATM   19  C15 UNL     1       1.024  -0.848   1.642  1.00  0.00     0.126 C 
BRANCH  19  20
HETATM   20  O7  UNL     1       0.800  -0.694   2.984  1.00  0.00    -0.395 OA
ATOM     21  H7  UNL     1       1.141  -1.330   3.601  1.00  0.00     0.210 HD
ENDBRANCH  19  20
BRANCH  19  22
HETATM   22  C16 UNL     1       2.449  -1.223   1.397  1.00  0.00     0.036 C 
BRANCH  22  23
HETATM   23  C17 UNL     1       3.505  -0.195   1.421  1.00  0.00     0.030 C 
BRANCH  23  24
HETATM   24  C18 UNL     1       4.875  -0.826   1.229  1.00  0.00    -0.024 C 
HETATM   25  C19 UNL     1       5.661  -0.501   0.226  1.00  0.00    -0.084 C 
HETATM   26  C20 UNL     1       5.225   0.524  -0.786  1.00  0.00     0.043 C 
BRANCH  25  27
HETATM   27  C21 UNL     1       6.991  -1.136   0.070  1.00  0.00     0.005 C 
HETATM   28  C22 UNL     1       8.127  -0.154   0.139  1.00  0.00     0.014 C 
HETATM   29  C23 UNL     1       6.981  -1.842  -1.284  1.00  0.00     0.014 C 
ENDBRANCH  25  27
ENDBRANCH  23  24
ENDBRANCH  22  23
ENDBRANCH  19  22
ENDBRANCH  17  19
ENDBRANCH   9  17
BRANCH   1  30
HETATM   30  C3  UNL     1      -0.024   2.037  -1.428  1.00  0.00     0.217 C 
BRANCH  30  31
HETATM   31  O2  UNL     1      -0.294   3.173  -2.184  1.00  0.00    -0.317 OA
BRANCH  31  32
HETATM   32  C2  UNL     1      -1.148   3.364  -3.219  1.00  0.00     0.255 C 
HETATM   33  C1  UNL     1      -1.219   4.735  -3.818  1.00  0.00     0.126 C 
HETATM   34  O1  UNL     1      -1.836   2.420  -3.638  1.00  0.00    -0.266 OA
ENDBRANCH  31  32
ENDBRANCH  30  31
ENDBRANCH   1  30
BRANCH  10  35
HETATM   35  C26 UNL     1      -1.312  -2.323  -0.934  1.00  0.00     0.161 C 
HETATM   36  O8  UNL     1      -0.894  -1.358  -1.551  1.00  0.00    -0.292 OA
BRANCH  35  37
HETATM   37  C27 UNL     1      -0.836  -3.574  -1.438  1.00  0.00    -0.041 C 
HETATM   38  C28 UNL     1      -0.101  -4.519  -0.549  1.00  0.00     0.047 C 
HETATM   39  C29 UNL     1      -1.742  -4.398  -2.321  1.00  0.00     0.047 C 
ENDBRANCH  35  37
ENDBRANCH  10  35
BRANCH   4  40
HETATM   40  O3  UNL     1      -2.519   3.272   2.177  1.00  0.00    -0.289 OA
BRANCH  40  41
HETATM   41  C8  UNL     1      -3.063   4.356   2.835  1.00  0.00     0.257 C 
HETATM   42  C9  UNL     1      -2.346   5.629   3.095  1.00  0.00     0.126 C 
HETATM   43  O4  UNL     1      -4.247   4.260   3.244  1.00  0.00    -0.266 OA
ENDBRANCH  40  41
ENDBRANCH   4  40
TORSDOF 14
