REMARK  11 active torsions:
REMARK  status: ('A' for Active; 'I' for Inactive)
REMARK    1  A    between atoms: C3_3  and  C4_4 
REMARK    2  A    between atoms: C6_6  and  C7_7 
REMARK    3  A    between atoms: C8_11  and  C9_12 
REMARK    4  A    between atoms: C9_12  and  C11_14 
REMARK    5  A    between atoms: C11_14  and  C12_15 
REMARK    6  A    between atoms: C13_16  and  C14_17 
REMARK    7  A    between atoms: C15_18  and  C16_19 
REMARK    8  A    between atoms: C15_18  and  C25_28 
REMARK    9  A    between atoms: C17_20  and  C19_22 
REMARK   10  A    between atoms: C19_22  and  C20_23 
REMARK   11  A    between atoms: C20_23  and  C21_24 
ROOT
HETATM    1  C12 UNL     1      -0.349  -0.615  -1.744  1.00  0.00     0.033 C 
HETATM    2  C13 UNL     1       0.826  -1.721  -1.817  1.00  0.00     0.160 C 
HETATM    3  O4  UNL     1       0.056  -2.739  -1.077  1.00  0.00    -0.311 OA
HETATM    4  C28 UNL     1      -1.221  -2.702  -1.664  1.00  0.00     0.263 C 
HETATM    5  O5  UNL     1      -2.181  -3.478  -1.544  1.00  0.00    -0.265 OA
HETATM    6  C29 UNL     1      -1.263  -1.473  -2.541  1.00  0.00     0.088 C 
HETATM    7  C30 UNL     1      -2.540  -1.033  -3.039  1.00  0.00     0.021 C 
ENDROOT
BRANCH   1   8
HETATM    8  C11 UNL     1      -0.625  -0.407  -0.336  1.00  0.00     0.017 C 
BRANCH   8   9
HETATM    9  C9  UNL     1      -1.532   0.485   0.323  1.00  0.00     0.037 C 
HETATM   10  C10 UNL     1      -1.254   0.351   1.864  1.00  0.00     0.015 C 
BRANCH   9  11
HETATM   11  C8  UNL     1      -3.005   0.460   0.214  1.00  0.00     0.264 C 
HETATM   12  O3  UNL     1      -3.530   1.571   0.948  1.00  0.00    -0.345 OA
HETATM   13  C6  UNL     1      -4.599   1.271   1.741  1.00  0.00     0.228 C 
HETATM   14  C5  UNL     1      -5.924   1.435   1.042  1.00  0.00     0.089 C 
HETATM   15  C4  UNL     1      -6.651   0.199   0.703  1.00  0.00     0.122 C 
HETATM   16  C32 UNL     1      -5.851  -1.071   0.958  1.00  0.00     0.197 C 
HETATM   17  O9  UNL     1      -7.780  -0.093   1.508  1.00  0.00    -0.280 OA
HETATM   18  C31 UNL     1      -4.661  -1.180   0.085  1.00  0.00     0.207 C 
HETATM   19  O7  UNL     1      -6.889  -2.020   0.633  1.00  0.00    -0.287 OA
HETATM   20  O6  UNL     1      -3.525  -0.717   0.721  1.00  0.00    -0.358 OA
HETATM   21  C33 UNL     1      -8.018  -1.461   1.253  1.00  0.00     0.408 C 
HETATM   22  O8  UNL     1      -9.074  -2.080   1.537  1.00  0.00    -0.229 OA
BRANCH  13  23
HETATM   23  C7  UNL     1      -4.629   2.271   2.866  1.00  0.00     0.203 C 
HETATM   24  O1  UNL     1      -3.765   3.163   2.927  1.00  0.00    -0.646 OA
HETATM   25  O2  UNL     1      -5.610   2.211   3.837  1.00  0.00    -0.646 OA
ENDBRANCH  13  23
BRANCH  15  26
HETATM   26  C3  UNL     1      -7.104   0.153  -0.712  1.00  0.00     0.010 C 
HETATM   27  C2  UNL     1      -7.939   1.065  -1.156  1.00  0.00    -0.032 C 
HETATM   28  C1  UNL     1      -8.508   2.187  -0.378  1.00  0.00     0.036 C 
ENDBRANCH  15  26
ENDBRANCH   9  11
ENDBRANCH   8   9
ENDBRANCH   1   8
BRANCH   2  29
HETATM   29  C14 UNL     1       1.995  -1.356  -1.135  1.00  0.00     0.013 C 
HETATM   30  C15 UNL     1       3.213  -1.029  -1.526  1.00  0.00    -0.056 C 
BRANCH  30  31
HETATM   31  C16 UNL     1       4.164  -0.705  -0.416  1.00  0.00     0.009 C 
HETATM   32  C17 UNL     1       5.373  -0.347  -0.283  1.00  0.00    -0.083 C 
HETATM   33  C18 UNL     1       6.456  -0.070  -1.243  1.00  0.00     0.043 C 
BRANCH  32  34
HETATM   34  C19 UNL     1       5.894  -0.182   1.187  1.00  0.00     0.037 C 
BRANCH  34  35
HETATM   35  C20 UNL     1       6.286   1.218   1.463  1.00  0.00     0.031 C 
BRANCH  35  36
HETATM   36  C21 UNL     1       6.777   1.269   2.876  1.00  0.00    -0.024 C 
HETATM   37  C22 UNL     1       8.000   1.660   3.203  1.00  0.00    -0.091 C 
HETATM   38  C23 UNL     1       8.922   2.066   2.100  1.00  0.00     0.042 C 
HETATM   39  C24 UNL     1       8.464   1.704   4.613  1.00  0.00     0.042 C 
ENDBRANCH  35  36
ENDBRANCH  34  35
ENDBRANCH  32  34
ENDBRANCH  30  31
BRANCH  30  40
HETATM   40  C25 UNL     1       3.659  -0.932  -2.890  1.00  0.00     0.010 C 
HETATM   41  C26 UNL     1       2.664  -0.802  -3.965  1.00  0.00     0.015 C 
HETATM   42  C27 UNL     1       4.707  -1.976  -3.281  1.00  0.00     0.015 C 
ENDBRANCH  30  40
ENDBRANCH   2  29
TORSDOF 11
