REMARK  14 active torsions:
REMARK  status: ('A' for Active; 'I' for Inactive)
REMARK    1  A    between atoms: C2_2  and  C3_3 
REMARK    2  A    between atoms: C3_3  and  C4_4 
REMARK    3  A    between atoms: C4_4  and  C5_5 
REMARK    4  A    between atoms: C6_6  and  C7_7 
REMARK    5  A    between atoms: C7_7  and  C8_8 
REMARK    6  A    between atoms: C8_8  and  C10_10 
REMARK    7  A    between atoms: C10_10  and  O1_11 
REMARK    8  A    between atoms: C15_20  and  C16_21 
REMARK    9  A    between atoms: C17_22  and  C18_23 
REMARK   10  A    between atoms: C18_23  and  C20_25 
REMARK   11  A    between atoms: C20_25  and  C22_27 
REMARK   12  A    between atoms: C31_37  and  C32_38 
REMARK   13  A    between atoms: C32_38  and  O7_40 
REMARK   14  A    between atoms: O7_40  and  C33_41 
ROOT
HETATM    1  C10 UNL     1       1.742  -1.255  -1.922  1.00  0.00     0.179 C 
HETATM    2  C11 UNL     1       1.671  -2.169  -3.124  1.00  0.00     0.301 C 
HETATM    3  O2  UNL     1       2.433  -2.292  -4.109  1.00  0.00    -0.261 OA
HETATM    4  O3  UNL     1       0.535  -2.945  -3.003  1.00  0.00    -0.278 OA
HETATM    5  C12 UNL     1      -0.312  -2.526  -2.034  1.00  0.00     0.097 C 
HETATM    6  C13 UNL     1      -1.572  -2.592  -1.676  1.00  0.00     0.025 C 
HETATM    7  C14 UNL     1      -1.994  -1.941  -0.445  1.00  0.00     0.178 C 
HETATM    8  O4  UNL     1      -2.403  -2.228   0.657  1.00  0.00    -0.291 OA
HETATM    9  C15 UNL     1      -1.782  -0.450  -0.871  1.00  0.00     0.105 C 
HETATM   10  C25 UNL     1      -2.430  -0.434  -2.205  1.00  0.00     0.034 C 
HETATM   11  C26 UNL     1      -3.415  -1.564  -2.535  1.00  0.00    -0.009 C 
HETATM   12  C27 UNL     1      -4.013  -1.354  -3.873  1.00  0.00     0.011 C 
HETATM   13  C28 UNL     1      -2.615  -2.944  -2.631  1.00  0.00     0.025 C 
HETATM   14  C29 UNL     1      -3.490  -4.091  -2.391  1.00  0.00     0.015 C 
HETATM   15  C30 UNL     1      -0.294  -0.461  -0.843  1.00  0.00     0.175 C 
HETATM   16  O5  UNL     1       0.251   0.568  -0.595  1.00  0.00    -0.294 OA
HETATM   17  C31 UNL     1       0.588  -1.667  -1.101  1.00  0.00     0.199 C 
ENDROOT
BRANCH   1  18
HETATM   18  C8  UNL     1       3.104  -1.386  -1.352  1.00  0.00     0.032 C 
HETATM   19  C9  UNL     1       4.207  -1.350  -2.348  1.00  0.00     0.014 C 
BRANCH  18  20
HETATM   20  C7  UNL     1       3.469  -0.461  -0.252  1.00  0.00     0.034 C 
BRANCH  20  21
HETATM   21  C6  UNL     1       4.741  -0.904   0.378  1.00  0.00    -0.030 C 
HETATM   22  C5  UNL     1       5.850  -0.224   0.488  1.00  0.00    -0.031 C 
BRANCH  22  23
HETATM   23  C4  UNL     1       6.099   1.151   0.014  1.00  0.00     0.027 C 
BRANCH  23  24
HETATM   24  C3  UNL     1       6.478   2.078   1.168  1.00  0.00     0.003 C 
BRANCH  24  25
HETATM   25  C2  UNL     1       6.719   3.482   0.638  1.00  0.00    -0.004 C 
HETATM   26  C1  UNL     1       7.100   4.394   1.769  1.00  0.00     0.005 C 
ENDBRANCH  24  25
ENDBRANCH  23  24
ENDBRANCH  22  23
ENDBRANCH  20  21
ENDBRANCH  18  20
ENDBRANCH   1  18
BRANCH   1  27
HETATM   27  O1  UNL     1       1.637   0.080  -2.403  1.00  0.00    -0.377 OA
ATOM     28  H1  UNL     1       0.764   0.164  -2.768  1.00  0.00     0.211 HD
ENDBRANCH   1  27
BRANCH  17  29
HETATM   29  C32 UNL     1       0.824  -2.505   0.054  1.00  0.00     0.286 C 
HETATM   30  O6  UNL     1       1.025  -3.757  -0.167  1.00  0.00    -0.263 OA
BRANCH  29  31
HETATM   31  O7  UNL     1       0.873  -2.166   1.390  1.00  0.00    -0.315 OA
BRANCH  31  32
HETATM   32  C33 UNL     1       1.130  -3.114   2.418  1.00  0.00     0.123 C 
HETATM   33  C34 UNL     1       2.256  -2.583   3.264  1.00  0.00     0.040 C 
HETATM   34  C35 UNL     1      -0.079  -3.316   3.311  1.00  0.00     0.040 C 
ENDBRANCH  31  32
ENDBRANCH  29  31
ENDBRANCH  17  29
BRANCH   9  35
HETATM   35  C16 UNL     1      -2.393   0.442   0.127  1.00  0.00    -0.005 C 
HETATM   36  C17 UNL     1      -2.332   1.727  -0.029  1.00  0.00    -0.024 C 
BRANCH  36  37
HETATM   37  C18 UNL     1      -2.862   2.819   0.821  1.00  0.00     0.008 C 
HETATM   38  C19 UNL     1      -3.528   3.788  -0.111  1.00  0.00     0.014 C 
BRANCH  37  39
HETATM   39  C20 UNL     1      -3.634   2.412   2.017  1.00  0.00    -0.008 C 
HETATM   40  C21 UNL     1      -4.002   3.688   2.808  1.00  0.00     0.011 C 
BRANCH  39  41
HETATM   41  C22 UNL     1      -4.949   1.735   1.779  1.00  0.00    -0.018 C 
HETATM   42  C23 UNL     1      -5.571   1.387   3.154  1.00  0.00     0.010 C 
HETATM   43  C24 UNL     1      -5.999   2.600   1.113  1.00  0.00     0.010 C 
ENDBRANCH  39  41
ENDBRANCH  37  39
ENDBRANCH  36  37
ENDBRANCH   9  35
TORSDOF 14
