REMARK  6 active torsions:
REMARK  status: ('A' for Active; 'I' for Inactive)
REMARK    1  A    between atoms: C2_2  and  C3_3 
REMARK    2  A    between atoms: C3_3  and  C4_4 
REMARK    3  A    between atoms: C4_4  and  C5_5 
REMARK    4  A    between atoms: C5_5  and  O1_6 
REMARK    5  A    between atoms: O1_6  and  C6_7 
REMARK       I    between atoms: C6_7  and  N1_9 
REMARK    6  A    between atoms: N1_9  and  C7_10 
ROOT
HETATM    1  C7  UNL     1      -0.808  -0.895   0.229  1.00  0.00     0.169 C 
HETATM    2  C8  UNL     1      -1.424  -1.226  -1.101  1.00  0.00     0.045 C 
HETATM    3  C9  UNL     1      -2.647  -2.093  -1.032  1.00  0.00     0.071 C 
HETATM    4  C10 UNL     1      -3.552  -1.727   0.113  1.00  0.00     0.164 C 
HETATM    5  C11 UNL     1      -2.793  -1.668   1.416  1.00  0.00     0.071 C 
HETATM    6  C12 UNL     1      -1.809  -0.538   1.308  1.00  0.00     0.045 C 
HETATM    7  O3  UNL     1      -4.106  -0.498  -0.159  1.00  0.00    -0.353 OA
HETATM    8  C13 UNL     1      -5.487  -0.661  -0.244  1.00  0.00     0.197 C 
HETATM    9  C14 UNL     1      -5.719  -1.939   0.548  1.00  0.00     0.197 C 
HETATM   10  O4  UNL     1      -4.561  -2.650   0.215  1.00  0.00    -0.353 OA
ENDROOT
BRANCH   1  11
HETATM   11  N1  UNL     1       0.163   0.062   0.175  1.00  0.00    -0.385 NA
HETATM   12  C6  UNL     1       1.136   1.023   0.121  1.00  0.00     0.434 C 
HETATM   13  O2  UNL     1       1.062   2.192  -0.394  1.00  0.00    -0.221 OA
BRANCH  12  14
HETATM   14  O1  UNL     1       2.385   0.665   0.714  1.00  0.00    -0.293 OA
BRANCH  14  15
HETATM   15  C5  UNL     1       3.452   1.567   0.697  1.00  0.00     0.182 C 
BRANCH  15  16
HETATM   16  C4  UNL     1       3.932   1.883  -0.668  1.00  0.00     0.031 C 
BRANCH  16  17
HETATM   17  C3  UNL     1       5.098   2.803  -0.669  1.00  0.00     0.028 C 
BRANCH  17  18
HETATM   18  C2  UNL     1       6.323   2.229  -0.115  1.00  0.00    -0.037 C 
HETATM   19  C1  UNL     1       6.497   0.961   0.134  1.00  0.00     0.007 C 
ENDBRANCH  17  18
ENDBRANCH  16  17
ENDBRANCH  15  16
ENDBRANCH  14  15
ENDBRANCH  12  14
ENDBRANCH   1  11
TORSDOF 6
