REMARK  6 active torsions:
REMARK  status: ('A' for Active; 'I' for Inactive)
REMARK    1  A    between atoms: C2_2  and  N1_3 
REMARK    2  A    between atoms: N1_3  and  C3_4 
REMARK    3  A    between atoms: N1_3  and  C9_10 
REMARK    4  A    between atoms: N2_13  and  C12_14 
REMARK    5  A    between atoms: C12_14  and  C13_15 
REMARK    6  A    between atoms: C13_15  and  N3_17 
ROOT
HETATM    1  C9  UNL     1      -0.208   0.215   0.342  1.00  0.00     0.362 C 
HETATM    2  C10 UNL     1       0.759   0.428   1.485  1.00  0.00     0.094 C 
HETATM    3  C11 UNL     1       2.146   0.456   0.802  1.00  0.00     0.279 C 
HETATM    4  N2  UNL     1       2.163  -0.580  -0.176  1.00  0.00     0.113 N 
HETATM    5  C15 UNL     1       1.194  -1.619   0.105  1.00  0.00     0.442 C 
HETATM    6  O1  UNL     1      -0.087  -1.146   0.056  1.00  0.00    -0.327 OA
ENDROOT
BRANCH   1   7
HETATM    7  N1  UNL     1      -1.567   0.597   0.640  1.00  0.00     0.121 N 
BRANCH   7   8
HETATM    8  C2  UNL     1      -1.577   2.014   1.015  1.00  0.00     0.272 C 
HETATM    9  C1  UNL     1      -0.900   2.928   0.068  1.00  0.00     0.037 C 
ENDBRANCH   7   8
BRANCH   7  10
HETATM   10  C3  UNL     1      -2.435   0.376  -0.482  1.00  0.00     0.226 C 
HETATM   11  C4  UNL     1      -3.874   0.763  -0.165  1.00  0.00     0.036 C 
HETATM   12  C5  UNL     1      -4.881  -0.260  -0.623  1.00  0.00     0.002 C 
HETATM   13  C6  UNL     1      -4.606  -1.552   0.100  1.00  0.00     0.000 C 
HETATM   14  C7  UNL     1      -3.205  -1.996  -0.225  1.00  0.00     0.002 C 
HETATM   15  C8  UNL     1      -2.479  -0.987  -1.086  1.00  0.00     0.036 C 
ENDBRANCH   7  10
ENDBRANCH   1   7
BRANCH   4  16
HETATM   16  C12 UNL     1       3.453  -1.153  -0.370  1.00  0.00     0.307 C 
BRANCH  16  17
HETATM   17  C13 UNL     1       4.414  -0.192  -1.009  1.00  0.00     0.207 C 
HETATM   18  C14 UNL     1       5.781  -0.854  -1.201  1.00  0.00     0.041 C 
BRANCH  17  19
HETATM   19  N3  UNL     1       4.640   0.985  -0.226  1.00  0.00    -0.074 N 
ATOM     20  H33 UNL     1       3.759   1.448  -0.004  1.00  0.00     0.274 HD
ATOM     21  H32 UNL     1       4.944   0.741   0.717  1.00  0.00     0.274 HD
ATOM     22  H31 UNL     1       5.293   1.638  -0.660  1.00  0.00     0.274 HD
ENDBRANCH  17  19
ENDBRANCH  16  17
ENDBRANCH   4  16
TORSDOF 6
