REMARK  5 active torsions:
REMARK  status: ('A' for Active; 'I' for Inactive)
REMARK    1  A    between atoms: C2_3  and  C3_4 
REMARK    2  A    between atoms: C3_4  and  C4_5 
REMARK    3  A    between atoms: C4_5  and  N2_6 
REMARK    4  A    between atoms: C7_9  and  N3_10 
REMARK    5  A    between atoms: N3_10  and  C8_12 
ROOT
HETATM    1  N1  UNL     1       7.069  -1.522   2.255  1.00  0.00    -0.197 NA
HETATM    2  C1  UNL     1       6.237  -0.753   1.956  1.00  0.00     0.059 C 
HETATM    3  C2  UNL     1       5.212   0.216   1.565  1.00  0.00     0.125 C 
ENDROOT
BRANCH   3   4
HETATM    4  C3  UNL     1       4.265  -0.405   0.560  1.00  0.00     0.033 C 
BRANCH   4   5
HETATM    5  C4  UNL     1       3.201   0.605   0.132  1.00  0.00     0.117 C 
BRANCH   5   6
HETATM    6  N2  UNL     1       2.324  -0.034  -0.799  1.00  0.00    -0.412 N 
HETATM    7  C5  UNL     1       1.535  -1.033  -0.176  1.00  0.00     0.119 C 
HETATM    8  C6  UNL     1       0.092  -1.091  -0.499  1.00  0.00     0.044 C 
HETATM    9  C7  UNL     1      -0.584   0.158  -0.927  1.00  0.00     0.080 C 
HETATM   10  C13 UNL     1       0.346   1.298  -1.295  1.00  0.00     0.044 C 
HETATM   11  C14 UNL     1       1.686   0.807  -1.749  1.00  0.00     0.119 C 
BRANCH   9  12
HETATM   12  N3  UNL     1      -1.534   0.686   0.002  1.00  0.00    -0.413 N 
ATOM     13  H3  UNL     1      -1.408   1.591   0.455  1.00  0.00     0.154 HD
BRANCH  12  14
HETATM   14  C8  UNL     1      -2.688  -0.153   0.256  1.00  0.00     0.078 C 
HETATM   15  C9  UNL     1      -3.438  -0.303  -1.014  1.00  0.00     0.035 C 
HETATM   16  C10 UNL     1      -4.915  -0.182  -0.968  1.00  0.00     0.076 C 
HETATM   17  S1  UNL     1      -5.702  -0.615   0.580  1.00  0.00    -0.169 SA
HETATM   18  C11 UNL     1      -4.462  -0.399   1.920  1.00  0.00     0.076 C 
HETATM   19  C12 UNL     1      -3.475   0.606   1.339  1.00  0.00     0.035 C 
ENDBRANCH  12  14
ENDBRANCH   9  12
ENDBRANCH   5   6
ENDBRANCH   4   5
ENDBRANCH   3   4
TORSDOF 5
