REMARK  8 active torsions:
REMARK  status: ('A' for Active; 'I' for Inactive)
REMARK    1  A    between atoms: C1_4  and  O1_6 
REMARK    2  A    between atoms: O1_6  and  N3_7 
REMARK    3  A    between atoms: C2_9  and  C3_10 
REMARK    4  A    between atoms: C2_9  and  N5_18 
REMARK       I    between atoms: C3_10  and  N4_12 
REMARK    5  A    between atoms: N4_12  and  S1_14 
REMARK    6  A    between atoms: C4_21  and  C5_22 
REMARK    7  A    between atoms: C5_22  and  N7_23 
REMARK    8  A    between atoms: C5_22  and  O6_27 
ROOT
HETATM    1  N3  UNL     1      -1.429  -0.870   0.257  1.00  0.00    -0.235 N 
ATOM      2  H3  UNL     1      -2.349  -0.667   0.648  1.00  0.00     0.197 HD
HETATM    3  C2  UNL     1      -0.678   0.126   0.056  1.00  0.00     0.219 C 
ENDROOT
BRANCH   3   4
HETATM    4  C3  UNL     1      -1.117   1.456   0.368  1.00  0.00     0.304 C 
HETATM    5  O2  UNL     1      -0.352   2.438   0.160  1.00  0.00    -0.263 OA
HETATM    6  N4  UNL     1      -2.394   1.725   0.909  1.00  0.00    -0.228 N 
ATOM      7  H4  UNL     1      -3.025   0.943   1.083  1.00  0.00     0.184 HD
BRANCH   6   8
HETATM    8  S1  UNL     1      -2.928   3.306   1.285  1.00  0.00     0.211 S 
HETATM    9  O3  UNL     1      -4.252   3.283   1.963  1.00  0.00    -0.578 OA
HETATM   10  O4  UNL     1      -1.943   3.895   2.284  1.00  0.00    -0.578 OA
HETATM   11  O5  UNL     1      -2.892   4.294  -0.060  1.00  0.00    -0.578 OA
ENDBRANCH   6   8
ENDBRANCH   3   4
BRANCH   3  12
HETATM   12  N5  UNL     1       0.639  -0.137  -0.500  1.00  0.00    -0.210 N 
HETATM   13  N6  UNL     1       1.677   0.002   0.252  1.00  0.00    -0.283 N 
HETATM   14  C4  UNL     1       2.883  -0.225  -0.214  1.00  0.00     0.126 A 
ATOM     15  H6  UNL     1       1.559   0.292   1.223  1.00  0.00     0.188 HD
HETATM   16  S2  UNL     1       2.546  -0.667  -1.827  1.00  0.00    -0.033 SA
HETATM   17  C6  UNL     1       0.851  -0.521  -1.769  1.00  0.00     0.167 A 
HETATM   18  N8  UNL     1      -0.054  -0.722  -2.700  1.00  0.00    -0.378 N 
ATOM     19  H82 UNL     1      -1.070  -0.635  -2.665  1.00  0.00     0.158 HD
ATOM     20  H81 UNL     1       0.107  -1.014  -3.664  1.00  0.00     0.158 HD
BRANCH  14  21
HETATM   21  C5  UNL     1       4.216  -0.119   0.499  1.00  0.00     0.376 C 
BRANCH  21  22
HETATM   22  N7  UNL     1       5.175   0.562  -0.311  1.00  0.00    -0.047 N 
ATOM     23  H73 UNL     1       5.272   0.125  -1.228  1.00  0.00     0.277 HD
ATOM     24  H72 UNL     1       4.834   1.476  -0.610  1.00  0.00     0.277 HD
ATOM     25  H71 UNL     1       6.072   0.633   0.169  1.00  0.00     0.277 HD
ENDBRANCH  21  22
BRANCH  21  26
HETATM   26  O6  UNL     1       3.990   0.641   1.647  1.00  0.00    -0.365 OA
ATOM     27  H6  UNL     1       4.826   0.707   2.094  1.00  0.00     0.212 HD
ENDBRANCH  21  26
ENDBRANCH  14  21
ENDBRANCH   3  12
BRANCH   1  28
HETATM   28  O1  UNL     1      -1.158  -2.173   0.015  1.00  0.00    -0.203 OA
BRANCH  28  29
HETATM   29  C1  UNL     1      -2.182  -3.052  -0.324  1.00  0.00     0.249 C 
HETATM   30  N1  UNL     1      -3.090  -2.582  -1.138  1.00  0.00    -0.366 N 
ATOM     31  H12 UNL     1      -3.841  -3.226  -1.387  1.00  0.00     0.159 HD
ATOM     32  H11 UNL     1      -3.030  -1.627  -1.491  1.00  0.00     0.159 HD
HETATM   33  N2  UNL     1      -2.265  -4.383   0.168  1.00  0.00    -0.055 NA
ENDBRANCH  28  29
ENDBRANCH   1  28
TORSDOF 8
