REMARK  7 active torsions:
REMARK  status: ('A' for Active; 'I' for Inactive)
REMARK    1  A    between atoms: O1_2  and  C2_3 
REMARK    2  A    between atoms: C2_3  and  C3_5 
REMARK    3  A    between atoms: C4_6  and  N1_7 
REMARK    4  A    between atoms: N1_7  and  C5_9 
REMARK    5  A    between atoms: C6_12  and  N3_14 
REMARK    6  A    between atoms: N3_14  and  N4_16 
REMARK    7  A    between atoms: C8_25  and  N8_26 
ROOT
HETATM    1  C3  UNL     1      -2.484   0.030  -0.011  1.00  0.00     0.107 A 
HETATM    2  C4  UNL     1      -1.186  -0.365  -0.256  1.00  0.00     0.154 A 
HETATM    3  N7  UNL     1      -0.877  -1.195  -1.316  1.00  0.00    -0.175 N 
ATOM      4  H7  UNL     1       0.086  -1.482  -1.490  1.00  0.00     0.186 HD
HETATM    5  C8  UNL     1      -1.863  -1.611  -2.105  1.00  0.00     0.677 A 
HETATM    6  N9  UNL     1      -3.136  -1.239  -1.886  1.00  0.00    -0.195 N 
ATOM      7  H9  UNL     1      -3.861  -1.582  -2.516  1.00  0.00     0.184 HD
HETATM    8  C9  UNL     1      -3.493  -0.433  -0.869  1.00  0.00     0.043 A 
HETATM    9  C10 UNL     1      -4.895  -0.037  -0.645  1.00  0.00     0.070 C 
ENDROOT
BRANCH   2  10
HETATM   10  N1  UNL     1      -0.115   0.060   0.564  1.00  0.00    -0.173 N 
ATOM     11  H1  UNL     1      -0.275   0.673   1.363  1.00  0.00     0.186 HD
BRANCH  10  12
HETATM   12  C5  UNL     1       1.217  -0.405   0.231  1.00  0.00     0.704 C 
HETATM   13  N2  UNL     1       2.193   0.421   0.055  1.00  0.00    -0.179 N 
HETATM   14  C6  UNL     1       3.517  -0.125  -0.281  1.00  0.00     0.236 C 
ATOM     15  H2  UNL     1       2.050   1.427   0.147  1.00  0.00     0.182 HD
HETATM   16  C7  UNL     1       4.268  -0.531   0.951  1.00  0.00     0.088 C 
HETATM   17  N5  UNL     1       3.268  -1.297  -1.100  1.00  0.00    -0.016 NA
HETATM   18  O5  UNL     1       2.721  -2.236  -0.302  1.00  0.00    -0.146 OA
HETATM   19  N6  UNL     1       1.501  -1.792   0.085  1.00  0.00    -0.076 N 
ATOM     20  H6  UNL     1       0.765  -2.471   0.277  1.00  0.00     0.215 HD
BRANCH  14  21
HETATM   21  N3  UNL     1       4.204   0.906  -1.009  1.00  0.00    -0.231 N 
ATOM     22  H3  UNL     1       4.522   0.739  -1.964  1.00  0.00     0.191 HD
BRANCH  21  23
HETATM   23  N4  UNL     1       4.429   2.129  -0.399  1.00  0.00    -0.040 N 
HETATM   24  O3  UNL     1       3.437   2.859  -0.167  1.00  0.00    -0.517 OA
HETATM   25  O4  UNL     1       5.709   2.494  -0.075  1.00  0.00    -0.517 OA
ENDBRANCH  21  23
ENDBRANCH  14  21
ENDBRANCH  10  12
ENDBRANCH   2  10
BRANCH   1  26
HETATM   26  C2  UNL     1      -2.847   0.893   1.083  1.00  0.00     0.298 C 
HETATM   27  O2  UNL     1      -4.079   1.224   1.255  1.00  0.00    -0.259 OA
BRANCH  26  28
HETATM   28  O1  UNL     1      -2.041   1.465   2.043  1.00  0.00    -0.322 OA
HETATM   29  C1  UNL     1      -2.464   2.297   3.081  1.00  0.00     0.213 C 
ENDBRANCH  26  28
ENDBRANCH   1  26
BRANCH   5  30
HETATM   30  N8  UNL     1      -1.611  -2.392  -3.111  1.00  0.00    -0.234 N 
ATOM     31  H82 UNL     1      -0.645  -2.674  -3.277  1.00  0.00     0.174 HD
ATOM     32  H81 UNL     1      -2.367  -2.711  -3.716  1.00  0.00     0.174 HD
ENDBRANCH   5  30
TORSDOF 7
