REMARK  8 active torsions:
REMARK  status: ('A' for Active; 'I' for Inactive)
REMARK    1  A    between atoms: C3_8  and  N4_9 
REMARK    2  A    between atoms: N4_9  and  N5_11 
REMARK    3  A    between atoms: N5_11  and  C4_13 
REMARK    4  A    between atoms: C7_16  and  N6_17 
REMARK    5  A    between atoms: C10_22  and  N7_23 
REMARK    6  A    between atoms: N7_23  and  N8_25 
REMARK    7  A    between atoms: C11_30  and  C12_31 
REMARK       I    between atoms: C12_31  and  N10_33 
REMARK    8  A    between atoms: N10_33  and  N11_35 
ROOT
HETATM    1  N1  UNL     1      -5.572  -0.294  -3.287  1.00  0.00    -0.190 NA
HETATM    2  C1  UNL     1      -4.597  -0.474  -2.672  1.00  0.00     0.121 C 
HETATM    3  C2  UNL     1      -3.384  -0.683  -1.941  1.00  0.00     0.161 C 
HETATM    4  N2  UNL     1      -2.393  -1.420  -2.497  1.00  0.00    -0.287 N 
ATOM      5  H2  UNL     1      -2.680  -2.048  -3.248  1.00  0.00     0.188 HD
HETATM    6  N3  UNL     1      -1.082  -1.438  -2.196  1.00  0.00    -0.280 N 
ATOM      7  H3  UNL     1      -0.527  -2.208  -2.570  1.00  0.00     0.188 HD
HETATM    8  C3  UNL     1      -0.428  -0.506  -1.427  1.00  0.00     0.181 C 
HETATM    9  C10 UNL     1      -0.971   0.096  -0.316  1.00  0.00     0.168 C 
HETATM   10  N9  UNL     1      -2.263   0.500  -0.114  1.00  0.00    -0.331 N 
ATOM     11  H9  UNL     1      -2.424   1.287   0.514  1.00  0.00     0.168 HD
HETATM   12  C11 UNL     1      -3.351  -0.082  -0.699  1.00  0.00     0.143 C 
ENDROOT
BRANCH  12  13
HETATM   13  C12 UNL     1      -4.569  -0.068   0.055  1.00  0.00     0.289 C 
HETATM   14  O3  UNL     1      -5.602  -0.593  -0.410  1.00  0.00    -0.264 OA
HETATM   15  N10 UNL     1      -4.626   0.538   1.335  1.00  0.00    -0.271 N 
ATOM     16  H10 UNL     1      -3.792   0.971   1.732  1.00  0.00     0.189 HD
BRANCH  15  17
HETATM   17  N11 UNL     1      -5.848   0.542   2.066  1.00  0.00    -0.342 N 
ATOM     18 2H11 UNL     1      -6.673   0.105   1.655  1.00  0.00     0.176 HD
ATOM     19 1H11 UNL     1      -5.889   0.978   2.987  1.00  0.00     0.176 HD
ENDBRANCH  15  17
ENDBRANCH  12  13
BRANCH   8  20
HETATM   20  N4  UNL     1       0.753  -0.210  -1.796  1.00  0.00    -0.281 N 
ATOM     21  H4  UNL     1       1.143  -0.667  -2.620  1.00  0.00     0.188 HD
BRANCH  20  22
HETATM   22  N5  UNL     1       1.521   0.711  -1.113  1.00  0.00    -0.299 N 
ATOM     23  H5  UNL     1       1.176   1.663  -0.987  1.00  0.00     0.187 HD
BRANCH  22  24
HETATM   24  C4  UNL     1       2.796   0.344  -0.580  1.00  0.00     0.048 A 
HETATM   25  C5  UNL     1       3.247  -0.950  -0.760  1.00  0.00     0.033 A 
HETATM   26  C6  UNL     1       4.464  -1.373  -0.274  1.00  0.00     0.038 A 
HETATM   27  C7  UNL     1       5.255  -0.498   0.406  1.00  0.00     0.103 A 
HETATM   28  C8  UNL     1       4.815   0.784   0.588  1.00  0.00     0.038 A 
HETATM   29  C9  UNL     1       3.610   1.198   0.106  1.00  0.00     0.033 A 
BRANCH  27  30
HETATM   30  N6  UNL     1       6.513  -0.947   0.905  1.00  0.00    -0.116 N 
HETATM   31  O1  UNL     1       7.216  -0.137   1.519  1.00  0.00    -0.532 OA
HETATM   32  O2  UNL     1       6.961  -2.222   0.728  1.00  0.00    -0.532 OA
ENDBRANCH  27  30
ENDBRANCH  22  24
ENDBRANCH  20  22
ENDBRANCH   8  20
BRANCH   9  33
HETATM   33  N7  UNL     1      -0.154   0.291   0.634  1.00  0.00    -0.289 N 
ATOM     34  H7  UNL     1       0.805  -0.016   0.474  1.00  0.00     0.188 HD
BRANCH  33  35
HETATM   35  N8  UNL     1      -0.412   0.869   1.855  1.00  0.00    -0.344 N 
ATOM     36  H82 UNL     1      -1.376   1.170   1.996  1.00  0.00     0.176 HD
ATOM     37  H81 UNL     1       0.245   1.026   2.619  1.00  0.00     0.176 HD
ENDBRANCH  33  35
ENDBRANCH   9  33
TORSDOF 8
