REMARK  5 active torsions:
REMARK  status: ('A' for Active; 'I' for Inactive)
REMARK    1  A    between atoms: C2_9  and  C3_10 
REMARK    2  A    between atoms: N5_11  and  N6_13 
REMARK       I    between atoms: N6_13  and  C4_15 
REMARK    3  A    between atoms: C4_15  and  C5_17 
REMARK    4  A    between atoms: C6_20  and  N8_21 
REMARK    5  A    between atoms: C9_30  and  N11_31 
ROOT
HETATM    1  C5  UNL     1      -1.535   0.180  -0.036  1.00  0.00     0.131 C 
HETATM    2  N7  UNL     1      -1.672  -0.163   1.255  1.00  0.00    -0.335 N 
ATOM      3  H7  UNL     1      -0.811  -0.132   1.800  1.00  0.00     0.168 HD
HETATM    4  C6  UNL     1      -2.772  -0.544   1.949  1.00  0.00     0.130 C 
HETATM    5  C7  UNL     1      -3.976  -0.959   1.428  1.00  0.00     0.122 A 
HETATM    6  N9  UNL     1      -5.234  -1.349   1.654  1.00  0.00    -0.294 N 
ATOM      7  H9  UNL     1      -5.755  -1.466   2.523  1.00  0.00     0.187 HD
HETATM    8  N10 UNL     1      -5.594  -1.538   0.376  1.00  0.00    -0.296 N 
ATOM      9  H10 UNL     1      -6.436  -1.836  -0.116  1.00  0.00     0.187 HD
HETATM   10  C8  UNL     1      -4.351  -1.160   0.032  1.00  0.00     0.110 A 
HETATM   11  C9  UNL     1      -3.518  -0.955  -1.053  1.00  0.00     0.104 C 
HETATM   12  C10 UNL     1      -2.305  -0.294  -1.093  1.00  0.00     0.109 C 
HETATM   13  N13 UNL     1      -1.814  -0.092  -2.406  1.00  0.00    -0.097 NA
ENDROOT
BRANCH   1  14
HETATM   14  C4  UNL     1      -0.487   1.136  -0.401  1.00  0.00     0.288 C 
HETATM   15  N6  UNL     1       0.394   1.738   0.513  1.00  0.00    -0.265 N 
ATOM     16  H6  UNL     1       0.321   1.512   1.505  1.00  0.00     0.190 HD
HETATM   17  O1  UNL     1      -0.355   1.452  -1.635  1.00  0.00    -0.264 OA
BRANCH  15  18
HETATM   18  N5  UNL     1       1.359   2.633   0.087  1.00  0.00    -0.307 N 
HETATM   19  C3  UNL     1       2.596   2.365  -0.024  1.00  0.00     0.143 C 
ATOM     20  H5  UNL     1       1.056   3.576  -0.155  1.00  0.00     0.186 HD
BRANCH  19  21
HETATM   21  C2  UNL     1       3.144   1.033   0.300  1.00  0.00     0.136 A 
HETATM   22  N4  UNL     1       2.337   0.049   0.729  1.00  0.00    -0.279 N 
HETATM   23  N3  UNL     1       2.892  -1.126   1.005  1.00  0.00    -0.227 N 
ATOM     24  H4  UNL     1       1.334   0.198   0.839  1.00  0.00     0.189 HD
HETATM   25  N2  UNL     1       4.185  -1.356   0.873  1.00  0.00    -0.223 N 
ATOM     26  H3  UNL     1       2.293  -1.883   1.333  1.00  0.00     0.210 HD
HETATM   27  N1  UNL     1       5.033  -0.426   0.454  1.00  0.00    -0.244 N 
ATOM     28  H2  UNL     1       4.545  -2.283   1.101  1.00  0.00     0.210 HD
HETATM   29  C1  UNL     1       6.456  -0.683   0.310  1.00  0.00     0.183 C 
HETATM   30  C11 UNL     1       4.493   0.780   0.167  1.00  0.00     0.292 A 
HETATM   31  O2  UNL     1       5.219   1.707  -0.232  1.00  0.00    -0.264 OA
ENDBRANCH  19  21
ENDBRANCH  15  18
ENDBRANCH   1  14
BRANCH   4  32
HETATM   32  N8  UNL     1      -2.730  -0.531   3.232  1.00  0.00    -0.384 N 
ATOM     33  H82 UNL     1      -1.837  -0.223   3.618  1.00  0.00     0.157 HD
ATOM     34  H81 UNL     1      -3.558  -0.818   3.754  1.00  0.00     0.157 HD
ENDBRANCH   4  32
BRANCH  11  35
HETATM   35  N11 UNL     1      -3.979  -1.498  -2.279  1.00  0.00    -0.303 N 
HETATM   36  N12 UNL     1      -4.655  -0.789  -3.072  1.00  0.00    -0.345 N 
ATOM     37 2H12 UNL     1      -4.862   0.176  -2.816  1.00  0.00     0.176 HD
ATOM     38 1H12 UNL     1      -4.987  -1.180  -3.954  1.00  0.00     0.176 HD
ATOM     39  H11 UNL     1      -3.763  -2.465  -2.520  1.00  0.00     0.186 HD
ENDBRANCH  11  35
TORSDOF 5
