REMARK  5 active torsions:
REMARK  status: ('A' for Active; 'I' for Inactive)
REMARK    1  A    between atoms: N1_1  and  C1_4 
REMARK    2  A    between atoms: N4_12  and  C4_13 
REMARK    3  A    between atoms: C4_13  and  C5_14 
REMARK    4  A    between atoms: C8_26  and  N9_27 
REMARK    5  A    between atoms: N10_29  and  C9_31 
ROOT
HETATM    1  C1  UNL     1       2.447  -2.040  -0.513  1.00  0.00     0.679 A 
HETATM    2  N2  UNL     1       1.265  -2.511  -0.988  1.00  0.00    -0.176 N 
ATOM      3  H2  UNL     1       1.248  -3.249  -1.692  1.00  0.00     0.186 HD
HETATM    4  C2  UNL     1       0.118  -1.992  -0.519  1.00  0.00     0.144 A 
HETATM    5  N3  UNL     1      -1.082  -2.416  -0.949  1.00  0.00    -0.293 N 
ATOM      6  H3  UNL     1      -1.143  -3.153  -1.652  1.00  0.00     0.172 HD
HETATM    7  C3  UNL     1      -2.201  -1.866  -0.450  1.00  0.00     0.331 A 
HETATM    8  O1  UNL     1      -3.302  -2.308  -0.895  1.00  0.00    -0.246 OA
HETATM    9  N4  UNL     1      -2.181  -0.898   0.475  1.00  0.00    -0.258 N 
HETATM   10  C6  UNL     1      -1.021  -0.442   0.935  1.00  0.00     0.269 A 
HETATM   11  O2  UNL     1      -0.943   0.477   1.814  1.00  0.00    -0.267 OA
HETATM   12  C7  UNL     1       0.188  -0.935   0.492  1.00  0.00     0.123 A 
HETATM   13  C8  UNL     1       1.418  -0.520   0.914  1.00  0.00     0.155 A 
HETATM   14  N15 UNL     1       2.521  -1.065   0.419  1.00  0.00    -0.174 N 
ATOM     15  H15 UNL     1       3.433  -0.745   0.745  1.00  0.00     0.186 HD
ENDROOT
BRANCH  13  16
HETATM   16  N9  UNL     1       1.485   0.505   1.894  1.00  0.00    -0.270 N 
HETATM   17  N10 UNL     1       2.163   1.546   1.809  1.00  0.00    -0.128 N 
ATOM     18  H10 UNL     1       2.117   2.201   2.589  1.00  0.00     0.205 HD
ATOM     19  H9  UNL     1       0.930   0.378   2.740  1.00  0.00     0.189 HD
BRANCH  17  20
HETATM   20  C9  UNL     1       2.998   1.894   0.707  1.00  0.00     0.728 A 
HETATM   21  N11 UNL     1       2.580   1.980  -0.560  1.00  0.00    -0.114 N 
HETATM   22  N12 UNL     1       3.635   2.324  -1.274  1.00  0.00    -0.213 N 
ATOM     23  H11 UNL     1       1.635   1.813  -0.905  1.00  0.00     0.207 HD
HETATM   24  N13 UNL     1       4.690   2.453  -0.493  1.00  0.00    -0.213 N 
ATOM     25  H12 UNL     1       3.635   2.469  -2.284  1.00  0.00     0.210 HD
HETATM   26  N14 UNL     1       4.295   2.188   0.728  1.00  0.00    -0.114 N 
ATOM     27  H13 UNL     1       5.633   2.710  -0.784  1.00  0.00     0.210 HD
ATOM     28  H14 UNL     1       4.886   2.204   1.559  1.00  0.00     0.207 HD
ENDBRANCH  17  20
ENDBRANCH  13  16
BRANCH   1  29
HETATM   29  N1  UNL     1       3.572  -2.524  -0.950  1.00  0.00    -0.234 N 
ATOM     30  H12 UNL     1       3.516  -3.260  -1.654  1.00  0.00     0.174 HD
ATOM     31  H11 UNL     1       4.460  -2.170  -0.593  1.00  0.00     0.174 HD
ENDBRANCH   1  29
BRANCH   9  32
HETATM   32  C4  UNL     1      -3.438  -0.368   0.953  1.00  0.00     0.216 C 
BRANCH  32  33
HETATM   33  C5  UNL     1      -3.918   0.784   0.158  1.00  0.00     0.131 A 
HETATM   34  N5  UNL     1      -4.708   0.764  -0.928  1.00  0.00    -0.271 N 
HETATM   35  N6  UNL     1      -4.886   2.032  -1.320  1.00  0.00    -0.227 N 
ATOM     36  H5  UNL     1      -5.101  -0.066  -1.373  1.00  0.00     0.190 HD
HETATM   37  N7  UNL     1      -4.232   2.843  -0.515  1.00  0.00    -0.227 N 
ATOM     38  H6  UNL     1      -5.444   2.325  -2.122  1.00  0.00     0.210 HD
HETATM   39  N8  UNL     1      -3.642   2.076   0.386  1.00  0.00    -0.271 N 
ATOM     40  H7  UNL     1      -4.189   3.860  -0.575  1.00  0.00     0.210 HD
ATOM     41  H8  UNL     1      -3.058   2.420   1.149  1.00  0.00     0.190 HD
ENDBRANCH  32  33
ENDBRANCH   9  32
TORSDOF 5
