REMARK  5 active torsions:
REMARK  status: ('A' for Active; 'I' for Inactive)
REMARK       I    between atoms: C1_2  and  N1_3 
REMARK       I    between atoms: C1_2  and  N7_32 
REMARK    1  A    between atoms: C4_7  and  C5_8 
REMARK       I    between atoms: C5_8  and  N2_10 
REMARK    2  A    between atoms: N2_10  and  C6_12 
REMARK    3  A    between atoms: N6_25  and  C13_26 
REMARK    4  A    between atoms: N7_32  and  C19_34 
REMARK    5  A    between atoms: C23_40  and  C24_41 
ROOT
HETATM    1  O1  UNL     1       3.963  -0.340  -1.663  1.00  0.00    -0.247 OA
HETATM    2  C1  UNL     1       3.283   0.297  -0.818  1.00  0.00     0.326 C 
HETATM    3  N1  UNL     1       2.421   1.352  -1.334  1.00  0.00    -0.293 N 
ATOM      4  H1  UNL     1       2.815   2.168  -1.801  1.00  0.00     0.172 HD
HETATM    5  C2  UNL     1       1.150   1.227  -1.185  1.00  0.00     0.133 A 
HETATM    6  C3  UNL     1       0.488   0.181  -0.578  1.00  0.00     0.087 A 
HETATM    7  C4  UNL     1      -0.880   0.416  -0.618  1.00  0.00     0.120 A 
HETATM    8  N5  UNL     1      -1.002   1.596  -1.247  1.00  0.00    -0.287 N 
ATOM      9  H5  UNL     1      -1.890   2.060  -1.440  1.00  0.00     0.188 HD
HETATM   10  N6  UNL     1       0.194   2.081  -1.586  1.00  0.00    -0.239 N 
HETATM   11  N7  UNL     1       3.306   0.058   0.551  1.00  0.00    -0.309 N 
ATOM     12  H7  UNL     1       2.696   0.659   1.105  1.00  0.00     0.170 HD
ENDROOT
BRANCH  10  13
HETATM   13  C13 UNL     1       0.391   3.328  -2.272  1.00  0.00     0.058 A 
HETATM   14  C14 UNL     1       0.139   4.499  -1.570  1.00  0.00     0.031 A 
HETATM   15  C15 UNL     1       0.302   5.735  -2.153  1.00  0.00     0.002 A 
HETATM   16  C16 UNL     1       0.722   5.788  -3.452  1.00  0.00     0.000 A 
HETATM   17  C17 UNL     1       0.972   4.624  -4.148  1.00  0.00     0.002 A 
HETATM   18  C18 UNL     1       0.808   3.391  -3.563  1.00  0.00     0.031 A 
ENDBRANCH  10  13
BRANCH   7  19
HETATM   19  C5  UNL     1      -1.927  -0.459  -0.077  1.00  0.00     0.274 C 
HETATM   20  O2  UNL     1      -1.620  -1.522   0.478  1.00  0.00    -0.266 OA
HETATM   21  N2  UNL     1      -3.265  -0.050  -0.211  1.00  0.00    -0.322 N 
ATOM     22  H2  UNL     1      -3.408   0.841  -0.687  1.00  0.00     0.169 HD
BRANCH  21  23
HETATM   23  C6  UNL     1      -4.427  -0.697   0.219  1.00  0.00     0.036 A 
HETATM   24  C7  UNL     1      -5.660  -0.208  -0.183  1.00  0.00     0.032 A 
HETATM   25  C8  UNL     1      -6.848  -0.790   0.213  1.00  0.00     0.034 A 
HETATM   26  C9  UNL     1      -6.822  -1.886   1.028  1.00  0.00     0.059 A 
HETATM   27  N3  UNL     1      -7.823  -2.641   1.558  1.00  0.00    -0.300 N 
HETATM   28  C11 UNL     1      -5.617  -2.398   1.446  1.00  0.00     0.011 A 
HETATM   29  N4  UNL     1      -7.262  -3.589   2.279  1.00  0.00    -0.311 N 
ATOM     30  H3  UNL     1      -8.824  -2.498   1.422  1.00  0.00     0.187 HD
HETATM   31  C10 UNL     1      -5.908  -3.468   2.231  1.00  0.00     0.120 A 
ATOM     32  H4  UNL     1      -7.768  -4.308   2.797  1.00  0.00     0.186 HD
HETATM   33  C12 UNL     1      -4.428  -1.787   1.029  1.00  0.00     0.044 A 
ENDBRANCH  21  23
ENDBRANCH   7  19
BRANCH  11  34
HETATM   34  C19 UNL     1       4.044  -0.888   1.291  1.00  0.00     0.038 A 
HETATM   35  C20 UNL     1       3.822  -1.022   2.676  1.00  0.00     0.055 A 
HETATM   36  C21 UNL     1       4.520  -1.925   3.433  1.00  0.00     0.058 A 
HETATM   37 CL1  UNL     1       4.238  -2.088   5.166  1.00  0.00    -0.082 Cl
HETATM   38  C22 UNL     1       5.474  -2.748   2.880  1.00  0.00     0.069 A 
HETATM   39 CL2  UNL     1       6.356  -3.897   3.863  1.00  0.00    -0.082 Cl
HETATM   40  C23 UNL     1       5.701  -2.634   1.546  1.00  0.00     0.055 A 
HETATM   41  C25 UNL     1       5.002  -1.721   0.759  1.00  0.00     0.046 A 
BRANCH  40  42
HETATM   42  C24 UNL     1       6.712  -3.488   0.890  1.00  0.00     0.350 C 
HETATM   43  F1  UNL     1       6.780  -3.210  -0.450  1.00  0.00    -0.183 F 
HETATM   44  F2  UNL     1       7.931  -3.237   1.526  1.00  0.00    -0.183 F 
HETATM   45 CL3  UNL     1       6.255  -5.214   1.068  1.00  0.00    -0.042 Cl
ENDBRANCH  40  42
ENDBRANCH  11  34
TORSDOF 5
