REMARK  7 active torsions:
REMARK  status: ('A' for Active; 'I' for Inactive)
REMARK    1  A    between atoms: C6_7  and  C7_8 
REMARK       I    between atoms: C7_8  and  N1_10 
REMARK    2  A    between atoms: N1_10  and  C8_11 
REMARK    3  A    between atoms: C13_20  and  N3_21 
REMARK       I    between atoms: N3_21  and  C14_23 
REMARK    4  A    between atoms: C14_23  and  C15_25 
REMARK    5  A    between atoms: C19_30  and  N4_31 
REMARK       I    between atoms: N4_31  and  C20_33 
REMARK    6  A    between atoms: C20_33  and  C21_35 
REMARK    7  A    between atoms: C27_43  and  O4_44 
ROOT
HETATM    1  N3  UNL     1      -1.104   1.200   0.820  1.00  0.00    -0.321 N 
ATOM      2  H3  UNL     1      -0.676   0.364   1.219  1.00  0.00     0.169 HD
HETATM    3  C14 UNL     1      -0.307   2.100   0.076  1.00  0.00     0.262 C 
HETATM    4  O2  UNL     1      -0.961   3.111  -0.375  1.00  0.00    -0.267 OA
ENDROOT
BRANCH   3   5
HETATM    5  C15 UNL     1       1.092   2.027  -0.227  1.00  0.00     0.106 A 
HETATM    6  C16 UNL     1       1.660   3.036  -0.980  1.00  0.00     0.135 A 
HETATM    7  F3  UNL     1       0.883   4.055  -1.407  1.00  0.00    -0.205 F 
HETATM    8  C17 UNL     1       2.972   3.073  -1.328  1.00  0.00     0.046 A 
HETATM    9  C18 UNL     1       3.816   2.031  -0.903  1.00  0.00     0.035 A 
HETATM   10  C19 UNL     1       3.317   1.003  -0.154  1.00  0.00     0.069 A 
HETATM   11  C27 UNL     1       1.958   1.020   0.171  1.00  0.00     0.111 A 
BRANCH  10  12
HETATM   12  N4  UNL     1       4.142  -0.046   0.299  1.00  0.00    -0.320 N 
HETATM   13  C20 UNL     1       5.490  -0.275   0.076  1.00  0.00     0.256 C 
HETATM   14  O3  UNL     1       6.209   0.471  -0.609  1.00  0.00    -0.267 OA
ATOM     15  H4  UNL     1       3.675  -0.743   0.880  1.00  0.00     0.169 HD
BRANCH  13  16
HETATM   16  C21 UNL     1       6.153  -1.465   0.672  1.00  0.00     0.036 A 
HETATM   17  C22 UNL     1       5.465  -2.557   1.124  1.00  0.00     0.059 A 
HETATM   18  C23 UNL     1       6.110  -3.641   1.690  1.00  0.00     0.118 A 
HETATM   19  F4  UNL     1       5.370  -4.685   2.116  1.00  0.00    -0.206 F 
HETATM   20  C24 UNL     1       7.476  -3.640   1.810  1.00  0.00     0.066 A 
HETATM   21  C25 UNL     1       8.189  -2.559   1.365  1.00  0.00     0.037 A 
HETATM   22 CL2  UNL     1       9.944  -2.501   1.496  1.00  0.00    -0.084 Cl
HETATM   23  C26 UNL     1       7.529  -1.507   0.812  1.00  0.00     0.041 A 
ENDBRANCH  13  16
ENDBRANCH  10  12
BRANCH  11  24
HETATM   24  O4  UNL     1       1.450   0.005   0.913  1.00  0.00    -0.357 OA
ATOM     25  H4  UNL     1       2.043  -0.685   1.186  1.00  0.00     0.217 HD
ENDBRANCH  11  24
ENDBRANCH   3   5
BRANCH   1  26
HETATM   26  C13 UNL     1      -2.512   1.442   1.026  1.00  0.00     0.058 A 
HETATM   27  C2  UNL     1      -2.880   2.283   2.088  1.00  0.00    -0.033 A 
HETATM   28  C1  UNL     1      -1.836   2.881   2.940  1.00  0.00     0.050 C 
HETATM   29  C3  UNL     1      -4.225   2.491   2.254  1.00  0.00     0.033 A 
HETATM   30  C4  UNL     1      -5.178   1.910   1.429  1.00  0.00     0.035 A 
HETATM   31 CL1  UNL     1      -6.890   2.189   1.660  1.00  0.00    -0.084 Cl
HETATM   32  C5  UNL     1      -4.757   1.085   0.393  1.00  0.00     0.044 A 
HETATM   33  C6  UNL     1      -3.407   0.851   0.194  1.00  0.00     0.075 A 
BRANCH  33  34
HETATM   34  C7  UNL     1      -2.969  -0.065  -0.896  1.00  0.00     0.329 C 
HETATM   35  O1  UNL     1      -1.710  -0.293  -1.016  1.00  0.00    -0.251 OA
HETATM   36  N1  UNL     1      -3.879  -0.603  -1.691  1.00  0.00    -0.363 NA
BRANCH  36  37
HETATM   37  C8  UNL     1      -4.738  -1.267  -2.182  1.00  0.00     0.155 A 
HETATM   38  C9  UNL     1      -5.244  -1.055  -3.477  1.00  0.00     0.109 A 
HETATM   39  C10 UNL     1      -6.227  -1.821  -4.036  1.00  0.00     0.191 A 
HETATM   40  F1  UNL     1      -6.703  -1.590  -5.303  1.00  0.00    -0.186 F 
HETATM   41  N2  UNL     1      -6.744  -2.826  -3.330  1.00  0.00    -0.340 N 
HETATM   42  C11 UNL     1      -6.309  -3.080  -2.095  1.00  0.00     0.136 A 
ATOM     43  H2  UNL     1      -7.478  -3.405  -3.737  1.00  0.00     0.167 HD
HETATM   44  C12 UNL     1      -5.327  -2.339  -1.496  1.00  0.00     0.172 A 
HETATM   45  F2  UNL     1      -4.910  -2.633  -0.229  1.00  0.00    -0.201 F 
ENDBRANCH  36  37
ENDBRANCH  33  34
ENDBRANCH   1  26
TORSDOF 7
