REMARK  9 active torsions:
REMARK  status: ('A' for Active; 'I' for Inactive)
REMARK    1  A    between atoms: C7_11  and  C8_12 
REMARK    2  A    between atoms: C8_12  and  C9_13 
REMARK    3  A    between atoms: C8_12  and  O3_16 
REMARK    4  A    between atoms: C8_12  and  C15_22 
REMARK    5  A    between atoms: C9_13  and  O2_14 
REMARK    6  A    between atoms: O3_16  and  C10_17 
REMARK    7  A    between atoms: C10_17  and  C11_18 
REMARK    8  A    between atoms: C11_18  and  C12_19 
REMARK    9  A    between atoms: C20_28  and  N1_29 
ROOT
HETATM    1  C8  UNL     1      -0.283  -0.556   1.162  1.00  0.00     0.139 C 
ENDROOT
BRANCH   1   2
HETATM    2  C7  UNL     1      -0.253  -2.005   0.864  1.00  0.00     0.020 A 
HETATM    3  C2  UNL     1      -1.384  -2.862   0.601  1.00  0.00    -0.010 A 
HETATM    4  C1  UNL     1      -2.598  -2.422   0.675  1.00  0.00     0.026 C 
HETATM    5  C3  UNL     1      -1.227  -4.300   0.317  1.00  0.00     0.070 A 
HETATM    6 CL1  UNL     1      -2.632  -5.332  -0.009  1.00  0.00    -0.082 Cl
HETATM    7  C4  UNL     1      -0.051  -4.848   0.297  1.00  0.00     0.108 A 
HETATM    8 CL2  UNL     1       0.095  -6.579  -0.048  1.00  0.00    -0.078 Cl
HETATM    9  C5  UNL     1       1.117  -4.033   0.563  1.00  0.00     0.217 A 
HETATM   10  O1  UNL     1       2.243  -4.584   0.542  1.00  0.00    -0.285 OA
HETATM   11  C6  UNL     1       0.958  -2.605   0.845  1.00  0.00     0.096 A 
HETATM   12 CL3  UNL     1       2.426  -1.793   1.339  1.00  0.00    -0.079 Cl
ENDBRANCH   1   2
BRANCH   1  13
HETATM   13  C9  UNL     1      -0.350  -0.366   2.611  1.00  0.00     0.212 C 
BRANCH  13  14
HETATM   14  O2  UNL     1      -0.244   0.888   3.139  1.00  0.00    -0.397 OA
ATOM     15  H2  UNL     1      -0.288   1.011   4.080  1.00  0.00     0.209 HD
ENDBRANCH  13  14
ENDBRANCH   1  13
BRANCH   1  16
HETATM   16  O3  UNL     1       0.994  -0.087   0.592  1.00  0.00    -0.368 OA
BRANCH  16  17
HETATM   17  C10 UNL     1       1.213   1.201   0.878  1.00  0.00     0.170 C 
BRANCH  17  18
HETATM   18  C11 UNL     1       2.128   1.963   0.007  1.00  0.00     0.030 C 
BRANCH  18  19
HETATM   19  C12 UNL     1       3.521   1.561  -0.265  1.00  0.00    -0.021 C 
HETATM   20  C13 UNL     1       4.172   2.703  -1.133  1.00  0.00     0.009 C 
HETATM   21  C14 UNL     1       3.583   0.376  -1.269  1.00  0.00     0.009 C 
ENDBRANCH  18  19
ENDBRANCH  17  18
ENDBRANCH  16  17
ENDBRANCH   1  16
BRANCH   1  22
HETATM   22  C15 UNL     1      -1.222   0.237   0.314  1.00  0.00    -0.014 A 
HETATM   23  C16 UNL     1      -1.221   0.033  -1.048  1.00  0.00     0.019 A 
HETATM   24  C17 UNL     1      -2.037   0.742  -1.898  1.00  0.00    -0.037 A 
HETATM   25  C18 UNL     1      -2.064   0.550  -3.369  1.00  0.00     0.050 C 
HETATM   26  C19 UNL     1      -2.882   1.688  -1.362  1.00  0.00     0.073 A 
HETATM   27 CL4  UNL     1      -3.941   2.613  -2.441  1.00  0.00    -0.081 Cl
HETATM   28  C20 UNL     1      -2.922   1.932  -0.006  1.00  0.00     0.125 A 
HETATM   29  C21 UNL     1      -2.069   1.180   0.818  1.00  0.00     0.048 A 
BRANCH  28  30
HETATM   30  N1  UNL     1      -3.795   2.908   0.540  1.00  0.00    -0.114 N 
HETATM   31  O4  UNL     1      -4.070   3.909  -0.139  1.00  0.00    -0.532 OA
HETATM   32  O5  UNL     1      -4.300   2.707   1.796  1.00  0.00    -0.532 OA
ENDBRANCH  28  30
ENDBRANCH   1  22
TORSDOF 9
