REMARK  9 active torsions:
REMARK  status: ('A' for Active; 'I' for Inactive)
REMARK    1  A    between atoms: C3_3  and  C4_4 
REMARK    2  A    between atoms: C9_11  and  S1_12 
REMARK    3  A    between atoms: S1_12  and  N1_13 
REMARK    4  A    between atoms: S1_12  and  N2_17 
REMARK    5  A    between atoms: N2_17  and  C11_19 
REMARK    6  A    between atoms: C11_19  and  C12_20 
REMARK    7  A    between atoms: C14_22  and  C15_23 
REMARK    8  A    between atoms: C15_23  and  S2_26 
REMARK    9  A    between atoms: S2_26  and  C16_27 
ROOT
HETATM    1  C1  UNL     1      -4.909   2.539   2.793  1.00  0.00     0.012 C 
HETATM    2  C2  UNL     1      -4.448   2.344   1.694  1.00  0.00    -0.113 C 
HETATM    3  C3  UNL     1      -3.846   2.059   0.339  1.00  0.00     0.134 C 
ENDROOT
BRANCH   3   4
HETATM    4  C4  UNL     1      -4.028   0.629   0.087  1.00  0.00    -0.004 A 
HETATM    5  C5  UNL     1      -5.302   0.217  -0.325  1.00  0.00     0.044 A 
HETATM    6 CL1  UNL     1      -6.520   1.438  -0.703  1.00  0.00    -0.084 Cl
HETATM    7  C6  UNL     1      -5.603  -1.122  -0.456  1.00  0.00     0.048 A 
HETATM    8  C7  UNL     1      -4.629  -2.054  -0.177  1.00  0.00     0.037 A 
HETATM    9 CL2  UNL     1      -4.967  -3.782  -0.355  1.00  0.00    -0.084 Cl
HETATM   10  C8  UNL     1      -3.383  -1.624   0.223  1.00  0.00     0.048 A 
HETATM   11  C9  UNL     1      -3.059  -0.266   0.361  1.00  0.00     0.069 A 
BRANCH  11  12
HETATM   12  S1  UNL     1      -1.456   0.204   0.763  1.00  0.00     0.139 S 
HETATM   13  O1  UNL     1      -1.452   1.226   1.914  1.00  0.00    -0.223 OA
BRANCH  12  14
HETATM   14  N1  UNL     1      -0.717  -1.040   1.373  1.00  0.00    -0.341 N 
ATOM     15  H12 UNL     1      -1.131  -1.963   1.502  1.00  0.00     0.167 HD
ATOM     16  H11 UNL     1       0.235  -0.761   1.612  1.00  0.00     0.167 HD
ENDBRANCH  12  14
BRANCH  12  17
HETATM   17  N2  UNL     1      -0.600   0.786  -0.554  1.00  0.00    -0.301 N 
HETATM   18  C10 UNL     1      -1.234   0.978  -1.792  1.00  0.00     0.167 C 
BRANCH  17  19
HETATM   19  C11 UNL     1       0.782   0.987  -0.472  1.00  0.00     0.140 C 
BRANCH  19  20
HETATM   20  C12 UNL     1       1.603  -0.253  -0.422  1.00  0.00     0.117 A 
HETATM   21  C13 UNL     1       2.890  -0.345   0.149  1.00  0.00     0.072 A 
HETATM   22  C14 UNL     1       3.348  -1.614   0.012  1.00  0.00     0.084 A 
HETATM   23  N3  UNL     1       2.330  -2.269  -0.636  1.00  0.00    -0.261 N 
HETATM   24  O2  UNL     1       1.352  -1.450  -0.863  1.00  0.00    -0.236 OA
ATOM     25  H3  UNL     1       2.342  -3.254  -0.900  1.00  0.00     0.194 HD
BRANCH  22  26
HETATM   26  C15 UNL     1       4.605  -2.301   0.419  1.00  0.00     0.205 C 
HETATM   27 CL3  UNL     1       4.204  -3.596   1.615  1.00  0.00    -0.082 Cl
HETATM   28 CL4  UNL     1       5.247  -3.179  -1.038  1.00  0.00    -0.082 Cl
BRANCH  26  29
HETATM   29  S2  UNL     1       5.862  -1.260   1.123  1.00  0.00    -0.121 SA
BRANCH  29  30
HETATM   30  C16 UNL     1       6.775  -0.252  -0.014  1.00  0.00     0.073 C 
HETATM   31  C17 UNL     1       6.026   0.834  -0.713  1.00  0.00     0.016 C 
ENDBRANCH  29  30
ENDBRANCH  26  29
ENDBRANCH  22  26
ENDBRANCH  19  20
ENDBRANCH  17  19
ENDBRANCH  12  17
ENDBRANCH  11  12
ENDBRANCH   3   4
TORSDOF 9
