REMARK  9 active torsions:
REMARK  status: ('A' for Active; 'I' for Inactive)
REMARK    1  A    between atoms: C2_2  and  C3_3 
REMARK    2  A    between atoms: C4_7  and  C5_8 
REMARK    3  A    between atoms: C5_8  and  N3_9 
REMARK    4  A    between atoms: N3_9  and  C6_10 
REMARK    5  A    between atoms: N3_9  and  C9_13 
REMARK    6  A    between atoms: C12_16  and  C13_17 
REMARK    7  A    between atoms: C13_17  and  O1_20 
REMARK    8  A    between atoms: C19_27  and  C20_28 
REMARK    9  A    between atoms: C20_28  and  C21_29 
ROOT
HETATM    1  C3  UNL     1       1.582  -1.149   0.354  1.00  0.00     0.040 A 
HETATM    2  N1  UNL     1       0.263  -0.745   0.411  1.00  0.00    -0.295 N 
ATOM      3  H1  UNL     1      -0.496  -1.264   0.853  1.00  0.00     0.187 HD
HETATM    4  N2  UNL     1       0.142   0.421  -0.198  1.00  0.00    -0.241 N 
HETATM    5  C4  UNL     1      -0.958   1.184  -0.349  1.00  0.00     0.075 A 
HETATM    6  C12 UNL     1      -0.831   2.441  -1.022  1.00  0.00     0.024 A 
HETATM    7  C16 UNL     1       0.394   2.802  -1.476  1.00  0.00     0.018 A 
HETATM    8  C17 UNL     1       0.717   4.019  -2.226  1.00  0.00     0.069 C 
HETATM    9  N4  UNL     1       1.461   1.945  -1.270  1.00  0.00    -0.344 N 
ATOM     10  H4  UNL     1       2.380   2.222  -1.614  1.00  0.00     0.167 HD
HETATM   11  C18 UNL     1       1.344   0.780  -0.646  1.00  0.00     0.140 A 
HETATM   12  C19 UNL     1       2.295  -0.222  -0.304  1.00  0.00     0.035 A 
ENDROOT
BRANCH  12  13
HETATM   13  C20 UNL     1       3.658  -0.099  -0.751  1.00  0.00     0.032 C 
BRANCH  13  14
HETATM   14  C21 UNL     1       4.661  -1.090  -0.513  1.00  0.00     0.010 A 
HETATM   15  C22 UNL     1       4.922  -2.107  -1.448  1.00  0.00     0.060 A 
HETATM   16  C23 UNL     1       5.863  -3.077  -1.246  1.00  0.00     0.159 A 
HETATM   17  F1  UNL     1       6.123  -4.065  -2.140  1.00  0.00    -0.203 F 
HETATM   18  C24 UNL     1       6.586  -3.056  -0.078  1.00  0.00     0.196 A 
HETATM   19  F2  UNL     1       7.543  -3.979   0.214  1.00  0.00    -0.199 F 
HETATM   20  C25 UNL     1       6.366  -2.079   0.865  1.00  0.00     0.197 A 
HETATM   21  F3  UNL     1       7.103  -2.072   2.036  1.00  0.00    -0.199 F 
HETATM   22  C26 UNL     1       5.413  -1.119   0.632  1.00  0.00     0.168 A 
HETATM   23  F4  UNL     1       5.237  -0.136   1.578  1.00  0.00    -0.202 F 
ENDBRANCH  13  14
ENDBRANCH  12  13
BRANCH   1  24
HETATM   24  C2  UNL     1       1.953  -2.395   1.035  1.00  0.00     0.055 C 
HETATM   25  C1  UNL     1       2.351  -2.223   2.486  1.00  0.00     0.011 C 
ENDBRANCH   1  24
BRANCH   5  26
HETATM   26  C5  UNL     1      -2.239   0.853   0.274  1.00  0.00     0.333 C 
BRANCH  26  27
HETATM   27  N3  UNL     1      -2.286  -0.541   0.753  1.00  0.00     0.101 N 
BRANCH  27  28
HETATM   28  C6  UNL     1      -2.728  -1.330  -0.375  1.00  0.00     0.216 C 
HETATM   29  C7  UNL     1      -4.141  -0.970  -0.814  1.00  0.00     0.042 C 
HETATM   30  C8  UNL     1      -2.656  -2.814  -0.222  1.00  0.00     0.042 C 
ENDBRANCH  27  28
BRANCH  27  31
HETATM   31  C9  UNL     1      -3.085  -0.597   1.919  1.00  0.00     0.216 C 
HETATM   32  C10 UNL     1      -2.396   0.246   3.003  1.00  0.00     0.042 C 
HETATM   33  C11 UNL     1      -3.279  -1.938   2.544  1.00  0.00     0.042 C 
ENDBRANCH  27  31
ENDBRANCH  26  27
ENDBRANCH   5  26
BRANCH   6  34
HETATM   34  C13 UNL     1      -2.038   3.220  -1.271  1.00  0.00     0.081 C 
HETATM   35  C14 UNL     1      -3.031   2.641  -2.222  1.00  0.00     0.051 C 
HETATM   36  C15 UNL     1      -1.823   4.707  -1.619  1.00  0.00     0.051 C 
BRANCH  34  37
HETATM   37  O1  UNL     1      -2.706   3.403   0.002  1.00  0.00    -0.386 OA
ATOM     38  H1  UNL     1      -3.492   3.911  -0.160  1.00  0.00     0.211 HD
ENDBRANCH  34  37
ENDBRANCH   6  34
TORSDOF 9
