REMARK  10 active torsions:
REMARK  status: ('A' for Active; 'I' for Inactive)
REMARK    1  A    between atoms: C2_2  and  O1_3 
REMARK    2  A    between atoms: O1_3  and  C3_4 
REMARK    3  A    between atoms: C3_4  and  C4_6 
REMARK    4  A    between atoms: C4_6  and  C5_7 
REMARK    5  A    between atoms: C6_8  and  C7_9 
REMARK    6  A    between atoms: C7_9  and  S1_10 
REMARK    7  A    between atoms: S1_10  and  C8_11 
REMARK    8  A    between atoms: C8_11  and  C9_12 
REMARK       I    between atoms: C9_12  and  N1_14 
REMARK    9  A    between atoms: N1_14  and  C10_16 
REMARK   10  A    between atoms: C19_26  and  C20_27 
ROOT
HETATM    1  C5  UNL     1       3.856  -0.831   0.208  1.00  0.00    -0.013 A 
HETATM    2  C6  UNL     1       2.488  -0.998  -0.044  1.00  0.00    -0.024 A 
HETATM    3  C17 UNL     1       2.303  -2.311  -0.306  1.00  0.00     0.099 A 
HETATM    4  N2  UNL     1       3.477  -3.014  -0.237  1.00  0.00    -0.360 N 
HETATM    5  C18 UNL     1       3.585  -4.455  -0.477  1.00  0.00     0.155 C 
HETATM    6  C19 UNL     1       4.414  -2.116   0.077  1.00  0.00     0.073 A 
ENDROOT
BRANCH   2   7
HETATM    7  C7  UNL     1       1.435   0.122  -0.126  1.00  0.00     0.119 C 
BRANCH   7   8
HETATM    8  S1  UNL     1       0.264  -0.156   1.124  1.00  0.00    -0.131 SA
BRANCH   8   9
HETATM    9  C8  UNL     1      -0.911  -1.305   1.404  1.00  0.00     0.119 C 
BRANCH   9  10
HETATM   10  C9  UNL     1      -2.329  -1.124   1.031  1.00  0.00     0.247 C 
HETATM   11  O3  UNL     1      -3.196  -1.957   1.286  1.00  0.00    -0.268 OA
HETATM   12  N1  UNL     1      -2.761   0.081   0.347  1.00  0.00    -0.353 N 
ATOM     13  H1  UNL     1      -2.075   0.775   0.050  1.00  0.00     0.163 HD
BRANCH  12  14
HETATM   14  C10 UNL     1      -4.154   0.291   0.091  1.00  0.00     0.084 C 
HETATM   15  C11 UNL     1      -4.734  -0.461  -1.089  1.00  0.00     0.025 C 
HETATM   16  C12 UNL     1      -6.071  -1.045  -0.701  1.00  0.00     0.002 C 
HETATM   17  C13 UNL     1      -7.188  -0.069  -0.634  1.00  0.00     0.000 C 
HETATM   18  C14 UNL     1      -6.914   1.176   0.150  1.00  0.00     0.000 C 
HETATM   19  C15 UNL     1      -5.864   2.018  -0.522  1.00  0.00     0.002 C 
HETATM   20  C16 UNL     1      -4.549   1.699   0.162  1.00  0.00     0.025 C 
ENDBRANCH  12  14
ENDBRANCH   9  10
ENDBRANCH   8   9
ENDBRANCH   7   8
ENDBRANCH   2   7
BRANCH   1  21
HETATM   21  C4  UNL     1       4.458   0.408   0.631  1.00  0.00     0.152 C 
BRANCH  21  22
HETATM   22  C3  UNL     1       4.886   1.426  -0.330  1.00  0.00     0.263 C 
HETATM   23  O2  UNL     1       4.937   1.401  -1.558  1.00  0.00    -0.265 OA
BRANCH  22  24
HETATM   24  O1  UNL     1       5.318   2.638   0.258  1.00  0.00    -0.322 OA
BRANCH  24  25
HETATM   25  C2  UNL     1       5.817   3.734  -0.383  1.00  0.00     0.174 C 
HETATM   26  C1  UNL     1       5.027   4.327  -1.521  1.00  0.00     0.034 C 
ENDBRANCH  24  25
ENDBRANCH  22  24
ENDBRANCH  21  22
ENDBRANCH   1  21
BRANCH   6  27
HETATM   27  C20 UNL     1       5.835  -2.415   0.376  1.00  0.00     0.231 C 
HETATM   28 CL1  UNL     1       6.945  -1.444  -0.570  1.00  0.00    -0.077 Cl
HETATM   29 CL2  UNL     1       6.262  -4.116   0.078  1.00  0.00    -0.077 Cl
HETATM   30 CL3  UNL     1       6.155  -2.078   2.122  1.00  0.00    -0.077 Cl
ENDBRANCH   6  27
TORSDOF 10
