REMARK  10 active torsions:
REMARK  status: ('A' for Active; 'I' for Inactive)
REMARK    1  A    between atoms: C2_2  and  C3_3 
REMARK    2  A    between atoms: C2_2  and  N1_8 
REMARK    3  A    between atoms: C3_3  and  C4_4 
REMARK    4  A    between atoms: C9_15  and  C10_16 
REMARK    5  A    between atoms: C13_19  and  O1_20 
REMARK    6  A    between atoms: O1_20  and  C14_21 
REMARK    7  A    between atoms: C14_21  and  C15_22 
REMARK    8  A    between atoms: N4_25  and  C18_26 
REMARK    9  A    between atoms: C18_26  and  N5_28 
REMARK   10  A    between atoms: C21_33  and  C22_34 
ROOT
HETATM    1  C10 UNL     1       0.559   1.192  -0.011  1.00  0.00     0.018 A 
HETATM    2  C11 UNL     1      -0.322   2.224   0.208  1.00  0.00     0.018 A 
HETATM    3  C12 UNL     1      -1.677   1.971   0.205  1.00  0.00     0.038 A 
HETATM    4  C13 UNL     1      -2.164   0.714  -0.012  1.00  0.00     0.077 A 
HETATM    5  C21 UNL     1      -1.274  -0.333  -0.234  1.00  0.00     0.009 A 
HETATM    6  C24 UNL     1       0.078  -0.094  -0.233  1.00  0.00     0.028 A 
ENDROOT
BRANCH   1   7
HETATM    7  C9  UNL     1       2.002   1.450  -0.011  1.00  0.00     0.176 A 
HETATM    8  N3  UNL     1       2.587   2.640   0.190  1.00  0.00    -0.276 N 
HETATM    9  N2  UNL     1       3.909   2.515   0.123  1.00  0.00    -0.263 N 
ATOM     10  H3  UNL     1       2.090   3.513   0.368  1.00  0.00     0.189 HD
HETATM   11  C8  UNL     1       4.146   1.205  -0.126  1.00  0.00     0.241 A 
ATOM     12  H2  UNL     1       4.603   3.254   0.236  1.00  0.00     0.190 HD
HETATM   13  N1  UNL     1       5.337   0.722  -0.254  1.00  0.00    -0.350 N 
HETATM   14  O2  UNL     1       2.981   0.600  -0.199  1.00  0.00    -0.259 OA
ATOM     15  H1  UNL     1       6.136   1.350  -0.164  1.00  0.00     0.163 HD
BRANCH  13  16
HETATM   16  C2  UNL     1       5.574  -0.671  -0.519  1.00  0.00     0.081 C 
HETATM   17  C1  UNL     1       5.184  -1.517   0.677  1.00  0.00     0.032 C 
BRANCH  16  18
HETATM   18  C3  UNL     1       6.966  -0.905  -0.970  1.00  0.00     0.029 C 
BRANCH  18  19
HETATM   19  C4  UNL     1       7.954  -0.601   0.117  1.00  0.00    -0.013 C 
HETATM   20  C5  UNL     1       9.373  -0.896  -0.403  1.00  0.00     0.005 C 
HETATM   21  C6  UNL     1       9.451   0.546  -0.831  1.00  0.00     0.001 C 
HETATM   22  C7  UNL     1       8.396   0.835   0.229  1.00  0.00     0.005 C 
ENDBRANCH  18  19
ENDBRANCH  16  18
ENDBRANCH  13  16
ENDBRANCH   1   7
BRANCH   5  23
HETATM   23  C22 UNL     1      -1.809  -1.720  -0.473  1.00  0.00     0.202 C 
HETATM   24  C23 UNL     1      -0.637  -2.649  -0.690  1.00  0.00     0.050 C 
HETATM   25  F2  UNL     1      -2.697  -1.742  -1.503  1.00  0.00    -0.245 F 
ENDBRANCH   5  23
BRANCH   4  26
HETATM   26  O1  UNL     1      -3.522   0.412  -0.024  1.00  0.00    -0.350 OA
BRANCH  26  27
HETATM   27  C14 UNL     1      -4.529   1.357   0.184  1.00  0.00     0.180 C 
BRANCH  27  28
HETATM   28  C15 UNL     1      -5.870   0.631   0.092  1.00  0.00     0.013 C 
HETATM   29  C16 UNL     1      -6.992   1.601   0.308  1.00  0.00     0.027 C 
HETATM   30  C17 UNL     1      -8.312   0.934  -0.021  1.00  0.00     0.126 C 
HETATM   31  N4  UNL     1      -8.224  -0.465   0.364  1.00  0.00    -0.356 N 
HETATM   32  C19 UNL     1      -7.357  -0.871   1.432  1.00  0.00     0.126 C 
HETATM   33  C20 UNL     1      -5.902  -0.484   1.140  1.00  0.00     0.027 C 
BRANCH  31  34
HETATM   34  C18 UNL     1      -9.004  -1.430  -0.327  1.00  0.00     0.201 C 
HETATM   35 CL1  UNL     1      -8.436  -3.096  -0.525  1.00  0.00    -0.043 Cl
BRANCH  34  36
HETATM   36  N5  UNL     1     -10.153  -1.163  -0.846  1.00  0.00    -0.198 N 
HETATM   37  F1  UNL     1     -10.713   0.051  -0.777  1.00  0.00    -0.099 F 
ATOM     38  H5  UNL     1     -10.656  -1.907  -1.329  1.00  0.00     0.202 HD
ENDBRANCH  34  36
ENDBRANCH  31  34
ENDBRANCH  27  28
ENDBRANCH  26  27
ENDBRANCH   4  26
TORSDOF 10
