REMARK  15 active torsions:
REMARK  status: ('A' for Active; 'I' for Inactive)
REMARK    1  A    between atoms: C3_7  and  N3_8 
REMARK    2  A    between atoms: C5_15  and  C6_16 
REMARK       I    between atoms: C6_16  and  N5_18 
REMARK    3  A    between atoms: N5_18  and  C7_19 
REMARK    4  A    between atoms: C7_19  and  C8_20 
REMARK    5  A    between atoms: C8_20  and  C9_21 
REMARK    6  A    between atoms: C9_21  and  C10_22 
REMARK    7  A    between atoms: C10_22  and  C11_23 
REMARK    8  A    between atoms: C11_23  and  C12_24 
REMARK    9  A    between atoms: C12_24  and  N7_28 
REMARK   10  A    between atoms: N7_28  and  C13_30 
REMARK   11  A    between atoms: C13_30  and  C14_31 
REMARK   12  A    between atoms: C14_31  and  C15_32 
REMARK   13  A    between atoms: C15_32  and  C16_33 
REMARK   14  A    between atoms: C16_33  and  C17_34 
REMARK   15  A    between atoms: C17_34  and  C18_35 
ROOT
HETATM    1  C8  UNL     1       2.668   1.423  -0.473  1.00  0.00     0.060 C 
ENDROOT
BRANCH   1   2
HETATM    2  C7  UNL     1       4.005   1.456   0.144  1.00  0.00     0.159 C 
BRANCH   2   3
HETATM    3  N5  UNL     1       4.628   0.246   0.437  1.00  0.00    -0.383 NA
HETATM    4  C6  UNL     1       5.228  -0.933   0.728  1.00  0.00     0.332 C 
HETATM    5  O1  UNL     1       4.849  -1.809   1.545  1.00  0.00    -0.250 OA
BRANCH   4   6
HETATM    6  C5  UNL     1       6.509  -1.252   0.007  1.00  0.00     0.090 A 
HETATM    7  S1  UNL     1       7.541  -2.584   0.241  1.00  0.00    -0.064 SA
HETATM    8  C4  UNL     1       8.728  -2.211  -0.941  1.00  0.00     0.105 A 
HETATM    9  N4  UNL     1       9.884  -2.834  -1.334  1.00  0.00    -0.185 N 
HETATM   10  C24 UNL     1       8.277  -1.044  -1.494  1.00  0.00     0.044 A 
HETATM   11  C3  UNL     1      10.642  -2.309  -2.305  1.00  0.00     0.678 A 
ATOM     12  H4  UNL     1      10.169  -3.704  -0.884  1.00  0.00     0.185 HD
HETATM   13  N2  UNL     1      10.221  -1.183  -2.852  1.00  0.00    -0.176 N 
HETATM   14  C2  UNL     1       9.083  -0.503  -2.517  1.00  0.00     0.129 A 
ATOM     15  H2  UNL     1      10.798  -0.784  -3.593  1.00  0.00     0.186 HD
HETATM   16  N1  UNL     1       8.889   0.525  -3.191  1.00  0.00    -0.379 N 
HETATM   17  C1  UNL     1       7.950   1.520  -3.266  1.00  0.00     0.147 C 
ATOM     18  H1  UNL     1       9.633   0.665  -3.875  1.00  0.00     0.160 HD
HETATM   19  C23 UNL     1       7.121  -0.555  -0.990  1.00  0.00     0.044 A 
BRANCH  11  20
HETATM   20  N3  UNL     1      11.728  -2.875  -2.690  1.00  0.00    -0.234 N 
ATOM     21  H32 UNL     1      12.305  -2.475  -3.430  1.00  0.00     0.174 HD
ATOM     22  H31 UNL     1      12.053  -3.745  -2.268  1.00  0.00     0.174 HD
ENDBRANCH  11  20
ENDBRANCH   4   6
ENDBRANCH   2   3
ENDBRANCH   1   2
BRANCH   1  23
HETATM   23  C9  UNL     1       1.612   0.788   0.373  1.00  0.00     0.006 C 
BRANCH  23  24
HETATM   24  C10 UNL     1       1.388   1.510   1.656  1.00  0.00     0.008 C 
BRANCH  24  25
HETATM   25  C11 UNL     1       0.308   0.904   2.479  1.00  0.00     0.075 C 
BRANCH  25  26
HETATM   26  C12 UNL     1      -1.026   0.979   1.849  1.00  0.00     0.070 C 
HETATM   27  N6  UNL     1      -1.250   1.654   0.754  1.00  0.00    -0.389 N 
ATOM     28  H62 UNL     1      -0.430   2.103   0.347  1.00  0.00     0.157 HD
ATOM     29  H61 UNL     1      -2.171   1.706   0.319  1.00  0.00     0.157 HD
BRANCH  26  30
HETATM   30  N7  UNL     1      -2.162   0.357   2.413  1.00  0.00    -0.380 N 
ATOM     31  H7  UNL     1      -2.677   0.871   3.128  1.00  0.00     0.160 HD
BRANCH  30  32
HETATM   32  C13 UNL     1      -2.647  -0.952   2.051  1.00  0.00     0.121 C 
BRANCH  32  33
HETATM   33  C14 UNL     1      -3.928  -1.283   2.809  1.00  0.00     0.020 C 
BRANCH  33  34
HETATM   34  C15 UNL     1      -5.013  -0.275   2.482  1.00  0.00     0.002 C 
BRANCH  34  35
HETATM   35  C16 UNL     1      -5.347  -0.301   1.015  1.00  0.00     0.003 C 
BRANCH  35  36
HETATM   36  C17 UNL     1      -6.409   0.742   0.725  1.00  0.00     0.034 C 
BRANCH  36  37
HETATM   37  C18 UNL     1      -6.800   0.735  -0.735  1.00  0.00     0.149 C 
HETATM   38  C19 UNL     1      -7.850   1.824  -0.938  1.00  0.00     0.203 C 
HETATM   39  O2  UNL     1      -8.979   1.182  -0.484  1.00  0.00    -0.353 OA
HETATM   40  C20 UNL     1      -8.857  -0.169  -0.803  1.00  0.00     0.157 C 
HETATM   41  C21 UNL     1      -9.264  -0.991   0.400  1.00  0.00     0.078 C 
HETATM   42  C22 UNL     1      -9.748  -0.516  -1.970  1.00  0.00     0.078 C 
HETATM   43  O3  UNL     1      -7.511  -0.426  -1.058  1.00  0.00    -0.348 OA
ENDBRANCH  36  37
ENDBRANCH  35  36
ENDBRANCH  34  35
ENDBRANCH  33  34
ENDBRANCH  32  33
ENDBRANCH  30  32
ENDBRANCH  26  30
ENDBRANCH  25  26
ENDBRANCH  24  25
ENDBRANCH  23  24
ENDBRANCH   1  23
TORSDOF 15
