REMARK  19 active torsions:
REMARK  status: ('A' for Active; 'I' for Inactive)
REMARK    1  A    between atoms: C2_2  and  C3_3 
REMARK    2  A    between atoms: C3_3  and  C4_4 
REMARK    3  A    between atoms: C4_4  and  C5_5 
REMARK    4  A    between atoms: C5_5  and  C6_6 
REMARK    5  A    between atoms: C6_6  and  C7_7 
REMARK    6  A    between atoms: C7_7  and  C8_8 
REMARK    7  A    between atoms: C12_16  and  C13_17 
REMARK    8  A    between atoms: C13_17  and  O1_18 
REMARK    9  A    between atoms: C13_17  and  N3_20 
REMARK   10  A    between atoms: N3_20  and  C14_21 
REMARK   11  A    between atoms: N3_20  and  C17_26 
REMARK   12  A    between atoms: C14_21  and  C15_22 
REMARK   13  A    between atoms: C15_22  and  C16_23 
REMARK   14  A    between atoms: C16_23  and  O2_24 
REMARK   15  A    between atoms: C17_26  and  C18_27 
REMARK   16  A    between atoms: C21_30  and  C22_31 
REMARK   17  A    between atoms: C22_31  and  N4_32 
REMARK   18  A    between atoms: C22_31  and  N5_36 
REMARK   19  A    between atoms: C25_46  and  N8_47 
ROOT
HETATM    1  N3  UNL     1      -0.381   0.451   2.224  1.00  0.00    -0.357 N 
ENDROOT
BRANCH   1   2
HETATM    2  C13 UNL     1       0.220   1.718   2.163  1.00  0.00     0.148 C 
BRANCH   2   3
HETATM    3  C12 UNL     1       0.862   2.458   1.122  1.00  0.00     0.016 A 
HETATM    4  C11 UNL     1       1.427   3.711   1.437  1.00  0.00     0.018 A 
HETATM    5  C10 UNL     1       2.050   4.513   0.526  1.00  0.00     0.033 A 
HETATM    6  C9  UNL     1       2.164   4.138  -0.776  1.00  0.00     0.060 A 
HETATM    7  N2  UNL     1       2.690   4.696  -1.893  1.00  0.00    -0.300 N 
HETATM    8  C28 UNL     1       1.637   2.929  -1.148  1.00  0.00     0.017 A 
HETATM    9  N1  UNL     1       2.527   3.918  -2.935  1.00  0.00    -0.304 N 
ATOM     10  H2  UNL     1       3.153   5.604  -1.920  1.00  0.00     0.187 HD
HETATM   11  C8  UNL     1       1.867   2.793  -2.502  1.00  0.00     0.038 A 
ATOM     12  H1  UNL     1       2.833   4.111  -3.889  1.00  0.00     0.186 HD
HETATM   13  C27 UNL     1       0.995   2.112  -0.194  1.00  0.00     0.031 A 
BRANCH  11  14
HETATM   14  C7  UNL     1       1.522   1.623  -3.322  1.00  0.00     0.059 C 
BRANCH  14  15
HETATM   15  C6  UNL     1       2.567   0.567  -3.355  1.00  0.00     0.006 C 
BRANCH  15  16
HETATM   16  C5  UNL     1       2.997  -0.038  -2.070  1.00  0.00     0.000 C 
BRANCH  16  17
HETATM   17  C4  UNL     1       4.035  -1.124  -2.314  1.00  0.00     0.000 C 
BRANCH  17  18
HETATM   18  C3  UNL     1       4.499  -1.762  -1.045  1.00  0.00    -0.000 C 
BRANCH  18  19
HETATM   19  C2  UNL     1       3.423  -2.421  -0.252  1.00  0.00    -0.005 C 
HETATM   20  C1  UNL     1       4.080  -3.010   0.998  1.00  0.00     0.005 C 
ENDBRANCH  18  19
ENDBRANCH  17  18
ENDBRANCH  16  17
ENDBRANCH  15  16
ENDBRANCH  14  15
ENDBRANCH  11  14
ENDBRANCH   2   3
BRANCH   2  21
HETATM   21  O1  UNL     1       0.191   2.378   3.318  1.00  0.00    -0.346 OA
ATOM     22  H1  UNL     1      -0.236   1.886   4.010  1.00  0.00     0.219 HD
ENDBRANCH   2  21
ENDBRANCH   1   2
BRANCH   1  23
HETATM   23  C14 UNL     1      -0.941   0.137   3.568  1.00  0.00     0.127 C 
BRANCH  23  24
HETATM   24  C15 UNL     1       0.050  -0.527   4.442  1.00  0.00     0.046 C 
BRANCH  24  25
HETATM   25  C16 UNL     1      -0.514  -0.850   5.808  1.00  0.00     0.165 C 
BRANCH  25  26
HETATM   26  O2  UNL     1      -1.607  -1.696   5.740  1.00  0.00    -0.401 OA
ATOM     27  H2  UNL     1      -1.961  -1.899   6.598  1.00  0.00     0.209 HD
ENDBRANCH  25  26
ENDBRANCH  24  25
ENDBRANCH  23  24
ENDBRANCH   1  23
BRANCH   1  28
HETATM   28  C17 UNL     1      -0.506  -0.568   1.191  1.00  0.00     0.164 C 
BRANCH  28  29
HETATM   29  C18 UNL     1      -1.764  -0.314   0.490  1.00  0.00    -0.024 A 
HETATM   30  C19 UNL     1      -2.601   0.756   0.844  1.00  0.00     0.010 A 
HETATM   31  C20 UNL     1      -3.788   1.032   0.207  1.00  0.00     0.014 A 
HETATM   32  C21 UNL     1      -4.206   0.253  -0.822  1.00  0.00     0.026 A 
HETATM   33  C23 UNL     1      -3.417  -0.800  -1.195  1.00  0.00     0.057 A 
HETATM   34  N6  UNL     1      -3.846  -1.567  -2.214  1.00  0.00    -0.351 N 
HETATM   35  C26 UNL     1      -2.203  -1.110  -0.568  1.00  0.00     0.043 A 
HETATM   36  C24 UNL     1      -3.109  -2.612  -2.614  1.00  0.00     0.182 A 
ATOM     37  H6  UNL     1      -4.728  -1.354  -2.680  1.00  0.00     0.166 HD
HETATM   38  N7  UNL     1      -1.944  -2.935  -2.035  1.00  0.00    -0.338 N 
HETATM   39  C25 UNL     1      -1.468  -2.185  -0.995  1.00  0.00     0.113 A 
ATOM     40  H7  UNL     1      -1.413  -3.739  -2.370  1.00  0.00     0.168 HD
BRANCH  32  41
HETATM   41  C22 UNL     1      -5.484   0.519  -1.536  1.00  0.00     0.413 C 
BRANCH  41  42
HETATM   42  N4  UNL     1      -6.228  -0.721  -1.732  1.00  0.00    -0.046 N 
ATOM     43  H43 UNL     1      -5.668  -1.428  -2.208  1.00  0.00     0.277 HD
ATOM     44  H42 UNL     1      -6.381  -1.215  -0.853  1.00  0.00     0.277 HD
ATOM     45  H41 UNL     1      -7.104  -0.539  -2.221  1.00  0.00     0.277 HD
ENDBRANCH  41  42
BRANCH  41  46
HETATM   46  N5  UNL     1      -6.348   1.393  -0.762  1.00  0.00    -0.046 N 
ATOM     47  H53 UNL     1      -6.512   1.024   0.175  1.00  0.00     0.277 HD
ATOM     48  H52 UNL     1      -5.874   2.259  -0.508  1.00  0.00     0.277 HD
ATOM     49  H51 UNL     1      -7.224   1.575  -1.251  1.00  0.00     0.277 HD
ENDBRANCH  41  46
ENDBRANCH  32  41
BRANCH  39  50
HETATM   50  N8  UNL     1      -0.364  -2.484  -0.428  1.00  0.00    -0.385 N 
ATOM     51  H82 UNL     1       0.183  -3.284  -0.746  1.00  0.00     0.157 HD
ATOM     52  H81 UNL     1      -0.009  -1.925   0.348  1.00  0.00     0.157 HD
ENDBRANCH  39  50
ENDBRANCH  28  29
ENDBRANCH   1  28
TORSDOF 19
