REMARK  15 active torsions:
REMARK  status: ('A' for Active; 'I' for Inactive)
REMARK    1  A    between atoms: C4_4  and  N1_5 
REMARK    2  A    between atoms: N1_5  and  C5_7 
REMARK    3  A    between atoms: C5_7  and  C6_8 
REMARK    4  A    between atoms: C6_8  and  C7_9 
REMARK    5  A    between atoms: C7_9  and  C8_10 
REMARK    6  A    between atoms: C8_10  and  C9_11 
REMARK    7  A    between atoms: C9_11  and  C10_12 
REMARK    8  A    between atoms: C10_12  and  C11_13 
REMARK    9  A    between atoms: C11_13  and  C12_14 
REMARK   10  A    between atoms: C12_14  and  N2_15 
REMARK   11  A    between atoms: N2_15  and  C13_17 
REMARK   12  A    between atoms: C16_22  and  N4_23 
REMARK   13  A    between atoms: C17_28  and  N6_29 
REMARK   14  A    between atoms: C19_33  and  C20_34 
REMARK   15  A    between atoms: C20_34  and  C21_35 
ROOT
HETATM    1  N1  UNL     1      -1.037   0.773   1.495  1.00  0.00    -0.388 N 
ATOM      2  H1  UNL     1      -0.647   1.668   1.790  1.00  0.00     0.159 HD
ENDROOT
BRANCH   1   3
HETATM    3  C4  UNL     1      -2.266   0.745   0.793  1.00  0.00     0.061 A 
HETATM    4  C3  UNL     1      -2.818  -0.512   0.495  1.00  0.00     0.039 A 
HETATM    5  C2  UNL     1      -4.024  -0.666  -0.143  1.00  0.00    -0.053 A 
HETATM    6  C1  UNL     1      -4.529  -2.041  -0.422  1.00  0.00     0.049 C 
HETATM    7  C19 UNL     1      -4.712   0.475  -0.502  1.00  0.00    -0.045 A 
HETATM    8  C18 UNL     1      -4.185   1.710  -0.218  1.00  0.00     0.046 A 
HETATM    9  C17 UNL     1      -2.940   1.862   0.440  1.00  0.00     0.129 A 
BRANCH   7  10
HETATM   10  C20 UNL     1      -5.993   0.426  -1.193  1.00  0.00     0.085 C 
BRANCH  10  11
HETATM   11  C21 UNL     1      -7.170   0.039  -0.417  1.00  0.00     0.036 A 
HETATM   12  C22 UNL     1      -8.244  -0.554  -1.097  1.00  0.00     0.022 A 
HETATM   13  C23 UNL     1      -8.094  -0.723  -2.572  1.00  0.00     0.069 C 
HETATM   14  N7  UNL     1      -9.354  -0.949  -0.465  1.00  0.00    -0.312 N 
HETATM   15  C24 UNL     1      -9.490  -0.793   0.867  1.00  0.00     0.327 A 
ATOM     16  H7  UNL     1     -10.111  -1.376  -1.000  1.00  0.00     0.170 HD
HETATM   17  O3  UNL     1     -10.544  -1.169   1.461  1.00  0.00    -0.247 OA
HETATM   18  N8  UNL     1      -8.476  -0.227   1.539  1.00  0.00    -0.275 N 
HETATM   19  C25 UNL     1      -7.335   0.188   0.943  1.00  0.00     0.257 A 
ATOM     20  H8  UNL     1      -8.570  -0.104   2.547  1.00  0.00     0.173 HD
HETATM   21  O4  UNL     1      -6.402   0.713   1.595  1.00  0.00    -0.267 OA
ENDBRANCH  10  11
ENDBRANCH   7  10
BRANCH   9  22
HETATM   22  N6  UNL     1      -2.460   3.156   0.699  1.00  0.00    -0.113 N 
HETATM   23  O1  UNL     1      -1.276   3.450   0.652  1.00  0.00    -0.532 OA
HETATM   24  O2  UNL     1      -3.361   4.184   0.984  1.00  0.00    -0.532 OA
ENDBRANCH   9  22
ENDBRANCH   1   3
BRANCH   1  25
HETATM   25  C5  UNL     1      -0.321  -0.457   1.802  1.00  0.00     0.120 C 
BRANCH  25  26
HETATM   26  C6  UNL     1       0.908  -0.117   2.593  1.00  0.00     0.020 C 
BRANCH  26  27
HETATM   27  C7  UNL     1       1.880   0.780   1.912  1.00  0.00     0.002 C 
BRANCH  27  28
HETATM   28  C8  UNL     1       2.420   0.224   0.605  1.00  0.00     0.000 C 
BRANCH  28  29
HETATM   29  C9  UNL     1       3.417   1.210   0.038  1.00  0.00     0.000 C 
BRANCH  29  30
HETATM   30  C10 UNL     1       4.001   0.727  -1.269  1.00  0.00     0.002 C 
BRANCH  30  31
HETATM   31  C11 UNL     1       4.683  -0.596  -1.126  1.00  0.00     0.020 C 
BRANCH  31  32
HETATM   32  C12 UNL     1       5.809  -0.636  -0.142  1.00  0.00     0.121 C 
BRANCH  32  33
HETATM   33  N2  UNL     1       6.861   0.263  -0.481  1.00  0.00    -0.376 N 
ATOM     34  H2  UNL     1       6.588   1.244  -0.533  1.00  0.00     0.161 HD
BRANCH  33  35
HETATM   35  C13 UNL     1       8.076   0.036  -0.727  1.00  0.00     0.118 A 
HETATM   36  C14 UNL     1       8.910   1.118  -1.036  1.00  0.00     0.066 A 
HETATM   37  C15 UNL     1      10.248   0.931  -1.315  1.00  0.00     0.110 A 
HETATM   38  N3  UNL     1      10.771  -0.295  -1.294  1.00  0.00    -0.202 N 
HETATM   39  C16 UNL     1       9.950  -1.315  -0.995  1.00  0.00     0.677 A 
ATOM     40  H3  UNL     1      11.758  -0.453  -1.497  1.00  0.00     0.183 HD
HETATM   41  N5  UNL     1       8.642  -1.176  -0.717  1.00  0.00    -0.177 N 
ATOM     42  H5  UNL     1       8.079  -1.998  -0.498  1.00  0.00     0.185 HD
BRANCH  39  43
HETATM   43  N4  UNL     1      10.447  -2.509  -0.971  1.00  0.00    -0.234 N 
ATOM     44  H42 UNL     1      11.439  -2.614  -1.182  1.00  0.00     0.174 HD
ATOM     45  H41 UNL     1       9.823  -3.284  -0.744  1.00  0.00     0.174 HD
ENDBRANCH  39  43
ENDBRANCH  33  35
ENDBRANCH  32  33
ENDBRANCH  31  32
ENDBRANCH  30  31
ENDBRANCH  29  30
ENDBRANCH  28  29
ENDBRANCH  27  28
ENDBRANCH  26  27
ENDBRANCH  25  26
ENDBRANCH   1  25
TORSDOF 15
