REMARK  15 active torsions:
REMARK  status: ('A' for Active; 'I' for Inactive)
REMARK    1  A    between atoms: C2_3  and  N2_4 
REMARK    2  A    between atoms: C2_3  and  C3_8 
REMARK    3  A    between atoms: C3_8  and  C4_9 
REMARK    4  A    between atoms: C4_9  and  C5_10 
REMARK    5  A    between atoms: C5_10  and  N3_11 
REMARK    6  A    between atoms: N3_11  and  C6_12 
REMARK    7  A    between atoms: N3_11  and  C15_25 
REMARK    8  A    between atoms: C6_12  and  C7_13 
REMARK    9  A    between atoms: C7_13  and  C8_14 
REMARK   10  A    between atoms: C15_25  and  C16_26 
REMARK   11  A    between atoms: C17_29  and  N7_30 
REMARK   12  A    between atoms: C18_34  and  C19_35 
REMARK   13  A    between atoms: C19_35  and  C20_36 
REMARK   14  A    between atoms: C20_36  and  C21_37 
REMARK   15  A    between atoms: C24_40  and  C25_41 
ROOT
HETATM    1  N1  UNL     1       0.798  -4.360  -2.773  1.00  0.00    -0.195 NA
HETATM    2  C1  UNL     1       0.011  -4.760  -2.009  1.00  0.00     0.092 C 
HETATM    3  C2  UNL     1      -0.976  -5.240  -1.046  1.00  0.00     0.289 C 
ENDROOT
BRANCH   3   4
HETATM    4  N2  UNL     1      -1.545  -6.473  -1.483  1.00  0.00    -0.063 N 
ATOM      5  H23 UNL     1      -1.937  -6.397  -2.422  1.00  0.00     0.275 HD
ATOM      6  H22 UNL     1      -0.829  -7.174  -1.673  1.00  0.00     0.275 HD
ATOM      7  H21 UNL     1      -2.234  -6.808  -0.810  1.00  0.00     0.275 HD
ENDBRANCH   3   4
BRANCH   3   8
HETATM    8  C3  UNL     1      -2.003  -4.162  -0.742  1.00  0.00     0.049 C 
BRANCH   8   9
HETATM    9  C4  UNL     1      -1.227  -2.978  -0.163  1.00  0.00     0.033 C 
BRANCH   9  10
HETATM   10  C5  UNL     1      -2.124  -1.846   0.180  1.00  0.00     0.273 C 
BRANCH  10  11
HETATM   11  N3  UNL     1      -1.414  -0.710   0.772  1.00  0.00     0.094 N 
BRANCH  11  12
HETATM   12  C6  UNL     1      -2.446   0.295   1.106  1.00  0.00     0.277 C 
BRANCH  12  13
HETATM   13  C7  UNL     1      -3.106   0.896  -0.092  1.00  0.00     0.069 C 
BRANCH  13  14
HETATM   14  C8  UNL     1      -4.120   1.884   0.430  1.00  0.00    -0.054 A 
HETATM   15  C9  UNL     1      -5.386   1.423   0.706  1.00  0.00     0.009 A 
HETATM   16  C10 UNL     1      -6.315   2.316   1.177  1.00  0.00     0.032 A 
HETATM   17  C11 UNL     1      -5.992   3.644   1.369  1.00  0.00     0.060 A 
HETATM   18  N4  UNL     1      -6.712   4.683   1.810  1.00  0.00    -0.351 N 
HETATM   19  C13 UNL     1      -4.726   4.098   1.091  1.00  0.00     0.060 A 
HETATM   20  C12 UNL     1      -5.928   5.783   1.815  1.00  0.00     0.181 A 
ATOM     21  H4  UNL     1      -7.691   4.650   2.095  1.00  0.00     0.166 HD
HETATM   22  N5  UNL     1      -4.717   5.402   1.372  1.00  0.00    -0.350 N 
ATOM     23  H5  UNL     1      -3.911   6.018   1.266  1.00  0.00     0.166 HD
HETATM   24  C14 UNL     1      -3.794   3.194   0.617  1.00  0.00     0.039 A 
ENDBRANCH  13  14
ENDBRANCH  12  13
ENDBRANCH  11  12
BRANCH  11  25
HETATM   25  C15 UNL     1      -0.431  -0.157  -0.094  1.00  0.00     0.330 C 
BRANCH  25  26
HETATM   26  C16 UNL     1       0.524   0.766   0.664  1.00  0.00     0.052 A 
HETATM   27  N6  UNL     1       0.539   0.903   1.970  1.00  0.00    -0.338 N 
HETATM   28  C17 UNL     1       1.450   1.698   2.528  1.00  0.00     0.142 A 
ATOM     29  H6  UNL     1      -0.138   0.407   2.549  1.00  0.00     0.168 HD
HETATM   30  S1  UNL     1       2.327   2.279   1.185  1.00  0.00    -0.057 SA
HETATM   31  C18 UNL     1       1.477   1.470  -0.043  1.00  0.00     0.011 A 
BRANCH  28  32
HETATM   32  N7  UNL     1       1.623   1.964   3.808  1.00  0.00    -0.380 N 
ATOM     33  H72 UNL     1       1.099   1.617   4.611  1.00  0.00     0.158 HD
ATOM     34  H71 UNL     1       2.321   2.573   4.235  1.00  0.00     0.158 HD
ENDBRANCH  28  32
BRANCH  31  35
HETATM   35  C19 UNL     1       1.725   1.523  -1.523  1.00  0.00     0.053 C 
BRANCH  35  36
HETATM   36  C20 UNL     1       2.436   0.325  -2.056  1.00  0.00     0.043 C 
BRANCH  36  37
HETATM   37  C21 UNL     1       3.772   0.155  -1.397  1.00  0.00    -0.058 A 
HETATM   38  C22 UNL     1       4.921   0.745  -1.899  1.00  0.00     0.008 A 
HETATM   39  C23 UNL     1       6.149   0.591  -1.300  1.00  0.00     0.015 A 
HETATM   40  C24 UNL     1       6.260  -0.183  -0.145  1.00  0.00     0.004 A 
HETATM   41  C26 UNL     1       5.123  -0.755   0.336  1.00  0.00     0.015 A 
HETATM   42  C27 UNL     1       3.881  -0.603  -0.266  1.00  0.00     0.008 A 
BRANCH  40  43
HETATM   43  C25 UNL     1       7.560  -0.339   0.479  1.00  0.00     0.120 C 
HETATM   44  N8  UNL     1       7.726  -1.030   1.533  1.00  0.00    -0.387 N 
ATOM     45  H82 UNL     1       6.898  -1.476   1.928  1.00  0.00     0.157 HD
ATOM     46  H81 UNL     1       8.640  -1.140   1.972  1.00  0.00     0.157 HD
HETATM   47  N9  UNL     1       8.724   0.289  -0.077  1.00  0.00    -0.082 NA
ENDBRANCH  40  43
ENDBRANCH  36  37
ENDBRANCH  35  36
ENDBRANCH  31  35
ENDBRANCH  25  26
ENDBRANCH  11  25
ENDBRANCH  10  11
ENDBRANCH   9  10
ENDBRANCH   8   9
ENDBRANCH   3   8
TORSDOF 15
