REMARK  15 active torsions:
REMARK  status: ('A' for Active; 'I' for Inactive)
REMARK    1  A    between atoms: N3_15  and  C11_16 
REMARK    2  A    between atoms: C11_16  and  C12_17 
REMARK    3  A    between atoms: C12_17  and  C13_18 
REMARK    4  A    between atoms: C13_18  and  C14_19 
REMARK    5  A    between atoms: C14_19  and  C15_20 
REMARK    6  A    between atoms: C15_20  and  C16_21 
REMARK    7  A    between atoms: C16_21  and  C17_22 
REMARK    8  A    between atoms: C17_22  and  C18_23 
REMARK    9  A    between atoms: C18_23  and  C19_24 
REMARK   10  A    between atoms: C19_24  and  N4_25 
REMARK   11  A    between atoms: N4_25  and  C20_28 
REMARK   12  A    between atoms: C20_28  and  C21_29 
REMARK   13  A    between atoms: C21_29  and  N5_30 
REMARK   14  A    between atoms: N5_30  and  C22_32 
REMARK   15  A    between atoms: C25_41  and  N9_42 
ROOT
HETATM    1  C18 UNL     1       1.710  -0.372  -1.045  1.00  0.00     0.028 C 
ENDROOT
BRANCH   1   2
HETATM    2  C17 UNL     1       0.540   0.124  -1.847  1.00  0.00     0.005 C 
BRANCH   2   3
HETATM    3  C16 UNL     1      -0.327  -0.935  -2.434  1.00  0.00     0.027 C 
BRANCH   3   4
HETATM    4  C15 UNL     1      -0.980  -1.869  -1.512  1.00  0.00    -0.031 C 
BRANCH   4   5
HETATM    5  C14 UNL     1      -1.863  -1.444  -0.438  1.00  0.00    -0.031 C 
BRANCH   5   6
HETATM    6  C13 UNL     1      -3.130  -0.707  -0.696  1.00  0.00     0.028 C 
BRANCH   6   7
HETATM    7  C12 UNL     1      -3.064   0.630  -1.305  1.00  0.00     0.024 C 
BRANCH   7   8
HETATM    8  C11 UNL     1      -4.376   1.329  -1.544  1.00  0.00     0.134 C 
BRANCH   8   9
HETATM    9  N3  UNL     1      -5.097   1.491  -0.329  1.00  0.00    -0.297 N 
HETATM   10  C10 UNL     1      -6.057   0.595   0.005  1.00  0.00     0.139 A 
HETATM   11  C3  UNL     1      -6.714   0.783   1.212  1.00  0.00     0.090 A 
HETATM   12  N2  UNL     1      -6.575  -0.507  -0.599  1.00  0.00    -0.340 N 
HETATM   13  N1  UNL     1      -6.420   1.811   2.028  1.00  0.00    -0.352 N 
HETATM   14  C4  UNL     1      -7.632  -0.250   1.287  1.00  0.00     0.021 A 
HETATM   15  C2  UNL     1      -5.475   2.697   1.703  1.00  0.00     0.074 A 
ATOM     16  H1  UNL     1      -6.926   1.915   2.907  1.00  0.00     0.166 HD
HETATM   17  C1  UNL     1      -5.119   3.852   2.582  1.00  0.00     0.074 C 
HETATM   18  C27 UNL     1      -4.821   2.513   0.506  1.00  0.00     0.271 A 
HETATM   19  O1  UNL     1      -3.912   3.320   0.134  1.00  0.00    -0.266 OA
HETATM   20  C5  UNL     1      -8.559  -0.577   2.251  1.00  0.00     0.016 A 
HETATM   21  C9  UNL     1      -7.538  -1.030   0.176  1.00  0.00     0.046 A 
HETATM   22  C6  UNL     1      -9.378  -1.659   2.115  1.00  0.00     0.001 A 
HETATM   23  C7  UNL     1      -9.265  -2.436   0.981  1.00  0.00     0.002 A 
HETATM   24  C8  UNL     1      -8.355  -2.142  -0.000  1.00  0.00     0.030 A 
ATOM     25  H2  UNL     1      -6.278  -0.879  -1.501  1.00  0.00     0.167 HD
ENDBRANCH   8   9
ENDBRANCH   7   8
ENDBRANCH   6   7
ENDBRANCH   5   6
ENDBRANCH   4   5
ENDBRANCH   3   4
ENDBRANCH   2   3
ENDBRANCH   1   2
BRANCH   1  26
HETATM   26  C19 UNL     1       2.654  -1.217  -1.828  1.00  0.00     0.232 C 
BRANCH  26  27
HETATM   27  N4  UNL     1       3.780  -1.677  -1.045  1.00  0.00    -0.074 N 
ATOM     28  H42 UNL     1       3.472  -2.194  -0.222  1.00  0.00     0.277 HD
ATOM     29  H41 UNL     1       4.284  -2.423  -1.524  1.00  0.00     0.277 HD
BRANCH  27  30
HETATM   30  C20 UNL     1       4.654  -0.607  -0.688  1.00  0.00     0.251 C 
BRANCH  30  31
HETATM   31  C21 UNL     1       5.845  -1.117   0.105  1.00  0.00     0.148 C 
BRANCH  31  32
HETATM   32  N5  UNL     1       6.729  -0.033   0.461  1.00  0.00    -0.373 N 
ATOM     33  H5  UNL     1       6.417   0.933   0.363  1.00  0.00     0.161 HD
BRANCH  32  34
HETATM   34  C22 UNL     1       7.899  -0.284   0.898  1.00  0.00     0.133 A 
HETATM   35  N6  UNL     1       8.326  -1.531   1.035  1.00  0.00    -0.337 N 
HETATM   36  C23 UNL     1       9.567  -1.833   1.490  1.00  0.00     0.183 A 
ATOM     37  H6  UNL     1       7.696  -2.294   0.788  1.00  0.00     0.168 HD
HETATM   38  N7  UNL     1      10.368  -0.805   1.806  1.00  0.00    -0.336 N 
HETATM   39  C24 UNL     1      10.019   0.489   1.700  1.00  0.00     0.153 A 
ATOM     40  H7  UNL     1      11.304  -1.019   2.150  1.00  0.00     0.168 HD
HETATM   41  N8  UNL     1      10.598   1.680   1.936  1.00  0.00    -0.174 N 
HETATM   42  C26 UNL     1       8.737   0.756   1.228  1.00  0.00     0.137 A 
HETATM   43  C25 UNL     1       9.760   2.682   1.642  1.00  0.00     0.678 A 
ATOM     44  H8  UNL     1      11.546   1.803   2.291  1.00  0.00     0.186 HD
HETATM   45  N10 UNL     1       8.632   2.101   1.213  1.00  0.00    -0.184 N 
ATOM     46  H10 UNL     1       7.800   2.610   0.913  1.00  0.00     0.184 HD
BRANCH  43  47
HETATM   47  N9  UNL     1      10.023   3.947   1.762  1.00  0.00    -0.234 N 
ATOM     48  H92 UNL     1      10.882   4.389   2.089  1.00  0.00     0.174 HD
ATOM     49  H91 UNL     1       9.385   4.710   1.538  1.00  0.00     0.174 HD
ENDBRANCH  43  47
ENDBRANCH  32  34
ENDBRANCH  31  32
ENDBRANCH  30  31
ENDBRANCH  27  30
ENDBRANCH  26  27
ENDBRANCH   1  26
TORSDOF 15
