REMARK  13 active torsions:
REMARK  status: ('A' for Active; 'I' for Inactive)
REMARK    1  A    between atoms: C4_4  and  O1_5 
REMARK    2  A    between atoms: C5_7  and  O2_8 
REMARK    3  A    between atoms: C6_10  and  O3_11 
REMARK    4  A    between atoms: C7_13  and  C8_14 
REMARK    5  A    between atoms: C8_14  and  S1_15 
REMARK    6  A    between atoms: S1_15  and  C9_16 
REMARK    7  A    between atoms: C9_16  and  C10_17 
REMARK    8  A    between atoms: C10_17  and  C11_18 
REMARK    9  A    between atoms: C11_18  and  S2_19 
REMARK   10  A    between atoms: S2_19  and  C12_20 
REMARK   11  A    between atoms: C15_24  and  O5_25 
REMARK   12  A    between atoms: C16_27  and  O6_28 
REMARK   13  A    between atoms: C17_30  and  O7_31 
ROOT
HETATM    1  C1  UNL     1      -8.676   0.931   1.196  1.00  0.00     0.012 C 
HETATM    2  C2  UNL     1      -7.478   0.970   1.067  1.00  0.00    -0.107 C 
HETATM    3  C3  UNL     1      -6.005   1.038   0.895  1.00  0.00     0.127 C 
HETATM    4  C4  UNL     1      -5.637   1.649  -0.419  1.00  0.00     0.168 C 
HETATM    5  C5  UNL     1      -4.869   0.625  -1.204  1.00  0.00     0.185 C 
HETATM    6  C6  UNL     1      -4.558  -0.462  -0.251  1.00  0.00     0.119 C 
HETATM    7  C7  UNL     1      -3.206  -0.384   0.424  1.00  0.00     0.058 C 
HETATM    8  C18 UNL     1      -3.510  -1.004   1.750  1.00  0.00     0.176 C 
HETATM    9  O8  UNL     1      -4.821  -0.687   2.068  1.00  0.00    -0.381 OA
HETATM   10  C19 UNL     1      -5.496  -0.380   0.904  1.00  0.00     0.177 C 
ENDROOT
BRANCH   4  11
HETATM   11  O1  UNL     1      -6.835   1.937  -1.109  1.00  0.00    -0.392 OA
ATOM     12  H1  UNL     1      -6.601   2.325  -1.944  1.00  0.00     0.210 HD
ENDBRANCH   4  11
BRANCH   5  13
HETATM   13  O2  UNL     1      -5.714   0.074  -2.199  1.00  0.00    -0.390 OA
ATOM     14  H2  UNL     1      -5.228  -0.574  -2.696  1.00  0.00     0.210 HD
ENDBRANCH   5  13
BRANCH   6  15
HETATM   15  O3  UNL     1      -4.677  -1.726  -0.833  1.00  0.00    -0.384 OA
ATOM     16  H3  UNL     1      -4.477  -2.424  -0.221  1.00  0.00     0.210 HD
ENDBRANCH   6  15
BRANCH   7  17
HETATM   17  C8  UNL     1      -2.666   0.981   0.544  1.00  0.00     0.083 C 
BRANCH  17  18
HETATM   18  S1  UNL     1      -1.100   1.054   1.364  1.00  0.00    -0.169 SA
BRANCH  18  19
HETATM   19  C9  UNL     1       0.339   0.417   0.593  1.00  0.00     0.074 C 
BRANCH  19  20
HETATM   20  C10 UNL     1       0.387  -1.081   0.495  1.00  0.00     0.020 C 
BRANCH  20  21
HETATM   21  C11 UNL     1       1.726  -1.470  -0.171  1.00  0.00     0.077 C 
BRANCH  21  22
HETATM   22  S2  UNL     1       3.078  -0.850   0.868  1.00  0.00    -0.135 SA
BRANCH  22  23
HETATM   23  C12 UNL     1       4.645  -1.330   0.043  1.00  0.00     0.214 C 
HETATM   24  O4  UNL     1       4.801  -0.677  -1.144  1.00  0.00    -0.365 OA
HETATM   25  C13 UNL     1       5.977   0.001  -1.322  1.00  0.00     0.150 C 
HETATM   26  C14 UNL     1       5.906   0.825  -2.585  1.00  0.00     0.042 C 
HETATM   27  C15 UNL     1       6.148   0.930  -0.115  1.00  0.00     0.178 C 
HETATM   28  C16 UNL     1       6.510   0.033   1.049  1.00  0.00     0.181 C 
HETATM   29  C17 UNL     1       5.766  -1.276   1.008  1.00  0.00     0.188 C 
BRANCH  27  30
HETATM   30  O5  UNL     1       4.979   1.589   0.192  1.00  0.00    -0.390 OA
ATOM     31  H5  UNL     1       5.085   2.165   0.940  1.00  0.00     0.210 HD
ENDBRANCH  27  30
BRANCH  28  32
HETATM   32  O6  UNL     1       7.871  -0.268   0.906  1.00  0.00    -0.390 OA
ATOM     33  H6  UNL     1       8.098  -0.831   1.637  1.00  0.00     0.210 HD
ENDBRANCH  28  32
BRANCH  29  34
HETATM   34  O7  UNL     1       6.625  -2.373   0.850  1.00  0.00    -0.389 OA
ATOM     35  H7  UNL     1       7.344  -2.338   1.469  1.00  0.00     0.210 HD
ENDBRANCH  29  34
ENDBRANCH  22  23
ENDBRANCH  21  22
ENDBRANCH  20  21
ENDBRANCH  19  20
ENDBRANCH  18  19
ENDBRANCH  17  18
ENDBRANCH   7  17
TORSDOF 13
