REMARK  13 active torsions:
REMARK  status: ('A' for Active; 'I' for Inactive)
REMARK    1  A    between atoms: O1_2  and  C2_3 
REMARK    2  A    between atoms: C3_5  and  C4_6 
REMARK    3  A    between atoms: C4_6  and  O3_7 
REMARK    4  A    between atoms: C5_9  and  O4_10 
REMARK    5  A    between atoms: C6_12  and  O5_13 
REMARK    6  A    between atoms: C7_15  and  O6_16 
REMARK    7  A    between atoms: O6_16  and  C8_17 
REMARK    8  A    between atoms: C9_18  and  O7_19 
REMARK    9  A    between atoms: C10_21  and  O8_22 
REMARK   10  A    between atoms: C11_24  and  O9_25 
REMARK   11  A    between atoms: C12_27  and  C13_28 
REMARK   12  A    between atoms: C13_28  and  O10_29 
REMARK   13  A    between atoms: O10_29  and  C14_30 
ROOT
HETATM    1  C8  UNL     1       0.648  -0.360   2.130  1.00  0.00     0.162 C 
HETATM    2  C9  UNL     1       1.311  -1.620   2.825  1.00  0.00     0.178 C 
HETATM    3  C10 UNL     1       1.410  -2.571   1.657  1.00  0.00     0.178 C 
HETATM    4  C11 UNL     1       0.330  -2.209   0.696  1.00  0.00     0.158 C 
HETATM    5  C12 UNL     1      -0.416  -1.077   1.407  1.00  0.00     0.072 C 
ENDROOT
BRANCH   1   6
HETATM    6  O6  UNL     1       1.556   0.245   1.356  1.00  0.00    -0.370 OA
BRANCH   6   7
HETATM    7  C7  UNL     1       2.026   1.475   1.727  1.00  0.00     0.208 C 
HETATM    8  C2  UNL     1       3.507   1.406   2.115  1.00  0.00     0.291 C 
HETATM    9  O2  UNL     1       4.314   2.018   1.219  1.00  0.00    -0.349 OA
HETATM   10  C3  UNL     1       4.069   1.979  -0.098  1.00  0.00     0.179 C 
HETATM   11  C5  UNL     1       2.675   2.174  -0.577  1.00  0.00     0.180 C 
HETATM   12  C6  UNL     1       1.825   2.478   0.642  1.00  0.00     0.183 C 
BRANCH   8  13
HETATM   13  O1  UNL     1       3.633   2.116   3.309  1.00  0.00    -0.363 OA
HETATM   14  C1  UNL     1       4.140   1.279   4.321  1.00  0.00     0.204 C 
ENDBRANCH   8  13
BRANCH  10  15
HETATM   15  C4  UNL     1       4.570   0.628  -0.630  1.00  0.00     0.198 C 
BRANCH  15  16
HETATM   16  O3  UNL     1       4.344   0.522  -2.011  1.00  0.00    -0.398 OA
ATOM     17  H3  UNL     1       4.654  -0.314  -2.340  1.00  0.00     0.209 HD
ENDBRANCH  15  16
ENDBRANCH  10  15
BRANCH  11  18
HETATM   18  O4  UNL     1       2.160   1.166  -1.352  1.00  0.00    -0.390 OA
ATOM     19  H4  UNL     1       1.269   1.291  -1.658  1.00  0.00     0.210 HD
ENDBRANCH  11  18
BRANCH  12  20
HETATM   20  O5  UNL     1       0.547   2.740   0.251  1.00  0.00    -0.390 OA
ATOM     21  H5  UNL     1       0.015   2.930   1.014  1.00  0.00     0.210 HD
ENDBRANCH  12  20
ENDBRANCH   6   7
ENDBRANCH   1   6
BRANCH   2  22
HETATM   22  O7  UNL     1       0.356  -2.115   3.703  1.00  0.00    -0.390 OA
ATOM     23  H7  UNL     1       0.754  -2.871   4.120  1.00  0.00     0.210 HD
ENDBRANCH   2  22
BRANCH   5  24
HETATM   24  C13 UNL     1      -1.248  -0.291   0.440  1.00  0.00     0.178 C 
BRANCH  24  25
HETATM   25  O10 UNL     1      -2.175  -1.172  -0.104  1.00  0.00    -0.379 OA
BRANCH  25  26
HETATM   26  C14 UNL     1      -3.008  -0.599  -1.015  1.00  0.00     0.065 C 
HETATM   27  C15 UNL     1      -3.840   0.547  -0.467  1.00  0.00     0.043 C 
HETATM   28  C16 UNL     1      -5.021   0.485  -1.447  1.00  0.00    -0.011 C 
HETATM   29  C17 UNL     1      -4.570   0.715  -2.859  1.00  0.00     0.009 C 
HETATM   30  C21 UNL     1      -5.374  -1.001  -1.294  1.00  0.00     0.012 C 
HETATM   31  C18 UNL     1      -3.429  -0.154  -3.266  1.00  0.00    -0.011 C 
HETATM   32  C19 UNL     1      -3.816  -1.609  -3.053  1.00  0.00     0.012 C 
HETATM   33  C22 UNL     1      -2.293  -0.037  -2.240  1.00  0.00     0.043 C 
HETATM   34  C20 UNL     1      -3.997  -1.615  -1.528  1.00  0.00     0.021 C 
ENDBRANCH  25  26
ENDBRANCH  24  25
ENDBRANCH   5  24
BRANCH   3  35
HETATM   35  O8  UNL     1       1.362  -3.901   2.063  1.00  0.00    -0.390 OA
ATOM     36  H8  UNL     1       1.424  -4.500   1.328  1.00  0.00     0.210 HD
ENDBRANCH   3  35
BRANCH   4  37
HETATM   37  O9  UNL     1       0.780  -1.812  -0.556  1.00  0.00    -0.392 OA
ATOM     38  H9  UNL     1       0.092  -1.581  -1.169  1.00  0.00     0.210 HD
ENDBRANCH   4  37
TORSDOF 13
