REMARK  13 active torsions:
REMARK  status: ('A' for Active; 'I' for Inactive)
REMARK    1  A    between atoms: N1_1  and  N2_4 
REMARK    2  A    between atoms: N3_6  and  C1_8 
REMARK    3  A    between atoms: C2_9  and  O1_10 
REMARK    4  A    between atoms: O1_10  and  C3_11 
REMARK    5  A    between atoms: C3_11  and  C4_12 
REMARK    6  A    between atoms: C5_14  and  O3_15 
REMARK    7  A    between atoms: O3_15  and  C6_16 
REMARK    8  A    between atoms: C12_22  and  O4_23 
REMARK    9  A    between atoms: C13_25  and  O5_26 
REMARK   10  A    between atoms: C14_28  and  O6_29 
REMARK   11  A    between atoms: C16_32  and  C17_33 
REMARK   12  A    between atoms: C18_36  and  O9_37 
REMARK   13  A    between atoms: C19_39  and  O10_40 
ROOT
HETATM    1  O1  UNL     1      -1.552   0.129   0.947  1.00  0.00    -0.381 OA
ENDROOT
BRANCH   1   2
HETATM    2  C2  UNL     1      -2.632   0.163   0.091  1.00  0.00     0.149 C 
HETATM    3  C1  UNL     1      -3.512  -1.035   0.214  1.00  0.00     0.161 C 
HETATM    4  C19 UNL     1      -4.930  -0.745   0.635  1.00  0.00     0.174 C 
HETATM    5  C18 UNL     1      -5.523   0.250  -0.316  1.00  0.00     0.163 C 
HETATM    6  C16 UNL     1      -4.737   1.531  -0.226  1.00  0.00     0.120 C 
HETATM    7  C15 UNL     1      -3.439   1.396   0.488  1.00  0.00     0.052 C 
BRANCH   3   8
HETATM    8  N3  UNL     1      -3.647  -1.672  -1.111  1.00  0.00    -0.313 N 
HETATM    9  N2  UNL     1      -4.005  -2.832  -1.225  1.00  0.00    -0.253 N 
ATOM     10  H2  UNL     1      -3.114  -3.320  -1.129  1.00  0.00     0.207 HD
ATOM     11  H3  UNL     1      -3.436  -1.130  -1.949  1.00  0.00     0.182 HD
BRANCH   9  12
HETATM   12  N1  UNL     1      -4.784  -3.791  -1.386  1.00  0.00    -0.331 N 
ATOM     13  H12 UNL     1      -5.649  -3.258  -1.476  1.00  0.00     0.178 HD
ATOM     14  H11 UNL     1      -5.083  -4.761  -1.481  1.00  0.00     0.178 HD
ENDBRANCH   9  12
ENDBRANCH   3   8
BRANCH   4  15
HETATM   15  O10 UNL     1      -5.089  -0.426   1.959  1.00  0.00    -0.391 OA
ATOM     16  H10 UNL     1      -5.983  -0.243   2.224  1.00  0.00     0.210 HD
ENDBRANCH   4  15
BRANCH   5  17
HETATM   17  O9  UNL     1      -6.869   0.456  -0.000  1.00  0.00    -0.392 OA
ATOM     18  H9  UNL     1      -7.365  -0.352  -0.057  1.00  0.00     0.210 HD
ENDBRANCH   5  17
BRANCH   6  19
HETATM   19  C17 UNL     1      -5.581   2.595   0.401  1.00  0.00     0.179 C 
HETATM   20  O7  UNL     1      -5.126   3.210   1.392  1.00  0.00    -0.648 OA
HETATM   21  O8  UNL     1      -6.828   2.927  -0.059  1.00  0.00    -0.648 OA
ENDBRANCH   6  19
ENDBRANCH   1   2
BRANCH   1  22
HETATM   22  C3  UNL     1      -0.322   0.338   0.409  1.00  0.00     0.203 C 
BRANCH  22  23
HETATM   23  C4  UNL     1       0.048  -0.735  -0.585  1.00  0.00     0.179 C 
HETATM   24  O2  UNL     1       1.272  -0.530  -1.169  1.00  0.00    -0.348 OA
HETATM   25  C5  UNL     1       2.376  -0.744  -0.394  1.00  0.00     0.292 C 
HETATM   26  C12 UNL     1       2.289  -1.974   0.477  1.00  0.00     0.204 C 
HETATM   27  C13 UNL     1       1.199  -2.847  -0.160  1.00  0.00     0.183 C 
HETATM   28  C14 UNL     1      -0.083  -2.082   0.084  1.00  0.00     0.180 C 
BRANCH  25  29
HETATM   29  O3  UNL     1       2.758   0.330   0.406  1.00  0.00    -0.353 OA
BRANCH  29  30
HETATM   30  C6  UNL     1       4.010   0.783   0.084  1.00  0.00     0.124 C 
HETATM   31  C7  UNL     1       5.007   0.695   1.206  1.00  0.00     0.032 C 
HETATM   32  C8  UNL     1       6.381   0.881   0.614  1.00  0.00     0.002 C 
HETATM   33  C9  UNL     1       6.524   2.107  -0.212  1.00  0.00     0.000 C 
HETATM   34  C10 UNL     1       5.358   2.451  -1.062  1.00  0.00     0.002 C 
HETATM   35  C11 UNL     1       4.023   2.219  -0.406  1.00  0.00     0.032 C 
ENDBRANCH  29  30
ENDBRANCH  25  29
BRANCH  26  36
HETATM   36  O4  UNL     1       3.479  -2.697   0.500  1.00  0.00    -0.388 OA
ATOM     37  H4  UNL     1       3.424  -3.471   1.048  1.00  0.00     0.210 HD
ENDBRANCH  26  36
BRANCH  27  38
HETATM   38  O5  UNL     1       1.167  -4.096   0.448  1.00  0.00    -0.390 OA
ATOM     39  H5  UNL     1       0.492  -4.636   0.054  1.00  0.00     0.210 HD
ENDBRANCH  27  38
BRANCH  28  40
HETATM   40  O6  UNL     1      -0.213  -1.957   1.468  1.00  0.00    -0.390 OA
ATOM     41  H6  UNL     1      -0.295  -2.805   1.889  1.00  0.00     0.210 HD
ENDBRANCH  28  40
ENDBRANCH  22  23
ENDBRANCH   1  22
TORSDOF 13
