REMARK  12 active torsions:
REMARK  status: ('A' for Active; 'I' for Inactive)
REMARK    1  A    between atoms: C2_2  and  N1_4 
REMARK    2  A    between atoms: N1_4  and  C4_6 
REMARK    3  A    between atoms: C4_6  and  C5_7 
REMARK    4  A    between atoms: C6_9  and  O2_10 
REMARK    5  A    between atoms: O2_10  and  C7_11 
REMARK    6  A    between atoms: C10_14  and  N2_15 
REMARK    7  A    between atoms: C11_19  and  O3_20 
REMARK    8  A    between atoms: O3_20  and  C12_21 
REMARK    9  A    between atoms: C13_22  and  N3_23 
REMARK   10  A    between atoms: C19_33  and  O5_34 
REMARK   11  A    between atoms: C21_37  and  O6_38 
REMARK   12  A    between atoms: C22_40  and  O7_41 
ROOT
HETATM    1  C7  UNL     1       0.471  -1.808  -0.459  1.00  0.00     0.155 C 
HETATM    2  C8  UNL     1       0.660  -2.436  -1.828  1.00  0.00     0.037 C 
HETATM    3  C9  UNL     1       1.732  -3.459  -1.588  1.00  0.00     0.038 C 
HETATM    4  C10 UNL     1       2.252  -3.256  -0.180  1.00  0.00     0.215 C 
HETATM    5  C11 UNL     1       1.877  -1.775   0.037  1.00  0.00     0.181 C 
ENDROOT
BRANCH   1   6
HETATM    6  O2  UNL     1      -0.175  -0.610  -0.497  1.00  0.00    -0.353 OA
BRANCH   6   7
HETATM    7  C6  UNL     1      -1.388  -0.658   0.210  1.00  0.00     0.263 C 
HETATM    8  O1  UNL     1      -2.364  -0.361  -0.672  1.00  0.00    -0.348 OA
HETATM    9  C5  UNL     1      -3.610   0.009  -0.194  1.00  0.00     0.193 C 
HETATM   10  C22 UNL     1      -3.799  -0.253   1.259  1.00  0.00     0.181 C 
HETATM   11  C21 UNL     1      -2.656   0.050   2.153  1.00  0.00     0.154 C 
HETATM   12  C20 UNL     1      -1.375   0.284   1.382  1.00  0.00     0.095 C 
BRANCH   9  13
HETATM   13  C4  UNL     1      -3.824   1.440  -0.604  1.00  0.00     0.090 C 
BRANCH  13  14
HETATM   14  N1  UNL     1      -5.027   2.070  -0.278  1.00  0.00    -0.396 N 
ATOM     15  H1  UNL     1      -5.031   2.779   0.456  1.00  0.00     0.159 HD
BRANCH  14  16
HETATM   16  C2  UNL     1      -6.236   1.757  -0.931  1.00  0.00     0.072 C 
HETATM   17  C1  UNL     1      -6.802   0.388  -0.794  1.00  0.00     0.031 C 
HETATM   18  C3  UNL     1      -7.353   2.727  -0.502  1.00  0.00     0.031 C 
ENDBRANCH  14  16
ENDBRANCH  13  14
ENDBRANCH   9  13
BRANCH  10  19
HETATM   19  O7  UNL     1      -4.282  -1.570   1.427  1.00  0.00    -0.390 OA
ATOM     20  H7  UNL     1      -4.403  -1.737   2.354  1.00  0.00     0.210 HD
ENDBRANCH  10  19
BRANCH  11  21
HETATM   21  O6  UNL     1      -2.447  -1.096   2.959  1.00  0.00    -0.393 OA
ATOM     22  H6  UNL     1      -3.251  -1.243   3.443  1.00  0.00     0.210 HD
ENDBRANCH  11  21
ENDBRANCH   6   7
ENDBRANCH   1   6
BRANCH   5  23
HETATM   23  O3  UNL     1       2.689  -1.085  -0.878  1.00  0.00    -0.371 OA
BRANCH  23  24
HETATM   24  C12 UNL     1       3.531  -0.163  -0.256  1.00  0.00     0.181 C 
HETATM   25  C13 UNL     1       4.971  -0.698  -0.344  1.00  0.00     0.217 C 
HETATM   26  C14 UNL     1       5.848  -0.047   0.714  1.00  0.00     0.070 C 
HETATM   27  C15 UNL     1       5.704   1.417   0.557  1.00  0.00     0.153 A 
HETATM   28  O4  UNL     1       5.660   2.331   1.573  1.00  0.00    -0.375 OA
HETATM   29  C16 UNL     1       4.435   1.804   1.313  1.00  0.00     0.157 A 
HETATM   30  C17 UNL     1       3.473   2.285   0.290  1.00  0.00     0.044 C 
HETATM   31  C18 UNL     1       3.968   3.575  -0.315  1.00  0.00     0.015 C 
HETATM   32  C19 UNL     1       3.450   1.222  -0.821  1.00  0.00     0.155 C 
BRANCH  25  33
HETATM   33  N3  UNL     1       5.498  -0.311  -1.658  1.00  0.00    -0.072 N 
ATOM     34  H33 UNL     1       4.909  -0.620  -2.431  1.00  0.00     0.274 HD
ATOM     35  H32 UNL     1       5.433   0.691  -1.835  1.00  0.00     0.274 HD
ATOM     36  H31 UNL     1       6.453  -0.666  -1.716  1.00  0.00     0.274 HD
ENDBRANCH  25  33
BRANCH  32  37
HETATM   37  O5  UNL     1       2.305   1.347  -1.605  1.00  0.00    -0.392 OA
ATOM     38  H5  UNL     1       2.254   2.225  -1.963  1.00  0.00     0.210 HD
ENDBRANCH  32  37
ENDBRANCH  23  24
ENDBRANCH   5  23
BRANCH   4  39
HETATM   39  N2  UNL     1       1.533  -4.059   0.790  1.00  0.00    -0.072 N 
ATOM     40  H23 UNL     1       0.529  -3.888   0.739  1.00  0.00     0.274 HD
ATOM     41  H22 UNL     1       1.542  -5.046   0.532  1.00  0.00     0.274 HD
ATOM     42  H21 UNL     1       1.883  -3.922   1.738  1.00  0.00     0.274 HD
ENDBRANCH   4  39
TORSDOF 12
