REMARK  13 active torsions:
REMARK  status: ('A' for Active; 'I' for Inactive)
REMARK    1  A    between atoms: O1_2  and  C2_3 
REMARK    2  A    between atoms: C2_3  and  C3_4 
REMARK    3  A    between atoms: C9_11  and  C10_12 
REMARK    4  A    between atoms: C12_14  and  O3_15 
REMARK    5  A    between atoms: C13_17  and  O4_18 
REMARK    6  A    between atoms: C15_21  and  C16_22 
REMARK    7  A    between atoms: C16_22  and  O5_23 
REMARK    8  A    between atoms: O5_23  and  C17_24 
REMARK    9  A    between atoms: C18_26  and  C19_27 
REMARK   10  A    between atoms: C19_27  and  O7_28 
REMARK   11  A    between atoms: C20_30  and  O8_31 
REMARK   12  A    between atoms: C21_33  and  O9_34 
REMARK   13  A    between atoms: C22_36  and  O10_37 
ROOT
HETATM    1  C10 UNL     1      -0.846  -1.189   0.898  1.00  0.00     0.029 C 
HETATM    2  C11 UNL     1      -1.432  -2.544   0.894  1.00  0.00     0.042 C 
HETATM    3  C12 UNL     1      -1.394  -3.314  -0.374  1.00  0.00     0.147 C 
HETATM    4  C13 UNL     1      -0.268  -2.984  -1.303  1.00  0.00     0.147 C 
HETATM    5  C14 UNL     1       0.133  -1.542  -1.259  1.00  0.00     0.041 C 
HETATM    6  C15 UNL     1       0.501  -1.181   0.165  1.00  0.00     0.019 C 
ENDROOT
BRANCH   6   7
HETATM    7  C16 UNL     1       1.467  -2.118   0.769  1.00  0.00     0.176 C 
BRANCH   7   8
HETATM    8  O5  UNL     1       2.677  -2.127   0.174  1.00  0.00    -0.358 OA
BRANCH   8   9
HETATM    9  C17 UNL     1       3.436  -0.978   0.190  1.00  0.00     0.291 C 
HETATM   10  O6  UNL     1       4.532  -1.247   1.027  1.00  0.00    -0.348 OA
HETATM   11  C18 UNL     1       5.352  -0.174   1.226  1.00  0.00     0.179 C 
HETATM   12  C20 UNL     1       5.605   0.636  -0.030  1.00  0.00     0.180 C 
HETATM   13  C21 UNL     1       5.287  -0.117  -1.281  1.00  0.00     0.183 C 
HETATM   14  C22 UNL     1       3.847  -0.597  -1.181  1.00  0.00     0.204 C 
BRANCH  11  15
HETATM   15  C19 UNL     1       5.003   0.726   2.367  1.00  0.00     0.198 C 
BRANCH  15  16
HETATM   16  O7  UNL     1       3.779   1.332   2.323  1.00  0.00    -0.398 OA
ATOM     17  H7  UNL     1       3.557   1.904   3.048  1.00  0.00     0.209 HD
ENDBRANCH  15  16
ENDBRANCH  11  15
BRANCH  12  18
HETATM   18  O8  UNL     1       4.912   1.845  -0.044  1.00  0.00    -0.390 OA
ATOM     19  H8  UNL     1       5.071   2.353  -0.831  1.00  0.00     0.210 HD
ENDBRANCH  12  18
BRANCH  13  20
HETATM   20  O9  UNL     1       6.159  -1.196  -1.455  1.00  0.00    -0.390 OA
ATOM     21  H9  UNL     1       5.957  -1.675  -2.250  1.00  0.00     0.210 HD
ENDBRANCH  13  20
BRANCH  14  22
HETATM   22  O10 UNL     1       3.797  -1.702  -2.069  1.00  0.00    -0.388 OA
ATOM     23  H10 UNL     1       4.061  -1.458  -2.948  1.00  0.00     0.210 HD
ENDBRANCH  14  22
ENDBRANCH   8   9
ENDBRANCH   7   8
ENDBRANCH   6   7
BRANCH   1  24
HETATM   24  C9  UNL     1      -1.689  -0.094   0.318  1.00  0.00     0.192 A 
HETATM   25  C2  UNL     1      -2.997   0.285   0.832  1.00  0.00     0.194 A 
HETATM   26  O2  UNL     1      -2.883  -0.605  -0.254  1.00  0.00    -0.341 OA
BRANCH  25  27
HETATM   27  O1  UNL     1      -3.526  -0.247   2.002  1.00  0.00    -0.357 OA
HETATM   28  C1  UNL     1      -3.606   0.675   3.027  1.00  0.00     0.205 C 
ENDBRANCH  25  27
BRANCH  25  29
HETATM   29  C3  UNL     1      -3.562   1.618   0.423  1.00  0.00     0.051 C 
HETATM   30  C4  UNL     1      -2.963   2.149  -0.841  1.00  0.00     0.010 C 
HETATM   31  C5  UNL     1      -3.822   3.224  -1.506  1.00  0.00     0.001 C 
HETATM   32  C6  UNL     1      -5.180   2.717  -1.901  1.00  0.00     0.000 C 
HETATM   33  C7  UNL     1      -5.424   1.378  -1.228  1.00  0.00     0.001 C 
HETATM   34  C8  UNL     1      -5.067   1.569   0.255  1.00  0.00     0.010 C 
ENDBRANCH  25  29
ENDBRANCH   1  24
BRANCH   4  35
HETATM   35  O4  UNL     1      -0.720  -3.244  -2.621  1.00  0.00    -0.393 OA
ATOM     36  H4  UNL     1      -0.005  -3.035  -3.211  1.00  0.00     0.210 HD
ENDBRANCH   4  35
BRANCH   3  37
HETATM   37  O3  UNL     1      -1.296  -4.677  -0.051  1.00  0.00    -0.393 OA
ATOM     38  H3  UNL     1      -1.272  -5.170  -0.863  1.00  0.00     0.210 HD
ENDBRANCH   3  37
TORSDOF 13
