REMARK  7 active torsions:
REMARK  status: ('A' for Active; 'I' for Inactive)
REMARK    1  A    between atoms: O1_2  and  C2_3 
REMARK    2  A    between atoms: C2_3  and  C3_5 
REMARK    3  A    between atoms: C3_5  and  O3_6 
REMARK    4  A    between atoms: O3_6  and  C4_7 
REMARK    5  A    between atoms: N1_15  and  C12_16 
REMARK    6  A    between atoms: C15_19  and  O4_20 
REMARK    7  A    between atoms: C16_22  and  O5_23 
ROOT
HETATM    1  C4  UNL     1       2.937   0.176   0.177  1.00  0.00     0.122 C 
HETATM    2  C5  UNL     1       2.497   0.642  -1.209  1.00  0.00     0.033 C 
HETATM    3  C6  UNL     1       1.150   1.293  -1.050  1.00  0.00     0.014 C 
HETATM    4  C7  UNL     1       0.214   0.330  -0.375  1.00  0.00    -0.012 C 
HETATM    5  C8  UNL     1       0.796  -1.061  -0.251  1.00  0.00     0.014 C 
HETATM    6  C9  UNL     1       2.094  -1.035   0.508  1.00  0.00     0.033 C 
HETATM    7  C10 UNL     1      -0.211   0.774   0.988  1.00  0.00     0.041 C 
HETATM    8  C11 UNL     1      -1.605   0.170   1.105  1.00  0.00     0.274 C 
HETATM    9  N1  UNL     1      -2.156   0.343  -0.194  1.00  0.00     0.096 N 
HETATM   10  C18 UNL     1      -1.066   0.294  -1.148  1.00  0.00     0.282 C 
ENDROOT
BRANCH   9  11
HETATM   11  C12 UNL     1      -3.127  -0.622  -0.582  1.00  0.00     0.254 C 
HETATM   12  C13 UNL     1      -3.590  -0.262  -2.001  1.00  0.00     0.041 C 
HETATM   13  C14 UNL     1      -4.805  -1.156  -2.135  1.00  0.00     0.036 C 
HETATM   14  C15 UNL     1      -5.349  -1.349  -0.751  1.00  0.00     0.149 C 
HETATM   15  C16 UNL     1      -4.428  -0.536   0.171  1.00  0.00     0.182 C 
BRANCH  14  16
HETATM   16  O4  UNL     1      -5.225  -2.722  -0.444  1.00  0.00    -0.393 OA
ATOM     17  H4  UNL     1      -5.570  -2.844   0.433  1.00  0.00     0.210 HD
ENDBRANCH  14  16
BRANCH  15  18
HETATM   18  O5  UNL     1      -4.956   0.735   0.224  1.00  0.00    -0.386 OA
HETATM   19  C17 UNL     1      -5.353   1.037   1.511  1.00  0.00     0.202 C 
ENDBRANCH  15  18
ENDBRANCH   9  11
BRANCH   1  20
HETATM   20  O3  UNL     1       4.286  -0.068   0.250  1.00  0.00    -0.376 OA
BRANCH  20  21
HETATM   21  C3  UNL     1       4.881   0.766   1.198  1.00  0.00     0.279 C 
BRANCH  21  22
HETATM   22  C2  UNL     1       6.339   0.519   1.291  1.00  0.00     0.282 C 
HETATM   23  O2  UNL     1       7.015   1.192   2.101  1.00  0.00    -0.263 OA
BRANCH  22  24
HETATM   24  O1  UNL     1       7.008  -0.426   0.525  1.00  0.00    -0.325 OA
HETATM   25  C1  UNL     1       8.418  -0.591   0.688  1.00  0.00     0.213 C 
ENDBRANCH  22  24
ENDBRANCH  21  22
ENDBRANCH  20  21
ENDBRANCH   1  20
TORSDOF 7
