REMARK  5 active torsions:
REMARK  status: ('A' for Active; 'I' for Inactive)
REMARK    1  A    between atoms: C2_2  and  O1_3 
REMARK    2  A    between atoms: O1_3  and  C3_4 
REMARK    3  A    between atoms: C6_7  and  C7_8 
REMARK       I    between atoms: C7_8  and  N1_10 
REMARK    4  A    between atoms: N1_10  and  C8_12 
REMARK    5  A    between atoms: N3_20  and  C14_21 
ROOT
HETATM    1  C8  UNL     1      -3.413  -0.278   0.076  1.00  0.00     0.126 C 
HETATM    2  C9  UNL     1      -3.724  -1.539  -0.554  1.00  0.00     0.091 C 
HETATM    3  N2  UNL     1      -3.995  -2.545  -1.046  1.00  0.00    -0.195 NA
HETATM    4  C10 UNL     1      -3.557   0.924  -0.845  1.00  0.00     0.073 C 
HETATM    5  C11 UNL     1      -4.938   1.494  -0.733  1.00  0.00     0.171 C 
HETATM    6  O3  UNL     1      -5.841   0.455  -0.627  1.00  0.00    -0.391 OA
HETATM    7  C12 UNL     1      -5.793  -0.108   0.634  1.00  0.00     0.171 C 
HETATM    8  C13 UNL     1      -4.408  -0.013   1.226  1.00  0.00     0.073 C 
ENDROOT
BRANCH   1   9
HETATM    9  N1  UNL     1      -2.058  -0.244   0.604  1.00  0.00    -0.338 N 
HETATM   10  C7  UNL     1      -0.939  -0.477  -0.240  1.00  0.00     0.239 C 
HETATM   11  O2  UNL     1      -1.067  -0.732  -1.448  1.00  0.00    -0.272 OA
ATOM     12  H1  UNL     1      -1.909  -0.050   1.594  1.00  0.00     0.164 HD
BRANCH  10  13
HETATM   13  C6  UNL     1       0.414  -0.402   0.371  1.00  0.00     0.178 C 
HETATM   14  C5  UNL     1       0.660   1.114   0.553  1.00  0.00     0.036 C 
HETATM   15  C4  UNL     1       1.648   1.564  -0.517  1.00  0.00     0.064 C 
HETATM   16  C3  UNL     1       2.946   0.785  -0.347  1.00  0.00     0.281 C 
HETATM   17  O4  UNL     1       2.654  -0.525   0.059  1.00  0.00    -0.270 OA
HETATM   18  N3  UNL     1       1.468  -0.843  -0.507  1.00  0.00    -0.177 NA
BRANCH  16  19
HETATM   19  O1  UNL     1       3.776   1.447   0.534  1.00  0.00    -0.360 OA
BRANCH  19  20
HETATM   20  C2  UNL     1       4.942   1.814  -0.122  1.00  0.00     0.166 C 
HETATM   21  C1  UNL     1       5.838   2.536   0.874  1.00  0.00     0.033 C 
ENDBRANCH  19  20
ENDBRANCH  16  19
BRANCH  18  22
HETATM   22  C14 UNL     1       1.458  -2.272  -0.716  1.00  0.00     0.079 C 
HETATM   23  C15 UNL     1       2.902  -2.690  -0.941  1.00  0.00     0.028 C 
HETATM   24  C16 UNL     1       0.926  -3.070   0.431  1.00  0.00     0.028 C 
ENDBRANCH  18  22
ENDBRANCH  10  13
ENDBRANCH   1   9
TORSDOF 5
