REMARK  7 active torsions:
REMARK  status: ('A' for Active; 'I' for Inactive)
REMARK       I    between atoms: N2_5  and  C4_6 
REMARK    1  A    between atoms: C4_6  and  C5_8 
REMARK    2  A    between atoms: C5_8  and  O2_9 
REMARK    3  A    between atoms: O2_9  and  C6_10 
REMARK    4  A    between atoms: C6_10  and  C7_12 
REMARK    5  A    between atoms: C7_12  and  C8_13 
REMARK    6  A    between atoms: C8_13  and  C9_14 
REMARK    7  A    between atoms: N3_20  and  O4_22 
ROOT
HETATM    1  C6  UNL     1      -0.608  -1.307  -0.833  1.00  0.00     0.308 C 
HETATM    2  O3  UNL     1      -0.107  -2.424  -1.079  1.00  0.00    -0.258 OA
ENDROOT
BRANCH   1   3
HETATM    3  O2  UNL     1       0.262  -0.246  -0.672  1.00  0.00    -0.307 OA
BRANCH   3   4
HETATM    4  C5  UNL     1       1.683  -0.412  -0.782  1.00  0.00     0.281 C 
BRANCH   4   5
HETATM    5  C4  UNL     1       2.392   0.853  -0.573  1.00  0.00     0.244 C 
HETATM    6  N2  UNL     1       3.810   0.839  -0.653  1.00  0.00    -0.347 N 
HETATM    7  C3  UNL     1       4.567  -0.364  -0.930  1.00  0.00     0.156 C 
HETATM    8  C15 UNL     1       4.596   2.061  -0.456  1.00  0.00     0.156 C 
HETATM    9  C2  UNL     1       5.471  -0.724   0.237  1.00  0.00     0.291 C 
HETATM   10  N1  UNL     1       5.826   0.511   0.940  1.00  0.00     0.087 N 
HETATM   11  C1  UNL     1       7.057   0.257   1.640  1.00  0.00     0.310 C 
HETATM   12  C16 UNL     1       5.978   1.588  -0.004  1.00  0.00     0.291 C 
HETATM   13  O1  UNL     1       1.820   1.950  -0.327  1.00  0.00    -0.271 OA
ENDBRANCH   4   5
ENDBRANCH   3   4
ENDBRANCH   1   3
BRANCH   1  14
HETATM   14  C7  UNL     1      -2.053  -1.183  -0.730  1.00  0.00     0.107 C 
HETATM   15  N3  UNL     1      -2.779  -2.223  -0.894  1.00  0.00    -0.267 N 
ATOM     16  H3  UNL     1      -3.794  -2.146  -0.823  1.00  0.00     0.194 HD
BRANCH  14  17
HETATM   17  C8  UNL     1      -2.703   0.130  -0.447  1.00  0.00     0.070 C 
BRANCH  17  18
HETATM   18  C9  UNL     1      -4.199  -0.040  -0.362  1.00  0.00    -0.009 C 
HETATM   19  C10 UNL     1      -4.881   1.292  -0.089  1.00  0.00     0.005 C 
HETATM   20  C11 UNL     1      -6.375   1.124  -0.057  1.00  0.00     0.000 C 
HETATM   21  C12 UNL     1      -6.804   0.130   0.980  1.00  0.00     0.000 C 
HETATM   22  C13 UNL     1      -5.586  -0.406   1.698  1.00  0.00     0.000 C 
HETATM   23  C14 UNL     1      -4.609  -1.020   0.698  1.00  0.00     0.005 C 
ENDBRANCH  17  18
ENDBRANCH  14  17
BRANCH  15  24
HETATM   24  O4  UNL     1      -2.213  -3.434  -1.162  1.00  0.00    -0.290 OA
ATOM     25  H4  UNL     1      -2.752  -4.207  -1.284  1.00  0.00     0.244 HD
ENDBRANCH  15  24
ENDBRANCH   1  14
TORSDOF 7
