REMARK  6 active torsions:
REMARK  status: ('A' for Active; 'I' for Inactive)
REMARK    1  A    between atoms: C4_5  and  C5_6 
REMARK    2  A    between atoms: C5_6  and  N1_7 
REMARK    3  A    between atoms: N1_7  and  C6_8 
REMARK    4  A    between atoms: N1_7  and  C12_16 
REMARK    5  A    between atoms: C6_8  and  C7_9 
REMARK    6  A    between atoms: C15_19  and  O2_20 
ROOT
HETATM    1  N1  UNL     1      -0.465  -0.723  -0.222  1.00  0.00    -0.360 N 
ENDROOT
BRANCH   1   2
HETATM    2  C5  UNL     1      -0.981   0.313  -1.023  1.00  0.00     0.127 C 
BRANCH   2   3
HETATM    3  C4  UNL     1      -1.687   1.388  -0.231  1.00  0.00     0.089 A 
HETATM    4  S1  UNL     1      -2.059   1.519   1.429  1.00  0.00    -0.081 SA
HETATM    5  C3  UNL     1      -2.852   3.030   1.405  1.00  0.00     0.076 A 
HETATM    6  C2  UNL     1      -2.778   3.349   0.072  1.00  0.00     0.012 A 
HETATM    7  C1  UNL     1      -3.381   4.655  -0.419  1.00  0.00     0.068 C 
HETATM    8  N3  UNL     1      -2.194   2.518  -0.720  1.00  0.00    -0.353 N 
ATOM      9  H3  UNL     1      -2.120   2.724  -1.716  1.00  0.00     0.166 HD
ENDBRANCH   2   3
ENDBRANCH   1   2
BRANCH   1  10
HETATM   10  C6  UNL     1       0.523  -0.483   0.705  1.00  0.00     0.097 C 
BRANCH  10  11
HETATM   11  C7  UNL     1       1.886  -0.091   0.252  1.00  0.00     0.188 C 
HETATM   12  C8  UNL     1       2.055   1.265  -0.344  1.00  0.00     0.309 C 
HETATM   13  N2  UNL     1       3.456   1.666  -0.085  1.00  0.00     0.089 N 
HETATM   14  C9  UNL     1       3.665   2.075   1.266  1.00  0.00     0.310 C 
HETATM   15  C10 UNL     1       4.348   0.652  -0.553  1.00  0.00     0.298 C 
HETATM   16  C11 UNL     1       3.904  -0.739  -0.446  1.00  0.00     0.199 C 
HETATM   17  O1  UNL     1       2.548  -0.977  -0.557  1.00  0.00    -0.377 OA
ENDBRANCH  10  11
ENDBRANCH   1  10
BRANCH   1  18
HETATM   18  C12 UNL     1      -1.539  -1.611   0.076  1.00  0.00     0.091 C 
HETATM   19  C13 UNL     1      -2.060  -2.227  -1.213  1.00  0.00     0.028 C 
HETATM   20  C14 UNL     1      -2.477  -3.602  -0.808  1.00  0.00     0.034 C 
HETATM   21  C15 UNL     1      -1.390  -3.961   0.214  1.00  0.00     0.120 C 
HETATM   22  C16 UNL     1      -1.403  -2.673   1.069  1.00  0.00     0.057 C 
BRANCH  21  23
HETATM   23  O2  UNL     1      -0.181  -4.144  -0.399  1.00  0.00    -0.396 OA
ATOM     24  H2  UNL     1       0.492  -4.366   0.234  1.00  0.00     0.210 HD
ENDBRANCH  21  23
ENDBRANCH   1  18
TORSDOF 6
