REMARK  6 active torsions:
REMARK  status: ('A' for Active; 'I' for Inactive)
REMARK    1  A    between atoms: C2_2  and  C3_3 
REMARK    2  A    between atoms: C2_2  and  C12_18 
REMARK    3  A    between atoms: C3_3  and  C4_4 
REMARK    4  A    between atoms: C4_4  and  C5_5 
REMARK    5  A    between atoms: C5_5  and  N1_6 
REMARK    6  A    between atoms: C12_18  and  O5_21 
ROOT
HETATM    1  N1  UNL     1      -1.387  -0.346  -0.336  1.00  0.00     0.090 N 
HETATM    2  C6  UNL     1      -1.972  -1.648  -0.310  1.00  0.00     0.298 C 
HETATM    3  C7  UNL     1      -3.301  -1.790  -0.973  1.00  0.00     0.201 C 
HETATM    4  O1  UNL     1      -3.969  -0.644  -1.279  1.00  0.00    -0.357 OA
HETATM    5  C8  UNL     1      -4.933  -0.319  -0.301  1.00  0.00     0.299 C 
HETATM    6  O2  UNL     1      -5.971   0.465  -0.758  1.00  0.00    -0.241 OA
HETATM    7  S1  UNL     1      -5.878   1.786   0.263  1.00  0.00     0.276 S 
HETATM    8  O3  UNL     1      -6.896   1.811   1.363  1.00  0.00    -0.198 OA
HETATM    9  O4  UNL     1      -5.611   3.085  -0.400  1.00  0.00    -0.198 OA
HETATM   10  C9  UNL     1      -4.449   0.811   0.567  1.00  0.00     0.194 C 
HETATM   11  C10 UNL     1      -3.177   1.348  -0.084  1.00  0.00     0.057 C 
HETATM   12  C11 UNL     1      -2.032   0.582   0.551  1.00  0.00     0.274 C 
ENDROOT
BRANCH   1  13
HETATM   13  C5  UNL     1      -0.001  -0.417   0.048  1.00  0.00     0.272 C 
BRANCH  13  14
HETATM   14  C4  UNL     1       0.924  -1.034  -0.939  1.00  0.00     0.031 C 
BRANCH  14  15
HETATM   15  C3  UNL     1       2.344  -1.098  -0.495  1.00  0.00     0.009 C 
BRANCH  15  16
HETATM   16  C2  UNL     1       2.907   0.237  -0.192  1.00  0.00     0.015 C 
HETATM   17  C1  UNL     1       2.887   1.154  -1.381  1.00  0.00     0.013 C 
BRANCH  16  18
HETATM   18  C12 UNL     1       4.341   0.176   0.310  1.00  0.00     0.054 C 
HETATM   19  C13 UNL     1       4.769   1.566   0.700  1.00  0.00     0.045 C 
HETATM   20  C14 UNL     1       4.539  -0.798   1.424  1.00  0.00     0.045 C 
BRANCH  18  21
HETATM   21  O5  UNL     1       5.175  -0.240  -0.743  1.00  0.00    -0.390 OA
ATOM     22  H5  UNL     1       6.071  -0.278  -0.429  1.00  0.00     0.210 HD
ENDBRANCH  18  21
ENDBRANCH  16  18
ENDBRANCH  15  16
ENDBRANCH  14  15
ENDBRANCH  13  14
ENDBRANCH   1  13
TORSDOF 6
