REMARK  7 active torsions:
REMARK  status: ('A' for Active; 'I' for Inactive)
REMARK    1  A    between atoms: C3_3  and  O1_4 
REMARK    2  A    between atoms: N1_6  and  C4_7 
REMARK    3  A    between atoms: C4_7  and  C5_8 
REMARK    4  A    between atoms: C5_8  and  N2_9 
REMARK    5  A    between atoms: C10_15  and  S1_16 
REMARK    6  A    between atoms: S1_16  and  C11_17 
REMARK    7  A    between atoms: N3_22  and  O3_23 
ROOT
HETATM    1  C1  UNL     1      -1.760   4.701  -0.622  1.00  0.00     0.076 C 
HETATM    2  C2  UNL     1      -1.327   3.277  -0.843  1.00  0.00     0.090 A 
HETATM    3  C3  UNL     1      -0.089   2.785  -0.523  1.00  0.00     0.169 A 
HETATM    4  N1  UNL     1      -0.001   1.454  -0.843  1.00  0.00    -0.303 N 
HETATM    5  C10 UNL     1      -1.205   1.159  -1.357  1.00  0.00     0.176 A 
HETATM    6  N3  UNL     1      -2.010   2.272  -1.356  1.00  0.00    -0.202 N 
ENDROOT
BRANCH   4   7
HETATM    7  C4  UNL     1       1.191   0.695  -0.688  1.00  0.00     0.163 C 
BRANCH   7   8
HETATM    8  C5  UNL     1       1.415   0.127   0.653  1.00  0.00     0.293 C 
BRANCH   8   9
HETATM    9  N2  UNL     1       2.658  -0.617   0.763  1.00  0.00     0.094 N 
HETATM   10  C6  UNL     1       2.654  -1.843  -0.002  1.00  0.00     0.298 C 
HETATM   11  C7  UNL     1       3.985  -2.536   0.324  1.00  0.00     0.198 C 
HETATM   12  O2  UNL     1       5.078  -1.748  -0.009  1.00  0.00    -0.388 OA
HETATM   13  C8  UNL     1       5.047  -0.533   0.680  1.00  0.00     0.198 C 
HETATM   14  C9  UNL     1       3.774   0.182   0.258  1.00  0.00     0.298 C 
ENDBRANCH   8   9
ENDBRANCH   7   8
ENDBRANCH   4   7
BRANCH   3  15
HETATM   15  O1  UNL     1       0.927   3.534   0.042  1.00  0.00    -0.344 OA
ATOM     16  H1  UNL     1       1.785   3.193   0.264  1.00  0.00     0.219 HD
ENDBRANCH   3  15
BRANCH   5  17
HETATM   17  S1  UNL     1      -1.786  -0.388  -1.955  1.00  0.00    -0.086 SA
BRANCH  17  18
HETATM   18  C11 UNL     1      -2.713  -1.401  -0.854  1.00  0.00     0.055 C 
HETATM   19  C12 UNL     1      -2.036  -1.954   0.345  1.00  0.00     0.015 C 
HETATM   20  C13 UNL     1      -3.205  -2.639   1.068  1.00  0.00     0.001 C 
HETATM   21  C14 UNL     1      -4.456  -1.922   0.597  1.00  0.00     0.001 C 
HETATM   22  C15 UNL     1      -3.938  -0.742  -0.240  1.00  0.00     0.015 C 
ENDBRANCH  17  18
ENDBRANCH   5  17
BRANCH   6  23
HETATM   23  O3  UNL     1      -3.305   2.371  -1.798  1.00  0.00    -0.281 OA
ATOM     24  H3  UNL     1      -3.797   1.647  -2.167  1.00  0.00     0.245 HD
ENDBRANCH   6  23
TORSDOF 7
