REMARK  6 active torsions:
REMARK  status: ('A' for Active; 'I' for Inactive)
REMARK    1  A    between atoms: C4_6  and  N2_7 
REMARK    2  A    between atoms: C8_11  and  C9_12 
REMARK    3  A    between atoms: C8_11  and  C10_15 
REMARK    4  A    between atoms: C9_12  and  O1_13 
REMARK    5  A    between atoms: C10_15  and  C11_16 
REMARK    6  A    between atoms: C11_16  and  N3_17 
ROOT
HETATM    1  N2  UNL     1       2.515  -0.392   0.457  1.00  0.00    -0.361 N 
HETATM    2  C5  UNL     1       2.604  -1.814   0.618  1.00  0.00     0.125 C 
HETATM    3  C6  UNL     1       1.427  -2.507   0.046  1.00  0.00     0.021 C 
HETATM    4  C7  UNL     1       0.459  -1.678  -0.724  1.00  0.00     0.015 C 
HETATM    5  C8  UNL     1       0.146  -0.341  -0.163  1.00  0.00    -0.001 C 
HETATM    6  C16 UNL     1       1.256   0.263   0.669  1.00  0.00     0.136 C 
ENDROOT
BRANCH   5   7
HETATM    7  C9  UNL     1      -0.003   0.613  -1.362  1.00  0.00     0.175 C 
BRANCH   7   8
HETATM    8  O1  UNL     1      -0.300   1.896  -0.935  1.00  0.00    -0.400 OA
ATOM      9  H1  UNL     1      -0.392   2.485  -1.675  1.00  0.00     0.209 HD
ENDBRANCH   7   8
ENDBRANCH   5   7
BRANCH   5  10
HETATM   10  C10 UNL     1      -1.085  -0.311   0.694  1.00  0.00     0.043 C 
BRANCH  10  11
HETATM   11  C11 UNL     1      -2.359  -0.702   0.047  1.00  0.00     0.273 C 
BRANCH  11  12
HETATM   12  N3  UNL     1      -3.469  -0.614   0.965  1.00  0.00     0.092 N 
HETATM   13  C12 UNL     1      -3.837   0.706   1.335  1.00  0.00     0.298 C 
HETATM   14  C13 UNL     1      -5.099   1.187   0.645  1.00  0.00     0.198 C 
HETATM   15  O2  UNL     1      -5.315   0.555  -0.576  1.00  0.00    -0.388 OA
HETATM   16  C14 UNL     1      -5.473  -0.811  -0.465  1.00  0.00     0.198 C 
HETATM   17  C15 UNL     1      -4.601  -1.411   0.619  1.00  0.00     0.298 C 
ENDBRANCH  11  12
ENDBRANCH  10  11
ENDBRANCH   5  10
BRANCH   1  18
HETATM   18  C4  UNL     1       3.682   0.396   0.100  1.00  0.00     0.146 A 
HETATM   19  N1  UNL     1       4.163   0.729  -1.083  1.00  0.00    -0.346 N 
HETATM   20  C3  UNL     1       5.235   1.445  -1.176  1.00  0.00     0.104 A 
ATOM     21  H1  UNL     1       3.686   0.419  -1.929  1.00  0.00     0.167 HD
HETATM   22  C2  UNL     1       5.839   1.838  -0.004  1.00  0.00    -0.003 A 
HETATM   23  C1  UNL     1       7.083   2.666   0.158  1.00  0.00     0.058 C 
HETATM   24  S1  UNL     1       4.813   1.142   1.168  1.00  0.00    -0.058 SA
ENDBRANCH   1  18
TORSDOF 6
