REMARK  7 active torsions:
REMARK  status: ('A' for Active; 'I' for Inactive)
REMARK    1  A    between atoms: C2_2  and  C4_4 
REMARK    2  A    between atoms: C10_12  and  O3_13 
REMARK    3  A    between atoms: C10_12  and  C11_15 
REMARK    4  A    between atoms: C11_15  and  O5_17 
REMARK    5  A    between atoms: O5_17  and  C12_18 
REMARK    6  A    between atoms: C12_18  and  C13_19 
REMARK    7  A    between atoms: C13_19  and  C14_21 
ROOT
HETATM    1  C4  UNL     1      -2.299   0.576  -0.579  1.00  0.00     0.069 C 
HETATM    2  C5  UNL     1      -3.687   0.250  -0.069  1.00  0.00     0.092 C 
HETATM    3  C6  UNL     1      -3.875  -1.222  -0.301  1.00  0.00     0.161 C 
HETATM    4  O1  UNL     1      -4.957  -1.587  -0.731  1.00  0.00    -0.295 OA
HETATM    5  C7  UNL     1      -2.757  -2.142  -0.001  1.00  0.00     0.118 C 
HETATM    6  C8  UNL     1      -2.872  -2.678   1.418  1.00  0.00     0.054 C 
HETATM    7  C9  UNL     1      -2.933  -3.358  -0.917  1.00  0.00     0.054 C 
HETATM    8  O2  UNL     1      -1.519  -1.626  -0.268  1.00  0.00    -0.328 OA
HETATM    9  C10 UNL     1      -1.334  -0.317   0.159  1.00  0.00     0.258 C 
ENDROOT
BRANCH   9  10
HETATM   10  O3  UNL     1      -1.532  -0.182   1.529  1.00  0.00    -0.357 OA
ATOM     11  H3  UNL     1      -0.924  -0.745   1.994  1.00  0.00     0.213 HD
ENDBRANCH   9  10
BRANCH   9  12
HETATM   12  C11 UNL     1       0.072   0.033  -0.142  1.00  0.00     0.323 C 
HETATM   13  O4  UNL     1       0.531   0.002  -1.311  1.00  0.00    -0.259 OA
BRANCH  12  14
HETATM   14  O5  UNL     1       0.914   0.409   0.882  1.00  0.00    -0.310 OA
BRANCH  14  15
HETATM   15  C12 UNL     1       2.256   0.757   0.711  1.00  0.00     0.258 C 
BRANCH  15  16
HETATM   16  C13 UNL     1       3.101  -0.327   0.145  1.00  0.00     0.158 C 
HETATM   17  O6  UNL     1       2.726  -1.429  -0.146  1.00  0.00    -0.295 OA
BRANCH  16  18
HETATM   18  C14 UNL     1       4.561  -0.020  -0.085  1.00  0.00     0.012 C 
HETATM   19  C15 UNL     1       5.286  -1.217  -0.661  1.00  0.00     0.022 C 
HETATM   20  C16 UNL     1       5.228   0.399   1.197  1.00  0.00     0.022 C 
HETATM   21  C17 UNL     1       4.589   1.084  -1.128  1.00  0.00     0.022 C 
ENDBRANCH  16  18
ENDBRANCH  15  16
ENDBRANCH  14  15
ENDBRANCH  12  14
ENDBRANCH   9  12
BRANCH   1  22
HETATM   22  C2  UNL     1      -1.980   2.036  -0.462  1.00  0.00    -0.012 C 
HETATM   23  C1  UNL     1      -2.027   2.561   0.938  1.00  0.00     0.010 C 
HETATM   24  C3  UNL     1      -3.039   2.787  -1.262  1.00  0.00     0.010 C 
ENDBRANCH   1  22
TORSDOF 7
