REMARK  5 active torsions:
REMARK  status: ('A' for Active; 'I' for Inactive)
REMARK    1  A    between atoms: C3_7  and  S1_8 
REMARK    2  A    between atoms: S1_8  and  C4_9 
REMARK    3  A    between atoms: C4_9  and  C5_10 
REMARK    4  A    between atoms: C5_10  and  N3_12 
REMARK    5  A    between atoms: N4_15  and  C9_16 
ROOT
HETATM    1  C5  UNL     1       1.578   0.481  -0.019  1.00  0.00     0.229 C 
HETATM    2  C6  UNL     1       2.484  -0.061  -1.076  1.00  0.00     0.043 C 
ENDROOT
BRANCH   1   3
HETATM    3  C4  UNL     1       2.195   1.538   0.829  1.00  0.00     0.117 C 
BRANCH   3   4
HETATM    4  S1  UNL     1       3.616   1.040   1.778  1.00  0.00    -0.090 SA
BRANCH   4   5
HETATM    5  C3  UNL     1       5.061   0.605   0.904  1.00  0.00     0.160 A 
HETATM    6  N2  UNL     1       6.014   1.455   0.481  1.00  0.00    -0.278 N 
HETATM    7  N1  UNL     1       6.973   0.802  -0.114  1.00  0.00    -0.287 N 
ATOM      8  H2  UNL     1       5.990   2.467   0.608  1.00  0.00     0.189 HD
HETATM    9  C2  UNL     1       6.666  -0.504  -0.093  1.00  0.00     0.093 A 
ATOM     10  H1  UNL     1       7.812   1.213  -0.524  1.00  0.00     0.188 HD
HETATM   11  C1  UNL     1       7.541  -1.554  -0.684  1.00  0.00     0.090 C 
HETATM   12  N5  UNL     1       5.489  -0.633   0.533  1.00  0.00    -0.325 N 
ATOM     13  H5  UNL     1       4.997  -1.510   0.703  1.00  0.00     0.169 HD
ENDBRANCH   4   5
ENDBRANCH   3   4
ENDBRANCH   1   3
BRANCH   1  14
HETATM   14  N3  UNL     1       0.275   0.853  -0.515  1.00  0.00     0.096 N 
HETATM   15  C7  UNL     1      -0.396  -0.155  -1.259  1.00  0.00     0.292 C 
HETATM   16  C8  UNL     1      -1.341  -0.912  -0.330  1.00  0.00     0.147 C 
HETATM   17  N4  UNL     1      -2.363  -0.027   0.108  1.00  0.00    -0.405 N 
HETATM   18  C14 UNL     1      -1.994   1.335   0.262  1.00  0.00     0.147 C 
HETATM   19  C15 UNL     1      -0.494   1.438   0.533  1.00  0.00     0.292 C 
BRANCH  17  20
HETATM   20  C9  UNL     1      -3.680  -0.337  -0.263  1.00  0.00     0.083 C 
HETATM   21  C10 UNL     1      -4.115  -1.647   0.339  1.00  0.00     0.051 C 
HETATM   22  C11 UNL     1      -5.561  -1.972  -0.012  1.00  0.00     0.169 C 
HETATM   23  O1  UNL     1      -5.954  -1.032  -0.982  1.00  0.00    -0.391 OA
HETATM   24  C12 UNL     1      -6.041   0.241  -0.387  1.00  0.00     0.169 C 
HETATM   25  C13 UNL     1      -4.686   0.749   0.053  1.00  0.00     0.051 C 
ENDBRANCH  17  20
ENDBRANCH   1  14
TORSDOF 5
