REMARK  8 active torsions:
REMARK  status: ('A' for Active; 'I' for Inactive)
REMARK    1  A    between atoms: O1_2  and  C2_3 
REMARK    2  A    between atoms: C2_3  and  C3_5 
REMARK    3  A    between atoms: C3_5  and  N1_6 
REMARK    4  A    between atoms: C3_5  and  C11_16 
REMARK       I    between atoms: N1_6  and  C4_8 
REMARK    5  A    between atoms: C4_8  and  C5_10 
REMARK       I    between atoms: C11_16  and  N2_18 
REMARK    6  A    between atoms: N2_18  and  C12_20 
REMARK    7  A    between atoms: C12_20  and  C13_21 
REMARK    8  A    between atoms: C16_24  and  C17_25 
ROOT
HETATM    1  C3  UNL     1      -1.071  -0.204  -0.992  1.00  0.00     0.277 C 
ENDROOT
BRANCH   1   2
HETATM    2  C2  UNL     1      -0.746  -1.272  -1.962  1.00  0.00     0.290 C 
HETATM    3  O2  UNL     1      -1.564  -2.205  -2.145  1.00  0.00    -0.262 OA
BRANCH   2   4
HETATM    4  O1  UNL     1       0.433  -1.279  -2.679  1.00  0.00    -0.324 OA
HETATM    5  C1  UNL     1       0.703  -2.316  -3.594  1.00  0.00     0.213 C 
ENDBRANCH   2   4
ENDBRANCH   1   2
BRANCH   1   6
HETATM    6  N1  UNL     1      -2.381  -0.440  -0.385  1.00  0.00    -0.339 N 
HETATM    7  C4  UNL     1      -3.464   0.436  -0.544  1.00  0.00     0.222 C 
HETATM    8  O3  UNL     1      -3.363   1.506  -1.239  1.00  0.00    -0.273 OA
ATOM      9  H1  UNL     1      -2.512  -1.280   0.179  1.00  0.00     0.163 HD
BRANCH   7  10
HETATM   10  C5  UNL     1      -4.763   0.130   0.100  1.00  0.00     0.078 C 
HETATM   11  C6  UNL     1      -5.803   1.181  -0.183  1.00  0.00     0.014 C 
HETATM   12  C7  UNL     1      -5.800   2.302   0.827  1.00  0.00     0.001 C 
HETATM   13  C8  UNL     1      -5.843   1.788   2.247  1.00  0.00     0.000 C 
HETATM   14  C9  UNL     1      -5.837   0.273   2.287  1.00  0.00     0.001 C 
HETATM   15  C10 UNL     1      -4.576  -0.167   1.550  1.00  0.00     0.014 C 
ENDBRANCH   7  10
ENDBRANCH   1   6
BRANCH   1  16
HETATM   16  C11 UNL     1      -0.074  -0.087   0.097  1.00  0.00     0.250 C 
HETATM   17  O4  UNL     1      -0.432  -0.220   1.295  1.00  0.00    -0.271 OA
HETATM   18  N2  UNL     1       1.279   0.174  -0.203  1.00  0.00    -0.356 N 
ATOM     19  H2  UNL     1       1.586   0.285  -1.169  1.00  0.00     0.162 HD
BRANCH  18  20
HETATM   20  C12 UNL     1       2.225   0.281   0.890  1.00  0.00     0.154 C 
BRANCH  20  21
HETATM   21  C13 UNL     1       3.629   0.565   0.353  1.00  0.00     0.139 C 
HETATM   22  C14 UNL     1       3.940  -0.491  -0.665  1.00  0.00     0.034 C 
HETATM   23  C15 UNL     1       5.409  -0.690  -0.899  1.00  0.00     0.018 C 
HETATM   24  C16 UNL     1       6.234  -0.659   0.347  1.00  0.00     0.117 C 
HETATM   25  C18 UNL     1       5.318  -0.473   1.537  1.00  0.00     0.181 C 
HETATM   26  O5  UNL     1       4.552   0.673   1.356  1.00  0.00    -0.384 OA
BRANCH  24  27
HETATM   27  C17 UNL     1       7.230   0.476   0.227  1.00  0.00     0.393 C 
HETATM   28  F1  UNL     1       8.026   0.565   1.342  1.00  0.00    -0.171 F 
HETATM   29  F2  UNL     1       6.551   1.656  -0.005  1.00  0.00    -0.171 F 
HETATM   30  F3  UNL     1       8.000   0.225  -0.895  1.00  0.00    -0.171 F 
ENDBRANCH  24  27
ENDBRANCH  20  21
ENDBRANCH  18  20
ENDBRANCH   1  16
TORSDOF 8
