REMARK  8 active torsions:
REMARK  status: ('A' for Active; 'I' for Inactive)
REMARK    1  A    between atoms: N1_7  and  C7_8 
REMARK    2  A    between atoms: C7_8  and  C8_9 
REMARK       I    between atoms: N4_20  and  C15_21 
REMARK    3  A    between atoms: C15_21  and  C16_23 
REMARK    4  A    between atoms: C16_23  and  O2_24 
REMARK    5  A    between atoms: O2_24  and  C17_25 
REMARK    6  A    between atoms: C17_25  and  C18_26 
REMARK    7  A    between atoms: C18_26  and  C19_29 
REMARK    8  A    between atoms: C19_29  and  O3_30 
ROOT
HETATM    1  C1  UNL     1      -1.527  -2.935  -1.627  1.00  0.00     0.032 C 
HETATM    2  C2  UNL     1      -0.882  -1.710  -1.074  1.00  0.00     0.084 C 
HETATM    3  C3  UNL     1       0.477  -1.442  -1.716  1.00  0.00     0.034 C 
HETATM    4  C4  UNL     1       1.266  -0.606  -0.724  1.00  0.00    -0.034 C 
HETATM    5  C5  UNL     1       1.650  -1.467   0.414  1.00  0.00     0.040 C 
HETATM    6  C6  UNL     1       3.096  -1.691   0.666  1.00  0.00     0.273 C 
HETATM    7  N1  UNL     1       3.950  -0.567   0.479  1.00  0.00     0.095 N 
HETATM    8  C11 UNL     1       3.470   0.411  -0.452  1.00  0.00     0.273 C 
HETATM    9  C12 UNL     1       2.503  -0.162  -1.454  1.00  0.00     0.040 C 
HETATM   10  C13 UNL     1       0.382   0.559  -0.340  1.00  0.00     0.029 C 
HETATM   11  C14 UNL     1      -0.813   0.724  -1.257  1.00  0.00     0.127 C 
HETATM   12  N4  UNL     1      -1.638  -0.488  -1.236  1.00  0.00    -0.346 N 
HETATM   13  C15 UNL     1      -3.056  -0.448  -1.358  1.00  0.00     0.243 C 
HETATM   14  O1  UNL     1      -3.642  -1.549  -1.313  1.00  0.00    -0.271 OA
ENDROOT
BRANCH   7  15
HETATM   15  C7  UNL     1       4.314  -0.014   1.745  1.00  0.00     0.348 C 
BRANCH  15  16
HETATM   16  C8  UNL     1       5.192   1.143   1.695  1.00  0.00     0.109 A 
HETATM   17  N2  UNL     1       4.816   2.426   1.674  1.00  0.00    -0.353 N 
HETATM   18  C9  UNL     1       5.875   3.238   1.626  1.00  0.00     0.106 A 
ATOM     19  H2  UNL     1       3.847   2.743   1.692  1.00  0.00     0.166 HD
HETATM   20  C10 UNL     1       6.990   2.412   1.616  1.00  0.00     0.106 A 
HETATM   21  N3  UNL     1       6.529   1.132   1.659  1.00  0.00    -0.353 N 
ATOM     22  H3  UNL     1       7.112   0.295   1.663  1.00  0.00     0.166 HD
ENDBRANCH  15  16
ENDBRANCH   7  15
BRANCH  13  23
HETATM   23  C16 UNL     1      -3.811   0.795  -1.527  1.00  0.00     0.270 C 
BRANCH  23  24
HETATM   24  O2  UNL     1      -5.146   0.747  -1.568  1.00  0.00    -0.376 OA
BRANCH  24  25
HETATM   25  C17 UNL     1      -5.856   0.268  -0.518  1.00  0.00     0.249 C 
BRANCH  25  26
HETATM   26  C18 UNL     1      -5.660   0.992   0.782  1.00  0.00     0.285 C 
HETATM   27  F1  UNL     1      -4.385   0.975   1.253  1.00  0.00    -0.202 F 
HETATM   28  F2  UNL     1      -6.094   2.317   0.661  1.00  0.00    -0.202 F 
BRANCH  26  29
HETATM   29  C19 UNL     1      -6.557   0.382   1.854  1.00  0.00     0.245 C 
BRANCH  29  30
HETATM   30  O3  UNL     1      -6.371   1.051   3.042  1.00  0.00    -0.395 OA
ATOM     31  H3  UNL     1      -6.930   0.671   3.710  1.00  0.00     0.209 HD
ENDBRANCH  29  30
ENDBRANCH  26  29
ENDBRANCH  25  26
ENDBRANCH  24  25
ENDBRANCH  23  24
ENDBRANCH  13  23
TORSDOF 8
