REMARK  8 active torsions:
REMARK  status: ('A' for Active; 'I' for Inactive)
REMARK    1  A    between atoms: C2_2  and  C3_3 
REMARK    2  A    between atoms: C3_3  and  C5_5 
REMARK    3  A    between atoms: C3_3  and  C6_8 
REMARK    4  A    between atoms: C5_5  and  O1_6 
REMARK    5  A    between atoms: C6_8  and  C7_9 
REMARK    6  A    between atoms: C7_9  and  C8_10 
REMARK       I    between atoms: N2_18  and  C15_19 
REMARK    7  A    between atoms: C15_19  and  C16_21 
REMARK    8  A    between atoms: C17_26  and  C18_27 
ROOT
HETATM    1  C8  UNL     1      -0.228   0.244   0.309  1.00  0.00     0.043 C 
HETATM    2  C9  UNL     1      -0.621  -1.125   0.695  1.00  0.00     0.330 C 
HETATM    3  N1  UNL     1       0.341  -2.012  -0.020  1.00  0.00     0.100 N 
HETATM    4  C10 UNL     1       0.063  -3.389   0.120  1.00  0.00     0.273 C 
HETATM    5  C11 UNL     1       1.396  -4.069  -0.039  1.00  0.00     0.032 C 
HETATM    6  C12 UNL     1       2.372  -3.074   0.547  1.00  0.00     0.039 C 
HETATM    7  C13 UNL     1       1.557  -1.825   0.718  1.00  0.00     0.241 C 
HETATM    8  C14 UNL     1       2.208  -0.573   0.181  1.00  0.00     0.168 C 
HETATM    9  N2  UNL     1       1.206   0.473   0.141  1.00  0.00    -0.311 N 
HETATM   10  C15 UNL     1       1.669   1.802  -0.008  1.00  0.00     0.293 C 
HETATM   11  O2  UNL     1       0.847   2.749   0.065  1.00  0.00    -0.264 OA
ENDROOT
BRANCH   1  12
HETATM   12  C7  UNL     1      -1.095   0.901  -0.663  1.00  0.00     0.024 C 
BRANCH  12  13
HETATM   13  C6  UNL     1      -2.451   1.330  -0.413  1.00  0.00    -0.009 C 
BRANCH  13  14
HETATM   14  C3  UNL     1      -3.620   0.550  -0.028  1.00  0.00     0.012 C 
HETATM   15  C4  UNL     1      -3.709   0.179   1.449  1.00  0.00     0.026 C 
BRANCH  14  16
HETATM   16  C2  UNL     1      -4.054  -0.524  -0.930  1.00  0.00    -0.022 C 
HETATM   17  C1  UNL     1      -5.244  -1.051  -0.862  1.00  0.00     0.008 C 
ENDBRANCH  14  16
BRANCH  14  18
HETATM   18  C5  UNL     1      -4.811   1.597  -0.167  1.00  0.00     0.181 C 
BRANCH  18  19
HETATM   19  O1  UNL     1      -4.413   2.647   0.682  1.00  0.00    -0.400 OA
ATOM     20  H1  UNL     1      -5.124   3.272   0.599  1.00  0.00     0.209 HD
ENDBRANCH  18  19
ENDBRANCH  14  18
ENDBRANCH  13  14
ENDBRANCH  12  13
ENDBRANCH   1  12
BRANCH  10  21
HETATM   21  C16 UNL     1       3.033   2.148  -0.246  1.00  0.00     0.191 A 
HETATM   22  N3  UNL     1       3.494   3.429  -0.410  1.00  0.00    -0.279 N 
HETATM   23  N4  UNL     1       4.792   3.430  -0.607  1.00  0.00    -0.280 N 
ATOM     24  H3  UNL     1       2.910   4.265  -0.383  1.00  0.00     0.189 HD
HETATM   25  C17 UNL     1       5.236   2.173  -0.583  1.00  0.00     0.207 A 
ATOM     26  H4  UNL     1       5.368   4.259  -0.755  1.00  0.00     0.188 HD
HETATM   27  N5  UNL     1       4.177   1.410  -0.368  1.00  0.00    -0.318 N 
ATOM     28  H5  UNL     1       4.210   0.393  -0.301  1.00  0.00     0.169 HD
BRANCH  25  29
HETATM   29  C18 UNL     1       6.669   1.765  -0.763  1.00  0.00     0.450 C 
HETATM   30  F1  UNL     1       7.132   1.142   0.407  1.00  0.00    -0.163 F 
HETATM   31  F2  UNL     1       7.484   2.827  -0.984  1.00  0.00    -0.163 F 
HETATM   32  F3  UNL     1       6.813   0.847  -1.789  1.00  0.00    -0.163 F 
ENDBRANCH  25  29
ENDBRANCH  10  21
TORSDOF 8
