REMARK  5 active torsions:
REMARK  status: ('A' for Active; 'I' for Inactive)
REMARK       I    between atoms: N1_2  and  C3_4 
REMARK    1  A    between atoms: C3_4  and  C4_6 
REMARK    2  A    between atoms: C4_6  and  N2_7 
REMARK    3  A    between atoms: C4_6  and  C10_16 
REMARK    4  A    between atoms: N2_7  and  C5_9 
REMARK    5  A    between atoms: C10_16  and  C11_18 
ROOT
HETATM    1  C4  UNL     1      -0.813   0.340   0.317  1.00  0.00     0.197 C 
ENDROOT
BRANCH   1   2
HETATM    2  C3  UNL     1      -2.109   0.151  -0.351  1.00  0.00     0.243 C 
HETATM    3  N1  UNL     1      -2.940  -0.919   0.034  1.00  0.00    -0.359 N 
HETATM    4  C1  UNL     1      -2.603  -1.899   1.042  1.00  0.00     0.152 C 
HETATM    5  C2  UNL     1      -4.267  -1.130  -0.583  1.00  0.00     0.152 C 
HETATM    6  O1  UNL     1      -2.557   0.881  -1.268  1.00  0.00    -0.271 OA
ENDBRANCH   1   2
BRANCH   1   7
HETATM    7  N2  UNL     1       0.095   0.732  -0.773  1.00  0.00    -0.370 N 
ATOM      8  H2  UNL     1      -0.286   1.336  -1.501  1.00  0.00     0.161 HD
BRANCH   7   9
HETATM    9  C5  UNL     1       1.434   0.349  -0.898  1.00  0.00     0.070 A 
HETATM   10  C6  UNL     1       2.200   0.832  -1.932  1.00  0.00     0.039 A 
HETATM   11  C7  UNL     1       3.509   0.493  -2.157  1.00  0.00     0.030 A 
HETATM   12  C8  UNL     1       4.283  -0.363  -1.422  1.00  0.00     0.053 A 
HETATM   13  N3  UNL     1       5.657  -0.600  -1.814  1.00  0.00    -0.102 NA
HETATM   14  C9  UNL     1       3.860  -1.047  -0.298  1.00  0.00     0.078 A 
HETATM   15  S1  UNL     1       2.241  -0.737   0.126  1.00  0.00    -0.083 SA
ENDBRANCH   7   9
ENDBRANCH   1   7
BRANCH   1  16
HETATM   16  C10 UNL     1      -0.745   1.468   1.265  1.00  0.00     0.168 C 
HETATM   17 CL1  UNL     1       0.878   1.548   1.981  1.00  0.00    -0.118 Cl
BRANCH  16  18
HETATM   18  C11 UNL     1      -1.699   1.636   2.363  1.00  0.00     0.207 C 
HETATM   19 CL2  UNL     1      -3.397   1.799   1.908  1.00  0.00    -0.082 Cl
HETATM   20 CL3  UNL     1      -1.433   0.605   3.784  1.00  0.00    -0.082 Cl
HETATM   21 CL4  UNL     1      -1.300   3.298   3.011  1.00  0.00    -0.082 Cl
ENDBRANCH  16  18
ENDBRANCH   1  16
TORSDOF 5
