REMARK  4 active torsions:
REMARK  status: ('A' for Active; 'I' for Inactive)
REMARK    1  A    between atoms: C6_9  and  N1_10 
REMARK    2  A    between atoms: C6_9  and  C9_17 
REMARK       I    between atoms: N1_10  and  C7_12 
REMARK    3  A    between atoms: C7_12  and  C8_14 
REMARK    4  A    between atoms: C13_21  and  O3_22 
ROOT
HETATM    1  C1  UNL     1      -3.595  -0.440   1.450  1.00  0.00     0.043 C 
HETATM    2  C2  UNL     1      -2.477  -0.212   0.451  1.00  0.00     0.159 A 
HETATM    3  O1  UNL     1      -1.813  -1.524   0.229  1.00  0.00    -0.363 OA
HETATM    4  C3  UNL     1      -1.162  -0.453   0.748  1.00  0.00     0.151 A 
HETATM    5  C4  UNL     1      -0.587  -0.415   2.117  1.00  0.00     0.152 C 
HETATM    6 CL1  UNL     1       0.054  -2.015   2.567  1.00  0.00    -0.098 Cl
HETATM    7 CL2  UNL     1      -1.518   0.367   3.390  1.00  0.00    -0.098 Cl
HETATM    8  C5  UNL     1       0.470   0.536   1.571  1.00  0.00     0.085 C 
HETATM    9  C6  UNL     1       0.071   0.177   0.164  1.00  0.00     0.100 C 
ENDROOT
BRANCH   9  10
HETATM   10  N1  UNL     1      -0.167   1.239  -0.757  1.00  0.00    -0.342 N 
HETATM   11  C7  UNL     1      -0.850   2.451  -0.544  1.00  0.00     0.251 C 
HETATM   12  O2  UNL     1      -1.342   2.697   0.608  1.00  0.00    -0.271 OA
ATOM     13  H1  UNL     1       0.208   1.102  -1.696  1.00  0.00     0.163 HD
BRANCH  11  14
HETATM   14  C8  UNL     1      -1.059   3.504  -1.564  1.00  0.00     0.269 C 
HETATM   15 CL3  UNL     1      -1.789   4.974  -0.829  1.00  0.00    -0.098 Cl
HETATM   16 CL4  UNL     1      -2.267   2.905  -2.752  1.00  0.00    -0.098 Cl
ENDBRANCH  11  14
ENDBRANCH   9  10
BRANCH   9  17
HETATM   17  C9  UNL     1       1.104  -0.745  -0.396  1.00  0.00    -0.024 A 
HETATM   18  C10 UNL     1       0.811  -1.825  -1.187  1.00  0.00     0.010 A 
HETATM   19  C11 UNL     1       1.790  -2.658  -1.676  1.00  0.00     0.003 A 
HETATM   20  C12 UNL     1       3.097  -2.378  -1.350  1.00  0.00     0.036 A 
HETATM   21  C13 UNL     1       3.437  -1.305  -0.561  1.00  0.00     0.066 A 
HETATM   22  C14 UNL     1       2.421  -0.470  -0.073  1.00  0.00     0.046 A 
BRANCH  21  23
HETATM   23  O3  UNL     1       4.777  -1.082  -0.271  1.00  0.00    -0.361 OA
ATOM     24  H3  UNL     1       5.012  -0.340   0.274  1.00  0.00     0.217 HD
ENDBRANCH  21  23
ENDBRANCH   9  17
TORSDOF 4
