REMARK  3 active torsions:
REMARK  status: ('A' for Active; 'I' for Inactive)
REMARK    1  A    between atoms: C1_2  and  C2_4 
REMARK    2  A    between atoms: C2_4  and  O3_5 
REMARK    3  A    between atoms: O3_5  and  C3_6 
ROOT
HETATM    1  C3  UNL     1       1.616  -0.096  -0.106  1.00  0.00     0.140 C 
HETATM    2  C4  UNL     1       1.193  -0.536  -1.487  1.00  0.00     0.035 C 
HETATM    3  C5  UNL     1      -0.111  -1.296  -1.309  1.00  0.00     0.028 C 
HETATM    4  C6  UNL     1      -1.072  -0.607  -0.419  1.00  0.00     0.083 C 
HETATM    5  C7  UNL     1      -2.404  -0.510  -1.155  1.00  0.00     0.025 C 
HETATM    6  C8  UNL     1      -3.543  -0.872  -0.245  1.00  0.00     0.002 C 
HETATM    7  C9  UNL     1      -3.847   0.187   0.780  1.00  0.00     0.005 C 
HETATM    8  C10 UNL     1      -2.593   0.623   1.529  1.00  0.00     0.044 C 
HETATM    9  C11 UNL     1      -1.676   1.427   0.680  1.00  0.00     0.058 C 
HETATM   10  N1  UNL     1      -0.703   0.720  -0.047  1.00  0.00    -0.386 N 
HETATM   11  C12 UNL     1       0.635   0.899   0.395  1.00  0.00     0.154 C 
ENDROOT
BRANCH   1  12
HETATM   12  O3  UNL     1       2.861   0.529  -0.240  1.00  0.00    -0.374 OA
BRANCH  12  13
HETATM   13  C2  UNL     1       3.835  -0.095   0.516  1.00  0.00     0.281 C 
BRANCH  13  14
HETATM   14  C1  UNL     1       5.111   0.627   0.316  1.00  0.00     0.197 C 
HETATM   15  O1  UNL     1       5.189   1.633  -0.439  1.00  0.00    -0.646 OA
HETATM   16  O2  UNL     1       6.293   0.242   0.945  1.00  0.00    -0.646 OA
ENDBRANCH  13  14
ENDBRANCH  12  13
ENDBRANCH   1  12
TORSDOF 3
