REMARK  5 active torsions:
REMARK  status: ('A' for Active; 'I' for Inactive)
REMARK    1  A    between atoms: C2_2  and  C4_4 
REMARK    2  A    between atoms: C5_5  and  C6_6 
REMARK    3  A    between atoms: C7_7  and  C8_8 
REMARK    4  A    between atoms: C12_14  and  C13_15 
REMARK    5  A    between atoms: C13_15  and  O3_16 
ROOT
HETATM    1  C8  UNL     1      -1.240   0.043  -1.264  1.00  0.00     0.066 C 
HETATM    2  C9  UNL     1      -1.616  -1.302  -1.908  1.00  0.00     0.048 C 
HETATM    3  C10 UNL     1      -3.082  -1.355  -1.669  1.00  0.00     0.156 C 
HETATM    4  O1  UNL     1      -3.450   0.006  -1.524  1.00  0.00    -0.353 OA
HETATM    5  C11 UNL     1      -2.527   0.305  -0.488  1.00  0.00     0.268 C 
HETATM    6  O2  UNL     1      -2.763  -0.679   0.452  1.00  0.00    -0.351 OA
HETATM    7  C12 UNL     1      -3.296  -1.780  -0.216  1.00  0.00     0.177 C 
ENDROOT
BRANCH   1   8
HETATM    8  C7  UNL     1      -0.071  -0.085  -0.395  1.00  0.00    -0.017 C 
HETATM    9  C6  UNL     1       0.933   0.759  -0.548  1.00  0.00    -0.004 C 
BRANCH   9  10
HETATM   10  C5  UNL     1       2.136   0.712   0.269  1.00  0.00    -0.004 C 
HETATM   11  C4  UNL     1       3.130   1.566   0.100  1.00  0.00    -0.023 C 
BRANCH  11  12
HETATM   12  C2  UNL     1       4.339   1.490   0.947  1.00  0.00    -0.000 C 
HETATM   13  C1  UNL     1       4.572   2.803   1.655  1.00  0.00     0.013 C 
HETATM   14  C3  UNL     1       4.222   0.347   1.951  1.00  0.00     0.013 C 
ENDBRANCH  11  12
ENDBRANCH   9  10
ENDBRANCH   1   8
BRANCH   7  15
HETATM   15  C13 UNL     1      -4.796  -1.879  -0.005  1.00  0.00     0.198 C 
BRANCH  15  16
HETATM   16  O3  UNL     1      -5.271  -2.993  -0.693  1.00  0.00    -0.398 OA
ATOM     17  H3  UNL     1      -6.210  -3.055  -0.561  1.00  0.00     0.209 HD
ENDBRANCH  15  16
ENDBRANCH   7  15
TORSDOF 5
