REMARK  5 active torsions:
REMARK  status: ('A' for Active; 'I' for Inactive)
REMARK    1  A    between atoms: O1_1  and  C1_3 
REMARK    2  A    between atoms: C1_3  and  C2_4 
REMARK    3  A    between atoms: C1_3  and  C9_11 
REMARK    4  A    between atoms: C2_4  and  C3_5 
REMARK    5  A    between atoms: C9_11  and  N1_12 
ROOT
HETATM    1  C1  UNL     1       0.120   0.376  -0.086  1.00  0.00     0.146 C 
ENDROOT
BRANCH   1   2
HETATM    2  O1  UNL     1      -0.052   0.057  -1.443  1.00  0.00    -0.394 OA
ATOM      3  H1  UNL     1       0.590  -0.577  -1.741  1.00  0.00     0.210 HD
ENDBRANCH   1   2
BRANCH   1   4
HETATM    4  C2  UNL     1      -0.897   1.380   0.386  1.00  0.00     0.038 C 
BRANCH   4   5
HETATM    5  C3  UNL     1      -2.322   0.967   0.279  1.00  0.00    -0.012 C 
HETATM    6  C4  UNL     1      -2.829   0.646  -1.079  1.00  0.00     0.005 C 
HETATM    7  C5  UNL     1      -3.154  -0.854  -1.165  1.00  0.00     0.000 C 
HETATM    8  C6  UNL     1      -4.364  -1.035  -0.236  1.00  0.00     0.000 C 
HETATM    9  C7  UNL     1      -3.975  -0.708   1.174  1.00  0.00     0.000 C 
HETATM   10  C8  UNL     1      -2.599  -0.110   1.299  1.00  0.00     0.005 C 
ENDBRANCH   4   5
ENDBRANCH   1   4
BRANCH   1  11
HETATM   11  C9  UNL     1       1.475   1.048  -0.011  1.00  0.00     0.304 C 
BRANCH  11  12
HETATM   12  N1  UNL     1       2.547   0.198  -0.472  1.00  0.00     0.095 N 
HETATM   13  C10 UNL     1       3.772   1.015  -0.368  1.00  0.00     0.298 C 
HETATM   14  C11 UNL     1       4.960   0.095  -0.674  1.00  0.00     0.198 C 
HETATM   15  O2  UNL     1       4.509  -1.077  -1.256  1.00  0.00    -0.388 OA
HETATM   16  C12 UNL     1       3.793  -1.825  -0.352  1.00  0.00     0.198 C 
HETATM   17  C13 UNL     1       2.781  -0.945   0.367  1.00  0.00     0.298 C 
ENDBRANCH  11  12
ENDBRANCH   1  11
TORSDOF 5
