REMARK  4 active torsions:
REMARK  status: ('A' for Active; 'I' for Inactive)
REMARK       I    between atoms: C1_2  and  N1_3 
REMARK    1  A    between atoms: C1_2  and  C7_18 
REMARK    2  A    between atoms: N1_3  and  N2_5 
REMARK    3  A    between atoms: C2_7  and  C3_8 
REMARK    4  A    between atoms: C5_10  and  C6_11 
ROOT
HETATM    1  O1  UNL     1       0.573  -0.364  -1.324  1.00  0.00    -0.271 OA
HETATM    2  C1  UNL     1       0.155   0.285  -0.354  1.00  0.00     0.245 C 
HETATM    3  N1  UNL     1       1.076   0.803   0.615  1.00  0.00    -0.270 N 
ATOM      4  H1  UNL     1       0.719   1.384   1.374  1.00  0.00     0.190 HD
ENDROOT
BRANCH   3   5
HETATM    5  N2  UNL     1       2.417   0.543   0.555  1.00  0.00    -0.307 N 
HETATM    6  C2  UNL     1       2.996  -0.576   0.756  1.00  0.00     0.138 C 
ATOM      7  H2  UNL     1       3.022   1.331   0.324  1.00  0.00     0.186 HD
BRANCH   6   8
HETATM    8  C3  UNL     1       4.440  -0.720   0.662  1.00  0.00     0.074 A 
HETATM    9  C4  UNL     1       5.425   0.263   0.554  1.00  0.00     0.077 A 
HETATM   10  C5  UNL     1       6.601  -0.370   0.348  1.00  0.00     0.184 A 
HETATM   11  O2  UNL     1       6.381  -1.678   0.324  1.00  0.00    -0.233 OA
HETATM   12  N3  UNL     1       5.075  -1.886   0.518  1.00  0.00    -0.259 N 
ATOM     13  H3  UNL     1       4.628  -2.802   0.551  1.00  0.00     0.195 HD
BRANCH  10  14
HETATM   14  C6  UNL     1       7.974   0.198   0.172  1.00  0.00     0.441 C 
HETATM   15  F1  UNL     1       8.370   0.015  -1.104  1.00  0.00    -0.164 F 
HETATM   16  F2  UNL     1       7.997   1.508   0.610  1.00  0.00    -0.164 F 
HETATM   17  F3  UNL     1       8.796  -0.562   1.064  1.00  0.00    -0.164 F 
ENDBRANCH  10  14
ENDBRANCH   6   8
ENDBRANCH   3   5
BRANCH   2  18
HETATM   18  C7  UNL     1      -1.290   0.503  -0.260  1.00  0.00     0.049 C 
HETATM   19  C8  UNL     1      -1.776   0.002   1.086  1.00  0.00     0.024 C 
HETATM   20  C9  UNL     1      -2.721  -1.116   0.808  1.00  0.00    -0.009 C 
HETATM   21  C10 UNL     1      -4.161  -0.844   1.067  1.00  0.00     0.052 C 
HETATM   22  C15 UNL     1      -2.396  -1.650  -0.573  1.00  0.00     0.010 C 
HETATM   23  C11 UNL     1      -4.716   0.380   0.436  1.00  0.00     0.218 C 
HETATM   24 CL1  UNL     1      -5.896   1.046   1.634  1.00  0.00    -0.095 Cl
HETATM   25  O3  UNL     1      -3.846   1.383   0.186  1.00  0.00    -0.365 OA
HETATM   26  C12 UNL     1      -3.256   1.551  -0.990  1.00  0.00     0.125 C 
HETATM   27  C13 UNL     1      -3.148   0.328  -1.827  1.00  0.00     0.038 C 
HETATM   28  C16 UNL     1      -1.776   1.821  -0.694  1.00  0.00     0.051 C 
HETATM   29  C14 UNL     1      -1.971  -0.390  -1.312  1.00  0.00     0.006 C 
ENDBRANCH   2  18
TORSDOF 4
