REMARK  7 active torsions:
REMARK  status: ('A' for Active; 'I' for Inactive)
REMARK    1  A    between atoms: N1_6  and  C5_7 
REMARK    2  A    between atoms: C5_7  and  O1_8 
REMARK    3  A    between atoms: C5_7  and  C6_10 
REMARK    4  A    between atoms: C7_11  and  N2_12 
REMARK       I    between atoms: N2_12  and  C8_14 
REMARK    5  A    between atoms: C8_14  and  O3_16 
REMARK    6  A    between atoms: O3_16  and  C9_17 
REMARK    7  A    between atoms: C9_17  and  C10_18 
ROOT
HETATM    1  C6  UNL     1      -0.282   1.188   1.270  1.00  0.00     0.071 A 
HETATM    2  C7  UNL     1       1.114   1.012   1.226  1.00  0.00     0.060 A 
HETATM    3  C11 UNL     1       1.862   1.796   2.022  1.00  0.00     0.082 A 
HETATM    4  S2  UNL     1       0.758   2.765   2.837  1.00  0.00    -0.086 SA
HETATM    5  C12 UNL     1      -0.695   2.144   2.129  1.00  0.00     0.091 A 
HETATM    6 CL1  UNL     1      -2.298   2.812   2.508  1.00  0.00    -0.075 Cl
ENDROOT
BRANCH   2   7
HETATM    7  N2  UNL     1       1.745  -0.065   0.469  1.00  0.00    -0.301 N 
HETATM    8  C8  UNL     1       3.106  -0.061   0.116  1.00  0.00     0.365 C 
HETATM    9  O2  UNL     1       3.946   0.830   0.379  1.00  0.00    -0.238 OA
ATOM     10  H2  UNL     1       1.171  -0.858   0.183  1.00  0.00     0.171 HD
BRANCH   8  11
HETATM   11  O3  UNL     1       3.566  -1.153  -0.595  1.00  0.00    -0.295 OA
BRANCH  11  12
HETATM   12  C9  UNL     1       4.803  -1.439  -1.089  1.00  0.00     0.297 C 
BRANCH  12  13
HETATM   13  C10 UNL     1       5.344  -0.561  -2.166  1.00  0.00     0.409 C 
HETATM   14  F1  UNL     1       4.461  -0.610  -3.261  1.00  0.00    -0.169 F 
HETATM   15  F2  UNL     1       5.547   0.743  -1.853  1.00  0.00    -0.169 F 
HETATM   16  F3  UNL     1       6.579  -1.093  -2.608  1.00  0.00    -0.169 F 
ENDBRANCH  12  13
ENDBRANCH  11  12
ENDBRANCH   8  11
ENDBRANCH   2   7
BRANCH   1  17
HETATM   17  C5  UNL     1      -1.143   0.507   0.294  1.00  0.00     0.154 C 
BRANCH  17  18
HETATM   18  N1  UNL     1      -2.480   0.171   0.201  1.00  0.00    -0.347 N 
HETATM   19  C2  UNL     1      -3.005  -0.509  -1.082  1.00  0.00     0.144 C 
HETATM   20  C1  UNL     1      -3.414  -1.905  -0.778  1.00  0.00     0.044 C 
HETATM   21  S1  UNL     1      -4.465   0.523  -1.343  1.00  0.00    -0.142 SA
HETATM   22  C3  UNL     1      -4.739   0.989   0.400  1.00  0.00     0.096 C 
HETATM   23  C4  UNL     1      -3.629   0.154   1.038  1.00  0.00     0.136 C 
ENDBRANCH  17  18
BRANCH  17  24
HETATM   24  O1  UNL     1      -0.497   0.072  -0.798  1.00  0.00    -0.345 OA
ATOM     25  H1  UNL     1       0.422   0.303  -0.734  1.00  0.00     0.219 HD
ENDBRANCH  17  24
ENDBRANCH   1  17
TORSDOF 7
