REMARK  5 active torsions:
REMARK  status: ('A' for Active; 'I' for Inactive)
REMARK    1  A    between atoms: O1_2  and  C2_3 
REMARK    2  A    between atoms: C3_4  and  O2_5 
REMARK    3  A    between atoms: C4_7  and  N1_8 
REMARK    4  A    between atoms: C5_10  and  C6_11 
REMARK    5  A    between atoms: C6_11  and  C7_12 
REMARK       I    between atoms: N2_22  and  C13_24 
REMARK       I    between atoms: C13_24  and  N3_26 
ROOT
HETATM    1  C2  UNL     1       1.118   1.100  -1.292  1.00  0.00     0.137 A 
HETATM    2  C3  UNL     1       2.483   0.896  -1.260  1.00  0.00     0.129 A 
HETATM    3  C4  UNL     1       2.967  -0.287  -0.749  1.00  0.00     0.068 A 
HETATM    4  C8  UNL     1       2.058  -1.235  -0.283  1.00  0.00     0.042 A 
HETATM    5  C9  UNL     1       0.695  -1.029  -0.315  1.00  0.00    -0.019 A 
HETATM    6  C10 UNL     1       0.221   0.153  -0.826  1.00  0.00     0.111 A 
HETATM    7  O3  UNL     1      -1.101   0.558  -0.950  1.00  0.00    -0.342 OA
HETATM    8  C11 UNL     1      -2.256  -0.274  -1.093  1.00  0.00     0.228 C 
HETATM    9  C12 UNL     1      -2.368  -1.118   0.122  1.00  0.00     0.015 C 
HETATM   10  N2  UNL     1      -3.576  -1.415   0.464  1.00  0.00    -0.314 N 
ATOM     11  H2  UNL     1      -3.698  -1.994   1.295  1.00  0.00     0.170 HD
HETATM   12  C13 UNL     1      -4.732  -1.009  -0.209  1.00  0.00     0.321 C 
HETATM   13  O4  UNL     1      -4.879  -1.307  -1.418  1.00  0.00    -0.247 OA
HETATM   14  N3  UNL     1      -5.758  -0.266   0.428  1.00  0.00    -0.343 N 
HETATM   15  C14 UNL     1      -6.954   0.149  -0.280  1.00  0.00     0.154 C 
HETATM   16  C15 UNL     1      -5.666   0.121   1.830  1.00  0.00     0.154 C 
HETATM   17  C16 UNL     1      -1.316  -1.662   0.988  1.00  0.00     0.059 C 
HETATM   18  C17 UNL     1      -0.103  -2.146   0.223  1.00  0.00     0.047 C 
ENDROOT
BRANCH   3  19
HETATM   19  N1  UNL     1       4.357  -0.509  -0.711  1.00  0.00    -0.367 N 
HETATM   20  C5  UNL     1       5.144   0.072   0.143  1.00  0.00     0.070 C 
ATOM     21  H1  UNL     1       4.765  -1.156  -1.386  1.00  0.00     0.165 HD
BRANCH  20  22
HETATM   22  C6  UNL     1       6.603  -0.209   0.126  1.00  0.00     0.162 C 
BRANCH  22  23
HETATM   23  C7  UNL     1       7.102  -0.172   1.547  1.00  0.00     0.392 C 
HETATM   24  F1  UNL     1       6.854   1.084   2.065  1.00  0.00    -0.171 F 
HETATM   25  F2  UNL     1       6.423  -1.093   2.328  1.00  0.00    -0.171 F 
HETATM   26  F3  UNL     1       8.445  -0.500   1.581  1.00  0.00    -0.171 F 
ENDBRANCH  22  23
ENDBRANCH  20  22
ENDBRANCH   3  19
BRANCH   2  27
HETATM   27  O2  UNL     1       3.293   1.911  -1.752  1.00  0.00    -0.356 OA
ATOM     28  H2  UNL     1       4.232   1.771  -1.730  1.00  0.00     0.218 HD
ENDBRANCH   2  27
BRANCH   1  29
HETATM   29  O1  UNL     1       0.587   2.279  -1.798  1.00  0.00    -0.351 OA
HETATM   30  C1  UNL     1       0.399   3.337  -0.854  1.00  0.00     0.210 C 
ENDBRANCH   1  29
TORSDOF 5
