REMARK  5 active torsions:
REMARK  status: ('A' for Active; 'I' for Inactive)
REMARK    1  A    between atoms: O1_1  and  C1_3 
REMARK    2  A    between atoms: C1_3  and  C2_4 
REMARK    3  A    between atoms: C1_3  and  C6_12 
REMARK    4  A    between atoms: C1_3  and  C18_28 
REMARK    5  A    between atoms: C8_16  and  N4_17 
ROOT
HETATM    1  C6  UNL     1       2.003  -0.584  -0.258  1.00  0.00     0.007 A 
HETATM    2  C7  UNL     1       1.124   0.412  -0.601  1.00  0.00     0.100 A 
HETATM    3  N3  UNL     1      -0.195   0.328  -0.360  1.00  0.00    -0.350 N 
ATOM      4  H3  UNL     1      -0.807   1.097  -0.634  1.00  0.00     0.166 HD
HETATM    5  C8  UNL     1      -0.714  -0.746   0.232  1.00  0.00     0.125 A 
HETATM    6  C16 UNL     1       0.095  -1.784   0.605  1.00  0.00     0.078 A 
HETATM    7 CL1  UNL     1      -0.538  -3.224   1.390  1.00  0.00    -0.080 Cl
HETATM    8  C17 UNL     1       1.469  -1.684   0.348  1.00  0.00     0.040 A 
ENDROOT
BRANCH   1   9
HETATM    9  C1  UNL     1       3.423  -0.448  -0.548  1.00  0.00     0.214 C 
BRANCH   9  10
HETATM   10  O1  UNL     1       3.524  -0.325  -1.957  1.00  0.00    -0.372 OA
ATOM     11  H1  UNL     1       3.180  -1.137  -2.311  1.00  0.00     0.211 HD
ENDBRANCH   9  10
BRANCH   9  12
HETATM   12  C2  UNL     1       3.966   0.835   0.011  1.00  0.00     0.021 A 
HETATM   13  C3  UNL     1       3.996   1.070   1.371  1.00  0.00     0.101 A 
HETATM   14  N1  UNL     1       4.481   2.213   1.872  1.00  0.00    -0.361 N 
HETATM   15  C4  UNL     1       4.959   3.180   1.071  1.00  0.00     0.180 A 
ATOM     16  H1  UNL     1       4.488   2.352   2.882  1.00  0.00     0.166 HD
HETATM   17  N2  UNL     1       4.930   2.955  -0.249  1.00  0.00    -0.361 N 
HETATM   18  C5  UNL     1       4.457   1.830  -0.801  1.00  0.00     0.101 A 
ATOM     19  H2  UNL     1       5.288   3.681  -0.869  1.00  0.00     0.166 HD
ENDBRANCH   9  12
BRANCH   9  20
HETATM   20  C18 UNL     1       4.290  -1.610  -0.195  1.00  0.00     0.427 C 
HETATM   21  F1  UNL     1       4.366  -1.922   1.124  1.00  0.00    -0.167 F 
HETATM   22  F2  UNL     1       3.922  -2.699  -0.981  1.00  0.00    -0.167 F 
HETATM   23  F3  UNL     1       5.586  -1.284  -0.614  1.00  0.00    -0.167 F 
ENDBRANCH   9  20
ENDBRANCH   1   9
BRANCH   5  24
HETATM   24  N4  UNL     1      -2.113  -0.874   0.504  1.00  0.00    -0.365 N 
HETATM   25  C9  UNL     1      -2.932  -1.933  -0.043  1.00  0.00     0.125 C 
HETATM   26  C10 UNL     1      -4.033  -1.273  -0.828  1.00  0.00     0.025 C 
HETATM   27  C11 UNL     1      -4.766  -0.214  -0.104  1.00  0.00    -0.007 C 
HETATM   28  C12 UNL     1      -4.910   1.028  -0.989  1.00  0.00     0.005 C 
HETATM   29  C14 UNL     1      -4.022   0.602   0.861  1.00  0.00     0.008 C 
HETATM   30  C13 UNL     1      -3.943   1.771  -0.100  1.00  0.00     0.007 C 
HETATM   31  C15 UNL     1      -2.728   0.090   1.358  1.00  0.00     0.129 C 
ENDBRANCH   5  24
TORSDOF 5
