REMARK  11 active torsions:
REMARK  status: ('A' for Active; 'I' for Inactive)
REMARK    1  A    between atoms: O1_1  and  C1_3 
REMARK    2  A    between atoms: C1_3  and  C2_4 
REMARK    3  A    between atoms: C1_3  and  N2_27 
REMARK    4  A    between atoms: C4_6  and  C5_7 
REMARK    5  A    between atoms: C11_13  and  O2_14 
REMARK    6  A    between atoms: O2_14  and  C12_15 
REMARK    7  A    between atoms: C12_15  and  C13_16 
REMARK    8  A    between atoms: C18_24  and  O3_25 
REMARK    9  A    between atoms: C23_34  and  N4_35 
REMARK   10  A    between atoms: N4_35  and  C24_36 
REMARK   11  A    between atoms: C24_36  and  C25_37 
ROOT
HETATM    1  C2  UNL     1      -0.734   0.692  -0.247  1.00  0.00     0.092 C 
HETATM    2  C3  UNL     1      -1.219  -0.139  -1.384  1.00  0.00     0.023 C 
HETATM    3  C4  UNL     1      -2.554  -0.714  -1.002  1.00  0.00     0.022 C 
HETATM    4  C11 UNL     1      -2.869  -0.133   0.303  1.00  0.00     0.155 C 
HETATM    5  C18 UNL     1      -1.515   0.226   0.922  1.00  0.00     0.159 C 
ENDROOT
BRANCH   1   6
HETATM    6  C1  UNL     1       0.705   0.824  -0.086  1.00  0.00     0.126 C 
BRANCH   6   7
HETATM    7  O1  UNL     1       1.197   2.029  -0.047  1.00  0.00    -0.349 OA
ATOM      8  H1  UNL     1       2.137   2.115   0.058  1.00  0.00     0.219 HD
ENDBRANCH   6   7
BRANCH   6   9
HETATM    9  N2  UNL     1       1.662  -0.199   0.039  1.00  0.00    -0.316 N 
HETATM   10  C19 UNL     1       1.436  -1.616  -0.006  1.00  0.00     0.137 C 
HETATM   11  C20 UNL     1       2.489  -2.208   0.911  1.00  0.00     0.064 C 
HETATM   12  C21 UNL     1       3.604  -1.229   0.739  1.00  0.00     0.003 A 
HETATM   13  C22 UNL     1       4.944  -1.369   1.013  1.00  0.00     0.103 A 
HETATM   14  C29 UNL     1       3.084  -0.066   0.231  1.00  0.00     0.120 A 
HETATM   15  N3  UNL     1       5.762  -0.346   0.779  1.00  0.00    -0.326 N 
HETATM   16  C23 UNL     1       5.287   0.833   0.273  1.00  0.00     0.259 A 
ATOM     17  H3  UNL     1       6.757  -0.442   0.980  1.00  0.00     0.169 HD
HETATM   18  N5  UNL     1       3.928   0.933   0.010  1.00  0.00    -0.301 N 
ATOM     19  H5  UNL     1       3.564   1.808  -0.368  1.00  0.00     0.171 HD
BRANCH  16  20
HETATM   20  N4  UNL     1       6.047   1.741   0.071  1.00  0.00    -0.385 NA
BRANCH  20  21
HETATM   21  C24 UNL     1       7.099   2.551  -0.048  1.00  0.00     0.191 C 
BRANCH  21  22
HETATM   22  C25 UNL     1       8.502   2.054   0.243  1.00  0.00     0.173 C 
HETATM   23  C26 UNL     1       8.989   1.004  -0.699  1.00  0.00     0.040 C 
HETATM   24  C27 UNL     1       9.780   0.084   0.187  1.00  0.00     0.029 C 
HETATM   25  C28 UNL     1       9.804   0.777   1.508  1.00  0.00     0.168 C 
HETATM   26  O4  UNL     1       8.696   1.601   1.521  1.00  0.00    -0.380 OA
ENDBRANCH  21  22
ENDBRANCH  20  21
ENDBRANCH  16  20
ENDBRANCH   6   9
ENDBRANCH   1   6
BRANCH   5  27
HETATM   27  O3  UNL     1      -1.687   1.338   1.781  1.00  0.00    -0.392 OA
ATOM     28  H3  UNL     1      -2.188   1.039   2.531  1.00  0.00     0.210 HD
ENDBRANCH   5  27
BRANCH   3  29
HETATM   29  C5  UNL     1      -2.512  -2.230  -0.900  1.00  0.00    -0.008 C 
HETATM   30  C6  UNL     1      -3.875  -2.775  -0.548  1.00  0.00     0.005 C 
HETATM   31  C7  UNL     1      -3.637  -4.118   0.119  1.00  0.00     0.000 C 
HETATM   32  C8  UNL     1      -2.441  -4.766  -0.542  1.00  0.00     0.000 C 
HETATM   33  C9  UNL     1      -2.322  -4.386  -2.004  1.00  0.00     0.000 C 
HETATM   34  C10 UNL     1      -2.120  -2.891  -2.187  1.00  0.00     0.005 C 
ENDBRANCH   3  29
BRANCH   4  35
HETATM   35  O2  UNL     1      -3.639   0.962   0.388  1.00  0.00    -0.383 OA
BRANCH  35  36
HETATM   36  C12 UNL     1      -4.688   1.044   1.202  1.00  0.00     0.173 C 
BRANCH  36  37
HETATM   37  C13 UNL     1      -5.327   2.427   1.039  1.00  0.00     0.013 C 
HETATM   38  C14 UNL     1      -6.514   2.593   1.924  1.00  0.00     0.034 C 
HETATM   39  C15 UNL     1      -7.697   3.036   1.116  1.00  0.00     0.232 C 
HETATM   40  N1  UNL     1      -7.472   4.211   0.331  1.00  0.00    -0.075 N 
HETATM   41  C16 UNL     1      -6.322   4.041  -0.507  1.00  0.00     0.232 C 
ATOM     42  H12 UNL     1      -8.298   4.472  -0.207  1.00  0.00     0.277 HD
ATOM     43  H11 UNL     1      -7.399   5.047   0.911  1.00  0.00     0.277 HD
HETATM   44  C17 UNL     1      -5.705   2.686  -0.390  1.00  0.00     0.034 C 
ENDBRANCH  36  37
ENDBRANCH  35  36
ENDBRANCH   4  35
TORSDOF 11
