REMARK  10 active torsions:
REMARK  status: ('A' for Active; 'I' for Inactive)
REMARK    1  A    between atoms: C2_2  and  C3_3 
REMARK    2  A    between atoms: C3_3  and  O1_4 
REMARK    3  A    between atoms: O1_4  and  C4_5 
REMARK    4  A    between atoms: C4_5  and  C5_6 
REMARK    5  A    between atoms: C6_7  and  C7_8 
REMARK    6  A    between atoms: C7_8  and  O2_9 
REMARK    7  A    between atoms: C8_11  and  S1_12 
REMARK    8  A    between atoms: C17_22  and  O4_23 
REMARK    9  A    between atoms: O4_23  and  S2_24 
REMARK   10  A    between atoms: C18_28  and  O8_29 
ROOT
HETATM    1  C7  UNL     1      -2.390  -0.398   0.774  1.00  0.00     0.143 C 
HETATM    2  C8  UNL     1      -2.067   0.959   1.371  1.00  0.00     0.127 C 
HETATM    3  C10 UNL     1      -1.280   1.595   0.247  1.00  0.00     0.027 C 
HETATM    4  C11 UNL     1      -0.529   0.435  -0.413  1.00  0.00     0.003 C 
HETATM    5  C12 UNL     1       0.937   0.634  -0.256  1.00  0.00    -0.005 C 
HETATM    6  C13 UNL     1       1.427   1.377  -1.499  1.00  0.00     0.006 C 
HETATM    7  C14 UNL     1       2.761   0.878  -1.950  1.00  0.00     0.006 C 
HETATM    8  C15 UNL     1       3.726   0.722  -0.769  1.00  0.00    -0.003 C 
HETATM    9  C16 UNL     1       5.065   0.403  -1.327  1.00  0.00     0.041 C 
HETATM   10  C17 UNL     1       6.009  -0.299  -0.398  1.00  0.00     0.174 C 
HETATM   11  C18 UNL     1       5.383  -1.441   0.353  1.00  0.00     0.149 C 
HETATM   12  C19 UNL     1       3.926  -1.635  -0.022  1.00  0.00     0.044 C 
HETATM   13  C20 UNL     1       3.165  -0.327   0.153  1.00  0.00    -0.034 C 
HETATM   14  C21 UNL     1       3.365   0.089   1.600  1.00  0.00     0.016 C 
HETATM   15  C22 UNL     1       1.714  -0.641  -0.150  1.00  0.00    -0.001 C 
HETATM   16  C23 UNL     1       1.206  -1.601   0.869  1.00  0.00     0.007 C 
HETATM   17  C24 UNL     1      -0.224  -1.400   1.265  1.00  0.00     0.014 C 
HETATM   18  C25 UNL     1      -1.068  -0.824   0.167  1.00  0.00     0.004 C 
HETATM   19  C26 UNL     1      -1.324  -1.893  -0.881  1.00  0.00     0.020 C 
ENDROOT
BRANCH   1  20
HETATM   20  C6  UNL     1      -3.426  -0.248  -0.251  1.00  0.00    -0.064 C 
HETATM   21  C5  UNL     1      -4.269  -0.137  -1.109  1.00  0.00    -0.077 C 
BRANCH  21  22
HETATM   22  C4  UNL     1      -5.276  -0.018  -2.166  1.00  0.00     0.261 C 
BRANCH  22  23
HETATM   23  O1  UNL     1      -6.368  -0.840  -1.893  1.00  0.00    -0.379 OA
BRANCH  23  24
HETATM   24  C3  UNL     1      -6.985  -0.533  -0.706  1.00  0.00     0.168 C 
BRANCH  24  25
HETATM   25  C2  UNL     1      -7.525   0.886  -0.652  1.00  0.00     0.022 C 
HETATM   26  C1  UNL     1      -8.545   1.115  -1.742  1.00  0.00     0.007 C 
ENDBRANCH  24  25
ENDBRANCH  23  24
ENDBRANCH  22  23
ENDBRANCH  21  22
ENDBRANCH   1  20
BRANCH   1  27
HETATM   27  O2  UNL     1      -2.840  -1.290   1.744  1.00  0.00    -0.375 OA
ATOM     28  H2  UNL     1      -2.168  -1.387   2.409  1.00  0.00     0.211 HD
ENDBRANCH   1  27
BRANCH   2  29
HETATM   29  S1  UNL     1      -3.585   1.850   1.553  1.00  0.00     0.019 S 
HETATM   30  C9  UNL     1      -4.679   0.958   2.624  1.00  0.00     0.127 C 
HETATM   31  O3  UNL     1      -3.288   3.394   2.083  1.00  0.00    -0.258 OA
ENDBRANCH   2  29
BRANCH  11  32
HETATM   32  O8  UNL     1       6.006  -2.673   0.103  1.00  0.00    -0.393 OA
ATOM     33  H8  UNL     1       5.610  -3.395   0.578  1.00  0.00     0.210 HD
ENDBRANCH  11  32
BRANCH  10  34
HETATM   34  O4  UNL     1       6.746   0.545   0.399  1.00  0.00    -0.249 OA
BRANCH  34  35
HETATM   35  S2  UNL     1       8.368   0.584   0.125  1.00  0.00     0.252 S 
HETATM   36  O5  UNL     1       8.994  -0.531   0.922  1.00  0.00    -0.572 OA
HETATM   37  O6  UNL     1       9.040   1.839   0.538  1.00  0.00    -0.572 OA
HETATM   38  O7  UNL     1       8.765   0.286  -1.495  1.00  0.00    -0.572 OA
ENDBRANCH  34  35
ENDBRANCH  10  34
TORSDOF 10
