REMARK  8 active torsions:
REMARK  status: ('A' for Active; 'I' for Inactive)
REMARK    1  A    between atoms: C2_2  and  C3_3 
REMARK    2  A    between atoms: C5_5  and  C6_6 
REMARK    3  A    between atoms: C6_6  and  N1_7 
REMARK    4  A    between atoms: N1_7  and  S1_9 
REMARK    5  A    between atoms: S1_9  and  C7_12 
REMARK    6  A    between atoms: C7_12  and  C8_13 
REMARK    7  A    between atoms: C14_22  and  O5_23 
REMARK    8  A    between atoms: C24_34  and  C25_35 
ROOT
HETATM    1  C8  UNL     1      -2.004   0.333  -0.406  1.00  0.00     0.008 C 
HETATM    2  C9  UNL     1      -2.002   0.068  -1.874  1.00  0.00     0.024 C 
HETATM    3  C10 UNL     1      -1.468  -1.270  -2.262  1.00  0.00     0.076 C 
HETATM    4  S2  UNL     1      -2.011  -2.629  -1.218  1.00  0.00    -0.143 SA
HETATM    5  C11 UNL     1      -2.424  -2.018   0.431  1.00  0.00     0.149 C 
HETATM    6  C12 UNL     1      -1.447  -2.441   1.480  1.00  0.00     0.213 C 
HETATM    7  O3  UNL     1      -2.148  -3.698   1.455  1.00  0.00    -0.318 OA
HETATM    8  C13 UNL     1      -3.287  -2.900   1.209  1.00  0.00     0.283 C 
HETATM    9  O4  UNL     1      -4.437  -3.140   1.640  1.00  0.00    -0.263 OA
HETATM   10  C14 UNL     1      -2.860  -0.585   0.405  1.00  0.00     0.095 C 
HETATM   11  C15 UNL     1      -4.299  -0.412  -0.009  1.00  0.00     0.046 C 
HETATM   12  C16 UNL     1      -4.739   0.938   0.578  1.00  0.00    -0.007 C 
HETATM   13  C17 UNL     1      -6.204   1.056   0.287  1.00  0.00     0.005 C 
HETATM   14  C18 UNL     1      -6.654   2.449  -0.028  1.00  0.00     0.000 C 
HETATM   15  C19 UNL     1      -5.849   3.127  -1.094  1.00  0.00     0.000 C 
HETATM   16  C20 UNL     1      -4.595   2.303  -1.431  1.00  0.00     0.005 C 
HETATM   17  C21 UNL     1      -3.925   1.991  -0.112  1.00  0.00    -0.010 C 
HETATM   18  C22 UNL     1      -2.483   1.747  -0.170  1.00  0.00     0.018 C 
ENDROOT
BRANCH   1  19
HETATM   19  C7  UNL     1      -0.603   0.261   0.118  1.00  0.00     0.175 C 
BRANCH  19  20
HETATM   20  S1  UNL     1       0.578   1.367  -0.494  1.00  0.00     0.227 S 
HETATM   21  O1  UNL     1       0.316   2.808  -0.201  1.00  0.00    -0.206 OA
HETATM   22  O2  UNL     1       0.939   1.233  -1.932  1.00  0.00    -0.206 OA
BRANCH  20  23
HETATM   23  N1  UNL     1       2.072   0.993   0.356  1.00  0.00    -0.319 N 
ATOM     24  H1  UNL     1       2.584   1.631   0.965  1.00  0.00     0.172 HD
BRANCH  23  25
HETATM   25  C6  UNL     1       2.461  -0.391   0.044  1.00  0.00     0.136 C 
BRANCH  25  26
HETATM   26  C5  UNL     1       3.744  -0.661   0.794  1.00  0.00     0.005 C 
HETATM   27  C4  UNL     1       4.819   0.291   0.362  1.00  0.00     0.011 C 
HETATM   28  C3  UNL     1       6.021  -0.516  -0.000  1.00  0.00    -0.000 C 
HETATM   29  C24 UNL     1       5.697  -1.948   0.271  1.00  0.00     0.091 C 
HETATM   30  C23 UNL     1       4.242  -2.056   0.613  1.00  0.00     0.022 C 
BRANCH  28  31
HETATM   31  C2  UNL     1       7.238  -0.119   0.840  1.00  0.00     0.001 C 
HETATM   32  C1  UNL     1       7.558   1.346   0.609  1.00  0.00     0.005 C 
ENDBRANCH  28  31
BRANCH  29  33
HETATM   33  C25 UNL     1       5.991  -2.725  -0.978  1.00  0.00     0.177 C 
HETATM   34  O6  UNL     1       5.107  -3.379  -1.584  1.00  0.00    -0.648 OA
HETATM   35  O7  UNL     1       7.283  -2.711  -1.465  1.00  0.00    -0.648 OA
ENDBRANCH  29  33
ENDBRANCH  25  26
ENDBRANCH  23  25
ENDBRANCH  20  23
ENDBRANCH  19  20
ENDBRANCH   1  19
BRANCH  10  36
HETATM   36  O5  UNL     1      -2.789  -0.121   1.741  1.00  0.00    -0.387 OA
ATOM     37  H5  UNL     1      -3.333  -0.705   2.257  1.00  0.00     0.210 HD
ENDBRANCH  10  36
TORSDOF 8
