REMARK  10 active torsions:
REMARK  status: ('A' for Active; 'I' for Inactive)
REMARK    1  A    between atoms: O1_2  and  C2_3 
REMARK    2  A    between atoms: C4_5  and  N1_6 
REMARK    3  A    between atoms: C10_13  and  O3_14 
REMARK    4  A    between atoms: O3_14  and  C11_15 
REMARK    5  A    between atoms: C14_18  and  N2_19 
REMARK    6  A    between atoms: N2_19  and  C15_20 
REMARK    7  A    between atoms: N5_29  and  C19_30 
REMARK    8  A    between atoms: C19_30  and  C20_31 
REMARK    9  A    between atoms: C20_31  and  O5_33 
REMARK   10  A    between atoms: C20_31  and  N6_35 
ROOT
HETATM    1  C15 UNL     1       0.503  -0.250   0.566  1.00  0.00     0.260 A 
HETATM    2  N3  UNL     1      -0.186  -1.400   0.937  1.00  0.00    -0.316 N 
ATOM      3  H3  UNL     1       0.207  -2.338   1.015  1.00  0.00     0.170 HD
HETATM    4  C16 UNL     1      -1.441  -1.059   1.171  1.00  0.00     0.064 A 
HETATM    5  C17 UNL     1      -1.596   0.276   0.965  1.00  0.00     0.129 A 
HETATM    6  N4  UNL     1      -0.418   0.770   0.598  1.00  0.00    -0.310 N 
ATOM      7  H4  UNL     1      -0.228   1.747   0.376  1.00  0.00     0.170 HD
HETATM    8  C18 UNL     1      -2.973   0.660   1.204  1.00  0.00     0.276 A 
HETATM    9  O4  UNL     1      -3.356   1.875   1.082  1.00  0.00    -0.265 OA
HETATM   10  N5  UNL     1      -3.707  -0.490   1.568  1.00  0.00    -0.316 N 
HETATM   11  C27 UNL     1      -2.754  -1.591   1.597  1.00  0.00     0.191 A 
ENDROOT
BRANCH   1  12
HETATM   12  N2  UNL     1       1.654  -0.177   0.265  1.00  0.00    -0.365 NA
BRANCH  12  13
HETATM   13  C14 UNL     1       2.915  -0.094  -0.065  1.00  0.00     0.177 A 
HETATM   14  C2  UNL     1       3.478  -1.126  -0.864  1.00  0.00     0.114 A 
HETATM   15  C3  UNL     1       4.780  -1.118  -1.263  1.00  0.00     0.069 A 
HETATM   16  C4  UNL     1       5.609  -0.097  -0.901  1.00  0.00     0.035 A 
HETATM   17  C9  UNL     1       5.119   0.907  -0.140  1.00  0.00     0.069 A 
HETATM   18  C10 UNL     1       3.770   0.934   0.294  1.00  0.00     0.115 A 
BRANCH  14  19
HETATM   19  O1  UNL     1       2.654  -2.174  -1.245  1.00  0.00    -0.352 OA
HETATM   20  C1  UNL     1       3.147  -3.226  -2.035  1.00  0.00     0.210 C 
ENDBRANCH  14  19
BRANCH  16  21
HETATM   21  N1  UNL     1       6.964  -0.072  -1.322  1.00  0.00    -0.377 N 
HETATM   22  C5  UNL     1       7.391  -0.729  -2.532  1.00  0.00     0.149 C 
HETATM   23  C6  UNL     1       8.897  -0.993  -2.381  1.00  0.00     0.187 C 
HETATM   24  O2  UNL     1       9.143  -1.444  -1.072  1.00  0.00    -0.388 OA
HETATM   25  C7  UNL     1       9.016  -0.441  -0.147  1.00  0.00     0.187 C 
HETATM   26  C8  UNL     1       7.961   0.605  -0.532  1.00  0.00     0.149 C 
ENDBRANCH  16  21
BRANCH  18  27
HETATM   27  O3  UNL     1       3.429   1.970   1.027  1.00  0.00    -0.343 OA
BRANCH  27  28
HETATM   28  C11 UNL     1       2.624   2.713   1.747  1.00  0.00     0.121 C 
HETATM   29  C12 UNL     1       3.224   3.293   3.034  1.00  0.00     0.040 C 
HETATM   30  C13 UNL     1       2.194   3.945   0.890  1.00  0.00     0.040 C 
ENDBRANCH  27  28
ENDBRANCH  18  27
ENDBRANCH  12  13
ENDBRANCH   1  12
BRANCH  10  31
HETATM   31  C19 UNL     1      -5.095  -0.614   1.833  1.00  0.00     0.127 C 
BRANCH  31  32
HETATM   32  C20 UNL     1      -6.046  -1.096   0.838  1.00  0.00     0.163 C 
HETATM   33  C21 UNL     1      -5.845  -2.622   0.623  1.00  0.00     0.077 C 
BRANCH  32  34
HETATM   34  O5  UNL     1      -7.327  -1.049   1.509  1.00  0.00    -0.366 OA
ATOM     35  H5  UNL     1      -7.947  -1.363   0.861  1.00  0.00     0.213 HD
ENDBRANCH  32  34
BRANCH  32  36
HETATM   36  N6  UNL     1      -6.261  -0.547  -0.412  1.00  0.00    -0.358 N 
HETATM   37  C22 UNL     1      -7.462  -1.066  -1.057  1.00  0.00     0.125 C 
HETATM   38  C23 UNL     1      -8.651  -0.138  -0.903  1.00  0.00     0.020 C 
HETATM   39  C24 UNL     1      -8.314   1.299  -1.241  1.00  0.00     0.007 C 
HETATM   40  C25 UNL     1      -6.922   1.256  -1.837  1.00  0.00     0.044 C 
HETATM   41  C26 UNL     1      -5.996   0.788  -0.733  1.00  0.00     0.061 C 
ENDBRANCH  32  36
ENDBRANCH  31  32
ENDBRANCH  10  31
TORSDOF 10
