REMARK  10 active torsions:
REMARK  status: ('A' for Active; 'I' for Inactive)
REMARK    1  A    between atoms: C3_3  and  C4_4 
REMARK    2  A    between atoms: C4_4  and  C5_5 
REMARK    3  A    between atoms: C5_5  and  N1_6 
REMARK    4  A    between atoms: C6_7  and  O1_8 
REMARK    5  A    between atoms: C7_10  and  C8_11 
REMARK    6  A    between atoms: C8_11  and  C9_12 
REMARK    7  A    between atoms: C13_19  and  O2_20 
REMARK    8  A    between atoms: C14_22  and  C15_23 
REMARK    9  A    between atoms: C15_23  and  C16_24 
REMARK   10  A    between atoms: C16_24  and  C17_25 
ROOT
HETATM    1  C1  UNL     1       7.067  -1.343  -0.120  1.00  0.00     0.012 C 
HETATM    2  C2  UNL     1       5.969  -1.831  -0.023  1.00  0.00    -0.117 C 
HETATM    3  C3  UNL     1       4.636  -2.413   0.119  1.00  0.00     0.094 C 
ENDROOT
BRANCH   3   4
HETATM    4  C4  UNL     1       3.993  -2.190   1.435  1.00  0.00     0.032 C 
BRANCH   4   5
HETATM    5  C5  UNL     1       3.698  -0.790   1.842  1.00  0.00     0.137 C 
BRANCH   5   6
HETATM    6  N1  UNL     1       2.752  -0.110   0.974  1.00  0.00    -0.278 N 
HETATM    7  C6  UNL     1       1.382  -0.183   1.120  1.00  0.00     0.174 A 
HETATM    8  C7  UNL     1       0.787   0.598   0.153  1.00  0.00     0.090 A 
HETATM    9  N2  UNL     1       1.762   1.145  -0.582  1.00  0.00    -0.300 N 
HETATM   10  C18 UNL     1       1.604   2.061  -1.721  1.00  0.00     0.161 C 
HETATM   11  C19 UNL     1       2.938   0.703  -0.066  1.00  0.00     0.331 A 
HETATM   12  O5  UNL     1       4.039   1.063  -0.561  1.00  0.00    -0.246 OA
BRANCH   7  13
HETATM   13  O1  UNL     1       0.749  -0.936   2.101  1.00  0.00    -0.344 OA
ATOM     14  H1  UNL     1      -0.194  -0.986   2.202  1.00  0.00     0.219 HD
ENDBRANCH   7  13
BRANCH   8  15
HETATM   15  C8  UNL     1      -0.646   0.822   0.070  1.00  0.00     0.048 C 
BRANCH  15  16
HETATM   16  C9  UNL     1      -1.599   0.197  -0.551  1.00  0.00     0.002 A 
HETATM   17  C10 UNL     1      -1.321  -0.914  -1.316  1.00  0.00     0.068 A 
HETATM   18 CL1  UNL     1       0.314  -1.571  -1.513  1.00  0.00    -0.082 Cl
HETATM   19  C11 UNL     1      -2.295  -1.628  -2.008  1.00  0.00     0.081 A 
HETATM   20 CL2  UNL     1      -1.853  -3.055  -2.975  1.00  0.00    -0.081 Cl
HETATM   21  C12 UNL     1      -3.584  -1.211  -1.926  1.00  0.00     0.091 A 
HETATM   22 CL3  UNL     1      -4.833  -2.097  -2.791  1.00  0.00    -0.079 Cl
HETATM   23  C13 UNL     1      -3.886  -0.078  -1.150  1.00  0.00     0.100 A 
HETATM   24  C14 UNL     1      -2.940   0.629  -0.468  1.00  0.00     0.008 A 
BRANCH  23  25
HETATM   25  O2  UNL     1      -5.247   0.242  -1.151  1.00  0.00    -0.358 OA
ATOM     26  H2  UNL     1      -5.451   1.007  -0.627  1.00  0.00     0.217 HD
ENDBRANCH  23  25
BRANCH  24  27
HETATM   27  C15 UNL     1      -3.264   1.671   0.244  1.00  0.00    -0.001 C 
BRANCH  27  28
HETATM   28  C16 UNL     1      -4.620   2.263   0.441  1.00  0.00     0.141 C 
BRANCH  28  29
HETATM   29  C17 UNL     1      -5.386   1.597   1.517  1.00  0.00     0.176 C 
HETATM   30  O3  UNL     1      -4.835   0.671   2.157  1.00  0.00    -0.648 OA
HETATM   31  O4  UNL     1      -6.679   1.994   1.803  1.00  0.00    -0.648 OA
ENDBRANCH  28  29
ENDBRANCH  27  28
ENDBRANCH  24  27
ENDBRANCH  15  16
ENDBRANCH   8  15
ENDBRANCH   5   6
ENDBRANCH   4   5
ENDBRANCH   3   4
TORSDOF 10
