REMARK  9 active torsions:
REMARK  status: ('A' for Active; 'I' for Inactive)
REMARK    1  A    between atoms: C2_2  and  C3_3 
REMARK    2  A    between atoms: C7_8  and  O1_9 
REMARK    3  A    between atoms: C8_11  and  O2_12 
REMARK    4  A    between atoms: C10_16  and  C11_17 
REMARK    5  A    between atoms: C11_17  and  C12_18 
REMARK    6  A    between atoms: C12_18  and  N1_19 
REMARK    7  A    between atoms: N1_19  and  C13_20 
REMARK       I    between atoms: N1_19  and  C16_25 
REMARK    8  A    between atoms: C13_20  and  C14_21 
REMARK    9  A    between atoms: C21_31  and  O5_32 
ROOT
HETATM    1  C3  UNL     1      -4.036  -0.539   0.283  1.00  0.00     0.040 C 
HETATM    2  C4  UNL     1      -4.942  -1.772   0.499  1.00  0.00     0.029 C 
HETATM    3  C5  UNL     1      -3.632  -0.506  -1.106  1.00  0.00     0.029 C 
HETATM    4 CL1  UNL     1      -4.442  -1.736  -2.131  1.00  0.00    -0.088 Cl
HETATM    5  C6  UNL     1      -2.798   0.245  -1.770  1.00  0.00     0.058 C 
HETATM    6  C7  UNL     1      -1.939   1.356  -1.362  1.00  0.00     0.107 C 
HETATM    7  C8  UNL     1      -0.510   1.070  -1.158  1.00  0.00     0.227 C 
HETATM    8  O3  UNL     1       0.136   2.066  -0.404  1.00  0.00    -0.347 OA
HETATM    9  C9  UNL     1       0.005   1.263   0.729  1.00  0.00     0.192 C 
HETATM   10  C10 UNL     1      -0.033   0.094  -0.197  1.00  0.00     0.072 C 
HETATM   11  C18 UNL     1      -0.887  -1.043   0.168  1.00  0.00    -0.052 C 
HETATM   12  C19 UNL     1      -0.820  -2.107  -0.653  1.00  0.00     0.020 C 
HETATM   13  C20 UNL     1      -1.774  -1.169   1.318  1.00  0.00     0.013 C 
HETATM   14  C21 UNL     1      -3.080  -0.527   1.366  1.00  0.00     0.158 C 
ENDROOT
BRANCH  10  15
HETATM   15  C11 UNL     1       1.396  -0.375  -0.463  1.00  0.00     0.042 C 
BRANCH  15  16
HETATM   16  C12 UNL     1       2.432   0.672  -0.449  1.00  0.00     0.127 C 
BRANCH  16  17
HETATM   17  N1  UNL     1       3.710  -0.030  -0.717  1.00  0.00    -0.347 N 
HETATM   18  C16 UNL     1       4.104  -0.164  -2.050  1.00  0.00     0.215 C 
HETATM   19  C17 UNL     1       5.350  -0.845  -2.423  1.00  0.00     0.117 C 
HETATM   20  O4  UNL     1       3.396   0.298  -2.972  1.00  0.00    -0.274 OA
BRANCH  17  21
HETATM   21  C13 UNL     1       4.453  -0.544   0.389  1.00  0.00     0.204 C 
BRANCH  21  22
HETATM   22  C14 UNL     1       5.492   0.355   0.964  1.00  0.00     0.256 C 
HETATM   23  C15 UNL     1       4.969   1.663   1.497  1.00  0.00     0.091 C 
HETATM   24  F1  UNL     1       6.033  -0.322   2.069  1.00  0.00    -0.205 F 
HETATM   25  F2  UNL     1       6.563   0.543   0.114  1.00  0.00    -0.205 F 
ENDBRANCH  21  22
ENDBRANCH  17  21
ENDBRANCH  16  17
ENDBRANCH  15  16
ENDBRANCH  10  15
BRANCH   7  26
HETATM   26  O2  UNL     1       0.111   0.853  -2.414  1.00  0.00    -0.359 OA
ATOM     27  H2  UNL     1       1.034   0.668  -2.282  1.00  0.00     0.213 HD
ENDBRANCH   7  26
BRANCH   6  28
HETATM   28  O1  UNL     1      -2.496   2.216  -0.406  1.00  0.00    -0.359 OA
ATOM     29  H1  UNL     1      -1.938   2.938  -0.141  1.00  0.00     0.217 HD
ENDBRANCH   6  28
BRANCH  14  30
HETATM   30  O5  UNL     1      -3.737  -1.171   2.480  1.00  0.00    -0.390 OA
ATOM     31  H5  UNL     1      -3.108  -1.163   3.192  1.00  0.00     0.210 HD
ENDBRANCH  14  30
BRANCH   1  32
HETATM   32  C2  UNL     1      -5.006   0.598   0.470  1.00  0.00    -0.019 C 
HETATM   33  C1  UNL     1      -5.286   1.173   1.611  1.00  0.00     0.008 C 
ENDBRANCH   1  32
TORSDOF 9
