REMARK  9 active torsions:
REMARK  status: ('A' for Active; 'I' for Inactive)
REMARK    1  A    between atoms: C3_4  and  C4_5 
REMARK       I    between atoms: C4_5  and  N1_7 
REMARK    2  A    between atoms: N1_7  and  C5_9 
REMARK    3  A    between atoms: C5_9  and  C13_26 
REMARK    4  A    between atoms: N2_10  and  N3_12 
REMARK    5  A    between atoms: N3_12  and  C6_14 
REMARK    6  A    between atoms: C6_14  and  N4_16 
REMARK    7  A    between atoms: N4_16  and  C7_18 
REMARK    8  A    between atoms: C7_18  and  C8_19 
REMARK    9  A    between atoms: C8_19  and  N5_20 
ROOT
HETATM    1  C5  UNL     1      -0.830   1.604   1.859  1.00  0.00     0.165 C 
HETATM    2  N2  UNL     1       0.000   2.503   1.431  1.00  0.00    -0.282 N 
ATOM      3  H2  UNL     1      -0.144   2.841   0.479  1.00  0.00     0.188 HD
ENDROOT
BRANCH   1   4
HETATM    4  N1  UNL     1      -1.873   1.169   0.961  1.00  0.00    -0.306 N 
HETATM    5  C4  UNL     1      -2.815   0.237   1.253  1.00  0.00     0.265 C 
HETATM    6  O1  UNL     1      -2.834  -0.339   2.400  1.00  0.00    -0.267 OA
ATOM      7  H1  UNL     1      -1.904   1.595   0.035  1.00  0.00     0.170 HD
BRANCH   5   8
HETATM    8  C3  UNL     1      -3.899  -0.236   0.368  1.00  0.00     0.095 A 
HETATM    9  S1  UNL     1      -5.081  -1.433   0.799  1.00  0.00    -0.087 SA
HETATM   10  C2  UNL     1      -5.976  -1.478  -0.638  1.00  0.00    -0.013 A 
HETATM   11  C1  UNL     1      -7.181  -2.319  -0.977  1.00  0.00     0.057 C 
HETATM   12  C15 UNL     1      -5.340  -0.565  -1.424  1.00  0.00    -0.026 A 
HETATM   13  C14 UNL     1      -4.266   0.077  -0.905  1.00  0.00     0.063 A 
HETATM   14  C16 UNL     1      -5.849  -0.298  -2.841  1.00  0.00     0.051 C 
HETATM   15 CL1  UNL     1      -3.366   1.301  -1.881  1.00  0.00    -0.082 Cl
ENDBRANCH   5   8
ENDBRANCH   1   4
BRANCH   1  16
HETATM   16  C13 UNL     1      -0.666   1.089   3.227  1.00  0.00     0.421 C 
HETATM   17  F1  UNL     1       0.544   1.430   3.819  1.00  0.00    -0.206 F 
HETATM   18  F2  UNL     1      -1.709   1.661   3.988  1.00  0.00    -0.206 F 
ENDBRANCH   1  16
BRANCH   2  19
HETATM   19  N3  UNL     1       1.038   3.041   2.114  1.00  0.00    -0.275 N 
ATOM     20  H3  UNL     1       0.806   3.623   2.919  1.00  0.00     0.189 HD
BRANCH  19  21
HETATM   21  C6  UNL     1       2.422   2.875   1.821  1.00  0.00     0.186 C 
HETATM   22  S2  UNL     1       3.506   3.641   2.822  1.00  0.00    -0.040 SA
BRANCH  21  23
HETATM   23  N4  UNL     1       2.958   2.128   0.771  1.00  0.00    -0.364 N 
ATOM     24  H4  UNL     1       3.974   2.101   0.685  1.00  0.00     0.162 HD
BRANCH  23  25
HETATM   25  C7  UNL     1       2.190   1.392  -0.202  1.00  0.00     0.152 C 
BRANCH  25  26
HETATM   26  C8  UNL     1       3.085   0.731  -1.236  1.00  0.00     0.292 C 
BRANCH  26  27
HETATM   27  N5  UNL     1       4.000  -0.197  -0.648  1.00  0.00     0.094 N 
HETATM   28  C9  UNL     1       3.331  -1.361  -0.118  1.00  0.00     0.298 C 
HETATM   29  C10 UNL     1       4.208  -2.577  -0.101  1.00  0.00     0.198 C 
HETATM   30  O2  UNL     1       5.521  -2.192   0.128  1.00  0.00    -0.388 OA
HETATM   31  C11 UNL     1       6.040  -1.508  -0.975  1.00  0.00     0.198 C 
HETATM   32  C12 UNL     1       4.982  -0.619  -1.600  1.00  0.00     0.298 C 
ENDBRANCH  26  27
ENDBRANCH  25  26
ENDBRANCH  23  25
ENDBRANCH  21  23
ENDBRANCH  19  21
ENDBRANCH   2  19
TORSDOF 9
