REMARK  8 active torsions:
REMARK  status: ('A' for Active; 'I' for Inactive)
REMARK    1  A    between atoms: O1_2  and  C2_3 
REMARK    2  A    between atoms: C4_5  and  C5_6 
REMARK    3  A    between atoms: C6_10  and  O2_11 
REMARK    4  A    between atoms: O2_11  and  C7_12 
REMARK    5  A    between atoms: C7_12  and  C8_13 
REMARK    6  A    between atoms: C12_18  and  C13_19 
REMARK    7  A    between atoms: C15_23  and  N2_24 
REMARK    8  A    between atoms: C18_31  and  N4_32 
REMARK       I    between atoms: N4_32  and  C19_34 
REMARK       I    between atoms: C19_34  and  N5_36 
ROOT
HETATM    1  C2  UNL     1      -2.431  -0.701   1.274  1.00  0.00     0.144 C 
HETATM    2  C3  UNL     1      -1.483  -1.825   1.612  1.00  0.00     0.050 C 
HETATM    3  C4  UNL     1      -0.738  -2.210   0.345  1.00  0.00     0.125 C 
HETATM    4  C6  UNL     1      -0.373  -0.935  -0.365  1.00  0.00     0.136 C 
HETATM    5  C17 UNL     1      -1.707  -0.577  -1.140  1.00  0.00     0.060 C 
HETATM    6  C18 UNL     1      -2.834  -0.817  -0.180  1.00  0.00     0.117 C 
ENDROOT
BRANCH   4   7
HETATM    7  O2  UNL     1       0.637  -0.980  -1.203  1.00  0.00    -0.385 OA
BRANCH   7   8
HETATM    8  C7  UNL     1       1.635  -0.136  -1.292  1.00  0.00     0.175 C 
BRANCH   8   9
HETATM    9  C8  UNL     1       2.654   0.129  -0.261  1.00  0.00     0.042 C 
HETATM   10  C9  UNL     1       2.158   0.685   1.030  1.00  0.00     0.174 C 
HETATM   11  O3  UNL     1       1.535   1.905   0.759  1.00  0.00    -0.391 OA
HETATM   12  C10 UNL     1       2.445   2.896   0.461  1.00  0.00     0.168 C 
HETATM   13  C11 UNL     1       3.554   2.499  -0.425  1.00  0.00     0.036 C 
HETATM   14  C12 UNL     1       3.679   1.090  -0.833  1.00  0.00     0.031 C 
BRANCH  14  15
HETATM   15  C13 UNL     1       5.075   0.540  -0.671  1.00  0.00    -0.021 A 
HETATM   16  C14 UNL     1       5.728  -0.107  -1.720  1.00  0.00     0.115 A 
HETATM   17  N1  UNL     1       6.974  -0.582  -1.563  1.00  0.00    -0.202 N 
HETATM   18  C15 UNL     1       7.608  -0.444  -0.399  1.00  0.00     0.675 A 
ATOM     19  H1  UNL     1       7.439  -1.052  -2.340  1.00  0.00     0.183 HD
HETATM   20  N3  UNL     1       7.012   0.168   0.620  1.00  0.00    -0.202 N 
HETATM   21  C16 UNL     1       5.771   0.658   0.509  1.00  0.00     0.115 A 
ATOM     22  H3  UNL     1       7.511   0.266   1.504  1.00  0.00     0.183 HD
BRANCH  18  23
HETATM   23  N2  UNL     1       8.817  -0.937  -0.337  1.00  0.00    -0.234 N 
ATOM     24  H22 UNL     1       9.274  -1.406  -1.119  1.00  0.00     0.174 HD
ATOM     25  H21 UNL     1       9.302  -0.831   0.554  1.00  0.00     0.174 HD
ENDBRANCH  18  23
ENDBRANCH  14  15
ENDBRANCH   8   9
ENDBRANCH   7   8
ENDBRANCH   4   7
BRANCH   3  26
HETATM   26  C5  UNL     1       0.349  -3.194   0.555  1.00  0.00     0.393 C 
HETATM   27  F1  UNL     1       1.351  -2.855   1.395  1.00  0.00    -0.171 F 
HETATM   28  F2  UNL     1       0.805  -3.608  -0.687  1.00  0.00    -0.171 F 
HETATM   29  F3  UNL     1      -0.255  -4.341   1.097  1.00  0.00    -0.171 F 
ENDBRANCH   3  26
BRANCH   6  30
HETATM   30  N4  UNL     1      -3.941   0.124  -0.433  1.00  0.00    -0.336 N 
HETATM   31  C19 UNL     1      -5.233  -0.332  -0.790  1.00  0.00     0.317 C 
HETATM   32  O4  UNL     1      -5.411  -1.578  -0.887  1.00  0.00    -0.247 OA
HETATM   33  N5  UNL     1      -6.322   0.508  -1.042  1.00  0.00    -0.343 N 
HETATM   34  C20 UNL     1      -7.632   0.003  -1.411  1.00  0.00     0.154 C 
HETATM   35  C21 UNL     1      -6.182   1.960  -0.938  1.00  0.00     0.154 C 
ATOM     36  H4  UNL     1      -3.772   1.126  -0.349  1.00  0.00     0.164 HD
ENDBRANCH   6  30
BRANCH   1  37
HETATM   37  O1  UNL     1      -3.564  -0.707   2.081  1.00  0.00    -0.389 OA
HETATM   38  C1  UNL     1      -3.750   0.479   2.777  1.00  0.00     0.202 C 
ENDBRANCH   1  37
TORSDOF 8
