REMARK  12 active torsions:
REMARK  status: ('A' for Active; 'I' for Inactive)
REMARK    1  A    between atoms: C2_2  and  O2_4 
REMARK    2  A    between atoms: O2_4  and  C3_5 
REMARK    3  A    between atoms: C6_8  and  C7_9 
REMARK    4  A    between atoms: C7_9  and  O3_11 
REMARK    5  A    between atoms: N1_16  and  C11_17 
REMARK    6  A    between atoms: C11_17  and  C14_25 
REMARK    7  A    between atoms: N2_18  and  C12_20 
REMARK    8  A    between atoms: C12_20  and  C13_21 
REMARK    9  A    between atoms: C14_25  and  O4_26 
REMARK   10  A    between atoms: C14_25  and  N3_28 
REMARK   11  A    between atoms: N3_28  and  C15_30 
REMARK   12  A    between atoms: C15_30  and  C16_31 
ROOT
HETATM    1  C11 UNL     1       0.749  -0.647  -1.170  1.00  0.00     0.126 C 
HETATM    2  N2  UNL     1       1.112  -1.448  -2.051  1.00  0.00    -0.368 N 
ATOM      3  H2  UNL     1       0.318  -1.945  -2.455  1.00  0.00     0.161 HD
ENDROOT
BRANCH   1   4
HETATM    4  N1  UNL     1      -0.659  -0.509  -0.832  1.00  0.00    -0.349 N 
HETATM    5  C10 UNL     1      -1.626  -0.204  -1.885  1.00  0.00     0.199 C 
HETATM    6  S1  UNL     1      -3.089  -1.138  -1.264  1.00  0.00    -0.141 SA
HETATM    7  C9  UNL     1      -2.324  -1.766   0.278  1.00  0.00     0.083 C 
HETATM    8  C6  UNL     1      -3.179  -1.535   1.487  1.00  0.00     0.034 C 
HETATM    9  C20 UNL     1      -1.277  -0.636   0.441  1.00  0.00     0.132 C 
HETATM   10  C5  UNL     1      -3.415  -0.049   1.434  1.00  0.00     0.046 C 
HETATM   11  C4  UNL     1      -2.160   0.496   0.793  1.00  0.00    -0.033 C 
HETATM   12  C3  UNL     1      -1.971   1.788   0.611  1.00  0.00     0.150 C 
BRANCH   8  13
HETATM   13  C7  UNL     1      -4.402  -2.379   1.545  1.00  0.00     0.119 C 
HETATM   14  C8  UNL     1      -5.337  -2.239   0.378  1.00  0.00     0.040 C 
BRANCH  13  15
HETATM   15  O3  UNL     1      -5.127  -2.128   2.708  1.00  0.00    -0.396 OA
ATOM     16  H3  UNL     1      -5.908  -2.667   2.745  1.00  0.00     0.210 HD
ENDBRANCH  13  15
ENDBRANCH   8  13
BRANCH  12  17
HETATM   17  O2  UNL     1      -2.891   2.763   0.985  1.00  0.00    -0.291 OA
BRANCH  17  18
HETATM   18  C2  UNL     1      -3.882   3.205   0.099  1.00  0.00     0.259 C 
HETATM   19  C1  UNL     1      -4.880   4.232   0.436  1.00  0.00     0.126 C 
HETATM   20  O1  UNL     1      -3.900   2.682  -1.043  1.00  0.00    -0.265 OA
ENDBRANCH  17  18
ENDBRANCH  12  17
ENDBRANCH   1   4
BRANCH   1  21
HETATM   21  C14 UNL     1       1.768   0.201  -0.440  1.00  0.00     0.285 C 
BRANCH  21  22
HETATM   22  O4  UNL     1       1.482   0.158   0.937  1.00  0.00    -0.370 OA
ATOM     23  H4  UNL     1       2.122   0.690   1.395  1.00  0.00     0.212 HD
ENDBRANCH  21  22
BRANCH  21  24
HETATM   24  N3  UNL     1       3.071  -0.338  -0.582  1.00  0.00    -0.370 N 
ATOM     25  H3  UNL     1       3.177  -1.349  -0.671  1.00  0.00     0.161 HD
BRANCH  24  26
HETATM   26  C15 UNL     1       4.214   0.462  -0.604  1.00  0.00     0.067 C 
BRANCH  26  27
HETATM   27  C16 UNL     1       4.694   1.156   0.610  1.00  0.00    -0.019 C 
HETATM   28  C17 UNL     1       3.803   2.177   1.237  1.00  0.00     0.020 C 
HETATM   29  C18 UNL     1       6.081   1.743   0.266  1.00  0.00     0.020 C 
HETATM   30  C19 UNL     1       5.027   0.144   1.728  1.00  0.00     0.020 C 
ENDBRANCH  26  27
ENDBRANCH  24  26
ENDBRANCH  21  24
ENDBRANCH   1  21
BRANCH   2  31
HETATM   31  C12 UNL     1       2.323  -1.849  -2.636  1.00  0.00     0.238 C 
BRANCH  31  32
HETATM   32  C13 UNL     1       1.970  -2.790  -3.817  1.00  0.00     0.403 C 
HETATM   33  F1  UNL     1       1.192  -2.147  -4.748  1.00  0.00    -0.169 F 
HETATM   34  F2  UNL     1       3.115  -3.198  -4.470  1.00  0.00    -0.169 F 
HETATM   35  F3  UNL     1       1.259  -3.870  -3.334  1.00  0.00    -0.169 F 
ENDBRANCH  31  32
ENDBRANCH   2  31
TORSDOF 12
