REMARK  11 active torsions:
REMARK  status: ('A' for Active; 'I' for Inactive)
REMARK    1  A    between atoms: C5_10  and  C6_11 
REMARK    2  A    between atoms: C6_11  and  N4_12 
REMARK    3  A    between atoms: C6_11  and  C18_30 
REMARK       I    between atoms: N4_12  and  C7_13 
REMARK    4  A    between atoms: C7_13  and  C8_15 
REMARK    5  A    between atoms: C8_15  and  C9_16 
REMARK    6  A    between atoms: C9_16  and  C10_17 
REMARK    7  A    between atoms: C10_17  and  N5_18 
REMARK       I    between atoms: N5_18  and  C12_20 
REMARK    8  A    between atoms: C12_20  and  C13_22 
REMARK    9  A    between atoms: C13_22  and  C14_23 
REMARK   10  A    between atoms: C14_23  and  C17_26 
REMARK   11  A    between atoms: C21_35  and  N7_36 
ROOT
HETATM    1  C6  UNL     1      -1.656  -0.378  -0.332  1.00  0.00     0.238 C 
ENDROOT
BRANCH   1   2
HETATM    2  C5  UNL     1      -3.064  -0.689   0.220  1.00  0.00     0.121 A 
HETATM    3  N3  UNL     1      -3.969   0.290   0.369  1.00  0.00    -0.327 N 
HETATM    4  C4  UNL     1      -5.199   0.030   0.885  1.00  0.00     0.139 A 
ATOM      5  H3  UNL     1      -3.731   1.242   0.091  1.00  0.00     0.169 HD
HETATM    6  N2  UNL     1      -6.272   0.803   1.149  1.00  0.00    -0.280 N 
HETATM    7  C22 UNL     1      -5.556  -1.242   1.269  1.00  0.00     0.077 A 
HETATM    8  N1  UNL     1      -7.235   0.073   1.662  1.00  0.00    -0.301 N 
HETATM    9  C3  UNL     1      -6.328   2.224   0.895  1.00  0.00     0.179 C 
HETATM   10  C2  UNL     1      -6.858  -1.223   1.768  1.00  0.00     0.040 A 
ATOM     11  H1  UNL     1      -8.146   0.434   1.943  1.00  0.00     0.187 HD
HETATM   12  C1  UNL     1      -7.639  -2.369   2.300  1.00  0.00     0.071 C 
HETATM   13  C21 UNL     1      -4.611  -2.237   1.105  1.00  0.00     0.116 A 
HETATM   14  N6  UNL     1      -3.391  -1.931   0.585  1.00  0.00    -0.329 N 
ATOM     15  H6  UNL     1      -2.703  -2.676   0.470  1.00  0.00     0.168 HD
BRANCH  13  16
HETATM   16  N7  UNL     1      -4.950  -3.425   1.462  1.00  0.00    -0.385 N 
ATOM     17  H72 UNL     1      -4.253  -4.159   1.341  1.00  0.00     0.157 HD
ATOM     18  H71 UNL     1      -5.864  -3.654   1.852  1.00  0.00     0.157 HD
ENDBRANCH  13  16
ENDBRANCH   1   2
BRANCH   1  19
HETATM   19  N4  UNL     1      -1.117   0.680   0.058  1.00  0.00    -0.391 NA
HETATM   20  C7  UNL     1      -0.491   1.911   0.512  1.00  0.00     0.367 C 
HETATM   21  O1  UNL     1      -1.080   2.984   0.672  1.00  0.00    -0.242 OA
BRANCH  20  22
HETATM   22  C8  UNL     1       0.936   1.942   0.819  1.00  0.00     0.011 C 
BRANCH  22  23
HETATM   23  C9  UNL     1       2.110   2.006   1.088  1.00  0.00    -0.075 C 
BRANCH  23  24
HETATM   24  C10 UNL     1       3.524   2.130   1.440  1.00  0.00     0.220 C 
BRANCH  24  25
HETATM   25  N5  UNL     1       4.298   2.388   0.274  1.00  0.00    -0.346 N 
HETATM   26  C11 UNL     1       4.427   3.777  -0.156  1.00  0.00     0.153 C 
HETATM   27  C12 UNL     1       4.913   1.329  -0.435  1.00  0.00     0.221 C 
HETATM   28  O2  UNL     1       5.558   1.609  -1.474  1.00  0.00    -0.273 OA
BRANCH  27  29
HETATM   29  C13 UNL     1       4.807  -0.051   0.038  1.00  0.00     0.120 C 
BRANCH  29  30
HETATM   30  C14 UNL     1       5.732  -0.959  -0.760  1.00  0.00     0.059 C 
HETATM   31  C15 UNL     1       7.162  -0.467  -0.607  1.00  0.00     0.024 C 
HETATM   32  C16 UNL     1       5.359  -1.021  -2.200  1.00  0.00     0.024 C 
BRANCH  30  33
HETATM   33  C17 UNL     1       5.675  -2.342  -0.108  1.00  0.00     0.395 C 
HETATM   34  F1  UNL     1       6.482  -3.234  -0.755  1.00  0.00    -0.170 F 
HETATM   35  F2  UNL     1       5.980  -2.163   1.226  1.00  0.00    -0.170 F 
HETATM   36  F3  UNL     1       4.340  -2.720  -0.183  1.00  0.00    -0.170 F 
ENDBRANCH  30  33
ENDBRANCH  29  30
ENDBRANCH  27  29
ENDBRANCH  24  25
ENDBRANCH  23  24
ENDBRANCH  22  23
ENDBRANCH  20  22
ENDBRANCH   1  19
BRANCH   1  37
HETATM   37  C18 UNL     1      -1.807  -0.549  -1.847  1.00  0.00     0.021 C 
HETATM   38  C19 UNL     1      -2.812   0.363  -2.437  1.00  0.00     0.013 C 
HETATM   39  C20 UNL     1      -0.484  -0.565  -2.553  1.00  0.00     0.013 C 
ENDBRANCH   1  37
TORSDOF 11
