REMARK  8 active torsions:
REMARK  status: ('A' for Active; 'I' for Inactive)
REMARK    1  A    between atoms: C2_2  and  O1_4 
REMARK    2  A    between atoms: C2_2  and  C4_6 
REMARK    3  A    between atoms: C4_6  and  C5_7 
REMARK       I    between atoms: C5_7  and  N1_9 
REMARK    4  A    between atoms: N1_9  and  C6_10 
REMARK    5  A    between atoms: N2_13  and  C9_14 
REMARK    6  A    between atoms: C9_14  and  C10_15 
REMARK    7  A    between atoms: C10_15  and  C11_19 
REMARK    8  A    between atoms: C11_19  and  N4_20 
ROOT
HETATM    1  C6  UNL     1      -1.022   0.760  -0.240  1.00  0.00     0.188 C 
HETATM    2  C7  UNL     1      -0.283   1.705   0.727  1.00  0.00     0.071 C 
HETATM    3  C8  UNL     1       1.128   1.828   0.199  1.00  0.00     0.276 C 
HETATM    4  N2  UNL     1       1.810   0.607   0.599  1.00  0.00     0.095 N 
HETATM    5  C15 UNL     1       0.989  -0.552   0.363  1.00  0.00     0.296 C 
HETATM    6  C16 UNL     1      -0.109  -0.407  -0.614  1.00  0.00     0.146 C 
HETATM    7 CL2  UNL     1       0.561  -0.252  -2.240  1.00  0.00    -0.120 Cl
ENDROOT
BRANCH   4   8
HETATM    8  C9  UNL     1       3.111   0.505   0.001  1.00  0.00     0.326 C 
BRANCH   8   9
HETATM    9  C10 UNL     1       3.794  -0.706   0.572  1.00  0.00     0.026 C 
HETATM   10  N3  UNL     1       3.458  -1.054   1.755  1.00  0.00    -0.403 N 
ATOM     11  H32 UNL     1       2.745  -0.563   2.295  1.00  0.00     0.155 HD
ATOM     12  H31 UNL     1       3.922  -1.876   2.143  1.00  0.00     0.155 HD
BRANCH   9  13
HETATM   13  C11 UNL     1       4.840  -1.426  -0.221  1.00  0.00     0.184 C 
BRANCH  13  14
HETATM   14  N4  UNL     1       5.904  -0.552  -0.644  1.00  0.00    -0.329 N 
HETATM   15  C12 UNL     1       5.932   0.201  -1.755  1.00  0.00     0.136 A 
HETATM   16  C13 UNL     1       7.140   0.908  -1.732  1.00  0.00     0.121 A 
HETATM   17 CL1  UNL     1       7.654   2.021  -2.954  1.00  0.00    -0.063 Cl
HETATM   18  N5  UNL     1       7.759   0.533  -0.608  1.00  0.00    -0.326 N 
HETATM   19  C14 UNL     1       7.044  -0.352   0.077  1.00  0.00     0.157 A 
ATOM     20  H5  UNL     1       8.670   0.884  -0.312  1.00  0.00     0.169 HD
HETATM   21 BR1  UNL     1       7.462  -1.220   1.752  1.00  0.00    -0.010 Br
ENDBRANCH  13  14
ENDBRANCH   9  13
ENDBRANCH   8   9
ENDBRANCH   4   8
BRANCH   1  22
HETATM   22  N1  UNL     1      -2.219   0.374   0.156  1.00  0.00    -0.408 NA
HETATM   23  C5  UNL     1      -3.476  -0.033   0.571  1.00  0.00     0.289 C 
HETATM   24  O2  UNL     1      -3.812  -0.598   1.638  1.00  0.00    -0.257 OA
BRANCH  23  25
HETATM   25  C4  UNL     1      -4.593   0.267  -0.436  1.00  0.00     0.155 C 
BRANCH  25  26
HETATM   26  C2  UNL     1      -5.846  -0.350   0.082  1.00  0.00     0.060 C 
HETATM   27  C1  UNL     1      -6.980  -0.053  -0.901  1.00  0.00     0.046 C 
HETATM   28  C3  UNL     1      -5.631  -1.859   0.168  1.00  0.00     0.046 C 
BRANCH  26  29
HETATM   29  O1  UNL     1      -6.205   0.185   1.306  1.00  0.00    -0.390 OA
ATOM     30  H1  UNL     1      -5.501   0.001   1.916  1.00  0.00     0.210 HD
ENDBRANCH  26  29
ENDBRANCH  25  26
ENDBRANCH  23  25
ENDBRANCH   1  22
TORSDOF 8
