REMARK  2 active torsions:
REMARK  status: ('A' for Active; 'I' for Inactive)
REMARK    1  A    between atoms: N1_1  and  N2_4 
REMARK       I    between atoms: N2_4  and  C1_5 
REMARK    2  A    between atoms: C1_5  and  C2_7 
ROOT
HETATM    1  C2  UNL     1       0.161   0.282   0.233  1.00  0.00     0.157 A 
HETATM    2  C3  UNL     1      -0.931   1.084   0.361  1.00  0.00     0.141 A 
HETATM    3  N3  UNL     1      -0.878   2.461   0.689  1.00  0.00    -0.081 NA
HETATM    4  N4  UNL     1      -2.156   0.524   0.135  1.00  0.00    -0.318 N 
ATOM      5  H4  UNL     1      -2.998   1.094   0.221  1.00  0.00     0.169 HD
HETATM    6  C4  UNL     1      -2.259  -0.774  -0.200  1.00  0.00     0.196 A 
HETATM    7  N5  UNL     1      -3.574  -1.288  -0.428  1.00  0.00    -0.063 NA
HETATM    8  N6  UNL     1      -1.169  -1.547  -0.320  1.00  0.00    -0.296 N 
ATOM      9  H6  UNL     1      -1.275  -2.529  -0.575  1.00  0.00     0.171 HD
HETATM   10  C5  UNL     1       0.078  -1.040  -0.107  1.00  0.00     0.268 A 
HETATM   11  O2  UNL     1       1.087  -1.812  -0.232  1.00  0.00    -0.267 OA
ENDROOT
BRANCH   1  12
HETATM   12  C1  UNL     1       1.515   0.874   0.487  1.00  0.00     0.354 C 
HETATM   13  N2  UNL     1       2.639   0.158   0.316  1.00  0.00    -0.288 NA
HETATM   14  O1  UNL     1       1.431   2.105   0.865  1.00  0.00    -0.249 OA
BRANCH  13  15
HETATM   15  N1  UNL     1       3.741  -0.545   0.149  1.00  0.00    -0.276 N 
ATOM     16  H12 UNL     1       2.874  -0.032   0.306  1.00  0.00     0.191 HD
ATOM     17  H11 UNL     1       4.594  -1.089   0.019  1.00  0.00     0.191 HD
ENDBRANCH  13  15
ENDBRANCH   1  12
TORSDOF 2
