REMARK  3 active torsions:
REMARK  status: ('A' for Active; 'I' for Inactive)
REMARK    1  A    between atoms: N1_1  and  N2_4 
REMARK    2  A    between atoms: N2_4  and  C1_6 
REMARK    3  A    between atoms: C1_6  and  O1_7 
ROOT
HETATM    1  C1  UNL     1       1.193   0.500   0.323  1.00  0.00     0.173 C 
HETATM    2  C2  UNL     1      -0.086  -0.112   0.132  1.00  0.00     0.125 A 
HETATM    3  C3  UNL     1      -1.260   0.626   0.347  1.00  0.00     0.140 A 
HETATM    4  N3  UNL     1      -1.141   1.975   0.754  1.00  0.00    -0.081 NA
HETATM    5  N4  UNL     1      -2.464   0.076   0.174  1.00  0.00    -0.296 N 
ATOM      6  H4  UNL     1      -3.303   0.634   0.336  1.00  0.00     0.171 HD
HETATM    7  C4  UNL     1      -2.581  -1.205  -0.212  1.00  0.00     0.328 A 
HETATM    8  O2  UNL     1      -3.721  -1.743  -0.381  1.00  0.00    -0.247 OA
HETATM    9  N5  UNL     1      -1.496  -1.964  -0.434  1.00  0.00    -0.275 N 
ATOM     10  H5  UNL     1      -1.596  -2.936  -0.727  1.00  0.00     0.173 HD
HETATM   11  C5  UNL     1      -0.248  -1.413  -0.261  1.00  0.00     0.267 A 
HETATM   12  O3  UNL     1       0.733  -2.158  -0.479  1.00  0.00    -0.267 OA
ENDROOT
BRANCH   1  13
HETATM   13  N2  UNL     1       2.475  -0.031   0.171  1.00  0.00    -0.286 N 
ATOM     14  H2  UNL     1       2.606  -1.000  -0.120  1.00  0.00     0.188 HD
BRANCH  13  15
HETATM   15  N1  UNL     1       3.601   0.813   0.432  1.00  0.00    -0.343 N 
ATOM     16  H12 UNL     1       3.453   1.780   0.722  1.00  0.00     0.176 HD
ATOM     17  H11 UNL     1       4.538   0.425   0.321  1.00  0.00     0.176 HD
ENDBRANCH  13  15
ENDBRANCH   1  13
BRANCH   1  18
HETATM   18  O1  UNL     1       1.154   1.749   0.699  1.00  0.00    -0.344 OA
ATOM     19  H1  UNL     1       0.282   2.110   0.802  1.00  0.00     0.219 HD
ENDBRANCH   1  18
TORSDOF 3
