REMARK  10 active torsions:
REMARK  status: ('A' for Active; 'I' for Inactive)
REMARK    1  A    between atoms: N1_1  and  C1_5 
REMARK    2  A    between atoms: C2_6  and  C3_7 
REMARK    3  A    between atoms: C3_7  and  C4_8 
REMARK    4  A    between atoms: C4_8  and  C5_10 
REMARK    5  A    between atoms: C5_10  and  C6_11 
REMARK       I    between atoms: C6_11  and  N2_13 
REMARK    6  A    between atoms: N2_13  and  C7_15 
REMARK    7  A    between atoms: C8_18  and  O3_19 
REMARK    8  A    between atoms: C10_28  and  O6_29 
REMARK    9  A    between atoms: C10_28  and  C11_31 
REMARK   10  A    between atoms: C12_34  and  O9_35 
ROOT
HETATM    1  C4  UNL     1      -0.024   1.322   0.629  1.00  0.00     0.138 C 
HETATM    2  O1  UNL     1       0.000   1.335   1.831  1.00  0.00    -0.297 OA
ENDROOT
BRANCH   1   3
HETATM    3  C3  UNL     1      -1.193   1.338  -0.253  1.00  0.00     0.113 C 
BRANCH   3   4
HETATM    4  C2  UNL     1      -2.534   1.300   0.392  1.00  0.00     0.165 C 
HETATM    5  C1  UNL     1      -2.817   0.088   1.218  1.00  0.00     0.247 C 
HETATM    6  C12 UNL     1      -4.299  -0.119   0.976  1.00  0.00     0.225 C 
HETATM    7  C10 UNL     1      -4.440   0.422  -0.421  1.00  0.00     0.283 C 
HETATM    8  O5  UNL     1      -3.492   1.383  -0.614  1.00  0.00    -0.337 OA
BRANCH   5   9
HETATM    9  N1  UNL     1      -2.559   0.256   2.641  1.00  0.00    -0.070 N 
ATOM     10  H13 UNL     1      -1.602   0.575   2.794  1.00  0.00     0.274 HD
ATOM     11  H12 UNL     1      -3.071   1.060   3.003  1.00  0.00     0.274 HD
ATOM     12  H11 UNL     1      -2.752  -0.572   3.205  1.00  0.00     0.274 HD
ENDBRANCH   5   9
BRANCH   6  13
HETATM   13  O9  UNL     1      -5.036   0.635   1.890  1.00  0.00    -0.387 OA
ATOM     14  H9  UNL     1      -5.965   0.505   1.738  1.00  0.00     0.210 HD
ENDBRANCH   6  13
BRANCH   7  15
HETATM   15  O6  UNL     1      -5.743   0.938  -0.592  1.00  0.00    -0.355 OA
ATOM     16  H6  UNL     1      -6.403   0.268  -0.458  1.00  0.00     0.213 HD
ENDBRANCH   7  15
BRANCH   7  17
HETATM   17  C11 UNL     1      -4.315  -0.759  -1.339  1.00  0.00     0.241 C 
HETATM   18  O7  UNL     1      -5.272  -1.120  -2.091  1.00  0.00    -0.644 OA
HETATM   19  O8  UNL     1      -3.156  -1.512  -1.415  1.00  0.00    -0.644 OA
ENDBRANCH   7  17
ENDBRANCH   3   4
ENDBRANCH   1   3
BRANCH   1  20
HETATM   20  C5  UNL     1       1.333   1.284  -0.045  1.00  0.00     0.181 C 
BRANCH  20  21
HETATM   21  C6  UNL     1       1.889  -0.109   0.053  1.00  0.00     0.242 C 
HETATM   22  O2  UNL     1       1.170  -1.024  -0.450  1.00  0.00    -0.272 OA
HETATM   23  N2  UNL     1       3.126  -0.388   0.664  1.00  0.00    -0.159 N 
ATOM     24  H2  UNL     1       3.161  -0.367   1.683  1.00  0.00     0.187 HD
BRANCH  23  25
HETATM   25  C7  UNL     1       4.207  -0.665   0.045  1.00  0.00     0.692 A 
HETATM   26  N3  UNL     1       5.343  -0.917   0.759  1.00  0.00    -0.154 N 
HETATM   27  C8  UNL     1       6.491  -1.211   0.130  1.00  0.00     0.239 A 
ATOM     28  H3  UNL     1       5.319  -0.882   1.778  1.00  0.00     0.188 HD
HETATM   29  N4  UNL     1       6.547  -1.262  -1.196  1.00  0.00    -0.273 N 
HETATM   30  C9  UNL     1       5.437  -1.016  -1.916  1.00  0.00     0.341 A 
ATOM     31  H4  UNL     1       7.425  -1.486  -1.665  1.00  0.00     0.174 HD
HETATM   32  O4  UNL     1       5.531  -1.074  -3.168  1.00  0.00    -0.246 OA
HETATM   33  N5  UNL     1       4.284  -0.721  -1.292  1.00  0.00    -0.141 N 
ATOM     34  H5  UNL     1       3.449  -0.536  -1.848  1.00  0.00     0.189 HD
BRANCH  27  35
HETATM   35  O3  UNL     1       7.659  -1.470   0.855  1.00  0.00    -0.332 OA
ATOM     36  H3  UNL     1       8.472  -1.678   0.410  1.00  0.00     0.221 HD
ENDBRANCH  27  35
ENDBRANCH  23  25
ENDBRANCH  20  21
ENDBRANCH   1  20
TORSDOF 10
