REMARK  12 active torsions:
REMARK  status: ('A' for Active; 'I' for Inactive)
REMARK    1  A    between atoms: N1_1  and  N2_4 
REMARK    2  A    between atoms: N2_4  and  N3_5 
REMARK    3  A    between atoms: N3_5  and  C1_7 
REMARK    4  A    between atoms: C1_7  and  C2_8 
REMARK    5  A    between atoms: C2_8  and  N4_9 
REMARK    6  A    between atoms: N5_11  and  C4_13 
REMARK    7  A    between atoms: C5_17  and  C6_18 
REMARK    8  A    between atoms: C6_18  and  O1_19 
REMARK    9  A    between atoms: C7_21  and  O2_22 
REMARK   10  A    between atoms: C8_24  and  O3_25 
REMARK   11  A    between atoms: C9_29  and  N8_30 
REMARK   12  A    between atoms: C12_38  and  N10_39 
ROOT
HETATM    1  N4  UNL     1       1.700   0.118   0.158  1.00  0.00    -0.165 N 
HETATM    2  C3  UNL     1       0.471  -0.107   0.712  1.00  0.00     0.685 A 
HETATM    3  N5  UNL     1      -0.454   0.719   0.448  1.00  0.00    -0.194 N 
ATOM      4  H5  UNL     1      -0.212   1.498  -0.164  1.00  0.00     0.180 HD
HETATM    5  N7  UNL     1       0.247  -1.168   1.509  1.00  0.00    -0.176 N 
ATOM      6  H7  UNL     1      -0.683  -1.304   1.904  1.00  0.00     0.186 HD
HETATM    7  C9  UNL     1       1.217  -2.053   1.798  1.00  0.00     0.134 A 
HETATM    8  C10 UNL     1       2.469  -1.857   1.256  1.00  0.00     0.122 A 
HETATM    9  C11 UNL     1       3.481  -2.736   1.527  1.00  0.00     0.277 A 
HETATM   10  O4  UNL     1       3.248  -3.714   2.270  1.00  0.00    -0.266 OA
HETATM   11  N9  UNL     1       4.685  -2.503   0.974  1.00  0.00    -0.155 N 
ATOM     12  H9  UNL     1       5.451  -3.149   1.164  1.00  0.00     0.187 HD
HETATM   13  C12 UNL     1       4.905  -1.449   0.182  1.00  0.00     0.680 A 
HETATM   14  N11 UNL     1       3.925  -0.578  -0.093  1.00  0.00    -0.175 N 
ATOM     15  H11 UNL     1       4.109   0.221  -0.699  1.00  0.00     0.186 HD
HETATM   16  C13 UNL     1       2.706  -0.756   0.427  1.00  0.00     0.158 A 
ENDROOT
BRANCH   1  17
HETATM   17  C2  UNL     1       1.884   1.268  -0.689  1.00  0.00     0.171 C 
BRANCH  17  18
HETATM   18  C1  UNL     1       1.599   0.957  -2.144  1.00  0.00     0.176 C 
BRANCH  18  19
HETATM   19  N3  UNL     1       1.790   2.125  -2.982  1.00  0.00    -0.251 N 
ATOM     20  H3  UNL     1       1.703   2.067  -3.997  1.00  0.00     0.197 HD
BRANCH  19  21
HETATM   21  N2  UNL     1       2.062   3.192  -2.423  1.00  0.00    -0.249 NA
BRANCH  21  22
HETATM   22  N1  UNL     1       2.465   4.197  -1.850  1.00  0.00    -0.261 N 
ATOM     23  H12 UNL     1       3.345   3.683  -1.799  1.00  0.00     0.193 HD
ATOM     24  H11 UNL     1       2.690   5.078  -1.388  1.00  0.00     0.193 HD
ENDBRANCH  21  22
ENDBRANCH  19  21
ENDBRANCH  18  19
ENDBRANCH  17  18
ENDBRANCH   1  17
BRANCH   3  25
HETATM   25  C4  UNL     1      -1.798   0.668   0.921  1.00  0.00     0.331 C 
HETATM   26  N6  UNL     1      -2.538  -0.436   0.290  1.00  0.00    -0.042 N 
HETATM   27  C5  UNL     1      -3.936  -0.112   0.500  1.00  0.00     0.242 C 
ATOM     28  H62 UNL     1      -2.292  -0.595  -0.687  1.00  0.00     0.280 HD
ATOM     29  H61 UNL     1      -2.271  -1.361   0.628  1.00  0.00     0.280 HD
HETATM   30  C7  UNL     1      -4.000   1.381   0.491  1.00  0.00     0.183 C 
HETATM   31  C8  UNL     1      -2.570   1.859   0.388  1.00  0.00     0.199 C 
BRANCH  27  32
HETATM   32  C6  UNL     1      -4.724  -0.765  -0.597  1.00  0.00     0.199 C 
BRANCH  32  33
HETATM   33  O1  UNL     1      -4.314  -0.298  -1.847  1.00  0.00    -0.399 OA
ATOM     34  H1  UNL     1      -4.813  -0.711  -2.542  1.00  0.00     0.209 HD
ENDBRANCH  32  33
ENDBRANCH  27  32
BRANCH  30  35
HETATM   35  O2  UNL     1      -4.790   1.846  -0.544  1.00  0.00    -0.391 OA
ATOM     36  H2  UNL     1      -4.831   2.795  -0.550  1.00  0.00     0.210 HD
ENDBRANCH  30  35
BRANCH  31  37
HETATM   37  O3  UNL     1      -2.208   2.124  -0.931  1.00  0.00    -0.389 OA
ATOM     38  H3  UNL     1      -2.692   2.870  -1.265  1.00  0.00     0.210 HD
ENDBRANCH  31  37
ENDBRANCH   3  25
BRANCH   7  39
HETATM   39  N8  UNL     1       1.049  -3.082   2.556  1.00  0.00    -0.384 N 
ATOM     40  H82 UNL     1       0.122  -3.227   2.957  1.00  0.00     0.157 HD
ATOM     41  H81 UNL     1       1.785  -3.753   2.775  1.00  0.00     0.157 HD
ENDBRANCH   7  39
BRANCH  13  42
HETATM   42  N10 UNL     1       6.109  -1.310  -0.306  1.00  0.00    -0.234 N 
ATOM     43 2H10 UNL     1       6.855  -1.973  -0.097  1.00  0.00     0.174 HD
ATOM     44 1H10 UNL     1       6.277  -0.506  -0.910  1.00  0.00     0.174 HD
ENDBRANCH  13  42
TORSDOF 12
