REMARK  12 active torsions:
REMARK  status: ('A' for Active; 'I' for Inactive)
REMARK    1  A    between atoms: N1_1  and  N2_4 
REMARK    2  A    between atoms: N3_7  and  C2_8 
REMARK    3  A    between atoms: C2_8  and  C3_9 
REMARK    4  A    between atoms: C3_9  and  O1_10 
REMARK    5  A    between atoms: C3_9  and  C4_12 
REMARK    6  A    between atoms: C4_12  and  O3_14 
REMARK    7  A    between atoms: O3_14  and  O4_15 
REMARK    8  A    between atoms: C6_18  and  N4_19 
REMARK    9  A    between atoms: C7_23  and  O5_24 
REMARK   10  A    between atoms: C8_26  and  O6_27 
REMARK   11  A    between atoms: C8_26  and  C9_29 
REMARK       I    between atoms: C9_29  and  N5_31 
REMARK   12  A    between atoms: N5_31  and  C10_33 
ROOT
HETATM    1  N2  UNL     1       1.268  -0.880   1.672  1.00  0.00    -0.292 N 
ATOM      2  H2  UNL     1       2.127  -0.360   1.849  1.00  0.00     0.187 HD
HETATM    3  C1  UNL     1       1.100  -1.380   0.495  1.00  0.00     0.145 C 
HETATM    4  N3  UNL     1       2.153  -1.137  -0.420  1.00  0.00    -0.341 N 
HETATM    5  C5  UNL     1       2.405  -2.211  -1.405  1.00  0.00     0.165 C 
HETATM    6  C6  UNL     1       1.164  -2.907  -1.838  1.00  0.00     0.234 C 
HETATM    7  C7  UNL     1      -0.117  -2.312  -1.352  1.00  0.00     0.202 C 
HETATM    8  C8  UNL     1      -0.124  -2.153   0.159  1.00  0.00     0.226 C 
ENDROOT
BRANCH   8   9
HETATM    9  O6  UNL     1      -0.144  -3.388   0.800  1.00  0.00    -0.371 OA
ATOM     10  H6  UNL     1      -0.926  -3.882   0.585  1.00  0.00     0.211 HD
ENDBRANCH   8   9
BRANCH   8  11
HETATM   11  C9  UNL     1      -1.311  -1.336   0.508  1.00  0.00     0.263 C 
HETATM   12  O7  UNL     1      -2.206  -1.754   1.307  1.00  0.00    -0.270 OA
HETATM   13  N5  UNL     1      -1.500  -0.040  -0.038  1.00  0.00    -0.353 N 
ATOM     14  H5  UNL     1      -0.799   0.326  -0.682  1.00  0.00     0.163 HD
BRANCH  13  15
HETATM   15  C10 UNL     1      -2.648   0.785   0.281  1.00  0.00     0.087 C 
HETATM   16  C11 UNL     1      -2.178   2.063   0.896  1.00  0.00     0.052 C 
HETATM   17  C12 UNL     1      -3.199   3.157   0.916  1.00  0.00     0.234 C 
HETATM   18  N6  UNL     1      -4.224   3.018  -0.085  1.00  0.00    -0.075 N 
HETATM   19  C13 UNL     1      -3.621   2.461  -1.267  1.00  0.00     0.234 C 
ATOM     20  H62 UNL     1      -5.024   2.476   0.242  1.00  0.00     0.277 HD
ATOM     21  H61 UNL     1      -4.717   3.892  -0.268  1.00  0.00     0.277 HD
HETATM   22  C14 UNL     1      -3.433   0.974  -0.988  1.00  0.00     0.052 C 
ENDBRANCH  13  15
ENDBRANCH   8  11
BRANCH   7  23
HETATM   23  O5  UNL     1      -1.166  -3.108  -1.789  1.00  0.00    -0.389 OA
ATOM     24  H5  UNL     1      -1.981  -2.730  -1.480  1.00  0.00     0.210 HD
ENDBRANCH   7  23
BRANCH   1  25
HETATM   25  N1  UNL     1       0.354  -1.003   2.719  1.00  0.00    -0.344 N 
ATOM     26  H12 UNL     1      -0.499  -1.527   2.524  1.00  0.00     0.176 HD
ATOM     27  H11 UNL     1       0.487  -0.608   3.650  1.00  0.00     0.176 HD
ENDBRANCH   1  25
BRANCH   4  28
HETATM   28  C2  UNL     1       2.984  -0.008  -0.498  1.00  0.00     0.107 C 
BRANCH  28  29
HETATM   29  C3  UNL     1       2.815   1.142   0.406  1.00  0.00     0.258 C 
BRANCH  29  30
HETATM   30  O1  UNL     1       1.567   1.758   0.310  1.00  0.00    -0.380 OA
ATOM     31  H1  UNL     1       1.458   2.500   0.893  1.00  0.00     0.211 HD
ENDBRANCH  29  30
BRANCH  29  32
HETATM   32  C4  UNL     1       3.803   2.170  -0.008  1.00  0.00     0.322 C 
HETATM   33  O2  UNL     1       5.041   1.952  -0.041  1.00  0.00    -0.259 OA
BRANCH  32  34
HETATM   34  O3  UNL     1       3.368   3.422  -0.377  1.00  0.00    -0.158 OA
BRANCH  34  35
HETATM   35  O4  UNL     1       4.203   4.403  -0.764  1.00  0.00    -0.242 OA
ATOM     36  H4  UNL     1       3.903   5.268  -1.019  1.00  0.00     0.254 HD
ENDBRANCH  34  35
ENDBRANCH  32  34
ENDBRANCH  29  32
ENDBRANCH  28  29
ENDBRANCH   4  28
BRANCH   6  37
HETATM   37  N4  UNL     1       1.186  -4.333  -1.543  1.00  0.00    -0.071 N 
ATOM     38  H43 UNL     1       2.013  -4.777  -1.943  1.00  0.00     0.274 HD
ATOM     39  H42 UNL     1       1.372  -4.499  -0.554  1.00  0.00     0.274 HD
ATOM     40  H41 UNL     1       0.335  -4.810  -1.840  1.00  0.00     0.274 HD
ENDBRANCH   6  37
TORSDOF 12
