REMARK  6 active torsions:
REMARK  status: ('A' for Active; 'I' for Inactive)
REMARK    1  A    between atoms: O1_2  and  C2_3 
REMARK    2  A    between atoms: C12_13  and  C13_14 
REMARK    3  A    between atoms: C13_14  and  C15_16 
REMARK    4  A    between atoms: C15_16  and  O2_19 
REMARK    5  A    between atoms: C20_25  and  O5_26 
REMARK    6  A    between atoms: C21_28  and  C22_29 
ROOT
HETATM    1  C2  UNL     1      -2.908   0.405  -0.630  1.00  0.00     0.148 C 
HETATM    2  C3  UNL     1      -1.910   0.204  -1.669  1.00  0.00     0.005 C 
HETATM    3  C4  UNL     1      -1.398   0.988  -2.584  1.00  0.00    -0.001 C 
HETATM    4  C5  UNL     1      -1.653   2.378  -2.890  1.00  0.00    -0.000 C 
HETATM    5  C6  UNL     1      -1.178   3.508  -2.458  1.00  0.00     0.001 C 
HETATM    6  C7  UNL     1      -0.211   3.947  -1.518  1.00  0.00     0.007 C 
HETATM    7  C8  UNL     1       1.052   3.592  -1.218  1.00  0.00    -0.062 C 
HETATM    8  C9  UNL     1       1.666   4.436  -0.085  1.00  0.00     0.048 C 
HETATM    9  C10 UNL     1       1.884   2.583  -1.791  1.00  0.00     0.005 C 
HETATM   10  C11 UNL     1       2.250   1.357  -1.579  1.00  0.00     0.006 C 
HETATM   11  C12 UNL     1       1.885   0.404  -0.473  1.00  0.00     0.161 C 
HETATM   12  O3  UNL     1       1.962  -0.905  -0.895  1.00  0.00    -0.311 OA
HETATM   13  C18 UNL     1       1.179  -1.991  -0.885  1.00  0.00     0.262 C 
HETATM   14  O4  UNL     1       0.893  -2.494  -2.034  1.00  0.00    -0.265 OA
HETATM   15  C19 UNL     1       0.593  -2.696   0.279  1.00  0.00     0.147 C 
HETATM   16  C20 UNL     1      -0.265  -3.857   0.016  1.00  0.00     0.163 C 
HETATM   17  C21 UNL     1      -1.461  -3.745  -0.816  1.00  0.00     0.005 C 
HETATM   18  C23 UNL     1      -2.496  -2.991  -0.692  1.00  0.00    -0.009 C 
HETATM   19  C24 UNL     1      -2.877  -1.968   0.315  1.00  0.00     0.011 C 
HETATM   20  C25 UNL     1      -3.827  -2.636   1.348  1.00  0.00     0.015 C 
HETATM   21  C26 UNL     1      -3.680  -0.858  -0.298  1.00  0.00     0.022 C 
HETATM   22  C27 UNL     1      -4.875  -0.501   0.535  1.00  0.00     0.013 C 
ENDROOT
BRANCH  11  23
HETATM   23  C13 UNL     1       2.716   0.695   0.746  1.00  0.00     0.048 C 
HETATM   24  C14 UNL     1       2.404  -0.218   1.932  1.00  0.00     0.016 C 
BRANCH  23  25
HETATM   25  C15 UNL     1       4.173   0.792   0.618  1.00  0.00     0.056 C 
HETATM   26  C16 UNL     1       4.790   1.823  -0.235  1.00  0.00     0.045 C 
HETATM   27  C17 UNL     1       4.817  -0.558   0.245  1.00  0.00     0.045 C 
BRANCH  25  28
HETATM   28  O2  UNL     1       4.671   1.018   1.938  1.00  0.00    -0.390 OA
ATOM     29  H2  UNL     1       5.615   1.081   1.855  1.00  0.00     0.210 HD
ENDBRANCH  25  28
ENDBRANCH  23  25
ENDBRANCH  11  23
BRANCH  16  30
HETATM   30  O5  UNL     1      -0.637  -4.443   1.262  1.00  0.00    -0.390 OA
ATOM     31  H5  UNL     1      -1.192  -5.195   1.092  1.00  0.00     0.210 HD
ENDBRANCH  16  30
BRANCH  17  32
HETATM   32  C22 UNL     1      -1.469  -4.696  -1.982  1.00  0.00     0.268 C 
HETATM   33  O6  UNL     1      -0.513  -5.487  -2.189  1.00  0.00    -0.302 OA
ENDBRANCH  17  32
BRANCH   1  34
HETATM   34  O1  UNL     1      -2.347   0.910   0.531  1.00  0.00    -0.386 OA
HETATM   35  C1  UNL     1      -2.877   2.139   0.919  1.00  0.00     0.202 C 
ENDBRANCH   1  34
TORSDOF 6
