REMARK  5 active torsions:
REMARK  status: ('A' for Active; 'I' for Inactive)
REMARK    1  A    between atoms: C19_22  and  C20_23 
REMARK    2  A    between atoms: C20_23  and  C21_24 
REMARK    3  A    between atoms: C21_24  and  C22_25 
REMARK    4  A    between atoms: C22_25  and  N1_26 
REMARK    5  A    between atoms: C22_25  and  O4_30 
ROOT
HETATM    1  C1  UNL     1       4.237   0.742  -2.757  1.00  0.00     0.044 C 
HETATM    2  C2  UNL     1       3.026  -0.087  -2.494  1.00  0.00    -0.074 C 
HETATM    3  C3  UNL     1       2.120  -0.341  -3.445  1.00  0.00     0.085 C 
HETATM    4  C4  UNL     1       0.921  -1.171  -3.144  1.00  0.00     0.284 C 
HETATM    5  O1  UNL     1       0.686  -1.989  -4.115  1.00  0.00    -0.260 OA
HETATM    6  O2  UNL     1       0.294  -1.003  -2.039  1.00  0.00    -0.303 OA
HETATM    7  C5  UNL     1      -0.679  -0.782  -1.129  1.00  0.00     0.106 C 
HETATM    8  C6  UNL     1      -2.003  -0.732  -1.948  1.00  0.00     0.074 C 
HETATM    9  C7  UNL     1      -3.052  -0.954  -0.972  1.00  0.00     0.130 C 
HETATM   10  O3  UNL     1      -2.376  -1.700   0.034  1.00  0.00    -0.377 OA
HETATM   11  C8  UNL     1      -1.141  -2.011  -0.403  1.00  0.00     0.154 C 
HETATM   12  C9  UNL     1      -0.303  -2.770   0.488  1.00  0.00     0.042 C 
HETATM   13  C10 UNL     1      -4.007   0.008  -0.496  1.00  0.00     0.031 A 
HETATM   14  C11 UNL     1      -4.155   1.225   0.067  1.00  0.00     0.008 A 
HETATM   15  C12 UNL     1      -3.365   2.423   0.230  1.00  0.00    -0.013 C 
HETATM   16  C13 UNL     1      -4.090   3.514  -0.619  1.00  0.00     0.010 C 
HETATM   17  C14 UNL     1      -1.929   2.602   0.035  1.00  0.00     0.005 C 
HETATM   18  C15 UNL     1      -1.283   1.664  -0.936  1.00  0.00     0.013 C 
HETATM   19  C16 UNL     1      -0.512   0.489  -0.312  1.00  0.00    -0.003 C 
HETATM   20  C17 UNL     1       0.950   0.945  -0.655  1.00  0.00     0.013 C 
HETATM   21  C18 UNL     1       2.080   0.201  -0.182  1.00  0.00     0.010 C 
HETATM   22  C19 UNL     1       2.896  -0.628  -1.121  1.00  0.00     0.014 C 
HETATM   23  C23 UNL     1      -0.554   0.453   1.136  1.00  0.00     0.053 C 
HETATM   24  C24 UNL     1      -1.649   0.461   2.086  1.00  0.00     0.085 A 
HETATM   25  C25 UNL     1      -1.110   0.977   3.484  1.00  0.00     0.049 C 
HETATM   26  O5  UNL     1      -2.388  -0.609   2.588  1.00  0.00    -0.369 OA
HETATM   27  C26 UNL     1      -2.968   0.551   1.853  1.00  0.00     0.166 A 
HETATM   28  C27 UNL     1      -3.910   0.021   0.934  1.00  0.00    -0.004 A 
HETATM   29  C28 UNL     1      -5.066  -0.732   1.626  1.00  0.00     0.019 C 
ENDROOT
BRANCH  22  30
HETATM   30  C20 UNL     1       4.286  -0.814  -0.497  1.00  0.00     0.013 C 
BRANCH  30  31
HETATM   31  C21 UNL     1       4.213  -1.357   0.888  1.00  0.00     0.061 C 
BRANCH  31  32
HETATM   32  C22 UNL     1       5.659  -1.503   1.391  1.00  0.00     0.316 C 
BRANCH  32  33
HETATM   33  N1  UNL     1       5.618  -2.034   2.748  1.00  0.00    -0.053 N 
ATOM     34  H13 UNL     1       5.039  -1.473   3.373  1.00  0.00     0.277 HD
ATOM     35  H12 UNL     1       5.089  -2.904   2.814  1.00  0.00     0.277 HD
ATOM     36  H11 UNL     1       6.577  -2.131   3.082  1.00  0.00     0.277 HD
ENDBRANCH  32  33
BRANCH  32  37
HETATM   37  O4  UNL     1       6.358  -2.422   0.613  1.00  0.00    -0.370 OA
ATOM     38  H4  UNL     1       7.251  -2.512   0.924  1.00  0.00     0.212 HD
ENDBRANCH  32  37
ENDBRANCH  31  32
ENDBRANCH  30  31
ENDBRANCH  22  30
TORSDOF 5
