REMARK  9 active torsions:
REMARK  status: ('A' for Active; 'I' for Inactive)
REMARK    1  A    between atoms: O1_2  and  C2_3 
REMARK    2  A    between atoms: C2_3  and  C3_5 
REMARK    3  A    between atoms: C3_5  and  C4_6 
REMARK    4  A    between atoms: C4_6  and  C5_7 
REMARK    5  A    between atoms: C5_7  and  C7_9 
REMARK    6  A    between atoms: C17_20  and  O4_21 
REMARK    7  A    between atoms: C22_27  and  C23_28 
REMARK    8  A    between atoms: C24_29  and  C25_30 
REMARK    9  A    between atoms: C25_30  and  O5_31 
ROOT
HETATM    1  C7  UNL     1      -1.554  -0.323   0.609  1.00  0.00     0.005 C 
HETATM    2  C8  UNL     1      -1.643   0.030   2.081  1.00  0.00     0.006 C 
HETATM    3  C9  UNL     1      -0.974   1.389   2.158  1.00  0.00     0.007 C 
HETATM    4  C10 UNL     1      -0.053   1.438   0.955  1.00  0.00     0.006 C 
HETATM    5  C11 UNL     1       1.118   0.504   1.170  1.00  0.00     0.001 C 
HETATM    6  C12 UNL     1       1.946   1.152   2.249  1.00  0.00     0.033 C 
HETATM    7  C13 UNL     1       3.309   0.614   2.338  1.00  0.00    -0.015 C 
HETATM    8  C14 UNL     1       3.953   0.110   1.318  1.00  0.00    -0.007 C 
HETATM    9  C15 UNL     1       5.292  -0.387   1.533  1.00  0.00     0.158 C 
HETATM   10  O3  UNL     1       6.006   0.028   2.474  1.00  0.00    -0.293 OA
HETATM   11  C16 UNL     1       5.822  -1.422   0.603  1.00  0.00     0.115 C 
HETATM   12  C17 UNL     1       4.558  -2.146   0.143  1.00  0.00     0.126 C 
HETATM   13  C18 UNL     1       3.830  -1.184  -0.740  1.00  0.00     0.046 C 
HETATM   14  C19 UNL     1       3.342   0.078  -0.013  1.00  0.00    -0.006 C 
HETATM   15  C20 UNL     1       3.994   1.261  -0.758  1.00  0.00     0.021 C 
HETATM   16  C21 UNL     1       1.846   0.117  -0.058  1.00  0.00     0.026 C 
HETATM   17  C22 UNL     1       1.269   0.853  -1.250  1.00  0.00     0.141 C 
HETATM   18  C26 UNL     1      -0.210   0.634  -1.286  1.00  0.00     0.151 C 
HETATM   19  O6  UNL     1      -0.677   0.281  -2.343  1.00  0.00    -0.296 OA
HETATM   20  C27 UNL     1      -1.028   0.843  -0.094  1.00  0.00     0.026 C 
HETATM   21  C28 UNL     1      -1.998   1.953  -0.396  1.00  0.00     0.024 C 
ENDROOT
BRANCH   1  22
HETATM   22  C5  UNL     1      -2.836  -0.945   0.189  1.00  0.00    -0.013 C 
HETATM   23  C6  UNL     1      -2.805  -1.678  -1.123  1.00  0.00     0.010 C 
BRANCH  22  24
HETATM   24  C4  UNL     1      -4.076  -0.161   0.308  1.00  0.00     0.014 C 
BRANCH  24  25
HETATM   25  C3  UNL     1      -5.273  -1.129   0.248  1.00  0.00     0.111 C 
BRANCH  25  26
HETATM   26  C2  UNL     1      -6.544  -0.368   0.379  1.00  0.00     0.258 C 
HETATM   27  O2  UNL     1      -6.768   0.636  -0.343  1.00  0.00    -0.265 OA
BRANCH  26  28
HETATM   28  O1  UNL     1      -7.480  -0.773   1.311  1.00  0.00    -0.326 OA
HETATM   29  C1  UNL     1      -8.714  -0.128   1.528  1.00  0.00     0.213 C 
ENDBRANCH  26  28
ENDBRANCH  25  26
ENDBRANCH  24  25
ENDBRANCH  22  24
ENDBRANCH   1  22
BRANCH  17  30
HETATM   30  C23 UNL     1       1.818   0.364  -2.532  1.00  0.00    -0.091 C 
HETATM   31  C24 UNL     1       2.251  -0.026  -3.609  1.00  0.00    -0.080 C 
BRANCH  31  32
HETATM   32  C25 UNL     1       2.767  -0.517  -4.884  1.00  0.00     0.257 C 
BRANCH  32  33
HETATM   33  O5  UNL     1       4.027  -0.014  -5.081  1.00  0.00    -0.389 OA
ATOM     34  H5  UNL     1       4.363  -0.333  -5.910  1.00  0.00     0.210 HD
ENDBRANCH  32  33
ENDBRANCH  31  32
ENDBRANCH  17  30
BRANCH  12  35
HETATM   35  O4  UNL     1       3.814  -2.533   1.254  1.00  0.00    -0.395 OA
ATOM     36  H4  UNL     1       3.028  -2.983   0.968  1.00  0.00     0.210 HD
ENDBRANCH  12  35
TORSDOF 9
