REMARK  6 active torsions:
REMARK  status: ('A' for Active; 'I' for Inactive)
REMARK    1  A    between atoms: C3_4  and  C4_5 
REMARK    2  A    between atoms: C4_5  and  O2_6 
REMARK    3  A    between atoms: C5_8  and  O3_9 
REMARK    4  A    between atoms: C13_20  and  C14_21 
REMARK    5  A    between atoms: C18_25  and  N1_26 
REMARK       I    between atoms: N1_26  and  C20_28 
REMARK    6  A    between atoms: C20_28  and  C21_30 
ROOT
HETATM    1  C1  UNL     1       4.526  -1.802  -1.105  1.00  0.00     0.047 C 
HETATM    2  C2  UNL     1       4.089  -0.632  -0.666  1.00  0.00     0.050 C 
HETATM    3  O1  UNL     1       5.001   0.417  -0.395  1.00  0.00    -0.345 OA
HETATM    4  C3  UNL     1       4.403   1.372   0.440  1.00  0.00     0.181 C 
HETATM    5  C5  UNL     1       2.962   1.282   0.072  1.00  0.00     0.165 C 
HETATM    6  C6  UNL     1       2.731  -0.170  -0.383  1.00  0.00     0.046 C 
HETATM    7  C7  UNL     1       2.066  -0.845   0.795  1.00  0.00     0.022 C 
HETATM    8  C8  UNL     1       3.118  -1.300   1.800  1.00  0.00     0.015 C 
HETATM    9  C9  UNL     1       1.287  -2.020   0.439  1.00  0.00    -0.023 C 
HETATM   10  C10 UNL     1       0.041  -2.310   0.434  1.00  0.00     0.004 C 
HETATM   11  C11 UNL     1      -1.203  -1.587   0.794  1.00  0.00     0.184 C 
HETATM   12  O4  UNL     1      -2.166  -2.679   0.843  1.00  0.00    -0.309 OA
HETATM   13  C12 UNL     1      -2.446  -2.890  -0.496  1.00  0.00     0.270 C 
HETATM   14  O5  UNL     1      -2.439  -3.804  -1.290  1.00  0.00    -0.264 OA
HETATM   15  C13 UNL     1      -2.857  -1.432  -0.858  1.00  0.00     0.145 C 
HETATM   16  C18 UNL     1      -1.618  -0.688  -0.277  1.00  0.00     0.081 C 
HETATM   17  C23 UNL     1      -0.567  -0.704  -1.400  1.00  0.00     0.036 C 
HETATM   18  C24 UNL     1       0.456   0.334  -1.247  1.00  0.00     0.008 C 
HETATM   19  C25 UNL     1       1.884  -0.100  -1.601  1.00  0.00    -0.000 C 
HETATM   20  C26 UNL     1       1.913  -1.231  -2.556  1.00  0.00     0.011 C 
ENDROOT
BRANCH   5  21
HETATM   21  O3  UNL     1       2.522   2.212  -0.831  1.00  0.00    -0.392 OA
ATOM     22  H3  UNL     1       1.603   2.155  -1.066  1.00  0.00     0.210 HD
ENDBRANCH   5  21
BRANCH   4  23
HETATM   23  C4  UNL     1       5.014   2.735   0.254  1.00  0.00     0.199 C 
BRANCH  23  24
HETATM   24  O2  UNL     1       6.375   2.638   0.568  1.00  0.00    -0.398 OA
ATOM     25  H2  UNL     1       6.761   3.498   0.451  1.00  0.00     0.209 HD
ENDBRANCH  23  24
ENDBRANCH   4  23
BRANCH  16  26
HETATM   26  N1  UNL     1      -1.998   0.652  -0.019  1.00  0.00    -0.343 N 
HETATM   27  C19 UNL     1      -2.944   1.234  -1.011  1.00  0.00     0.153 C 
HETATM   28  C20 UNL     1      -1.620   1.579   0.968  1.00  0.00     0.219 C 
HETATM   29  O6  UNL     1      -0.868   1.276   1.915  1.00  0.00    -0.273 OA
BRANCH  28  30
HETATM   30  C21 UNL     1      -2.091   3.002   0.960  1.00  0.00     0.098 C 
HETATM   31  C22 UNL     1      -1.487   3.729   2.128  1.00  0.00     0.014 C 
ENDBRANCH  28  30
ENDBRANCH  16  26
BRANCH  15  32
HETATM   32  C14 UNL     1      -4.108  -1.341  -0.137  1.00  0.00    -0.072 C 
HETATM   33  C15 UNL     1      -5.295  -1.978  -0.866  1.00  0.00     0.044 C 
HETATM   34  C16 UNL     1      -4.407  -0.818   1.011  1.00  0.00    -0.028 C 
HETATM   35  C17 UNL     1      -5.804  -0.833   1.580  1.00  0.00     0.036 C 
ENDBRANCH  15  32
TORSDOF 6
