REMARK  6 active torsions:
REMARK  status: ('A' for Active; 'I' for Inactive)
REMARK    1  A    between atoms: C6_6  and  O1_7 
REMARK    2  A    between atoms: O1_7  and  C7_8 
REMARK    3  A    between atoms: C7_8  and  C8_10 
REMARK    4  A    between atoms: C9_11  and  C10_12 
REMARK       I    between atoms: C10_12  and  N1_14 
REMARK    5  A    between atoms: C15_20  and  O4_21 
REMARK    6  A    between atoms: C20_26  and  O5_27 
ROOT
HETATM    1  C1  UNL     1      -3.857   0.074   3.101  1.00  0.00     0.017 C 
HETATM    2  C2  UNL     1      -2.767   0.155   2.346  1.00  0.00    -0.060 C 
HETATM    3  C3  UNL     1      -1.665  -0.821   2.527  1.00  0.00     0.036 C 
HETATM    4  C4  UNL     1      -0.295  -0.282   2.489  1.00  0.00     0.014 C 
HETATM    5  C5  UNL     1       0.644  -1.034   1.536  1.00  0.00     0.054 C 
HETATM    6  C6  UNL     1       0.872  -0.282   0.260  1.00  0.00     0.143 C 
HETATM    7  C12 UNL     1       0.272  -0.798  -0.966  1.00  0.00     0.019 C 
HETATM    8  C13 UNL     1      -1.168  -0.488  -1.255  1.00  0.00     0.010 C 
HETATM    9  C14 UNL     1      -1.519   0.947  -1.345  1.00  0.00     0.033 C 
HETATM   10  C15 UNL     1      -2.971   1.247  -1.169  1.00  0.00     0.131 C 
HETATM   11  C17 UNL     1      -3.598   1.058   0.148  1.00  0.00     0.008 C 
HETATM   12  C18 UNL     1      -4.366  -0.252   0.167  1.00  0.00     0.020 C 
HETATM   13  C19 UNL     1      -4.706   2.136   0.226  1.00  0.00     0.020 C 
HETATM   14  C20 UNL     1      -2.753   1.259   1.352  1.00  0.00     0.156 C 
HETATM   15  C21 UNL     1       0.424  -2.288  -1.189  1.00  0.00    -0.012 C 
HETATM   16  C22 UNL     1       0.362  -2.603  -2.676  1.00  0.00     0.010 C 
HETATM   17  C23 UNL     1       1.668  -2.874  -0.639  1.00  0.00     0.015 C 
HETATM   18  C24 UNL     1       1.671  -3.070   0.830  1.00  0.00     0.056 A 
HETATM   19  C25 UNL     1       0.637  -3.665   1.628  1.00  0.00     0.165 A 
HETATM   20  O6  UNL     1      -0.036  -3.056   2.651  1.00  0.00    -0.368 OA
HETATM   21  C26 UNL     1       0.317  -2.430   1.321  1.00  0.00     0.100 A 
ENDROOT
BRANCH   6  22
HETATM   22  O1  UNL     1       2.278  -0.089   0.015  1.00  0.00    -0.312 OA
BRANCH  22  23
HETATM   23  C7  UNL     1       2.894   1.139   0.033  1.00  0.00     0.283 C 
HETATM   24  O2  UNL     1       2.137   2.137   0.286  1.00  0.00    -0.260 OA
BRANCH  23  25
HETATM   25  C8  UNL     1       4.319   1.320  -0.217  1.00  0.00     0.088 C 
HETATM   26  C9  UNL     1       5.077   0.290  -0.474  1.00  0.00     0.080 C 
BRANCH  26  27
HETATM   27  C10 UNL     1       6.478   0.424  -0.725  1.00  0.00     0.240 C 
HETATM   28  O3  UNL     1       7.162  -0.606  -0.968  1.00  0.00    -0.269 OA
HETATM   29  N1  UNL     1       7.135   1.675  -0.711  1.00  0.00    -0.362 N 
HETATM   30  C11 UNL     1       8.575   1.746  -0.976  1.00  0.00     0.149 C 
ATOM     31  H1  UNL     1       6.608   2.527  -0.517  1.00  0.00     0.162 HD
ENDBRANCH  26  27
ENDBRANCH  23  25
ENDBRANCH  22  23
ENDBRANCH   6  22
BRANCH  10  32
HETATM   32  O4  UNL     1      -3.152   2.555  -1.666  1.00  0.00    -0.390 OA
HETATM   33  C16 UNL     1      -3.871   2.598  -2.833  1.00  0.00     0.202 C 
ENDBRANCH  10  32
BRANCH  14  34
HETATM   34  O5  UNL     1      -3.109   2.417   2.093  1.00  0.00    -0.390 OA
ATOM     35  H5  UNL     1      -3.100   3.123   1.457  1.00  0.00     0.210 HD
ENDBRANCH  14  34
TORSDOF 6
