REMARK  11 active torsions:
REMARK  status: ('A' for Active; 'I' for Inactive)
REMARK       I    between atoms: C2_2  and  N1_4 
REMARK    1  A    between atoms: N1_4  and  N2_6 
REMARK    2  A    between atoms: N2_6  and  C3_8 
REMARK    3  A    between atoms: C3_8  and  C4_12 
REMARK    4  A    between atoms: C4_12  and  N4_13 
REMARK    5  A    between atoms: C4_12  and  C8_27 
REMARK       I    between atoms: N4_13  and  C5_15 
REMARK    6  A    between atoms: C5_15  and  C6_17 
REMARK    7  A    between atoms: C6_17  and  N5_18 
REMARK    8  A    between atoms: C6_17  and  C7_22 
REMARK    9  A    between atoms: C7_22  and  N6_23 
REMARK       I    between atoms: C8_27  and  N7_29 
REMARK   10  A    between atoms: N7_29  and  N8_31 
REMARK   11  A    between atoms: N8_31  and  C9_33 
ROOT
HETATM    1  C4  UNL     1       0.038   0.910   0.518  1.00  0.00     0.247 C 
ENDROOT
BRANCH   1   2
HETATM    2  C3  UNL     1       1.165   0.153  -0.132  1.00  0.00     0.122 C 
HETATM    3  N3  UNL     1       1.356   0.248  -1.389  1.00  0.00    -0.386 N 
ATOM      4  H32 UNL     1       2.120  -0.265  -1.829  1.00  0.00     0.157 HD
ATOM      5  H31 UNL     1       0.774   0.822  -1.999  1.00  0.00     0.157 HD
BRANCH   2   6
HETATM    6  N2  UNL     1       1.978  -0.649   0.720  1.00  0.00    -0.285 N 
ATOM      7  H2  UNL     1       1.603  -1.022   1.592  1.00  0.00     0.188 HD
BRANCH   6   8
HETATM    8  N1  UNL     1       3.287  -0.916   0.347  1.00  0.00    -0.269 N 
HETATM    9  C2  UNL     1       3.705  -2.206  -0.023  1.00  0.00     0.232 C 
HETATM   10  C1  UNL     1       5.107  -2.461  -0.407  1.00  0.00     0.119 C 
HETATM   11  O1  UNL     1       2.893  -3.168  -0.030  1.00  0.00    -0.272 OA
ATOM     12  H1  UNL     1       3.966  -0.155   0.341  1.00  0.00     0.190 HD
ENDBRANCH   6   8
ENDBRANCH   2   6
ENDBRANCH   1   2
BRANCH   1  13
HETATM   13  N4  UNL     1      -1.182   0.147   0.623  1.00  0.00    -0.340 N 
HETATM   14  C5  UNL     1      -1.425  -1.222   0.559  1.00  0.00     0.251 C 
HETATM   15  O2  UNL     1      -0.590  -2.108   0.365  1.00  0.00    -0.271 OA
ATOM     16  H4  UNL     1      -2.017   0.713   0.771  1.00  0.00     0.163 HD
BRANCH  14  17
HETATM   17  C6  UNL     1      -2.862  -1.667   0.753  1.00  0.00     0.299 C 
BRANCH  17  18
HETATM   18  N5  UNL     1      -2.977  -3.098   0.655  1.00  0.00    -0.065 N 
ATOM     19  H53 UNL     1      -2.590  -3.447  -0.222  1.00  0.00     0.275 HD
ATOM     20  H52 UNL     1      -2.346  -3.571   1.302  1.00  0.00     0.275 HD
ATOM     21  H51 UNL     1      -3.943  -3.397   0.785  1.00  0.00     0.275 HD
ENDBRANCH  17  18
BRANCH  17  22
HETATM   22  C7  UNL     1      -3.696  -0.951  -0.277  1.00  0.00     0.272 C 
BRANCH  22  23
HETATM   23  N6  UNL     1      -5.067  -1.375  -0.065  1.00  0.00    -0.077 N 
ATOM     24  H63 UNL     1      -5.184  -2.388  -0.084  1.00  0.00     0.274 HD
ATOM     25  H62 UNL     1      -5.392  -1.228   0.891  1.00  0.00     0.274 HD
ATOM     26  H61 UNL     1      -5.632  -0.890  -0.762  1.00  0.00     0.274 HD
ENDBRANCH  22  23
ENDBRANCH  17  22
ENDBRANCH  14  17
ENDBRANCH   1  13
BRANCH   1  27
HETATM   27  C8  UNL     1      -0.250   2.180  -0.121  1.00  0.00     0.266 C 
HETATM   28  O3  UNL     1      -1.152   2.252  -0.995  1.00  0.00    -0.269 OA
HETATM   29  N7  UNL     1       0.453   3.376   0.212  1.00  0.00    -0.266 N 
ATOM     30  H7  UNL     1       1.197   3.359   0.909  1.00  0.00     0.190 HD
BRANCH  29  31
HETATM   31  N8  UNL     1       0.106   4.586  -0.436  1.00  0.00    -0.275 N 
ATOM     32  H8  UNL     1      -0.870   4.878  -0.492  1.00  0.00     0.189 HD
BRANCH  31  33
HETATM   33  C9  UNL     1       1.122   5.386  -1.004  1.00  0.00     0.368 C 
HETATM   34  O4  UNL     1       2.312   5.032  -0.938  1.00  0.00    -0.282 OA
ENDBRANCH  31  33
ENDBRANCH  29  31
ENDBRANCH   1  27
TORSDOF 11
