REMARK  7 active torsions:
REMARK  status: ('A' for Active; 'I' for Inactive)
REMARK       I    between atoms: C1_2  and  N2_4 
REMARK    1  A    between atoms: N2_4  and  C2_6 
REMARK    2  A    between atoms: C2_6  and  C3_7 
REMARK    3  A    between atoms: C3_7  and  O2_8 
REMARK    4  A    between atoms: O2_8  and  C4_9 
REMARK    5  A    between atoms: C4_9  and  C5_10 
REMARK    6  A    between atoms: C5_10  and  N3_11 
REMARK       I    between atoms: N3_11  and  C6_12 
REMARK       I    between atoms: C6_12  and  N5_14 
REMARK    7  A    between atoms: C8_21  and  N9_22 
ROOT
HETATM    1  N3  UNL     1      -0.292  -1.722  -0.211  1.00  0.00    -0.416 NA
HETATM    2  C6  UNL     1      -0.513  -2.736   0.352  1.00  0.00     0.263 C 
HETATM    3  N4  UNL     1       0.389  -3.869   0.182  1.00  0.00    -0.049 NA
HETATM    4  N5  UNL     1      -1.643  -2.900   1.222  1.00  0.00    -0.305 N 
ATOM      5  H5  UNL     1      -1.482  -3.374   2.110  1.00  0.00     0.171 HD
HETATM    6  C7  UNL     1      -2.826  -2.506   0.982  1.00  0.00     0.138 C 
HETATM    7  N6  UNL     1      -3.931  -2.694   1.888  1.00  0.00    -0.273 N 
ATOM      8  H6  UNL     1      -3.872  -2.804   2.900  1.00  0.00     0.185 HD
HETATM    9  N7  UNL     1      -5.099  -2.697   1.121  1.00  0.00    -0.028 NA
HETATM   10  N8  UNL     1      -4.740  -2.546  -0.213  1.00  0.00    -0.092 NA
HETATM   11  C8  UNL     1      -3.453  -1.812  -0.175  1.00  0.00     0.265 C 
ENDROOT
BRANCH   1  12
HETATM   12  C5  UNL     1      -0.063  -0.557  -0.841  1.00  0.00     0.247 C 
BRANCH  12  13
HETATM   13  C4  UNL     1       1.323  -0.017  -0.397  1.00  0.00     0.201 C 
BRANCH  13  14
HETATM   14  O2  UNL     1       1.588   1.180  -1.016  1.00  0.00    -0.387 OA
BRANCH  14  15
HETATM   15  C3  UNL     1       2.848   1.620  -0.608  1.00  0.00     0.187 C 
BRANCH  15  16
HETATM   16  C2  UNL     1       3.219   2.933  -1.220  1.00  0.00     0.150 C 
BRANCH  16  17
HETATM   17  N2  UNL     1       4.515   3.429  -0.826  1.00  0.00    -0.343 N 
HETATM   18  C1  UNL     1       5.675   2.692  -1.129  1.00  0.00     0.328 C 
HETATM   19  N1  UNL     1       6.937   3.197  -0.722  1.00  0.00    -0.040 NA
HETATM   20  O1  UNL     1       5.579   1.612  -1.745  1.00  0.00    -0.251 OA
ATOM     21  H2  UNL     1       4.591   4.315  -0.327  1.00  0.00     0.163 HD
ENDBRANCH  16  17
ENDBRANCH  15  16
ENDBRANCH  14  15
ENDBRANCH  13  14
ENDBRANCH  12  13
ENDBRANCH   1  12
BRANCH  11  22
HETATM   22  N9  UNL     1      -3.756  -0.461  -0.017  1.00  0.00    -0.341 N 
HETATM   23  C9  UNL     1      -3.532   0.427   0.836  1.00  0.00     0.198 C 
HETATM   24  N10 UNL     1      -4.060   1.768   0.585  1.00  0.00    -0.067 NA
HETATM   25  N11 UNL     1      -2.813   0.303   2.054  1.00  0.00    -0.067 NA
ATOM     26  H9  UNL     1      -4.302  -0.103  -0.800  1.00  0.00     0.164 HD
ENDBRANCH  11  22
TORSDOF 7
