REMARK  3 active torsions:
REMARK  status: ('A' for Active; 'I' for Inactive)
REMARK       I    between atoms: C2_2  and  N1_4 
REMARK    1  A    between atoms: N1_4  and  C4_6 
REMARK    2  A    between atoms: C12_16  and  C13_17 
REMARK    3  A    between atoms: C13_17  and  C14_18 
ROOT
HETATM    1  C4  UNL     1       4.150   1.279   0.082  1.00  0.00     0.038 A 
HETATM    2  C5  UNL     1       4.115  -0.096   0.167  1.00  0.00     0.031 A 
HETATM    3  C6  UNL     1       2.940  -0.803   0.088  1.00  0.00     0.017 A 
HETATM    4  C7  UNL     1       1.736  -0.211  -0.078  1.00  0.00     0.004 A 
HETATM    5  C8  UNL     1       0.417  -0.625  -0.193  1.00  0.00     0.016 A 
HETATM    6  C9  UNL     1      -0.322   0.527  -0.346  1.00  0.00     0.056 A 
HETATM    7  N2  UNL     1       0.487   1.594  -0.329  1.00  0.00    -0.354 N 
ATOM      8  H2  UNL     1       0.188   2.565  -0.424  1.00  0.00     0.166 HD
HETATM    9  C10 UNL     1       1.751   1.183  -0.167  1.00  0.00     0.046 A 
HETATM   10  C11 UNL     1       2.932   1.887  -0.087  1.00  0.00     0.060 A 
HETATM   11  C12 UNL     1      -1.765   0.216  -0.482  1.00  0.00     0.004 A 
HETATM   12  C21 UNL     1      -1.794  -1.222  -0.389  1.00  0.00    -0.011 A 
HETATM   13  C22 UNL     1      -2.865  -2.100  -0.426  1.00  0.00     0.014 A 
HETATM   14  C23 UNL     1      -2.683  -3.456  -0.301  1.00  0.00     0.013 A 
HETATM   15  C24 UNL     1      -1.416  -3.951  -0.136  1.00  0.00    -0.025 A 
HETATM   16  C25 UNL     1      -1.286  -5.342  -0.013  1.00  0.00     0.012 A 
HETATM   17  C26 UNL     1      -0.057  -5.927   0.157  1.00  0.00     0.001 A 
HETATM   18  C27 UNL     1       1.034  -5.112   0.202  1.00  0.00     0.001 A 
HETATM   19  C28 UNL     1       0.883  -3.724   0.076  1.00  0.00     0.013 A 
HETATM   20  C29 UNL     1      -0.328  -3.111  -0.094  1.00  0.00    -0.014 A 
HETATM   21  C30 UNL     1      -0.501  -1.753  -0.218  1.00  0.00    -0.000 A 
ENDROOT
BRANCH  11  22
HETATM   22  C13 UNL     1      -2.700   1.120  -0.606  1.00  0.00     0.028 C 
BRANCH  22  23
HETATM   23  C14 UNL     1      -4.109   1.067  -0.758  1.00  0.00    -0.006 A 
HETATM   24  C15 UNL     1      -4.924   0.526  -1.708  1.00  0.00     0.102 A 
HETATM   25  N3  UNL     1      -6.217   0.749  -1.409  1.00  0.00    -0.351 N 
HETATM   26  C16 UNL     1      -6.280   1.437  -0.262  1.00  0.00     0.116 A 
ATOM     27  H3  UNL     1      -7.017   0.444  -1.964  1.00  0.00     0.166 HD
HETATM   28  N4  UNL     1      -7.344   1.903   0.453  1.00  0.00    -0.352 N 
HETATM   29  C20 UNL     1      -4.988   1.651   0.169  1.00  0.00     0.020 A 
HETATM   30  C17 UNL     1      -7.097   2.574   1.587  1.00  0.00     0.090 A 
ATOM     31  H4  UNL     1      -8.300   1.745   0.134  1.00  0.00     0.166 HD
HETATM   32  C18 UNL     1      -5.821   2.816   2.063  1.00  0.00     0.018 A 
HETATM   33  C19 UNL     1      -4.756   2.349   1.347  1.00  0.00     0.017 A 
ENDBRANCH  22  23
ENDBRANCH  11  22
BRANCH   1  34
HETATM   34  N1  UNL     1       5.386   1.954   0.170  1.00  0.00    -0.323 N 
HETATM   35  C2  UNL     1       6.436   1.790  -0.770  1.00  0.00     0.220 C 
HETATM   36  C1  UNL     1       7.728   2.514  -0.656  1.00  0.00     0.117 C 
HETATM   37  O1  UNL     1       6.315   1.013  -1.753  1.00  0.00    -0.274 OA
HETATM   38  C3  UNL     1       5.590   2.859   1.277  1.00  0.00     0.159 C 
ENDBRANCH   1  34
TORSDOF 3
