REMARK  4 active torsions:
REMARK  status: ('A' for Active; 'I' for Inactive)
REMARK    1  A    between atoms: C2_2  and  C4_4 
REMARK    2  A    between atoms: C11_13  and  N2_14 
REMARK       I    between atoms: N2_14  and  C12_15 
REMARK       I    between atoms: C12_15  and  N3_17 
REMARK    3  A    between atoms: N3_17  and  C13_19 
REMARK    4  A    between atoms: C23_29  and  C24_30 
ROOT
HETATM    1  C24 UNL     1      -1.819   0.778   0.977  1.00  0.00    -0.019 A 
HETATM    2  C25 UNL     1      -1.132   0.578   2.176  1.00  0.00     0.012 A 
HETATM    3  C26 UNL     1      -0.955   1.645   3.020  1.00  0.00     0.002 A 
HETATM    4  C27 UNL     1      -1.420   2.918   2.749  1.00  0.00     0.023 A 
HETATM    5  C28 UNL     1      -2.102   3.127   1.562  1.00  0.00     0.045 A 
HETATM    6  C29 UNL     1      -2.606   4.442   1.248  1.00  0.00     0.099 C 
HETATM    7  N4  UNL     1      -3.033   5.488   0.998  1.00  0.00    -0.191 NA
HETATM    8  C30 UNL     1      -2.276   2.048   0.720  1.00  0.00     0.035 A 
ENDROOT
BRANCH   1   9
HETATM    9  C23 UNL     1      -2.010  -0.364   0.096  1.00  0.00     0.039 A 
HETATM   10  C4  UNL     1      -3.168  -1.092   0.184  1.00  0.00     0.027 A 
HETATM   11  N1  UNL     1      -3.372  -2.196  -0.597  1.00  0.00    -0.358 N 
HETATM   12  C5  UNL     1      -2.444  -2.609  -1.481  1.00  0.00     0.046 A 
ATOM     13  H1  UNL     1      -4.244  -2.717  -0.508  1.00  0.00     0.166 HD
HETATM   14  C6  UNL     1      -2.709  -3.738  -2.250  1.00  0.00     0.030 A 
HETATM   15  C10 UNL     1      -1.269  -1.924  -1.612  1.00  0.00     0.032 A 
HETATM   16  C7  UNL     1      -1.779  -4.197  -3.174  1.00  0.00     0.002 A 
HETATM   17  C8  UNL     1      -0.604  -3.515  -3.308  1.00  0.00     0.001 A 
HETATM   18  C9  UNL     1      -0.347  -2.377  -2.528  1.00  0.00     0.017 A 
HETATM   19  C11 UNL     1      -1.025  -0.776  -0.819  1.00  0.00     0.138 A 
BRANCH  10  20
HETATM   20  C2  UNL     1      -4.302  -0.717   1.097  1.00  0.00     0.028 C 
HETATM   21  C1  UNL     1      -5.215  -1.901   1.356  1.00  0.00     0.016 C 
HETATM   22  C3  UNL     1      -5.189   0.319   0.418  1.00  0.00     0.016 C 
ENDBRANCH  10  20
BRANCH  19  23
HETATM   23  N2  UNL     1       0.015  -0.204  -0.931  1.00  0.00    -0.350 NA
HETATM   24  C12 UNL     1       1.038   0.651  -0.804  1.00  0.00     0.398 C 
HETATM   25  O1  UNL     1       0.840   1.871  -1.021  1.00  0.00    -0.230 OA
HETATM   26  N3  UNL     1       2.377   0.256  -0.427  1.00  0.00    -0.296 N 
ATOM     27  H3  UNL     1       2.544  -0.736  -0.257  1.00  0.00     0.172 HD
BRANCH  26  28
HETATM   28  C13 UNL     1       3.464   1.128  -0.277  1.00  0.00     0.048 A 
HETATM   29  C14 UNL     1       3.354   2.488  -0.164  1.00  0.00     0.030 A 
HETATM   30  C15 UNL     1       4.439   3.352   0.031  1.00  0.00     0.003 A 
HETATM   31  C16 UNL     1       5.690   2.815   0.117  1.00  0.00     0.012 A 
HETATM   32  C17 UNL     1       5.846   1.450   0.010  1.00  0.00    -0.024 A 
HETATM   33  C18 UNL     1       7.112   0.917   0.091  1.00  0.00     0.012 A 
HETATM   34  C22 UNL     1       4.770   0.593  -0.184  1.00  0.00     0.001 A 
HETATM   35  C19 UNL     1       7.312  -0.437  -0.018  1.00  0.00     0.001 A 
HETATM   36  C20 UNL     1       6.240  -1.279  -0.212  1.00  0.00     0.001 A 
HETATM   37  C21 UNL     1       4.932  -0.758  -0.299  1.00  0.00     0.014 A 
ENDBRANCH  26  28
ENDBRANCH  19  23
ENDBRANCH   1   9
TORSDOF 4
