REMARK  4 active torsions:
REMARK  status: ('A' for Active; 'I' for Inactive)
REMARK    1  A    between atoms: N1_2  and  C2_4 
REMARK    2  A    between atoms: C2_4  and  C3_5 
REMARK    3  A    between atoms: C3_5  and  C6_8 
REMARK    4  A    between atoms: C6_8  and  N2_9 
ROOT
HETATM    1  C3  UNL     1      -1.134  -0.757   0.026  1.00  0.00     0.000 C 
HETATM    2  C4  UNL     1      -0.784  -2.041  -0.769  1.00  0.00     0.022 C 
HETATM    3  C5  UNL     1      -1.125  -1.207   1.484  1.00  0.00     0.022 C 
ENDROOT
BRANCH   1   4
HETATM    4  C2  UNL     1      -2.533  -0.407  -0.390  1.00  0.00     0.065 C 
BRANCH   4   5
HETATM    5  N1  UNL     1      -3.199   0.697   0.123  1.00  0.00    -0.406 N 
HETATM    6  C1  UNL     1      -2.873   2.018  -0.238  1.00  0.00     0.145 C 
ATOM      7  H1  UNL     1      -3.956   0.545   0.789  1.00  0.00     0.158 HD
ENDBRANCH   4   5
ENDBRANCH   1   4
BRANCH   1   8
HETATM    8  C6  UNL     1      -0.157   0.322  -0.284  1.00  0.00     0.136 C 
BRANCH   8   9
HETATM    9  N2  UNL     1       1.207   0.085  -0.000  1.00  0.00    -0.388 N 
HETATM   10  C7  UNL     1       1.657   0.030   1.303  1.00  0.00     0.148 C 
HETATM   11  C8  UNL     1       2.940   0.897   1.380  1.00  0.00     0.187 C 
HETATM   12  O1  UNL     1       3.857   0.273   0.583  1.00  0.00    -0.385 OA
HETATM   13  C9  UNL     1       3.543   0.256  -0.759  1.00  0.00     0.212 C 
HETATM   14  C10 UNL     1       2.102   0.069  -1.070  1.00  0.00     0.084 C 
ENDBRANCH   8   9
ENDBRANCH   1   8
TORSDOF 4
