REMARK  4 active torsions:
REMARK  status: ('A' for Active; 'I' for Inactive)
REMARK    1  A    between atoms: C2_2  and  C3_3 
REMARK    2  A    between atoms: C3_3  and  C4_4 
REMARK    3  A    between atoms: C4_4  and  N1_5 
REMARK    4  A    between atoms: N1_5  and  C5_8 
ROOT
HETATM    1  C5  UNL     1       0.902  -0.219   0.439  1.00  0.00     0.354 C 
HETATM    2  O1  UNL     1       1.181   1.101   0.561  1.00  0.00    -0.356 OA
HETATM    3  C6  UNL     1       1.790   1.773  -0.431  1.00  0.00     0.201 C 
HETATM    4  C7  UNL     1       2.599   0.949  -1.388  1.00  0.00     0.299 C 
HETATM    5  N2  UNL     1       2.963  -0.347  -0.901  1.00  0.00     0.099 N 
HETATM    6  C8  UNL     1       3.734  -0.435   0.296  1.00  0.00     0.275 C 
HETATM    7  C9  UNL     1       2.942  -1.682   0.649  1.00  0.00     0.070 C 
HETATM    8  C10 UNL     1       1.889  -1.076  -0.284  1.00  0.00     0.280 C 
ENDROOT
BRANCH   1   9
HETATM    9  N1  UNL     1      -0.491  -0.500   0.030  1.00  0.00    -0.047 N 
ATOM     10  H12 UNL     1      -0.755  -1.480   0.131  1.00  0.00     0.280 HD
ATOM     11  H11 UNL     1      -0.641  -0.435  -0.977  1.00  0.00     0.280 HD
BRANCH   9  12
HETATM   12  C4  UNL     1      -1.328   0.413   0.804  1.00  0.00     0.235 C 
BRANCH  12  13
HETATM   13  C3  UNL     1      -2.767   0.057   0.783  1.00  0.00     0.027 C 
BRANCH  13  14
HETATM   14  C2  UNL     1      -3.442   0.039  -0.544  1.00  0.00    -0.003 C 
HETATM   15  C1  UNL     1      -4.907  -0.343  -0.238  1.00  0.00     0.005 C 
ENDBRANCH  13  14
ENDBRANCH  12  13
ENDBRANCH   9  12
ENDBRANCH   1   9
TORSDOF 4
