REMARK  4 active torsions:
REMARK  status: ('A' for Active; 'I' for Inactive)
REMARK    1  A    between atoms: N1_1  and  C1_5 
REMARK    2  A    between atoms: C1_5  and  C2_6 
REMARK    3  A    between atoms: C1_5  and  C8_13 
REMARK    4  A    between atoms: C2_6  and  N2_7 
ROOT
HETATM    1  C1  UNL     1       0.968  -0.720   0.304  1.00  0.00     0.266 C 
ENDROOT
BRANCH   1   2
HETATM    2  N1  UNL     1       1.727  -0.752   1.554  1.00  0.00    -0.069 N 
ATOM      3  H13 UNL     1       2.081   0.165   1.827  1.00  0.00     0.275 HD
ATOM      4  H12 UNL     1       1.139  -0.917   2.371  1.00  0.00     0.275 HD
ATOM      5  H11 UNL     1       2.465  -1.448   1.449  1.00  0.00     0.275 HD
ENDBRANCH   1   2
BRANCH   1   6
HETATM    6  C2  UNL     1      -0.110   0.296   0.458  1.00  0.00     0.310 C 
BRANCH   6   7
HETATM    7  N2  UNL     1      -0.954   0.457  -0.682  1.00  0.00     0.090 N 
HETATM    8  C3  UNL     1      -1.948   1.462  -0.403  1.00  0.00     0.272 C 
HETATM    9  C4  UNL     1      -2.916   1.061   0.664  1.00  0.00     0.030 C 
HETATM   10  C5  UNL     1      -3.543  -0.273   0.398  1.00  0.00     0.003 C 
HETATM   11  C6  UNL     1      -2.621  -1.284  -0.184  1.00  0.00     0.030 C 
HETATM   12  C7  UNL     1      -1.609  -0.721  -1.141  1.00  0.00     0.272 C 
ENDBRANCH   6   7
ENDBRANCH   1   6
BRANCH   1  13
HETATM   13  C8  UNL     1       1.941  -0.230  -0.773  1.00  0.00     0.291 C 
HETATM   14  O1  UNL     1       2.425   1.017  -0.485  1.00  0.00    -0.357 OA
HETATM   15  C9  UNL     1       3.798   0.994  -0.569  1.00  0.00     0.197 C 
HETATM   16  C10 UNL     1       4.122  -0.464  -0.349  1.00  0.00     0.197 C 
HETATM   17  O2  UNL     1       3.016  -1.100  -0.902  1.00  0.00    -0.357 OA
ENDBRANCH   1  13
TORSDOF 4
