REMARK  3 active torsions:
REMARK  status: ('A' for Active; 'I' for Inactive)
REMARK    1  A    between atoms: C2_2  and  O1_3 
REMARK    2  A    between atoms: O1_3  and  C3_4 
REMARK       I    between atoms: C3_4  and  N1_6 
REMARK    3  A    between atoms: N1_6  and  O3_8 
ROOT
HETATM    1  C3  UNL     1       0.937  -0.094   0.040  1.00  0.00     0.384 C 
HETATM    2  O2  UNL     1       0.657  -0.821  -0.971  1.00  0.00    -0.236 OA
HETATM    3  N1  UNL     1       2.181  -0.225   0.716  1.00  0.00    -0.213 N 
ATOM      4  H1  UNL     1       2.373   0.372   1.520  1.00  0.00     0.199 HD
ENDROOT
BRANCH   1   5
HETATM    5  O1  UNL     1      -0.036   0.808   0.417  1.00  0.00    -0.303 OA
BRANCH   5   6
HETATM    6  C2  UNL     1      -1.266   0.938  -0.250  1.00  0.00     0.176 C 
HETATM    7  C1  UNL     1      -2.081  -0.332  -0.248  1.00  0.00     0.034 C 
ENDBRANCH   5   6
ENDBRANCH   1   5
BRANCH   3   8
HETATM    8  O3  UNL     1       3.115  -1.116   0.325  1.00  0.00    -0.285 OA
ATOM      9  H3  UNL     1       3.946  -1.204   0.777  1.00  0.00     0.244 HD
ENDBRANCH   3   8
TORSDOF 3
