REMARK  1 active torsions:
REMARK  status: ('A' for Active; 'I' for Inactive)
REMARK    1  A    between atoms: O1_1  and  N1_3 
ROOT
HETATM    1  N1  UNL     1       1.300  -0.119  -0.300  1.00  0.00    -0.206 N 
HETATM    2  C1  UNL     1       0.373  -1.162  -0.525  1.00  0.00     0.176 C 
HETATM    3  C2  UNL     1      -0.914  -1.040   0.254  1.00  0.00     0.026 C 
HETATM    4  C3  UNL     1      -1.434   0.368   0.032  1.00  0.00     0.023 C 
HETATM    5  C4  UNL     1      -0.382   1.312   0.557  1.00  0.00     0.141 C 
HETATM    6  N2  UNL     1       0.817   1.142  -0.208  1.00  0.00    -0.315 N 
ATOM      7  H2  UNL     1       1.282   1.930  -0.659  1.00  0.00     0.182 HD
ENDROOT
BRANCH   1   8
HETATM    8  O1  UNL     1       2.359  -0.418   0.442  1.00  0.00    -0.273 OA
ATOM      9  H1  UNL     1       2.982   0.283   0.593  1.00  0.00     0.246 HD
ENDBRANCH   1   8
TORSDOF 1
