REMARK  3 active torsions:
REMARK  status: ('A' for Active; 'I' for Inactive)
REMARK    1  A    between atoms: C2_2  and  O2_4 
REMARK    2  A    between atoms: O2_4  and  N1_5 
REMARK    3  A    between atoms: N1_5  and  O3_7 
ROOT
HETATM    1  O2  UNL     1      -0.127   0.436  -0.317  1.00  0.00    -0.200 OA
ENDROOT
BRANCH   1   2
HETATM    2  C2  UNL     1      -1.149  -0.443   0.001  1.00  0.00     0.274 C 
HETATM    3  C1  UNL     1      -2.552   0.011   0.047  1.00  0.00     0.128 C 
HETATM    4  O1  UNL     1      -0.859  -1.638   0.251  1.00  0.00    -0.264 OA
ENDBRANCH   1   2
BRANCH   1   5
HETATM    5  N1  UNL     1       1.195   0.030  -0.366  1.00  0.00    -0.067 NA
HETATM    6  C3  UNL     1       2.044   0.847   0.466  1.00  0.00     0.179 C 
BRANCH   5   7
HETATM    7  O3  UNL     1       1.248  -1.237   0.110  1.00  0.00    -0.289 OA
ATOM      8  H3  UNL     1       2.156  -1.516   0.076  1.00  0.00     0.239 HD
ENDBRANCH   5   7
ENDBRANCH   1   5
TORSDOF 3
