REMARK  0 active torsions:
REMARK  status: ('A' for Active; 'I' for Inactive)
ROOT
HETATM    1  C1  UNL     1       1.789  -0.203  -0.042  1.00  0.00     0.024 C 
HETATM    2  C2  UNL     1       0.361  -0.559  -0.195  1.00  0.00     0.078 C 
HETATM    3  C3  UNL     1      -0.543   0.556  -0.591  1.00  0.00     0.147 C 
HETATM    4  N1  UNL     1      -1.501   0.833   0.392  1.00  0.00    -0.135 NA
HETATM    5  N2  UNL     1      -1.966  -0.290   1.010  1.00  0.00    -0.074 NA
HETATM    6  S1  UNL     1      -0.404  -1.086   1.389  1.00  0.00    -0.039 SA
ENDROOT
TORSDOF 0
