REMARK  2 active torsions:
REMARK  status: ('A' for Active; 'I' for Inactive)
REMARK    1  A    between atoms: O1_1  and  C1_3 
REMARK    2  A    between atoms: C1_3  and  N1_5 
ROOT
HETATM    1  C1  UNL     1       0.736  -0.193   0.126  1.00  0.00     0.218 C 
HETATM    2  S1  UNL     1       2.217  -0.862  -0.020  1.00  0.00    -0.033 SA
ENDROOT
BRANCH   1   3
HETATM    3  O1  UNL     1       0.674   1.165   0.329  1.00  0.00    -0.337 OA
ATOM      4  H1  UNL     1      -0.188   1.555   0.414  1.00  0.00     0.220 HD
ENDBRANCH   1   3
BRANCH   1   5
HETATM    5  N1  UNL     1      -0.439  -0.967   0.050  1.00  0.00    -0.291 N 
HETATM    6  S2  UNL     1      -1.989  -0.151   0.221  1.00  0.00     0.045 SA
ATOM      7  H1  UNL     1      -0.392  -1.975  -0.100  1.00  0.00     0.177 HD
ENDBRANCH   1   5
TORSDOF 2
