REMARK  10 active torsions:
REMARK  status: ('A' for Active; 'I' for Inactive)
REMARK    1  A    between atoms: C2_2  and  C3_3 
REMARK    2  A    between atoms: C3_3  and  C4_4 
REMARK    3  A    between atoms: C4_4  and  C5_5 
REMARK    4  A    between atoms: C5_5  and  C6_6 
REMARK    5  A    between atoms: C6_6  and  N1_7 
REMARK    6  A    between atoms: N1_7  and  C7_9 
REMARK    7  A    between atoms: C8_12  and  N3_13 
REMARK       I    between atoms: N3_13  and  C9_15 
REMARK       I    between atoms: C9_15  and  N4_16 
REMARK       I    between atoms: C9_15  and  N5_20 
REMARK    8  A    between atoms: N7_27  and  C11_29 
REMARK    9  A    between atoms: C11_29  and  S1_30 
REMARK   10  A    between atoms: C13_32  and  N8_33 
ROOT
HETATM    1  C7  UNL     1      -0.383   0.925  -0.870  1.00  0.00     0.694 C 
HETATM    2  N2  UNL     1      -0.642   0.014   0.082  1.00  0.00    -0.022 N 
ATOM      3  H2  UNL     1       0.172  -0.387   0.547  1.00  0.00     0.203 HD
HETATM    4  C8  UNL     1      -1.844  -0.439   0.502  1.00  0.00     0.697 C 
HETATM    5  N6  UNL     1      -3.000   0.276   0.481  1.00  0.00    -0.173 N 
ATOM      6  H6  UNL     1      -3.782  -0.151   0.978  1.00  0.00     0.186 HD
HETATM    7  C10 UNL     1      -3.269   1.461  -0.096  1.00  0.00     0.162 C 
HETATM    8  N7  UNL     1      -4.362   2.049   0.223  1.00  0.00    -0.364 N 
ATOM      9  H7  UNL     1      -4.603   2.949  -0.192  1.00  0.00     0.162 HD
HETATM   10  C13 UNL     1      -2.488   2.130  -1.010  1.00  0.00     0.159 C 
HETATM   11  N9  UNL     1      -1.235   1.866  -1.395  1.00  0.00    -0.173 N 
ATOM     12  H9  UNL     1      -0.871   2.427  -2.165  1.00  0.00     0.186 HD
ENDROOT
BRANCH   4  13
HETATM   13  N3  UNL     1      -1.907  -1.629   0.954  1.00  0.00    -0.173 N 
HETATM   14  C9  UNL     1      -0.743  -2.459   1.015  1.00  0.00     0.494 C 
HETATM   15  N4  UNL     1      -0.015  -2.326   2.264  1.00  0.00    -0.032 N 
HETATM   16  N5  UNL     1      -1.239  -3.847   0.985  1.00  0.00    -0.032 N 
ATOM     17  H43 UNL     1       0.224  -1.351   2.444  1.00  0.00     0.278 HD
ATOM     18  H42 UNL     1      -0.627  -2.498   3.062  1.00  0.00     0.278 HD
ATOM     19  H41 UNL     1       0.815  -2.918   2.307  1.00  0.00     0.278 HD
ATOM     20  H53 UNL     1      -1.925  -4.051   1.712  1.00  0.00     0.278 HD
ATOM     21  H52 UNL     1      -1.843  -4.048   0.188  1.00  0.00     0.278 HD
ATOM     22  H51 UNL     1      -0.409  -4.439   1.028  1.00  0.00     0.278 HD
ATOM     23  H3  UNL     1      -2.802  -1.996   1.278  1.00  0.00     0.181 HD
ENDBRANCH   4  13
BRANCH   1  24
HETATM   24  N1  UNL     1       0.753   0.978  -1.384  1.00  0.00    -0.226 N 
ATOM     25  H1  UNL     1       0.905   1.685  -2.103  1.00  0.00     0.177 HD
BRANCH  24  26
HETATM   26  C6  UNL     1       1.862   0.135  -1.055  1.00  0.00     0.138 C 
BRANCH  26  27
HETATM   27  C5  UNL     1       2.713   0.792   0.005  1.00  0.00     0.020 C 
BRANCH  27  28
HETATM   28  C4  UNL     1       3.897  -0.038   0.403  1.00  0.00     0.002 C 
BRANCH  28  29
HETATM   29  C3  UNL     1       4.830  -0.329  -0.733  1.00  0.00    -0.000 C 
BRANCH  29  30
HETATM   30  C2  UNL     1       5.979  -1.157  -0.259  1.00  0.00    -0.005 C 
HETATM   31  C1  UNL     1       6.886  -1.416  -1.461  1.00  0.00     0.005 C 
ENDBRANCH  29  30
ENDBRANCH  28  29
ENDBRANCH  27  28
ENDBRANCH  26  27
ENDBRANCH  24  26
ENDBRANCH   1  24
BRANCH   8  32
HETATM   32  C11 UNL     1      -5.250   1.423   1.178  1.00  0.00     0.195 C 
BRANCH  32  33
HETATM   33  S1  UNL     1      -6.606   2.624   1.467  1.00  0.00    -0.154 SA
HETATM   34  C12 UNL     1      -7.525   2.772  -0.088  1.00  0.00     0.091 C 
ENDBRANCH  32  33
ENDBRANCH   8  32
BRANCH  10  35
HETATM   35  N8  UNL     1      -3.039   3.145  -1.569  1.00  0.00    -0.382 N 
ATOM     36  H82 UNL     1      -3.995   3.346  -1.275  1.00  0.00     0.157 HD
ATOM     37  H81 UNL     1      -2.460   3.641  -2.247  1.00  0.00     0.157 HD
ENDBRANCH  10  35
TORSDOF 10
