REMARK  11 active torsions:
REMARK  status: ('A' for Active; 'I' for Inactive)
REMARK    1  A    between atoms: N1_1  and  C1_5 
REMARK    2  A    between atoms: C1_5  and  C2_6 
REMARK    3  A    between atoms: C2_6  and  C3_7 
REMARK    4  A    between atoms: C3_7  and  S1_8 
REMARK    5  A    between atoms: S1_8  and  C4_9 
REMARK    6  A    between atoms: C4_9  and  C5_10 
REMARK    7  A    between atoms: C5_10  and  N2_11 
REMARK    8  A    between atoms: N2_11  and  C6_13 
REMARK    9  A    between atoms: C9_16  and  C10_17 
REMARK   10  A    between atoms: C13_25  and  O1_26 
REMARK   11  A    between atoms: C14_28  and  N6_29 
ROOT
HETATM    1  C6  UNL     1      -0.071   0.449   0.296  1.00  0.00     0.111 C 
HETATM    2  C7  UNL     1      -0.368  -0.868  -0.338  1.00  0.00     0.028 C 
HETATM    3  C8  UNL     1      -1.600  -1.316   0.498  1.00  0.00     0.011 C 
HETATM    4  C9  UNL     1      -2.443  -0.093   0.479  1.00  0.00     0.043 C 
HETATM    5  C14 UNL     1      -1.510   1.048   0.387  1.00  0.00     0.212 C 
ENDROOT
BRANCH   1   6
HETATM    6  N2  UNL     1       0.777   1.362  -0.323  1.00  0.00    -0.395 N 
ATOM      7  H2  UNL     1       0.438   2.281  -0.608  1.00  0.00     0.159 HD
BRANCH   6   8
HETATM    8  C5  UNL     1       2.109   0.986  -0.544  1.00  0.00     0.066 C 
BRANCH   8   9
HETATM    9  C4  UNL     1       2.433   0.012  -1.615  1.00  0.00     0.118 C 
BRANCH   9  10
HETATM   10  S1  UNL     1       4.244  -0.283  -1.680  1.00  0.00    -0.164 SA
BRANCH  10  11
HETATM   11  C3  UNL     1       4.817  -1.114  -0.181  1.00  0.00     0.076 C 
BRANCH  11  12
HETATM   12  C2  UNL     1       6.312  -1.330  -0.346  1.00  0.00     0.037 C 
BRANCH  12  13
HETATM   13  C1  UNL     1       6.947   0.037  -0.509  1.00  0.00     0.230 C 
BRANCH  13  14
HETATM   14  N1  UNL     1       8.377  -0.049  -0.676  1.00  0.00    -0.079 N 
ATOM     15  H13 UNL     1       8.809  -0.569   0.088  1.00  0.00     0.274 HD
ATOM     16  H12 UNL     1       8.623  -0.666  -1.450  1.00  0.00     0.274 HD
ATOM     17  H11 UNL     1       8.804   0.871  -0.786  1.00  0.00     0.274 HD
ENDBRANCH  13  14
ENDBRANCH  12  13
ENDBRANCH  11  12
ENDBRANCH  10  11
ENDBRANCH   9  10
ENDBRANCH   8   9
ENDBRANCH   6   8
ENDBRANCH   1   6
BRANCH   5  18
HETATM   18  N6  UNL     1      -1.493   1.875   1.577  1.00  0.00    -0.073 N 
ATOM     19  H63 UNL     1      -1.195   1.383   2.419  1.00  0.00     0.274 HD
ATOM     20  H62 UNL     1      -0.752   2.575   1.584  1.00  0.00     0.274 HD
ATOM     21  H61 UNL     1      -2.433   2.266   1.636  1.00  0.00     0.274 HD
ENDBRANCH   5  18
BRANCH   4  22
HETATM   22  C10 UNL     1      -3.470  -0.158  -0.621  1.00  0.00     0.120 C 
HETATM   23  N3  UNL     1      -4.195   1.110  -0.711  1.00  0.00    -0.357 N 
HETATM   24  C11 UNL     1      -5.531   1.260  -0.263  1.00  0.00     0.184 C 
ATOM     25  H3  UNL     1      -3.720   1.918  -1.112  1.00  0.00     0.162 HD
HETATM   26  N4  UNL     1      -5.992   2.425   0.392  1.00  0.00    -0.064 NA
HETATM   27  N5  UNL     1      -6.398   0.280  -0.463  1.00  0.00    -0.362 N 
HETATM   28  C12 UNL     1      -5.763  -0.850  -1.158  1.00  0.00     0.156 C 
ATOM     29  H5  UNL     1      -7.376   0.305  -0.174  1.00  0.00     0.162 HD
HETATM   30  C13 UNL     1      -4.527  -1.192  -0.311  1.00  0.00     0.159 C 
BRANCH  30  31
HETATM   31  O1  UNL     1      -4.205  -2.485  -0.652  1.00  0.00    -0.392 OA
ATOM     32  H1  UNL     1      -4.870  -3.135  -0.457  1.00  0.00     0.210 HD
ENDBRANCH  30  31
ENDBRANCH   4  22
TORSDOF 11
