REMARK  10 active torsions:
REMARK  status: ('A' for Active; 'I' for Inactive)
REMARK    1  A    between atoms: N1_1  and  C1_4 
REMARK    2  A    between atoms: N3_9  and  C3_10 
REMARK    3  A    between atoms: C3_10  and  C4_11 
REMARK    4  A    between atoms: C4_11  and  C5_12 
REMARK    5  A    between atoms: C5_12  and  C6_13 
REMARK    6  A    between atoms: C6_13  and  C7_14 
REMARK    7  A    between atoms: C7_14  and  C8_15 
REMARK    8  A    between atoms: C8_15  and  C9_16 
REMARK    9  A    between atoms: C9_16  and  N4_17 
REMARK   10  A    between atoms: C10_20  and  N6_21 
ROOT
HETATM    1  C5  UNL     1      -0.463  -1.794  -1.348  1.00  0.00     0.002 C 
ENDROOT
BRANCH   1   2
HETATM    2  C4  UNL     1      -1.383  -1.130  -0.348  1.00  0.00     0.020 C 
BRANCH   2   3
HETATM    3  C3  UNL     1      -2.757  -0.930  -0.983  1.00  0.00     0.139 C 
BRANCH   3   4
HETATM    4  N3  UNL     1      -3.667  -0.294  -0.050  1.00  0.00    -0.250 N 
HETATM    5  C2  UNL     1      -3.794   1.045   0.034  1.00  0.00     0.344 A 
HETATM    6  N2  UNL     1      -4.648   1.612   0.909  1.00  0.00    -0.141 N 
HETATM    7  O1  UNL     1      -3.114   1.798  -0.709  1.00  0.00    -0.246 OA
HETATM    8  C1  UNL     1      -5.404   0.864   1.732  1.00  0.00     0.683 A 
ATOM      9  H2  UNL     1      -4.722   2.629   0.948  1.00  0.00     0.189 HD
HETATM   10  N8  UNL     1      -5.292  -0.458   1.664  1.00  0.00    -0.141 N 
HETATM   11  C12 UNL     1      -4.439  -1.024   0.788  1.00  0.00     0.344 A 
ATOM     12  H8  UNL     1      -5.854  -1.047   2.278  1.00  0.00     0.189 HD
HETATM   13  O3  UNL     1      -4.346  -2.275   0.738  1.00  0.00    -0.246 OA
BRANCH   8  14
HETATM   14  N1  UNL     1      -6.213   1.463   2.560  1.00  0.00    -0.234 N 
ATOM     15  H12 UNL     1      -6.299   2.478   2.612  1.00  0.00     0.174 HD
ATOM     16  H11 UNL     1      -6.786   0.896   3.184  1.00  0.00     0.174 HD
ENDBRANCH   8  14
ENDBRANCH   3   4
ENDBRANCH   2   3
ENDBRANCH   1   2
BRANCH   1  17
HETATM   17  C6  UNL     1       0.908  -2.029  -0.810  1.00  0.00     0.000 C 
BRANCH  17  18
HETATM   18  C7  UNL     1       1.606  -0.756  -0.394  1.00  0.00     0.002 C 
BRANCH  18  19
HETATM   19  C8  UNL     1       1.770   0.207  -1.523  1.00  0.00     0.022 C 
BRANCH  19  20
HETATM   20  C9  UNL     1       2.476   1.450  -1.004  1.00  0.00     0.154 C 
BRANCH  20  21
HETATM   21  N4  UNL     1       3.786   1.163  -0.459  1.00  0.00    -0.228 N 
HETATM   22  N5  UNL     1       4.109   0.856   0.782  1.00  0.00    -0.126 N 
HETATM   23  C10 UNL     1       5.436   0.670   0.853  1.00  0.00     0.694 A 
ATOM     24  H5  UNL     1       3.456   0.773   1.561  1.00  0.00     0.206 HD
HETATM   25  N7  UNL     1       5.945   0.863  -0.356  1.00  0.00    -0.139 N 
HETATM   26  C11 UNL     1       4.921   1.168  -1.169  1.00  0.00     0.355 A 
ATOM     27  H7  UNL     1       6.928   0.793  -0.619  1.00  0.00     0.189 HD
HETATM   28  O2  UNL     1       4.996   1.422  -2.406  1.00  0.00    -0.244 OA
BRANCH  23  29
HETATM   29  N6  UNL     1       6.144   0.358   1.890  1.00  0.00    -0.233 N 
ATOM     30  H62 UNL     1       5.752   0.210   2.820  1.00  0.00     0.174 HD
ATOM     31  H61 UNL     1       7.153   0.217   1.944  1.00  0.00     0.174 HD
ENDBRANCH  23  29
ENDBRANCH  20  21
ENDBRANCH  19  20
ENDBRANCH  18  19
ENDBRANCH  17  18
ENDBRANCH   1  17
TORSDOF 10
