REMARK  13 active torsions:
REMARK  status: ('A' for Active; 'I' for Inactive)
REMARK    1  A    between atoms: O1_1  and  C1_3 
REMARK    2  A    between atoms: C5_7  and  C6_8 
REMARK    3  A    between atoms: C6_8  and  C7_9 
REMARK    4  A    between atoms: C7_9  and  C8_10 
REMARK    5  A    between atoms: C8_10  and  C9_11 
REMARK    6  A    between atoms: C9_11  and  O2_12 
REMARK    7  A    between atoms: O2_12  and  C10_13 
REMARK    8  A    between atoms: C10_13  and  C11_14 
REMARK    9  A    between atoms: C12_15  and  O3_16 
REMARK   10  A    between atoms: C13_18  and  O4_19 
REMARK   11  A    between atoms: C14_21  and  O5_22 
REMARK   12  A    between atoms: C15_24  and  O6_25 
REMARK   13  A    between atoms: C16_27  and  O7_28 
ROOT
HETATM    1  C11 UNL     1      -2.446   0.169  -0.653  1.00  0.00     0.072 C 
HETATM    2  C12 UNL     1      -3.343   1.316  -0.875  1.00  0.00     0.158 C 
HETATM    3  C13 UNL     1      -4.588   1.434  -0.113  1.00  0.00     0.178 C 
HETATM    4  C14 UNL     1      -4.968   0.269   0.743  1.00  0.00     0.180 C 
HETATM    5  C15 UNL     1      -3.777  -0.494   1.270  1.00  0.00     0.178 C 
HETATM    6  C16 UNL     1      -3.010  -0.999   0.098  1.00  0.00     0.158 C 
ENDROOT
BRANCH   1   7
HETATM    7  C10 UNL     1      -1.175   0.588   0.076  1.00  0.00     0.177 C 
BRANCH   7   8
HETATM    8  O2  UNL     1      -0.430   1.522  -0.576  1.00  0.00    -0.391 OA
BRANCH   8   9
HETATM    9  C9  UNL     1      -0.014   1.114  -1.802  1.00  0.00     0.167 C 
BRANCH   9  10
HETATM   10  C8  UNL     1       0.836  -0.122  -1.751  1.00  0.00     0.026 C 
BRANCH  10  11
HETATM   11  C7  UNL     1       2.081   0.148  -0.903  1.00  0.00     0.002 C 
BRANCH  11  12
HETATM   12  C6  UNL     1       2.876  -1.137  -0.901  1.00  0.00     0.007 C 
BRANCH  12  13
HETATM   13  C5  UNL     1       4.142  -1.054  -0.109  1.00  0.00     0.014 C 
HETATM   14  C1  UNL     1       5.103  -0.016  -0.589  1.00  0.00     0.122 C 
HETATM   15  C2  UNL     1       5.959   0.317   0.629  1.00  0.00     0.032 C 
HETATM   16  C3  UNL     1       5.298  -0.356   1.808  1.00  0.00     0.003 C 
HETATM   17  C4  UNL     1       3.883  -0.595   1.327  1.00  0.00     0.007 C 
BRANCH  14  18
HETATM   18  O1  UNL     1       5.884  -0.523  -1.625  1.00  0.00    -0.395 OA
ATOM     19  H1  UNL     1       5.351  -0.730  -2.384  1.00  0.00     0.210 HD
ENDBRANCH  14  18
ENDBRANCH  12  13
ENDBRANCH  11  12
ENDBRANCH  10  11
ENDBRANCH   9  10
ENDBRANCH   8   9
ENDBRANCH   7   8
ENDBRANCH   1   7
BRANCH   2  20
HETATM   20  O3  UNL     1      -3.683   1.339  -2.253  1.00  0.00    -0.392 OA
ATOM     21  H3  UNL     1      -4.262   2.079  -2.396  1.00  0.00     0.210 HD
ENDBRANCH   2  20
BRANCH   6  22
HETATM   22  O7  UNL     1      -3.731  -1.866  -0.707  1.00  0.00    -0.392 OA
ATOM     23  H7  UNL     1      -4.088  -2.606  -0.231  1.00  0.00     0.210 HD
ENDBRANCH   6  22
BRANCH   3  24
HETATM   24  O4  UNL     1      -5.701   1.716  -0.936  1.00  0.00    -0.390 OA
ATOM     25  H4  UNL     1      -6.509   1.793  -0.442  1.00  0.00     0.210 HD
ENDBRANCH   3  24
BRANCH   5  26
HETATM   26  O6  UNL     1      -4.323  -1.612   1.949  1.00  0.00    -0.390 OA
ATOM     27  H6  UNL     1      -3.573  -2.092   2.281  1.00  0.00     0.210 HD
ENDBRANCH   5  26
BRANCH   4  28
HETATM   28  O5  UNL     1      -5.744   0.630   1.844  1.00  0.00    -0.390 OA
ATOM     29  H5  UNL     1      -5.986  -0.110   2.388  1.00  0.00     0.210 HD
ENDBRANCH   4  28
TORSDOF 13
