REMARK  1 active torsions:
REMARK  status: ('A' for Active; 'I' for Inactive)
REMARK    1  A    between atoms: C10_11  and  N1_12 
ROOT
HETATM    1  C1  UNL     1      -3.119   0.928  -1.168  1.00  0.00     0.020 C 
HETATM    2  C2  UNL     1      -2.134   0.744  -0.055  1.00  0.00     0.009 C 
HETATM    3  C3  UNL     1      -2.716   0.971   1.348  1.00  0.00     0.181 C 
HETATM    4  O1  UNL     1      -1.781  -0.008   1.767  1.00  0.00    -0.379 OA
HETATM    5  C4  UNL     1      -2.040  -0.629   0.530  1.00  0.00     0.067 C 
HETATM    6  C5  UNL     1      -3.306  -1.396   0.598  1.00  0.00     0.047 C 
HETATM    7  C6  UNL     1      -0.919  -1.427  -0.037  1.00  0.00     0.043 C 
HETATM    8  C7  UNL     1       0.430  -0.708   0.128  1.00  0.00    -0.008 C 
HETATM    9  C8  UNL     1       1.466  -1.531  -0.528  1.00  0.00     0.007 C 
HETATM   10  C9  UNL     1       2.854  -1.388  -0.039  1.00  0.00     0.033 C 
HETATM   11  C10 UNL     1       3.352  -0.085   0.365  1.00  0.00     0.183 C 
HETATM   12  C11 UNL     1       2.394   1.057   0.448  1.00  0.00     0.033 C 
HETATM   13  C12 UNL     1       1.576   1.294  -0.771  1.00  0.00     0.007 C 
HETATM   14  C13 UNL     1       0.284   0.571  -0.666  1.00  0.00    -0.009 C 
HETATM   15  C14 UNL     1      -0.831   1.439  -0.170  1.00  0.00     0.019 C 
ENDROOT
BRANCH  11  16
HETATM   16  N1  UNL     1       4.462   0.357  -0.502  1.00  0.00    -0.075 N 
ATOM     17  H13 UNL     1       5.210  -0.336  -0.535  1.00  0.00     0.274 HD
ATOM     18  H12 UNL     1       4.195   0.347  -1.486  1.00  0.00     0.274 HD
ATOM     19  H11 UNL     1       4.812   1.272  -0.218  1.00  0.00     0.274 HD
ENDBRANCH  11  16
TORSDOF 1
