REMARK  1 active torsions:
REMARK  status: ('A' for Active; 'I' for Inactive)
REMARK    1  A    between atoms: C10_11  and  O2_13 
ROOT
HETATM    1  C1  UNL     1       1.865  -1.026   1.339  1.00  0.00     0.018 C 
HETATM    2  C2  UNL     1       1.043  -0.571   0.134  1.00  0.00    -0.017 C 
HETATM    3  C3  UNL     1       1.726  -1.213  -1.083  1.00  0.00     0.014 C 
HETATM    4  C4  UNL     1       2.697  -0.297  -1.736  1.00  0.00     0.027 C 
HETATM    5  C5  UNL     1       3.350   0.694  -0.848  1.00  0.00     0.168 C 
HETATM    6  O1  UNL     1       2.559   1.191   0.161  1.00  0.00    -0.385 OA
HETATM    7  C6  UNL     1       1.208   0.899  -0.047  1.00  0.00     0.130 C 
HETATM    8  C7  UNL     1       0.366   1.690   0.915  1.00  0.00     0.038 C 
HETATM    9  C8  UNL     1      -1.055   1.301   0.895  1.00  0.00     0.002 C 
HETATM   10  C9  UNL     1      -1.767   1.589  -0.409  1.00  0.00     0.043 C 
HETATM   11  C10 UNL     1      -2.489   0.270  -0.226  1.00  0.00     0.062 C 
HETATM   12  C11 UNL     1      -2.519  -0.492  -1.501  1.00  0.00     0.046 C 
HETATM   13  C12 UNL     1      -1.371  -0.128   0.744  1.00  0.00    -0.009 C 
HETATM   14  C13 UNL     1      -2.049  -0.644   2.023  1.00  0.00     0.019 C 
HETATM   15  C14 UNL     1      -0.358  -1.045   0.251  1.00  0.00     0.024 C 
ENDROOT
BRANCH  11  16
HETATM   16  O2  UNL     1      -3.725   0.431   0.343  1.00  0.00    -0.389 OA
ATOM     17  H2  UNL     1      -4.178  -0.396   0.458  1.00  0.00     0.210 HD
ENDBRANCH  11  16
TORSDOF 1
