REMARK  1 active torsions:
REMARK  status: ('A' for Active; 'I' for Inactive)
REMARK    1  A    between atoms: C9_10  and  O2_11 
ROOT
HETATM    1  C1  UNL     1      -3.133   0.453  -0.701  1.00  0.00     0.017 C 
HETATM    2  C2  UNL     1      -1.935   0.345   0.174  1.00  0.00    -0.020 C 
HETATM    3  C3  UNL     1      -1.818   1.588   1.012  1.00  0.00     0.017 C 
HETATM    4  C4  UNL     1      -2.010  -0.832   1.146  1.00  0.00     0.177 C 
HETATM    5  O1  UNL     1      -0.643  -1.113   1.375  1.00  0.00    -0.379 OA
HETATM    6  C5  UNL     1      -0.180  -1.194   0.065  1.00  0.00     0.061 C 
HETATM    7  C6  UNL     1      -0.894  -2.405  -0.552  1.00  0.00     0.046 C 
HETATM    8  C7  UNL     1       1.266  -1.491   0.083  1.00  0.00     0.040 C 
HETATM    9  C8  UNL     1       2.004  -0.627   1.054  1.00  0.00     0.034 C 
HETATM   10  C9  UNL     1       2.830   0.448   0.483  1.00  0.00     0.118 C 
HETATM   11  C10 UNL     1       2.690   0.752  -0.961  1.00  0.00     0.032 C 
HETATM   12  C11 UNL     1       1.395   1.110  -1.516  1.00  0.00     0.003 C 
HETATM   13  C12 UNL     1       0.226   1.221  -0.592  1.00  0.00     0.009 C 
HETATM   14  C13 UNL     1      -0.660   0.014  -0.572  1.00  0.00     0.030 C 
ENDROOT
BRANCH  10  15
HETATM   15  O2  UNL     1       2.757   1.604   1.300  1.00  0.00    -0.396 OA
ATOM     16  H2  UNL     1       3.290   2.298   0.931  1.00  0.00     0.210 HD
ENDBRANCH  10  15
TORSDOF 1
