REMARK  1 active torsions:
REMARK  status: ('A' for Active; 'I' for Inactive)
REMARK    1  A    between atoms: C5_6  and  O1_7 
ROOT
HETATM    1  C1  UNL     1       0.491  -2.931   0.158  1.00  0.00     0.012 C 
HETATM    2  C2  UNL     1       0.428  -1.414   0.394  1.00  0.00     0.006 C 
HETATM    3  C3  UNL     1       1.850  -0.944   0.056  1.00  0.00     0.126 C 
HETATM    4  C4  UNL     1       2.797  -1.659   0.909  1.00  0.00     0.067 C 
HETATM    5  N1  UNL     1       3.560  -2.221   1.572  1.00  0.00    -0.197 NA
HETATM    6  C5  UNL     1       1.899   0.542   0.281  1.00  0.00     0.144 C 
HETATM    7  C6  UNL     1       0.861   1.209  -0.573  1.00  0.00    -0.016 C 
HETATM    8  C7  UNL     1       1.624   2.123  -1.543  1.00  0.00     0.018 C 
HETATM    9  C8  UNL     1      -0.129   1.981   0.238  1.00  0.00     0.012 C 
HETATM   10  C9  UNL     1      -1.507   1.463   0.231  1.00  0.00     0.010 C 
HETATM   11  C10 UNL     1      -1.662  -0.025   0.220  1.00  0.00    -0.044 C 
HETATM   12  C11 UNL     1      -2.971  -0.285  -0.549  1.00  0.00     0.015 C 
HETATM   13  C12 UNL     1      -1.933  -0.559   1.618  1.00  0.00     0.015 C 
HETATM   14  C13 UNL     1      -0.575  -0.753  -0.487  1.00  0.00    -0.001 C 
HETATM   15  C14 UNL     1       0.099   0.231  -1.439  1.00  0.00     0.017 C 
ENDROOT
BRANCH   6  16
HETATM   16  O1  UNL     1       1.707   0.800   1.648  1.00  0.00    -0.393 OA
ATOM     17  H1  UNL     1       1.738   1.739   1.790  1.00  0.00     0.210 HD
ENDBRANCH   6  16
TORSDOF 1
