REMARK  1 active torsions:
REMARK  status: ('A' for Active; 'I' for Inactive)
REMARK    1  A    between atoms: C3_3  and  O1_4 
ROOT
HETATM    1  C1  UNL     1       1.834  -1.302  -1.240  1.00  0.00     0.014 C 
HETATM    2  C2  UNL     1       1.153  -1.030   0.085  1.00  0.00     0.029 C 
HETATM    3  C3  UNL     1       2.024  -0.190   0.964  1.00  0.00     0.124 C 
HETATM    4  C4  UNL     1       2.359   1.151   0.496  1.00  0.00     0.042 C 
HETATM    5  C5  UNL     1       1.694   1.705  -0.690  1.00  0.00     0.077 C 
HETATM    6  S1  UNL     1       0.062   1.080  -1.078  1.00  0.00    -0.158 SA
HETATM    7  C6  UNL     1      -0.194  -0.452  -0.186  1.00  0.00     0.018 C 
HETATM    8  C7  UNL     1      -1.098  -1.457  -0.818  1.00  0.00     0.026 C 
HETATM    9  C8  UNL     1      -2.191  -0.989   0.148  1.00  0.00    -0.007 C 
HETATM   10  C9  UNL     1      -3.013   0.068  -0.505  1.00  0.00     0.005 C 
HETATM   11  C10 UNL     1      -2.813   1.321   0.288  1.00  0.00     0.001 C 
HETATM   12  C11 UNL     1      -1.595   1.140   1.146  1.00  0.00     0.006 C 
HETATM   13  C12 UNL     1      -1.120  -0.273   0.969  1.00  0.00     0.009 C 
ENDROOT
BRANCH   3  14
HETATM   14  O1  UNL     1       3.174  -0.979   1.213  1.00  0.00    -0.395 OA
ATOM     15  H1  UNL     1       3.727  -0.445   1.771  1.00  0.00     0.210 HD
ENDBRANCH   3  14
TORSDOF 1
