REMARK  1 active torsions:
REMARK  status: ('A' for Active; 'I' for Inactive)
REMARK    1  A    between atoms: C4_4  and  O1_5 
ROOT
HETATM    1  C1  UNL     1       3.145  -1.927   0.228  1.00  0.00     0.040 C 
HETATM    2  C2  UNL     1       2.127  -1.020  -0.355  1.00  0.00     0.121 C 
HETATM    3  C3  UNL     1       2.110   0.361   0.298  1.00  0.00     0.073 C 
HETATM    4  C4  UNL     1       0.759   0.869  -0.227  1.00  0.00     0.095 C 
HETATM    5  C5  UNL     1       0.201   1.961   0.588  1.00  0.00     0.019 C 
HETATM    6  C6  UNL     1      -0.506   2.962  -0.336  1.00  0.00     0.013 C 
HETATM    7  C7  UNL     1      -0.715   1.558   1.687  1.00  0.00     0.008 C 
HETATM    8  C8  UNL     1      -1.766   0.644   1.128  1.00  0.00     0.012 C 
HETATM    9  C9  UNL     1      -1.235  -0.540   0.417  1.00  0.00    -0.010 C 
HETATM   10  C10 UNL     1      -1.088  -1.671   1.445  1.00  0.00     0.018 C 
HETATM   11  C11 UNL     1      -2.343  -1.017  -0.533  1.00  0.00     0.012 C 
HETATM   12  C12 UNL     1      -1.528  -1.591  -1.669  1.00  0.00     0.004 C 
HETATM   13  C13 UNL     1      -0.444  -0.548  -1.825  1.00  0.00     0.042 C 
HETATM   14  C14 UNL     1      -0.011  -0.365  -0.364  1.00  0.00     0.100 C 
HETATM   15  O2  UNL     1       0.845  -1.460  -0.106  1.00  0.00    -0.371 OA
ENDROOT
BRANCH   4  16
HETATM   16  O1  UNL     1       1.055   1.409  -1.502  1.00  0.00    -0.386 OA
ATOM     17  H1  UNL     1       0.219   1.723  -1.827  1.00  0.00     0.210 HD
ENDBRANCH   4  16
TORSDOF 1
