REMARK  3 active torsions:
REMARK  status: ('A' for Active; 'I' for Inactive)
REMARK    1  A    between atoms: C4_4  and  C6_6 
REMARK    2  A    between atoms: C8_11  and  C9_12 
REMARK    3  A    between atoms: C10_13  and  C11_14 
ROOT
HETATM    1  C1  UNL     1      -0.261   2.437  -1.211  1.00  0.00     0.046 C 
HETATM    2  C2  UNL     1      -0.950   1.273  -0.599  1.00  0.00    -0.042 C 
HETATM    3  C3  UNL     1      -2.259   1.051  -0.540  1.00  0.00     0.033 C 
HETATM    4  C4  UNL     1      -2.462  -0.263   0.179  1.00  0.00     0.250 C 
HETATM    5  C5  UNL     1      -2.519   0.083   1.653  1.00  0.00     0.069 C 
HETATM    6  N1  UNL     1      -1.234  -0.937  -0.168  1.00  0.00     0.040 N 
HETATM    7  C7  UNL     1      -0.978  -2.109   0.605  1.00  0.00     0.359 C 
HETATM    8  O2  UNL     1      -1.263  -1.232  -1.477  1.00  0.00    -0.062 OA
HETATM    9  C8  UNL     1      -0.278   0.126   0.070  1.00  0.00     0.307 C 
ENDROOT
BRANCH   9  10
HETATM   10  C9  UNL     1       1.056  -0.166  -0.504  1.00  0.00     0.017 C 
HETATM   11  C10 UNL     1       2.102   0.416   0.063  1.00  0.00    -0.012 C 
BRANCH  11  12
HETATM   12  C11 UNL     1       3.459   0.146  -0.486  1.00  0.00     0.077 C 
HETATM   13  C12 UNL     1       4.038  -1.129   0.090  1.00  0.00     0.026 C 
HETATM   14  S1  UNL     1       4.592   1.507  -0.023  1.00  0.00    -0.089 SA
ENDBRANCH  11  12
ENDBRANCH   9  10
BRANCH   4  15
HETATM   15  C6  UNL     1      -3.666  -0.918  -0.310  1.00  0.00     0.283 C 
HETATM   16  O1  UNL     1      -4.757  -0.445  -0.082  1.00  0.00    -0.303 OA
ENDBRANCH   4  15
TORSDOF 3
