REMARK  4 active torsions:
REMARK  status: ('A' for Active; 'I' for Inactive)
REMARK    1  A    between atoms: C2_2  and  C3_3 
REMARK    2  A    between atoms: C7_8  and  C8_9 
REMARK    3  A    between atoms: C8_9  and  O2_10 
REMARK    4  A    between atoms: C9_12  and  N1_13 
ROOT
HETATM    1  C3  UNL     1      -1.044   1.275  -0.053  1.00  0.00     0.046 C 
HETATM    2  C4  UNL     1      -2.533   1.039   0.224  1.00  0.00     0.043 C 
HETATM    3  C5  UNL     1      -2.673  -0.164   1.093  1.00  0.00     0.131 C 
HETATM    4  O1  UNL     1      -1.489  -0.284   1.838  1.00  0.00    -0.377 OA
HETATM    5  C6  UNL     1      -0.960  -1.008   0.743  1.00  0.00     0.164 C 
HETATM    6  C7  UNL     1      -2.347  -1.412   0.361  1.00  0.00     0.069 C 
HETATM    7  C9  UNL     1      -0.310  -0.012  -0.182  1.00  0.00     0.259 C 
ENDROOT
BRANCH   7   8
HETATM    8  N1  UNL     1       1.088   0.008   0.076  1.00  0.00     0.096 N 
HETATM    9  C10 UNL     1       1.560  -1.383   0.069  1.00  0.00     0.273 C 
HETATM   10  C11 UNL     1       2.887  -1.554  -0.616  1.00  0.00     0.030 C 
HETATM   11  C12 UNL     1       3.898  -0.505  -0.293  1.00  0.00     0.003 C 
HETATM   12  C13 UNL     1       3.260   0.848  -0.357  1.00  0.00     0.030 C 
HETATM   13  C14 UNL     1       1.875   0.666  -0.944  1.00  0.00     0.273 C 
ENDBRANCH   7   8
BRANCH   1  14
HETATM   14  C2  UNL     1      -0.575   2.198   0.998  1.00  0.00    -0.030 C 
HETATM   15  C1  UNL     1      -0.166   3.405   0.645  1.00  0.00     0.007 C 
ENDBRANCH   1  14
BRANCH   6  16
HETATM   16  C8  UNL     1      -2.721  -1.508  -1.067  1.00  0.00     0.173 C 
BRANCH  16  17
HETATM   17  O2  UNL     1      -4.128  -1.367  -1.182  1.00  0.00    -0.400 OA
ATOM     18  H2  UNL     1      -4.368  -1.429  -2.099  1.00  0.00     0.209 HD
ENDBRANCH  16  17
ENDBRANCH   6  16
TORSDOF 4
