REMARK  3 active torsions:
REMARK  status: ('A' for Active; 'I' for Inactive)
REMARK    1  A    between atoms: C2_2  and  C4_4 
REMARK    2  A    between atoms: C4_4  and  C5_5 
REMARK    3  A    between atoms: C5_5  and  C6_6 
ROOT
HETATM    1  C6  UNL     1       0.668   0.629   0.077  1.00  0.00     0.143 C 
HETATM    2  C7  UNL     1       1.399  -0.303  -0.824  1.00  0.00     0.135 C 
HETATM    3  C8  UNL     1       1.367  -1.740  -0.513  1.00  0.00     0.047 C 
HETATM    4  C9  UNL     1       0.964  -0.107  -2.265  1.00  0.00     0.047 C 
HETATM    5  N1  UNL     1       2.806   0.138  -0.803  1.00  0.00    -0.065 N 
ATOM      6  H11 UNL     1       2.875   1.135  -1.008  1.00  0.00     0.278 HD
ATOM      7  H12 UNL     1       3.314  -0.236  -1.605  1.00  0.00     0.278 HD
HETATM    8  C10 UNL     1       3.481  -0.175   0.411  1.00  0.00     0.248 C 
HETATM    9  C11 UNL     1       3.087   0.712   1.581  1.00  0.00     0.168 C 
HETATM   10  S1  UNL     1       1.307   0.566   1.732  1.00  0.00     0.152 S 
HETATM   11  O1  UNL     1       0.891  -0.623   2.491  1.00  0.00    -0.227 OA
HETATM   12  O2  UNL     1       0.793   1.789   2.448  1.00  0.00    -0.227 OA
ENDROOT
BRANCH   1  13
HETATM   13  C5  UNL     1      -0.809   0.628   0.015  1.00  0.00     0.023 C 
BRANCH  13  14
HETATM   14  C4  UNL     1      -1.514  -0.632   0.327  1.00  0.00     0.005 C 
BRANCH  14  15
HETATM   15  C2  UNL     1      -3.011  -0.396   0.203  1.00  0.00    -0.023 C 
HETATM   16  C1  UNL     1      -3.404   0.043  -1.185  1.00  0.00     0.009 C 
HETATM   17  C3  UNL     1      -3.503   0.633   1.179  1.00  0.00     0.009 C 
ENDBRANCH  14  15
ENDBRANCH  13  14
ENDBRANCH   1  13
TORSDOF 3
