REMARK  2 active torsions:
REMARK  status: ('A' for Active; 'I' for Inactive)
REMARK    1  A    between atoms: N2_5  and  N3_6 
REMARK    2  A    between atoms: N3_6  and  C4_8 
ROOT
HETATM    1  C1  UNL     1       4.246  -0.657   0.079  1.00  0.00     0.143 C 
HETATM    2  N1  UNL     1       2.929  -0.104   0.077  1.00  0.00    -0.200 NA
HETATM    3  C2  UNL     1       1.903  -1.044   0.483  1.00  0.00     0.136 C 
HETATM    4  C3  UNL     1       0.911  -1.092  -0.688  1.00  0.00     0.130 C 
HETATM    5  N2  UNL     1       0.366   0.213  -0.823  1.00  0.00    -0.232 NA
HETATM    6  C9  UNL     1       1.318   1.222  -1.169  1.00  0.00     0.141 C 
HETATM    7  C10 UNL     1       1.824   1.874   0.091  1.00  0.00     0.210 C 
HETATM    8  O1  UNL     1       2.826   1.092   0.647  1.00  0.00    -0.303 OA
ENDROOT
BRANCH   5   9
HETATM    9  N3  UNL     1      -0.516   0.597   0.146  1.00  0.00    -0.350 N 
ATOM     10  H3  UNL     1      -0.482   1.519   0.582  1.00  0.00     0.174 HD
BRANCH   9  11
HETATM   11  C4  UNL     1      -1.487  -0.382   0.505  1.00  0.00     0.094 C 
HETATM   12  C5  UNL     1      -2.281  -0.732  -0.739  1.00  0.00     0.026 C 
HETATM   13  C6  UNL     1      -3.550   0.086  -0.631  1.00  0.00     0.002 C 
HETATM   14  C7  UNL     1      -3.866  -0.063   0.850  1.00  0.00     0.002 C 
HETATM   15  C8  UNL     1      -2.525   0.158   1.477  1.00  0.00     0.026 C 
ENDBRANCH   9  11
ENDBRANCH   5   9
TORSDOF 2
