REMARK  13 active torsions:
REMARK  status: ('A' for Active; 'I' for Inactive)
REMARK    1  A    between atoms: N1_2  and  C2_3 
REMARK    2  A    between atoms: N1_2  and  C5_10 
REMARK    3  A    between atoms: C2_3  and  C3_4 
REMARK    4  A    between atoms: C3_4  and  C4_5 
REMARK    5  A    between atoms: C4_5  and  N2_6 
REMARK    6  A    between atoms: C5_10  and  C6_11 
REMARK    7  A    between atoms: C6_11  and  C7_12 
REMARK    8  A    between atoms: C7_12  and  C8_13 
REMARK    9  A    between atoms: C8_13  and  C9_14 
REMARK   10  A    between atoms: N3_15  and  C10_17 
REMARK   11  A    between atoms: N7_28  and  C14_29 
REMARK   12  A    between atoms: C15_30  and  O1_31 
REMARK   13  A    between atoms: C16_33  and  O2_34 
ROOT
HETATM    1  C10 UNL     1      -1.513  -0.437  -0.217  1.00  0.00     0.685 A 
HETATM    2  N4  UNL     1      -1.404  -1.574  -0.930  1.00  0.00    -0.174 N 
ATOM      3  H4  UNL     1      -0.472  -1.967  -1.061  1.00  0.00     0.186 HD
HETATM    4  C11 UNL     1      -2.441  -2.224  -1.480  1.00  0.00     0.145 A 
HETATM    5  N5  UNL     1      -2.259  -3.319  -2.156  1.00  0.00    -0.383 N 
ATOM      6  H51 UNL     1      -3.047  -3.813  -2.574  1.00  0.00     0.157 HD
ATOM      7  H52 UNL     1      -1.325  -3.708  -2.285  1.00  0.00     0.157 HD
HETATM    8  C12 UNL     1      -3.701  -1.699  -1.306  1.00  0.00     0.123 A 
HETATM    9  N6  UNL     1      -4.913  -2.093  -1.702  1.00  0.00    -0.346 N 
ATOM     10  H6  UNL     1      -5.129  -2.921  -2.257  1.00  0.00     0.167 HD
HETATM   11  C13 UNL     1      -5.788  -1.203  -1.237  1.00  0.00     0.185 A 
HETATM   12  N7  UNL     1      -5.168  -0.233  -0.544  1.00  0.00    -0.319 N 
HETATM   13  C20 UNL     1      -3.831  -0.529  -0.576  1.00  0.00     0.155 A 
HETATM   14  N8  UNL     1      -2.782   0.082  -0.050  1.00  0.00    -0.174 N 
ATOM     15  H8  UNL     1      -2.911   0.942   0.483  1.00  0.00     0.186 HD
ENDROOT
BRANCH   1  16
HETATM   16  N3  UNL     1      -0.595   0.188   0.323  1.00  0.00    -0.205 N 
HETATM   17  C9  UNL     1       0.750   0.182   0.525  1.00  0.00     0.079 C 
ATOM     18  H3  UNL     1      -0.989   1.007   0.786  1.00  0.00     0.183 HD
BRANCH  17  19
HETATM   19  C8  UNL     1       1.549  -1.068   0.448  1.00  0.00     0.045 C 
BRANCH  19  20
HETATM   20  C7  UNL     1       3.005  -0.805   0.860  1.00  0.00     0.010 C 
BRANCH  20  21
HETATM   21  C6  UNL     1       3.678   0.150  -0.018  1.00  0.00     0.044 C 
BRANCH  21  22
HETATM   22  C5  UNL     1       5.101   0.507   0.312  1.00  0.00     0.057 C 
BRANCH  22  23
HETATM   23  N1  UNL     1       5.995  -0.545   0.304  1.00  0.00    -0.398 N 
HETATM   24  C1  UNL     1       5.998  -1.541   1.298  1.00  0.00     0.148 C 
BRANCH  23  25
HETATM   25  C2  UNL     1       7.127  -0.522  -0.549  1.00  0.00     0.123 C 
BRANCH  25  26
HETATM   26  C3  UNL     1       8.425  -0.141   0.083  1.00  0.00     0.047 C 
BRANCH  26  27
HETATM   27  C4  UNL     1       8.435   1.246   0.672  1.00  0.00     0.231 C 
BRANCH  27  28
HETATM   28  N2  UNL     1       8.213   2.266  -0.329  1.00  0.00    -0.079 N 
ATOM     29  H23 UNL     1       8.883   2.185  -1.093  1.00  0.00     0.274 HD
ATOM     30  H22 UNL     1       7.353   2.092  -0.849  1.00  0.00     0.274 HD
ATOM     31  H21 UNL     1       8.220   3.205   0.070  1.00  0.00     0.274 HD
ENDBRANCH  27  28
ENDBRANCH  26  27
ENDBRANCH  25  26
ENDBRANCH  23  25
ENDBRANCH  22  23
ENDBRANCH  21  22
ENDBRANCH  20  21
ENDBRANCH  19  20
ENDBRANCH  17  19
ENDBRANCH   1  16
BRANCH  12  32
HETATM   32  C14 UNL     1      -5.746   0.893   0.120  1.00  0.00     0.128 C 
HETATM   33  C15 UNL     1      -6.676   0.470   1.243  1.00  0.00     0.170 C 
HETATM   34  C16 UNL     1      -8.026   1.065   0.937  1.00  0.00     0.153 C 
HETATM   35  C17 UNL     1      -7.747   2.174  -0.050  1.00  0.00     0.024 A 
HETATM   36  C18 UNL     1      -7.673   1.651  -1.504  1.00  0.00     0.015 A 
HETATM   37  C19 UNL     1      -6.459   1.874  -0.731  1.00  0.00     0.018 A 
BRANCH  33  38
HETATM   38  O1  UNL     1      -6.685  -0.913   1.306  1.00  0.00    -0.391 OA
ATOM     39  H1  UNL     1      -7.267  -1.178   2.009  1.00  0.00     0.210 HD
ENDBRANCH  33  38
BRANCH  34  40
HETATM   40  O2  UNL     1      -8.704   1.506   2.054  1.00  0.00    -0.393 OA
ATOM     41  H2  UNL     1      -9.555   1.881   1.861  1.00  0.00     0.210 HD
ENDBRANCH  34  40
ENDBRANCH  12  32
TORSDOF 13
