REMARK  12 active torsions:
REMARK  status: ('A' for Active; 'I' for Inactive)
REMARK    1  A    between atoms: N1_1  and  C1_4 
REMARK    2  A    between atoms: C6_19  and  C7_20 
REMARK    3  A    between atoms: C7_20  and  N6_21 
REMARK    4  A    between atoms: N6_21  and  C8_24 
REMARK    5  A    between atoms: C8_24  and  C9_25 
REMARK    6  A    between atoms: C9_25  and  C10_26 
REMARK    7  A    between atoms: C10_26  and  C11_27 
REMARK    8  A    between atoms: C11_27  and  C12_28 
REMARK    9  A    between atoms: C12_28  and  C13_29 
REMARK   10  A    between atoms: C13_29  and  C14_30 
REMARK   11  A    between atoms: C14_30  and  S1_31 
REMARK   12  A    between atoms: S1_31  and  C15_32 
ROOT
HETATM    1  C7  UNL     1      -3.181  -0.386   1.262  1.00  0.00     0.263 C 
ENDROOT
BRANCH   1   2
HETATM    2  C6  UNL     1      -4.347   0.560   1.604  1.00  0.00     0.164 A 
HETATM    3  C2  UNL     1      -5.086   0.744   0.343  1.00  0.00     0.083 A 
HETATM    4  N2  UNL     1      -4.402   1.368  -0.661  1.00  0.00    -0.191 N 
HETATM    5  C3  UNL     1      -6.378   0.295   0.186  1.00  0.00     0.131 A 
HETATM    6  C1  UNL     1      -5.022   1.545  -1.840  1.00  0.00     0.679 A 
ATOM      7  H2  UNL     1      -3.445   1.691  -0.520  1.00  0.00     0.184 HD
HETATM    8  N3  UNL     1      -6.284   1.116  -2.023  1.00  0.00    -0.154 N 
HETATM    9  C4  UNL     1      -6.978   0.498  -1.045  1.00  0.00     0.288 A 
ATOM     10  H3  UNL     1      -6.730   1.262  -2.929  1.00  0.00     0.187 HD
HETATM   11  O1  UNL     1      -8.155   0.087  -1.184  1.00  0.00    -0.265 OA
HETATM   12  N4  UNL     1      -7.094  -0.338   1.240  1.00  0.00    -0.302 N 
HETATM   13  C5  UNL     1      -6.452  -0.509   2.492  1.00  0.00     0.321 A 
ATOM     14  H4  UNL     1      -8.050  -0.662   1.097  1.00  0.00     0.171 HD
HETATM   15  O2  UNL     1      -7.091  -1.075   3.430  1.00  0.00    -0.247 OA
HETATM   16  N5  UNL     1      -5.130  -0.044   2.648  1.00  0.00    -0.331 N 
ATOM     17  H5  UNL     1      -4.698  -0.143   3.567  1.00  0.00     0.165 HD
BRANCH   6  18
HETATM   18  N1  UNL     1      -4.417   2.132  -2.825  1.00  0.00    -0.234 N 
ATOM     19  H12 UNL     1      -3.460   2.457  -2.686  1.00  0.00     0.174 HD
ATOM     20  H11 UNL     1      -4.888   2.266  -3.720  1.00  0.00     0.174 HD
ENDBRANCH   6  18
ENDBRANCH   1   2
BRANCH   1  21
HETATM   21  N6  UNL     1      -2.409  -0.615   2.460  1.00  0.00    -0.073 N 
ATOM     22  H62 UNL     1      -2.073   0.262   2.858  1.00  0.00     0.277 HD
ATOM     23  H61 UNL     1      -3.002  -0.923   3.230  1.00  0.00     0.277 HD
BRANCH  21  24
HETATM   24  C8  UNL     1      -1.329  -1.533   2.233  1.00  0.00     0.232 C 
BRANCH  24  25
HETATM   25  C9  UNL     1      -0.277  -0.886   1.336  1.00  0.00     0.027 C 
BRANCH  25  26
HETATM   26  C10 UNL     1       0.830  -1.878   1.126  1.00  0.00     0.002 C 
BRANCH  26  27
HETATM   27  C11 UNL     1       1.923  -1.281   0.281  1.00  0.00     0.000 C 
BRANCH  27  28
HETATM   28  C12 UNL     1       1.391  -0.878  -1.046  1.00  0.00     0.001 C 
BRANCH  28  29
HETATM   29  C13 UNL     1       2.320  -0.295  -2.041  1.00  0.00     0.010 C 
BRANCH  29  30
HETATM   30  C14 UNL     1       3.459  -1.085  -2.529  1.00  0.00     0.076 C 
BRANCH  30  31
HETATM   31  S1  UNL     1       4.754  -1.541  -1.406  1.00  0.00    -0.136 SA
BRANCH  31  32
HETATM   32  C15 UNL     1       5.825  -0.208  -0.883  1.00  0.00     0.208 C 
HETATM   33  C16 UNL     1       5.177   0.838  -0.019  1.00  0.00     0.275 C 
HETATM   34  N7  UNL     1       6.225   1.554   0.685  1.00  0.00    -0.070 N 
HETATM   35  C17 UNL     1       7.422   1.536  -0.082  1.00  0.00     0.258 C 
ATOM     36  H72 UNL     1       5.942   2.503   0.931  1.00  0.00     0.277 HD
ATOM     37  H71 UNL     1       6.369   1.193   1.628  1.00  0.00     0.277 HD
HETATM   38  C18 UNL     1       7.176   1.527  -1.576  1.00  0.00     0.197 C 
HETATM   39  O3  UNL     1       6.485   0.388  -1.969  1.00  0.00    -0.372 OA
ENDBRANCH  31  32
ENDBRANCH  30  31
ENDBRANCH  29  30
ENDBRANCH  28  29
ENDBRANCH  27  28
ENDBRANCH  26  27
ENDBRANCH  25  26
ENDBRANCH  24  25
ENDBRANCH  21  24
ENDBRANCH   1  21
TORSDOF 12
