REMARK  15 active torsions:
REMARK  status: ('A' for Active; 'I' for Inactive)
REMARK    1  A    between atoms: O1_1  and  C1_3 
REMARK    2  A    between atoms: C1_3  and  C2_4 
REMARK    3  A    between atoms: C2_4  and  N1_5 
REMARK    4  A    between atoms: N1_5  and  C3_8 
REMARK    5  A    between atoms: C3_8  and  C4_9 
REMARK    6  A    between atoms: C4_9  and  N2_10 
REMARK    7  A    between atoms: N2_10  and  C5_12 
REMARK    8  A    between atoms: C5_12  and  C6_13 
REMARK    9  A    between atoms: C6_13  and  C7_14 
REMARK   10  A    between atoms: C7_14  and  O2_15 
REMARK   11  A    between atoms: O2_15  and  C8_16 
REMARK   12  A    between atoms: C9_18  and  C10_19 
REMARK   13  A    between atoms: C20_29  and  C21_30 
REMARK   14  A    between atoms: C21_30  and  O4_31 
REMARK   15  A    between atoms: C22_33  and  O5_34 
ROOT
HETATM    1  C8  UNL     1      -0.031   0.417   1.613  1.00  0.00     0.289 C 
HETATM    2  O3  UNL     1      -0.755  -0.130   0.594  1.00  0.00    -0.352 OA
HETATM    3  C9  UNL     1      -1.473   0.863  -0.089  1.00  0.00     0.142 C 
HETATM    4  C20 UNL     1      -1.159   2.101   0.561  1.00  0.00     0.073 C 
HETATM    5  C22 UNL     1      -0.841   1.642   1.974  1.00  0.00     0.181 C 
ENDROOT
BRANCH   1   6
HETATM    6  O2  UNL     1       1.237   0.687   1.148  1.00  0.00    -0.358 OA
BRANCH   6   7
HETATM    7  C7  UNL     1       2.244   0.013   1.808  1.00  0.00     0.176 C 
BRANCH   7   8
HETATM    8  C6  UNL     1       2.247  -1.450   1.738  1.00  0.00     0.070 C 
BRANCH   8   9
HETATM    9  C5  UNL     1       2.339  -2.145   0.427  1.00  0.00     0.057 C 
BRANCH   9  10
HETATM   10  N2  UNL     1       3.437  -1.977  -0.409  1.00  0.00    -0.401 N 
ATOM     11  H2  UNL     1       4.098  -2.748  -0.497  1.00  0.00     0.158 HD
BRANCH  10  12
HETATM   12  C4  UNL     1       3.684  -0.809  -1.135  1.00  0.00     0.146 C 
BRANCH  12  13
HETATM   13  C3  UNL     1       4.980  -0.901  -1.955  1.00  0.00     0.251 C 
BRANCH  13  14
HETATM   14  N1  UNL     1       6.136  -1.132  -1.159  1.00  0.00    -0.072 N 
ATOM     15  H12 UNL     1       6.934  -1.406  -1.733  1.00  0.00     0.277 HD
ATOM     16  H11 UNL     1       6.040  -1.982  -0.603  1.00  0.00     0.277 HD
BRANCH  14  17
HETATM   17  C2  UNL     1       6.449  -0.003  -0.336  1.00  0.00     0.258 C 
BRANCH  17  18
HETATM   18  C1  UNL     1       6.925   1.201  -1.150  1.00  0.00     0.191 C 
BRANCH  18  19
HETATM   19  O1  UNL     1       8.073   0.857  -1.861  1.00  0.00    -0.399 OA
ATOM     20  H1  UNL     1       8.369   1.605  -2.367  1.00  0.00     0.209 HD
ENDBRANCH  18  19
ENDBRANCH  17  18
ENDBRANCH  14  17
ENDBRANCH  13  14
ENDBRANCH  12  13
ENDBRANCH  10  12
ENDBRANCH   9  10
ENDBRANCH   8   9
ENDBRANCH   7   8
ENDBRANCH   6   7
ENDBRANCH   1   6
BRANCH   5  21
HETATM   21  O5  UNL     1      -0.093   2.583   2.666  1.00  0.00    -0.390 OA
ATOM     22  H5  UNL     1      -0.602   3.353   2.893  1.00  0.00     0.210 HD
ENDBRANCH   5  21
BRANCH   3  23
HETATM   23  C10 UNL     1      -2.835   0.308  -0.243  1.00  0.00    -0.013 C 
HETATM   24  C11 UNL     1      -3.595  -0.001   0.999  1.00  0.00     0.017 C 
HETATM   25  C12 UNL     1      -4.907  -0.665   0.676  1.00  0.00    -0.013 C 
HETATM   26  C13 UNL     1      -4.618  -2.052   0.163  1.00  0.00     0.009 C 
HETATM   27  C17 UNL     1      -5.702   0.075  -0.362  1.00  0.00     0.009 C 
HETATM   28  C14 UNL     1      -3.754  -1.900  -1.064  1.00  0.00    -0.013 C 
HETATM   29  C15 UNL     1      -4.598  -1.245  -2.139  1.00  0.00     0.009 C 
HETATM   30  C19 UNL     1      -2.523  -1.106  -0.815  1.00  0.00     0.017 C 
HETATM   31  C16 UNL     1      -4.898   0.137  -1.666  1.00  0.00    -0.013 C 
HETATM   32  C18 UNL     1      -3.648   0.940  -1.329  1.00  0.00     0.017 C 
ENDBRANCH   3  23
BRANCH   4  33
HETATM   33  C21 UNL     1      -1.888   3.351   0.437  1.00  0.00     0.174 C 
BRANCH  33  34
HETATM   34  O4  UNL     1      -1.876   3.771  -0.895  1.00  0.00    -0.400 OA
ATOM     35  H4  UNL     1      -2.353   4.589  -0.976  1.00  0.00     0.209 HD
ENDBRANCH  33  34
ENDBRANCH   4  33
TORSDOF 15
