REMARK  14 active torsions:
REMARK  status: ('A' for Active; 'I' for Inactive)
REMARK    1  A    between atoms: C2_2  and  C3_3 
REMARK    2  A    between atoms: C3_3  and  C4_4 
REMARK    3  A    between atoms: C4_4  and  C5_5 
REMARK    4  A    between atoms: C5_5  and  C6_6 
REMARK    5  A    between atoms: C6_6  and  C7_7 
REMARK    6  A    between atoms: C7_7  and  N1_8 
REMARK       I    between atoms: N1_8  and  C8_10 
REMARK       I    between atoms: C8_10  and  N2_11 
REMARK    7  A    between atoms: N2_11  and  C9_13 
REMARK    8  A    between atoms: C9_13  and  C10_14 
REMARK    9  A    between atoms: C11_15  and  O1_16 
REMARK   10  A    between atoms: N4_21  and  C13_23 
REMARK   11  A    between atoms: C13_23  and  C14_24 
REMARK   12  A    between atoms: C14_24  and  C15_25 
REMARK   13  A    between atoms: C15_25  and  C16_26 
REMARK   14  A    between atoms: C16_26  and  N5_27 
ROOT
HETATM    1  N1  UNL     1      -3.086   0.337   0.484  1.00  0.00    -0.225 N 
ATOM      2  H1  UNL     1      -3.432   1.297   0.475  1.00  0.00     0.177 HD
HETATM    3  C8  UNL     1      -2.232  -0.096  -0.546  1.00  0.00     0.686 C 
HETATM    4  N2  UNL     1      -0.822   0.097  -0.310  1.00  0.00    -0.200 N 
ATOM      5  H2  UNL     1      -0.220  -0.715  -0.174  1.00  0.00     0.183 HD
HETATM    6  N7  UNL     1      -2.566  -0.626  -1.643  1.00  0.00    -0.126 N 
ATOM      7  H7  UNL     1      -3.562  -0.762  -1.818  1.00  0.00     0.197 HD
HETATM    8  C19 UNL     1      -1.675  -1.039  -2.633  1.00  0.00     0.196 C 
HETATM    9  N8  UNL     1      -0.913  -1.379  -3.449  1.00  0.00    -0.171 NA
ENDROOT
BRANCH   1  10
HETATM   10  C7  UNL     1      -3.480  -0.538   1.542  1.00  0.00     0.138 C 
BRANCH  10  11
HETATM   11  C6  UNL     1      -4.431  -1.598   1.190  1.00  0.00     0.020 C 
BRANCH  11  12
HETATM   12  C5  UNL     1      -5.828  -1.264   0.814  1.00  0.00     0.002 C 
BRANCH  12  13
HETATM   13  C4  UNL     1      -5.981  -0.402  -0.377  1.00  0.00     0.000 C 
BRANCH  13  14
HETATM   14  C3  UNL     1      -7.455  -0.135  -0.708  1.00  0.00    -0.000 C 
BRANCH  14  15
HETATM   15  C2  UNL     1      -8.158   0.551   0.416  1.00  0.00    -0.005 C 
HETATM   16  C1  UNL     1      -9.619   0.790   0.009  1.00  0.00     0.005 C 
ENDBRANCH  14  15
ENDBRANCH  13  14
ENDBRANCH  12  13
ENDBRANCH  11  12
ENDBRANCH  10  11
ENDBRANCH   1  10
BRANCH   4  17
HETATM   17  C9  UNL     1      -0.312   1.279  -0.269  1.00  0.00     0.127 C 
BRANCH  17  18
HETATM   18  C10 UNL     1       1.119   1.392  -0.026  1.00  0.00     0.099 C 
HETATM   19  C11 UNL     1       1.844   0.232   0.146  1.00  0.00     0.159 C 
HETATM   20  N3  UNL     1       3.204   0.075   0.203  1.00  0.00    -0.318 N 
HETATM   21  C12 UNL     1       4.167   0.920  -0.198  1.00  0.00     0.172 C 
ATOM     22  H3  UNL     1       3.529  -0.804   0.605  1.00  0.00     0.169 HD
HETATM   23  N4  UNL     1       5.346   0.461  -0.358  1.00  0.00    -0.372 N 
HETATM   24  C17 UNL     1       4.024   2.263  -0.464  1.00  0.00     0.292 C 
ATOM     25  H4  UNL     1       6.096   1.082  -0.661  1.00  0.00     0.161 HD
HETATM   26  O2  UNL     1       5.040   2.782  -0.991  1.00  0.00    -0.264 OA
HETATM   27  N6  UNL     1       2.946   3.047  -0.226  1.00  0.00    -0.286 N 
HETATM   28  C18 UNL     1       1.655   2.673   0.012  1.00  0.00     0.264 C 
ATOM     29  H6  UNL     1       3.122   4.052  -0.224  1.00  0.00     0.172 HD
HETATM   30  O3  UNL     1       0.827   3.555   0.302  1.00  0.00    -0.267 OA
BRANCH  19  31
HETATM   31  O1  UNL     1       1.091  -0.910   0.276  1.00  0.00    -0.345 OA
ATOM     32  H1  UNL     1       1.591  -1.709   0.395  1.00  0.00     0.219 HD
ENDBRANCH  19  31
BRANCH  23  33
HETATM   33  C13 UNL     1       5.622  -0.926  -0.113  1.00  0.00     0.121 C 
BRANCH  33  34
HETATM   34  C14 UNL     1       7.063  -1.236  -0.509  1.00  0.00     0.021 C 
BRANCH  34  35
HETATM   35  C15 UNL     1       8.012  -0.384   0.303  1.00  0.00     0.029 C 
BRANCH  35  36
HETATM   36  C16 UNL     1       9.416  -0.748  -0.144  1.00  0.00     0.229 C 
BRANCH  36  37
HETATM   37  N5  UNL     1      10.423  -0.009   0.549  1.00  0.00    -0.079 N 
ATOM     38  H53 UNL     1      10.262   0.995   0.468  1.00  0.00     0.274 HD
ATOM     39  H52 UNL     1      10.322  -0.111   1.559  1.00  0.00     0.274 HD
ATOM     40  H51 UNL     1      11.367  -0.254   0.249  1.00  0.00     0.274 HD
ENDBRANCH  36  37
ENDBRANCH  35  36
ENDBRANCH  34  35
ENDBRANCH  33  34
ENDBRANCH  23  33
ENDBRANCH  17  18
ENDBRANCH   4  17
TORSDOF 14
