REMARK  6 active torsions:
REMARK  status: ('A' for Active; 'I' for Inactive)
REMARK    1  A    between atoms: O1_2  and  C2_3 
REMARK    2  A    between atoms: C4_5  and  C5_6 
REMARK    3  A    between atoms: C7_8  and  O2_9 
REMARK    4  A    between atoms: C17_20  and  O4_21 
REMARK    5  A    between atoms: C23_28  and  O5_29 
REMARK    6  A    between atoms: C25_31  and  O6_32 
ROOT
HETATM    1  C5  UNL     1       0.431  -0.119   0.032  1.00  0.00    -0.022 A 
HETATM    2  C6  UNL     1      -0.236  -1.350   0.088  1.00  0.00     0.050 A 
HETATM    3  C7  UNL     1      -1.625  -1.446   0.045  1.00  0.00     0.081 A 
HETATM    4  C9  UNL     1      -2.298  -0.272  -0.048  1.00  0.00     0.019 A 
HETATM    5  C10 UNL     1      -1.663   0.976  -0.115  1.00  0.00    -0.015 A 
HETATM    6  C11 UNL     1      -0.311   1.035  -0.071  1.00  0.00     0.025 A 
HETATM    7  C12 UNL     1      -2.257   2.211  -0.378  1.00  0.00    -0.047 C 
HETATM    8  C13 UNL     1      -1.537   3.357   0.153  1.00  0.00     0.049 C 
HETATM    9  C14 UNL     1      -3.428   2.358  -1.128  1.00  0.00     0.063 C 
HETATM   10  C15 UNL     1      -4.407   1.443  -1.450  1.00  0.00     0.186 C 
HETATM   11  O3  UNL     1      -5.164   1.611  -2.402  1.00  0.00    -0.287 OA
HETATM   12  C16 UNL     1      -4.632   0.269  -0.743  1.00  0.00     0.058 A 
HETATM   13  C17 UNL     1      -5.936  -0.101  -0.668  1.00  0.00     0.080 A 
HETATM   14  C18 UNL     1      -6.306  -1.167   0.123  1.00  0.00     0.037 A 
HETATM   15  C19 UNL     1      -5.338  -1.854   0.841  1.00  0.00     0.004 A 
HETATM   16  C20 UNL     1      -4.000  -1.509   0.790  1.00  0.00     0.013 A 
HETATM   17  C21 UNL     1      -3.670  -0.461  -0.005  1.00  0.00    -0.005 A 
ENDROOT
BRANCH   1  18
HETATM   18  C4  UNL     1       1.888  -0.044   0.082  1.00  0.00    -0.020 A 
HETATM   19  C3  UNL     1       2.510   1.042   0.648  1.00  0.00     0.052 A 
HETATM   20  C2  UNL     1       3.887   1.169   0.724  1.00  0.00     0.105 A 
HETATM   21  C25 UNL     1       4.640   0.138   0.196  1.00  0.00     0.135 A 
HETATM   22  C23 UNL     1       4.055  -0.984  -0.389  1.00  0.00     0.105 A 
HETATM   23  C22 UNL     1       2.698  -1.039  -0.427  1.00  0.00     0.052 A 
BRANCH  20  24
HETATM   24  O1  UNL     1       4.498   2.275   1.301  1.00  0.00    -0.353 OA
HETATM   25  C1  UNL     1       3.679   3.303   1.827  1.00  0.00     0.210 C 
ENDBRANCH  20  24
BRANCH  21  26
HETATM   26  O6  UNL     1       6.028   0.257   0.268  1.00  0.00    -0.351 OA
HETATM   27  C26 UNL     1       6.763   0.881  -0.781  1.00  0.00     0.210 C 
ENDBRANCH  21  26
BRANCH  22  28
HETATM   28  O5  UNL     1       4.909  -1.941  -0.878  1.00  0.00    -0.353 OA
HETATM   29  C24 UNL     1       4.541  -3.134  -1.498  1.00  0.00     0.210 C 
ENDBRANCH  22  28
ENDBRANCH   1  18
BRANCH   3  30
HETATM   30  O2  UNL     1      -2.259  -2.653   0.080  1.00  0.00    -0.355 OA
HETATM   31  C8  UNL     1      -1.599  -3.918   0.163  1.00  0.00     0.210 C 
ENDBRANCH   3  30
BRANCH  13  32
HETATM   32  O4  UNL     1      -6.831   0.654  -1.425  1.00  0.00    -0.360 OA
ATOM     33  H4  UNL     1      -7.744   0.395  -1.373  1.00  0.00     0.217 HD
ENDBRANCH  13  32
TORSDOF 6
