REMARK  6 active torsions:
REMARK  status: ('A' for Active; 'I' for Inactive)
REMARK    1  A    between atoms: C2_2  and  C3_3 
REMARK    2  A    between atoms: C3_3  and  N1_4 
REMARK    3  A    between atoms: C6_11  and  C7_12 
REMARK    4  A    between atoms: N3_14  and  C9_15 
REMARK    5  A    between atoms: C15_23  and  C16_24 
REMARK    6  A    between atoms: C19_27  and  N5_28 
ROOT
HETATM    1  C7  UNL     1      -0.600  -0.120   0.482  1.00  0.00     0.012 A 
HETATM    2  C8  UNL     1      -0.831  -1.474   0.355  1.00  0.00     0.130 A 
HETATM    3  N3  UNL     1      -2.131  -1.689   0.081  1.00  0.00    -0.266 N 
HETATM    4  N4  UNL     1      -2.703  -0.488   0.035  1.00  0.00    -0.293 N 
ATOM      5  H4  UNL     1      -3.692  -0.330  -0.156  1.00  0.00     0.187 HD
HETATM    6  C15 UNL     1      -1.811   0.490   0.272  1.00  0.00     0.070 A 
ENDROOT
BRANCH   1   7
HETATM    7  C6  UNL     1       0.704   0.464   0.766  1.00  0.00     0.040 C 
HETATM    8  C5  UNL     1       1.807   0.091   0.168  1.00  0.00     0.077 C 
HETATM    9  S1  UNL     1       1.918  -1.177  -1.089  1.00  0.00    -0.049 SA
HETATM   10  C22 UNL     1       3.144   0.564   0.344  1.00  0.00     0.267 C 
HETATM   11  C4  UNL     1       3.487  -0.535  -1.742  1.00  0.00     0.148 C 
HETATM   12  N1  UNL     1       4.028   0.221  -0.683  1.00  0.00    -0.290 N 
HETATM   13  N2  UNL     1       3.900  -0.784  -2.918  1.00  0.00    -0.379 N 
ATOM     14  H22 UNL     1       4.781  -0.424  -3.285  1.00  0.00     0.158 HD
ATOM     15  H21 UNL     1       3.508  -1.331  -3.685  1.00  0.00     0.158 HD
HETATM   16  O3  UNL     1       3.475   1.245   1.373  1.00  0.00    -0.266 OA
BRANCH  12  17
HETATM   17  C3  UNL     1       5.456   0.594  -0.695  1.00  0.00     0.161 C 
BRANCH  17  18
HETATM   18  C2  UNL     1       6.194  -0.500  -0.046  1.00  0.00    -0.017 C 
HETATM   19  C1  UNL     1       6.912  -0.314   1.036  1.00  0.00     0.008 C 
ENDBRANCH  17  18
ENDBRANCH  12  17
ENDBRANCH   1   7
BRANCH   6  20
HETATM   20  C16 UNL     1      -2.018   1.930   0.285  1.00  0.00    -0.007 A 
HETATM   21  C17 UNL     1      -3.137   2.421   0.912  1.00  0.00     0.016 A 
HETATM   22  C18 UNL     1      -3.424   3.774   0.965  1.00  0.00     0.037 A 
HETATM   23  C19 UNL     1      -2.558   4.665   0.369  1.00  0.00     0.102 A 
HETATM   24  C20 UNL     1      -1.422   4.181  -0.268  1.00  0.00     0.037 A 
HETATM   25  C21 UNL     1      -1.155   2.828  -0.309  1.00  0.00     0.016 A 
BRANCH  23  26
HETATM   26  N5  UNL     1      -2.854   6.046   0.419  1.00  0.00    -0.116 N 
HETATM   27  O1  UNL     1      -3.879   6.456   0.975  1.00  0.00    -0.532 OA
HETATM   28  O2  UNL     1      -1.998   6.940  -0.160  1.00  0.00    -0.532 OA
ENDBRANCH  23  26
ENDBRANCH   6  20
BRANCH   3  29
HETATM   29  C9  UNL     1      -2.748  -2.954  -0.121  1.00  0.00     0.056 A 
HETATM   30  C10 UNL     1      -2.580  -4.039   0.708  1.00  0.00     0.031 A 
HETATM   31  C11 UNL     1      -3.231  -5.247   0.430  1.00  0.00     0.002 A 
HETATM   32  C12 UNL     1      -4.048  -5.378  -0.670  1.00  0.00     0.000 A 
HETATM   33  C13 UNL     1      -4.206  -4.293  -1.484  1.00  0.00     0.002 A 
HETATM   34  C14 UNL     1      -3.579  -3.090  -1.237  1.00  0.00     0.031 A 
ENDBRANCH   3  29
TORSDOF 6
