REMARK  8 active torsions:
REMARK  status: ('A' for Active; 'I' for Inactive)
REMARK    1  A    between atoms: C2_2  and  O1_3 
REMARK    2  A    between atoms: O1_3  and  C3_4 
REMARK    3  A    between atoms: C3_4  and  C4_6 
REMARK    4  A    between atoms: C4_6  and  N1_7 
REMARK       I    between atoms: N1_7  and  C5_9 
REMARK    5  A    between atoms: C5_9  and  O4_11 
REMARK    6  A    between atoms: O4_11  and  C6_12 
REMARK    7  A    between atoms: C17_23  and  C18_24 
REMARK    8  A    between atoms: C23_29  and  O5_30 
ROOT
HETATM    1  C4  UNL     1       0.374   0.268  -0.325  1.00  0.00     0.199 C 
HETATM    2  C10 UNL     1       0.502   1.573   0.400  1.00  0.00     0.074 C 
HETATM    3  C11 UNL     1      -0.436   1.672   1.567  1.00  0.00    -0.031 C 
HETATM    4  C12 UNL     1       0.267   0.956   2.721  1.00  0.00     0.016 C 
HETATM    5  C13 UNL     1      -0.496   3.146   1.980  1.00  0.00     0.016 C 
HETATM    6  C14 UNL     1      -1.835   1.222   1.346  1.00  0.00     0.003 C 
HETATM    7  C15 UNL     1      -2.434   0.811   2.684  1.00  0.00     0.022 C 
HETATM    8  C16 UNL     1      -2.672   2.432   0.865  1.00  0.00     0.022 C 
HETATM    9  C17 UNL     1      -1.989   0.126   0.369  1.00  0.00     0.029 C 
HETATM   10  N2  UNL     1      -0.967  -0.215  -0.306  1.00  0.00    -0.357 N 
ATOM     11  H2  UNL     1      -1.140  -0.980  -0.958  1.00  0.00     0.162 HD
ENDROOT
BRANCH   1  12
HETATM   12  C3  UNL     1       0.786   0.446  -1.770  1.00  0.00     0.308 C 
HETATM   13  O2  UNL     1       1.653  -0.250  -2.328  1.00  0.00    -0.260 OA
BRANCH  12  14
HETATM   14  O1  UNL     1       0.152   1.437  -2.480  1.00  0.00    -0.318 OA
BRANCH  14  15
HETATM   15  C2  UNL     1       0.409   1.742  -3.832  1.00  0.00     0.174 C 
HETATM   16  C1  UNL     1      -0.499   2.887  -4.231  1.00  0.00     0.034 C 
ENDBRANCH  14  15
ENDBRANCH  12  14
ENDBRANCH   1  12
BRANCH   1  17
HETATM   17  N1  UNL     1       1.216  -0.770   0.207  1.00  0.00    -0.301 N 
HETATM   18  C5  UNL     1       2.628  -0.746   0.301  1.00  0.00     0.363 C 
HETATM   19  O3  UNL     1       3.251   0.258  -0.101  1.00  0.00    -0.238 OA
ATOM     20  H1  UNL     1       0.748  -1.608   0.551  1.00  0.00     0.167 HD
BRANCH  18  21
HETATM   21  O4  UNL     1       3.362  -1.798   0.827  1.00  0.00    -0.294 OA
BRANCH  21  22
HETATM   22  C6  UNL     1       4.751  -1.813   0.937  1.00  0.00     0.061 C 
HETATM   23  C7  UNL     1       5.161  -3.128   1.555  1.00  0.00     0.046 C 
HETATM   24  C8  UNL     1       5.277  -0.672   1.794  1.00  0.00     0.046 C 
HETATM   25  C9  UNL     1       5.372  -1.739  -0.444  1.00  0.00     0.046 C 
ENDBRANCH  21  22
ENDBRANCH  18  21
ENDBRANCH   1  17
BRANCH   9  26
HETATM   26  C18 UNL     1      -3.266  -0.586   0.114  1.00  0.00     0.020 A 
HETATM   27  C19 UNL     1      -4.466  -0.301   0.697  1.00  0.00     0.016 A 
HETATM   28  C20 UNL     1      -5.619  -1.050   0.441  1.00  0.00     0.001 A 
HETATM   29  C21 UNL     1      -5.550  -2.107  -0.426  1.00  0.00     0.003 A 
HETATM   30  C22 UNL     1      -4.342  -2.397  -1.018  1.00  0.00     0.037 A 
HETATM   31  C23 UNL     1      -3.208  -1.667  -0.770  1.00  0.00     0.080 A 
BRANCH  31  32
HETATM   32  O5  UNL     1      -2.005  -1.971  -1.372  1.00  0.00    -0.355 OA
HETATM   33  C24 UNL     1      -1.963  -3.069  -2.265  1.00  0.00     0.210 C 
ENDBRANCH  31  32
ENDBRANCH   9  26
TORSDOF 8
