REMARK  7 active torsions:
REMARK  status: ('A' for Active; 'I' for Inactive)
REMARK    1  A    between atoms: C5_10  and  N3_11 
REMARK    2  A    between atoms: N3_11  and  C6_13 
REMARK    3  A    between atoms: C6_13  and  C7_19 
REMARK    4  A    between atoms: N4_14  and  N5_16 
REMARK    5  A    between atoms: C7_19  and  O3_20 
REMARK    6  A    between atoms: C7_19  and  N6_22 
REMARK    7  A    between atoms: N6_22  and  N7_24 
ROOT
HETATM    1  N3  UNL     1      -0.245   0.449  -0.019  1.00  0.00    -0.326 N 
ATOM      2  H3  UNL     1      -0.292   1.157  -0.752  1.00  0.00     0.169 HD
ENDROOT
BRANCH   1   3
HETATM    3  C5  UNL     1      -1.288  -0.225   0.319  1.00  0.00     0.127 A 
HETATM    4  C4  UNL     1      -2.438   0.111  -0.401  1.00  0.00     0.120 A 
HETATM    5  C3  UNL     1      -2.439   1.080  -1.383  1.00  0.00     0.267 A 
HETATM    6  C10 UNL     1      -3.598  -0.567  -0.098  1.00  0.00     0.131 A 
HETATM    7  N2  UNL     1      -3.590   1.345  -2.030  1.00  0.00    -0.274 N 
HETATM    8  O2  UNL     1      -1.361   1.668  -1.622  1.00  0.00    -0.267 OA
HETATM    9  C2  UNL     1      -4.731   0.691  -1.745  1.00  0.00     0.330 A 
ATOM     10  H2  UNL     1      -3.597   2.061  -2.756  1.00  0.00     0.173 HD
HETATM   11  N1  UNL     1      -4.722  -0.254  -0.786  1.00  0.00    -0.289 N 
HETATM   12  O1  UNL     1      -5.811   0.947  -2.361  1.00  0.00    -0.246 OA
HETATM   13  C1  UNL     1      -5.921  -0.973  -0.453  1.00  0.00     0.163 C 
HETATM   14  N11 UNL     1      -3.615  -1.517   0.859  1.00  0.00    -0.337 N 
HETATM   15  C9  UNL     1      -2.473  -1.795   1.517  1.00  0.00     0.183 A 
ATOM     16  H11 UNL     1      -4.477  -2.016   1.080  1.00  0.00     0.168 HD
HETATM   17  N10 UNL     1      -1.309  -1.170   1.269  1.00  0.00    -0.338 N 
ATOM     18  H10 UNL     1      -0.465  -1.408   1.790  1.00  0.00     0.168 HD
ENDBRANCH   1   3
BRANCH   1  19
HETATM   19  C6  UNL     1       1.000   0.171   0.674  1.00  0.00     0.148 C 
HETATM   20  N4  UNL     1       1.171   0.611   1.862  1.00  0.00    -0.292 N 
ATOM     21  H4  UNL     1       0.391   1.145   2.245  1.00  0.00     0.188 HD
BRANCH  20  22
HETATM   22  N5  UNL     1       2.247   0.471   2.695  1.00  0.00    -0.344 N 
ATOM     23  H52 UNL     1       3.016  -0.065   2.294  1.00  0.00     0.176 HD
ATOM     24  H51 UNL     1       2.383   0.822   3.643  1.00  0.00     0.176 HD
ENDBRANCH  20  22
BRANCH  19  25
HETATM   25  C7  UNL     1       2.056  -0.627   0.025  1.00  0.00     0.302 C 
BRANCH  25  26
HETATM   26  O3  UNL     1       1.918  -1.997   0.225  1.00  0.00    -0.368 OA
ATOM     27  H3  UNL     1       2.599  -2.511  -0.193  1.00  0.00     0.212 HD
ENDBRANCH  25  26
BRANCH  25  28
HETATM   28  N6  UNL     1       3.352  -0.220   0.489  1.00  0.00    -0.299 N 
ATOM     29  H6  UNL     1       3.931  -0.847   1.048  1.00  0.00     0.183 HD
BRANCH  28  30
HETATM   30  N7  UNL     1       3.802   1.079   0.147  1.00  0.00    -0.278 N 
HETATM   31  C8  UNL     1       4.965   1.198  -0.377  1.00  0.00     0.215 C 
HETATM   32  N8  UNL     1       5.755   0.058  -0.597  1.00  0.00    -0.065 NA
HETATM   33  N9  UNL     1       5.425   2.501  -0.724  1.00  0.00    -0.065 NA
ATOM     34  H7  UNL     1       3.216   1.897   0.313  1.00  0.00     0.189 HD
ENDBRANCH  28  30
ENDBRANCH  25  28
ENDBRANCH  19  25
ENDBRANCH   1  19
TORSDOF 7
