REMARK  5 active torsions:
REMARK  status: ('A' for Active; 'I' for Inactive)
REMARK    1  A    between atoms: C1_2  and  C2_3 
REMARK       I    between atoms: C2_3  and  N2_5 
REMARK    2  A    between atoms: N2_5  and  N3_7 
REMARK    3  A    between atoms: N3_7  and  C3_9 
REMARK    4  A    between atoms: C5_15  and  C6_16 
REMARK       I    between atoms: C6_16  and  N7_18 
REMARK    5  A    between atoms: N7_18  and  C7_20 
ROOT
HETATM    1  C3  UNL     1       1.463  -0.602  -0.376  1.00  0.00     0.303 C 
HETATM    2  N4  UNL     1       1.327  -1.841   0.244  1.00  0.00    -0.290 N 
ATOM      3  H4  UNL     1       1.829  -2.053   1.106  1.00  0.00     0.180 HD
HETATM    4  N5  UNL     1       0.494  -2.775  -0.341  1.00  0.00    -0.034 NA
HETATM    5  N6  UNL     1      -0.585  -3.069   0.443  1.00  0.00    -0.124 NA
HETATM    6  C4  UNL     1      -1.869  -2.507  -0.096  1.00  0.00     0.167 C 
HETATM    7  C5  UNL     1      -1.997  -1.103   0.347  1.00  0.00     0.193 C 
HETATM    8  N12 UNL     1      -1.183  -0.173  -0.478  1.00  0.00    -0.343 N 
ATOM      9  H12 UNL     1      -1.690   0.669  -0.752  1.00  0.00     0.163 HD
HETATM   10  C8  UNL     1       0.126  -0.206  -0.957  1.00  0.00     0.263 C 
HETATM   11  O3  UNL     1       0.194   0.186  -2.170  1.00  0.00    -0.269 OA
ENDROOT
BRANCH   7  12
HETATM   12  C6  UNL     1      -3.305  -0.551   0.568  1.00  0.00     0.260 C 
HETATM   13  O2  UNL     1      -3.505   0.022   1.699  1.00  0.00    -0.270 OA
HETATM   14  N7  UNL     1      -4.349  -0.595  -0.403  1.00  0.00    -0.155 N 
ATOM     15  H7  UNL     1      -4.562  -1.456  -0.907  1.00  0.00     0.187 HD
BRANCH  14  16
HETATM   16  C7  UNL     1      -5.023   0.498  -0.627  1.00  0.00     0.713 A 
HETATM   17  N8  UNL     1      -6.032   0.717  -1.467  1.00  0.00    -0.118 N 
HETATM   18  N9  UNL     1      -6.467   1.925  -1.360  1.00  0.00    -0.212 N 
ATOM     19  H8  UNL     1      -6.410   0.021  -2.110  1.00  0.00     0.207 HD
HETATM   20  N10 UNL     1      -5.774   2.586  -0.434  1.00  0.00     0.009 NA
ATOM     21  H9  UNL     1      -7.233   2.319  -1.906  1.00  0.00     0.206 HD
HETATM   22  N11 UNL     1      -4.850   1.676   0.031  1.00  0.00    -0.113 N 
ATOM     23  H11 UNL     1      -4.150   1.856   0.751  1.00  0.00     0.203 HD
ENDBRANCH  14  16
ENDBRANCH   7  12
BRANCH   1  24
HETATM   24  N3  UNL     1       1.921   0.424   0.448  1.00  0.00    -0.301 N 
ATOM     25  H3  UNL     1       1.200   0.982   0.905  1.00  0.00     0.183 HD
BRANCH  24  26
HETATM   26  N2  UNL     1       3.163   0.766   0.713  1.00  0.00    -0.268 N 
HETATM   27  C2  UNL     1       4.207   1.277  -0.028  1.00  0.00     0.272 C 
HETATM   28  O1  UNL     1       4.172   1.581  -1.248  1.00  0.00    -0.266 OA
ATOM     29  H2  UNL     1       3.411   0.619   1.692  1.00  0.00     0.190 HD
BRANCH  27  30
HETATM   30  C1  UNL     1       5.543   1.501   0.660  1.00  0.00     0.175 C 
HETATM   31  N1  UNL     1       6.545   2.121  -0.085  1.00  0.00    -0.109 NA
ENDBRANCH  27  30
ENDBRANCH  24  26
ENDBRANCH   1  24
TORSDOF 5
