REMARK  10 active torsions:
REMARK  status: ('A' for Active; 'I' for Inactive)
REMARK    1  A    between atoms: N1_1  and  C1_5 
REMARK    2  A    between atoms: C1_5  and  C2_6 
REMARK    3  A    between atoms: C1_5  and  C3_11 
REMARK    4  A    between atoms: C2_6  and  O1_7 
REMARK    5  A    between atoms: C2_6  and  O2_9 
REMARK    6  A    between atoms: C3_11  and  O3_12 
REMARK    7  A    between atoms: C3_11  and  C4_14 
REMARK    8  A    between atoms: C4_14  and  C5_16 
REMARK       I    between atoms: C5_16  and  N2_18 
REMARK    9  A    between atoms: N2_18  and  N3_20 
REMARK       I    between atoms: N3_20  and  C6_21 
REMARK   10  A    between atoms: C6_21  and  C7_23 
ROOT
HETATM    1  C5  UNL     1      -0.431  -1.227   0.000  1.00  0.00     0.319 C 
HETATM    2  O5  UNL     1      -0.077  -1.201   1.222  1.00  0.00    -0.262 OA
HETATM    3  N2  UNL     1       0.666  -1.323  -0.948  1.00  0.00    -0.192 N 
ATOM      4  H2  UNL     1       0.509  -1.310  -1.956  1.00  0.00     0.205 HD
ENDROOT
BRANCH   1   5
HETATM    5  C4  UNL     1      -1.828  -1.181  -0.423  1.00  0.00     0.249 C 
HETATM    6  O4  UNL     1      -2.079  -1.370  -1.628  1.00  0.00    -0.284 OA
BRANCH   5   7
HETATM    7  C3  UNL     1      -2.823  -0.930   0.632  1.00  0.00     0.233 C 
BRANCH   7   8
HETATM    8  C1  UNL     1      -4.049  -0.218   0.174  1.00  0.00     0.274 C 
BRANCH   8   9
HETATM    9  N1  UNL     1      -4.849   0.128   1.353  1.00  0.00    -0.068 N 
ATOM     10  H13 UNL     1      -4.491   0.960   1.821  1.00  0.00     0.275 HD
ATOM     11  H12 UNL     1      -5.770   0.482   1.094  1.00  0.00     0.275 HD
ATOM     12  H11 UNL     1      -4.915  -0.665   1.991  1.00  0.00     0.275 HD
ENDBRANCH   8   9
BRANCH   8  13
HETATM   13  C2  UNL     1      -3.952   0.943  -0.761  1.00  0.00     0.287 C 
BRANCH  13  14
HETATM   14  O1  UNL     1      -5.223   1.344  -1.080  1.00  0.00    -0.369 OA
ATOM     15  H1  UNL     1      -5.161   2.082  -1.675  1.00  0.00     0.212 HD
ENDBRANCH  13  14
BRANCH  13  16
HETATM   16  O2  UNL     1      -3.092   1.952  -0.450  1.00  0.00    -0.369 OA
ATOM     17  H2  UNL     1      -3.030   2.690  -1.045  1.00  0.00     0.212 HD
ENDBRANCH  13  16
ENDBRANCH   8  13
ENDBRANCH   7   8
BRANCH   7  18
HETATM   18  O3  UNL     1      -2.155  -0.197   1.630  1.00  0.00    -0.385 OA
ATOM     19  H3  UNL     1      -1.373  -0.651   1.922  1.00  0.00     0.210 HD
ENDBRANCH   7  18
ENDBRANCH   5   7
ENDBRANCH   1   5
BRANCH   3  20
HETATM   20  N3  UNL     1       1.891  -1.429  -0.427  1.00  0.00    -0.276 NA
HETATM   21  C6  UNL     1       3.128  -1.560   0.104  1.00  0.00     0.369 C 
HETATM   22  O6  UNL     1       3.679  -2.603   0.606  1.00  0.00    -0.247 OA
BRANCH  21  23
HETATM   23  C7  UNL     1       3.988  -0.333   0.095  1.00  0.00     0.201 A 
HETATM   24  N4  UNL     1       3.565   0.825   0.588  1.00  0.00    -0.286 N 
HETATM   25  N5  UNL     1       4.330   1.889   0.583  1.00  0.00    -0.251 N 
ATOM     26  H4  UNL     1       2.625   0.888   0.979  1.00  0.00     0.187 HD
HETATM   27  C8  UNL     1       5.600   1.764   0.056  1.00  0.00     0.341 A 
ATOM     28  H5  UNL     1       3.999   2.779   0.956  1.00  0.00     0.191 HD
HETATM   29  O7  UNL     1       6.320   2.814   0.076  1.00  0.00    -0.245 OA
HETATM   30  N6  UNL     1       6.061   0.626  -0.439  1.00  0.00    -0.272 N 
HETATM   31  C9  UNL     1       5.248  -0.426  -0.425  1.00  0.00     0.284 A 
ATOM     32  H6  UNL     1       7.006   0.559  -0.817  1.00  0.00     0.174 HD
HETATM   33  O8  UNL     1       5.621  -1.559  -0.901  1.00  0.00    -0.265 OA
ENDBRANCH  21  23
ENDBRANCH   3  20
TORSDOF 10
