REMARK  5 active torsions:
REMARK  status: ('A' for Active; 'I' for Inactive)
REMARK       I    between atoms: C1_4  and  N2_5 
REMARK       I    between atoms: C1_4  and  N9_31 
REMARK    1  A    between atoms: N2_5  and  C2_7 
REMARK    2  A    between atoms: C4_13  and  N5_14 
REMARK    3  A    between atoms: C8_25  and  C9_26 
REMARK    4  A    between atoms: C9_26  and  O2_27 
REMARK    5  A    between atoms: N9_31  and  N10_33 
ROOT
HETATM    1  C2  UNL     1       0.915   0.374  -0.383  1.00  0.00     0.302 C 
HETATM    2  N3  UNL     1       0.170  -0.833   0.049  1.00  0.00    -0.336 N 
ATOM      3  H3  UNL     1       0.758  -1.598   0.380  1.00  0.00     0.165 HD
HETATM    4  C3  UNL     1      -1.118  -1.084   0.078  1.00  0.00     0.152 A 
HETATM    5  N4  UNL     1      -1.281  -2.310   0.550  1.00  0.00    -0.175 N 
ATOM      6  H4  UNL     1      -0.477  -2.881   0.810  1.00  0.00     0.186 HD
HETATM    7  C4  UNL     1      -2.544  -2.788   0.679  1.00  0.00     0.680 A 
HETATM    8  N6  UNL     1      -3.614  -2.024   0.331  1.00  0.00    -0.154 N 
ATOM      9  H6  UNL     1      -4.556  -2.400   0.436  1.00  0.00     0.187 HD
HETATM   10  C5  UNL     1      -3.447  -0.780  -0.149  1.00  0.00     0.289 A 
HETATM   11  O1  UNL     1      -4.415  -0.047  -0.480  1.00  0.00    -0.265 OA
HETATM   12  C6  UNL     1      -2.181  -0.269  -0.291  1.00  0.00     0.142 A 
HETATM   13  N7  UNL     1      -2.252   0.920  -0.785  1.00  0.00    -0.380 N 
ATOM     14  H7  UNL     1      -3.223   1.199  -0.928  1.00  0.00     0.160 HD
HETATM   15  C7  UNL     1      -1.347   1.968  -1.193  1.00  0.00     0.147 C 
HETATM   16  C8  UNL     1      -0.372   2.426  -0.180  1.00  0.00     0.121 C 
HETATM   17  N8  UNL     1       0.417   1.444   0.469  1.00  0.00    -0.377 N 
ATOM     18  H8  UNL     1       0.622   1.484   1.467  1.00  0.00     0.157 HD
ENDROOT
BRANCH   1  19
HETATM   19  N2  UNL     1       2.299   0.096  -0.109  1.00  0.00    -0.187 N 
HETATM   20  C1  UNL     1       2.923  -1.005  -0.729  1.00  0.00     0.694 C 
HETATM   21  N1  UNL     1       2.196  -2.015  -1.071  1.00  0.00    -0.233 N 
HETATM   22  N9  UNL     1       4.325  -1.024  -0.982  1.00  0.00    -0.072 N 
ATOM     23  H12 UNL     1       1.192  -2.001  -0.890  1.00  0.00     0.174 HD
ATOM     24  H11 UNL     1       2.648  -2.812  -1.520  1.00  0.00     0.174 HD
ATOM     25  H9  UNL     1       4.675  -1.407  -1.860  1.00  0.00     0.212 HD
ATOM     26  H2  UNL     1       2.826   0.692   0.530  1.00  0.00     0.181 HD
BRANCH  22  27
HETATM   27  N10 UNL     1       5.234  -0.518  -0.029  1.00  0.00    -0.024 N 
HETATM   28  O3  UNL     1       5.065  -0.653   1.198  1.00  0.00    -0.516 OA
HETATM   29  O4  UNL     1       6.355   0.151  -0.458  1.00  0.00    -0.516 OA
ENDBRANCH  22  27
ENDBRANCH   1  19
BRANCH  16  30
HETATM   30  C9  UNL     1      -1.163   3.155   0.919  1.00  0.00     0.190 C 
BRANCH  30  31
HETATM   31  O2  UNL     1      -1.942   2.201   1.558  1.00  0.00    -0.399 OA
ATOM     32  H2  UNL     1      -2.431   2.651   2.237  1.00  0.00     0.209 HD
ENDBRANCH  30  31
ENDBRANCH  16  30
BRANCH   7  33
HETATM   33  N5  UNL     1      -2.717  -3.981   1.138  1.00  0.00    -0.234 N 
ATOM     34  H52 UNL     1      -1.915  -4.554   1.399  1.00  0.00     0.174 HD
ATOM     35  H51 UNL     1      -3.667  -4.340   1.235  1.00  0.00     0.174 HD
ENDBRANCH   7  33
TORSDOF 5
