REMARK  4 active torsions:
REMARK  status: ('A' for Active; 'I' for Inactive)
REMARK    1  A    between atoms: C4_5  and  C5_6 
REMARK    2  A    between atoms: C5_6  and  N1_7 
REMARK    3  A    between atoms: N2_10  and  C8_11 
REMARK    4  A    between atoms: C8_11  and  C9_12 
ROOT
HETATM    1  N1  UNL     1      -2.014   0.523  -0.200  1.00  0.00     0.092 N 
HETATM    2  C6  UNL     1      -1.130  -0.282  -0.979  1.00  0.00     0.302 C 
HETATM    3  C7  UNL     1       0.228   0.437  -0.988  1.00  0.00     0.302 C 
HETATM    4  N2  UNL     1       0.803   0.260   0.327  1.00  0.00     0.092 N 
HETATM    5  C14 UNL     1      -0.073   0.995   1.244  1.00  0.00     0.302 C 
HETATM    6  C15 UNL     1      -1.316   1.509   0.577  1.00  0.00     0.302 C 
ENDROOT
BRANCH   4   7
HETATM    7  C8  UNL     1       2.107   0.817   0.485  1.00  0.00     0.277 C 
BRANCH   7   8
HETATM    8  C9  UNL     1       3.204   0.169  -0.276  1.00  0.00     0.018 C 
HETATM    9  C10 UNL     1       4.491   0.924   0.036  1.00  0.00     0.032 C 
HETATM   10  C11 UNL     1       5.664  -0.032   0.140  1.00  0.00     0.168 C 
HETATM   11  O1  UNL     1       5.643  -0.911  -0.921  1.00  0.00    -0.391 OA
HETATM   12  C12 UNL     1       4.554  -1.752  -0.921  1.00  0.00     0.168 C 
HETATM   13  C13 UNL     1       3.446  -1.269   0.024  1.00  0.00     0.032 C 
ENDBRANCH   7   8
ENDBRANCH   4   7
BRANCH   1  14
HETATM   14  C5  UNL     1      -2.938  -0.173   0.628  1.00  0.00     0.280 C 
BRANCH  14  15
HETATM   15  C4  UNL     1      -4.012  -0.935  -0.054  1.00  0.00     0.048 C 
HETATM   16  C1  UNL     1      -4.950  -0.165  -0.939  1.00  0.00     0.175 C 
HETATM   17  F1  UNL     1      -4.454   0.887  -1.635  1.00  0.00    -0.249 F 
HETATM   18  C2  UNL     1      -5.692   0.243   0.339  1.00  0.00     0.038 C 
HETATM   19  C3  UNL     1      -5.199  -1.091   0.910  1.00  0.00     0.012 C 
ENDBRANCH  14  15
ENDBRANCH   1  14
TORSDOF 4
