REMARK  4 active torsions:
REMARK  status: ('A' for Active; 'I' for Inactive)
REMARK    1  A    between atoms: S1_2  and  O3_4 
REMARK    2  A    between atoms: S1_2  and  N1_12 
REMARK    3  A    between atoms: O3_4  and  C1_5 
REMARK    4  A    between atoms: C1_5  and  C2_6 
ROOT
HETATM    1  O1  UNL     1       0.430  -2.203  -2.673  1.00  0.00    -0.181 OA
HETATM    2  S1  UNL     1       0.904  -1.974  -1.243  1.00  0.00     0.339 S 
HETATM    3  O2  UNL     1       1.122  -3.353  -0.660  1.00  0.00    -0.181 OA
ENDROOT
BRANCH   2   4
HETATM    4  O3  UNL     1      -0.274  -1.124  -0.453  1.00  0.00    -0.263 OA
BRANCH   4   5
HETATM    5  C1  UNL     1      -0.660  -1.714   0.756  1.00  0.00     0.196 C 
BRANCH   5   6
HETATM    6  C2  UNL     1      -1.739  -0.825   1.356  1.00  0.00     0.011 C 
HETATM    7  C3  UNL     1      -2.874  -0.782   0.358  1.00  0.00     0.007 C 
HETATM    8  C4  UNL     1      -3.978   0.136   0.758  1.00  0.00     0.000 C 
HETATM    9  C5  UNL     1      -3.532   1.458   1.292  1.00  0.00     0.000 C 
HETATM   10  C6  UNL     1      -2.313   1.399   2.155  1.00  0.00     0.000 C 
HETATM   11  C7  UNL     1      -1.223   0.588   1.504  1.00  0.00     0.007 C 
ENDBRANCH   5   6
ENDBRANCH   4   5
ENDBRANCH   2   4
BRANCH   2  12
HETATM   12  N1  UNL     1       2.395  -1.108  -1.373  1.00  0.00    -0.187 NA
HETATM   13  C8  UNL     1       2.856  -0.862  -0.036  1.00  0.00     0.112 C 
HETATM   14  C9  UNL     1       2.670   0.573   0.390  1.00  0.00     0.052 C 
HETATM   15  C10 UNL     1       3.567   1.407  -0.499  1.00  0.00     0.172 C 
HETATM   16  F1  UNL     1       3.432   2.753  -0.201  1.00  0.00    -0.249 F 
HETATM   17  C11 UNL     1       3.134   1.168  -1.925  1.00  0.00     0.052 C 
HETATM   18  C12 UNL     1       2.099   0.113  -2.092  1.00  0.00     0.112 C 
ENDBRANCH   2  12
TORSDOF 4
