REMARK  5 active torsions:
REMARK  status: ('A' for Active; 'I' for Inactive)
REMARK    1  A    between atoms: C2_2  and  C4_4 
REMARK    2  A    between atoms: C4_4  and  C5_6 
REMARK    3  A    between atoms: C7_9  and  C8_10 
REMARK    4  A    between atoms: C8_10  and  N1_11 
REMARK    5  A    between atoms: N1_11  and  C10_13 
ROOT
HETATM    1  C5  UNL     1       1.617  -0.360  -0.557  1.00  0.00     0.059 C 
HETATM    2  C6  UNL     1       2.352  -0.860  -1.748  1.00  0.00     0.176 C 
HETATM    3  O1  UNL     1       1.104  -1.029  -2.401  1.00  0.00    -0.383 OA
HETATM    4  C7  UNL     1       0.634   0.059  -1.630  1.00  0.00     0.157 C 
ENDROOT
BRANCH   4   5
HETATM    5  C8  UNL     1      -0.802  -0.260  -1.180  1.00  0.00     0.304 C 
BRANCH   5   6
HETATM    6  N1  UNL     1      -1.296   0.797  -0.401  1.00  0.00     0.091 N 
HETATM    7  C9  UNL     1      -1.540   1.965  -1.224  1.00  0.00     0.310 C 
BRANCH   6   8
HETATM    8  C10 UNL     1      -2.388   0.581   0.469  1.00  0.00     0.226 C 
HETATM    9  C11 UNL     1      -3.697   0.213  -0.204  1.00  0.00     0.062 C 
HETATM   10  C12 UNL     1      -4.607  -0.253   0.940  1.00  0.00     0.169 C 
HETATM   11  O2  UNL     1      -4.255  -1.543   1.332  1.00  0.00    -0.391 OA
HETATM   12  C13 UNL     1      -2.885  -1.772   1.120  1.00  0.00     0.169 C 
HETATM   13  C14 UNL     1      -2.149  -0.504   1.496  1.00  0.00     0.062 C 
ENDBRANCH   6   8
ENDBRANCH   5   6
ENDBRANCH   4   5
BRANCH   1  14
HETATM   14  C4  UNL     1       2.182   0.767   0.227  1.00  0.00     0.094 C 
HETATM   15 CL1  UNL     1       2.327   2.220  -0.787  1.00  0.00    -0.124 Cl
BRANCH  14  16
HETATM   16  C2  UNL     1       3.533   0.470   0.823  1.00  0.00    -0.004 C 
HETATM   17  C1  UNL     1       3.466  -0.764   1.701  1.00  0.00     0.011 C 
HETATM   18  C3  UNL     1       4.636   0.320  -0.164  1.00  0.00     0.011 C 
ENDBRANCH  14  16
ENDBRANCH   1  14
TORSDOF 5
