REMARK  6 active torsions:
REMARK  status: ('A' for Active; 'I' for Inactive)
REMARK    1  A    between atoms: C2_2  and  C5_5 
REMARK    2  A    between atoms: C7_7  and  C8_8 
REMARK       I    between atoms: C8_8  and  N1_10 
REMARK       I    between atoms: N2_15  and  C13_16 
REMARK    3  A    between atoms: C13_16  and  C14_18 
REMARK    4  A    between atoms: C14_18  and  C15_19 
REMARK    5  A    between atoms: C15_19  and  C16_20 
REMARK    6  A    between atoms: C16_20  and  C17_21 
ROOT
HETATM    1  C5  UNL     1      -0.826  -2.121   0.533  1.00  0.00     0.079 C 
HETATM    2  C6  UNL     1      -1.441  -0.975  -0.244  1.00  0.00     0.053 C 
HETATM    3  C7  UNL     1      -0.608   0.240   0.065  1.00  0.00     0.193 C 
HETATM    4  N2  UNL     1       0.793  -0.076  -0.035  1.00  0.00    -0.277 N 
HETATM    5  C13 UNL     1       1.852   0.828  -0.070  1.00  0.00     0.230 C 
HETATM    6  O2  UNL     1       1.672   2.073   0.007  1.00  0.00    -0.273 OA
HETATM    7  S1  UNL     1       0.906  -1.837  -0.057  1.00  0.00    -0.044 SA
ENDROOT
BRANCH   3   8
HETATM    8  C8  UNL     1      -1.020   1.252  -0.941  1.00  0.00     0.243 C 
HETATM    9  O1  UNL     1      -0.287   1.489  -1.913  1.00  0.00    -0.271 OA
HETATM   10  N1  UNL     1      -2.232   1.933  -0.783  1.00  0.00    -0.350 N 
HETATM   11  C9  UNL     1      -3.184   1.772   0.286  1.00  0.00     0.126 C 
HETATM   12  C12 UNL     1      -2.812   2.968  -1.653  1.00  0.00     0.126 C 
HETATM   13  C10 UNL     1      -3.845   3.130   0.464  1.00  0.00     0.021 C 
HETATM   14  C11 UNL     1      -3.160   3.987  -0.567  1.00  0.00     0.021 C 
ENDBRANCH   3   8
BRANCH   1  15
HETATM   15  C2  UNL     1      -1.332  -3.444   0.049  1.00  0.00    -0.037 C 
HETATM   16  C1  UNL     1      -0.703  -4.558   0.841  1.00  0.00     0.015 C 
HETATM   17  C3  UNL     1      -2.825  -3.483   0.338  1.00  0.00     0.015 C 
HETATM   18  C4  UNL     1      -1.058  -3.633  -1.404  1.00  0.00     0.015 C 
ENDBRANCH   1  15
BRANCH   5  19
HETATM   19  C14 UNL     1       3.264   0.305  -0.206  1.00  0.00     0.104 C 
BRANCH  19  20
HETATM   20  C15 UNL     1       4.230   1.469  -0.223  1.00  0.00     0.012 C 
BRANCH  20  21
HETATM   21  C16 UNL     1       5.619   0.899  -0.359  1.00  0.00     0.032 C 
BRANCH  21  22
HETATM   22  C17 UNL     1       6.673   1.972  -0.388  1.00  0.00     0.222 C 
HETATM   23  F1  UNL     1       6.663   2.734   0.768  1.00  0.00    -0.255 F 
ENDBRANCH  21  22
ENDBRANCH  20  21
ENDBRANCH  19  20
ENDBRANCH   5  19
TORSDOF 6
