REMARK  5 active torsions:
REMARK  status: ('A' for Active; 'I' for Inactive)
REMARK    1  A    between atoms: C1_2  and  C2_3 
REMARK       I    between atoms: C1_2  and  N1_11 
REMARK    2  A    between atoms: C2_3  and  S1_4 
REMARK    3  A    between atoms: S1_4  and  C3_5 
REMARK    4  A    between atoms: N2_14  and  C11_15 
REMARK    5  A    between atoms: C11_15  and  C12_16 
ROOT
HETATM    1  O1  UNL     1       1.962   1.611   0.439  1.00  0.00    -0.273 OA
HETATM    2  C1  UNL     1       1.463   0.736  -0.288  1.00  0.00     0.229 C 
HETATM    3  N1  UNL     1       0.063   0.469  -0.229  1.00  0.00    -0.345 N 
HETATM    4  C9  UNL     1      -0.460  -0.619  -1.060  1.00  0.00     0.146 C 
HETATM    5  C10 UNL     1      -1.530  -1.266  -0.188  1.00  0.00     0.147 C 
HETATM    6  N2  UNL     1      -2.564  -0.290  -0.066  1.00  0.00    -0.370 N 
HETATM    7  C17 UNL     1      -2.259   0.943   0.494  1.00  0.00     0.083 C 
HETATM    8  C18 UNL     1      -0.809   1.254   0.578  1.00  0.00     0.170 C 
ENDROOT
BRANCH   2   9
HETATM    9  C2  UNL     1       2.324  -0.039  -1.228  1.00  0.00     0.177 C 
BRANCH   9  10
HETATM   10  S1  UNL     1       4.032   0.416  -1.297  1.00  0.00    -0.155 SA
BRANCH  10  11
HETATM   11  C3  UNL     1       5.234  -0.697  -0.637  1.00  0.00     0.047 C 
HETATM   12  C4  UNL     1       6.651  -0.149  -0.864  1.00  0.00     0.015 C 
HETATM   13  C5  UNL     1       6.835   1.024   0.040  1.00  0.00     0.001 C 
HETATM   14  C6  UNL     1       6.713   0.606   1.480  1.00  0.00     0.000 C 
HETATM   15  C7  UNL     1       5.275   0.113   1.688  1.00  0.00     0.001 C 
HETATM   16  C8  UNL     1       5.065  -1.078   0.795  1.00  0.00     0.015 C 
ENDBRANCH  10  11
ENDBRANCH   9  10
ENDBRANCH   2   9
BRANCH   6  17
HETATM   17  C11 UNL     1      -3.839  -0.647  -0.484  1.00  0.00     0.068 C 
BRANCH  17  18
HETATM   18  C12 UNL     1      -4.978   0.293  -0.365  1.00  0.00     0.027 C 
HETATM   19  C13 UNL     1      -6.210  -0.435  -0.917  1.00  0.00     0.013 C 
HETATM   20  C14 UNL     1      -6.961  -0.837   0.309  1.00  0.00     0.038 C 
HETATM   21  C15 UNL     1      -6.853   0.443   1.151  1.00  0.00     0.170 C 
HETATM   22  F1  UNL     1      -7.519   1.479   0.570  1.00  0.00    -0.249 F 
HETATM   23  C16 UNL     1      -5.346   0.657   1.057  1.00  0.00     0.047 C 
ENDBRANCH  17  18
ENDBRANCH   6  17
TORSDOF 5
