REMARK  5 active torsions:
REMARK  status: ('A' for Active; 'I' for Inactive)
REMARK    1  A    between atoms: N1_5  and  C4_6 
REMARK    2  A    between atoms: C4_6  and  C5_7 
REMARK    3  A    between atoms: N2_9  and  C7_10 
REMARK    4  A    between atoms: C7_10  and  C8_11 
REMARK    5  A    between atoms: C16_20  and  C17_21 
ROOT
HETATM    1  C5  UNL     1       0.005  -1.261   1.120  1.00  0.00     0.188 C 
HETATM    2  C6  UNL     1      -1.078  -0.265   1.063  1.00  0.00     0.309 C 
HETATM    3  N2  UNL     1      -2.179  -0.623   0.206  1.00  0.00     0.093 N 
HETATM    4  C13 UNL     1      -1.810  -1.427  -0.902  1.00  0.00     0.298 C 
HETATM    5  C14 UNL     1      -1.051  -2.652  -0.432  1.00  0.00     0.199 C 
HETATM    6  O1  UNL     1      -0.579  -2.529   0.861  1.00  0.00    -0.377 OA
ENDROOT
BRANCH   1   7
HETATM    7  C4  UNL     1       1.166  -1.138   0.219  1.00  0.00     0.096 C 
BRANCH   7   8
HETATM    8  N1  UNL     1       1.971   0.000   0.243  1.00  0.00    -0.371 N 
HETATM    9  C3  UNL     1       1.546   1.243  -0.216  1.00  0.00     0.064 C 
HETATM   10  C2  UNL     1       2.552   2.042  -1.033  1.00  0.00     0.065 C 
HETATM   11  C1  UNL     1       3.873   2.015  -0.313  1.00  0.00     0.093 C 
HETATM   12 CL1  UNL     1       3.682   2.726   1.305  1.00  0.00    -0.124 Cl
HETATM   13  C16 UNL     1       4.297   0.563  -0.231  1.00  0.00     0.027 C 
HETATM   14  C15 UNL     1       3.302  -0.102   0.702  1.00  0.00     0.133 C 
BRANCH  13  15
HETATM   15  C17 UNL     1       5.692   0.355   0.240  1.00  0.00    -0.007 A 
HETATM   16  C18 UNL     1       6.144  -1.086   0.345  1.00  0.00     0.005 A 
HETATM   17  C19 UNL     1       6.713  -0.222  -0.698  1.00  0.00     0.005 A 
ENDBRANCH  13  15
ENDBRANCH   7   8
ENDBRANCH   1   7
BRANCH   3  18
HETATM   18  C7  UNL     1      -3.022   0.477  -0.094  1.00  0.00     0.277 C 
BRANCH  18  19
HETATM   19  C8  UNL     1      -4.188   0.118  -0.991  1.00  0.00     0.014 C 
HETATM   20  C9  UNL     1      -5.024   1.361  -1.228  1.00  0.00     0.006 C 
HETATM   21  C10 UNL     1      -5.981   1.376  -0.057  1.00  0.00     0.000 C 
HETATM   22  C11 UNL     1      -5.902   0.030   0.614  1.00  0.00     0.000 C 
HETATM   23  C12 UNL     1      -5.054  -0.863  -0.255  1.00  0.00     0.006 C 
ENDBRANCH  18  19
ENDBRANCH   3  18
TORSDOF 5
