REMARK  5 active torsions:
REMARK  status: ('A' for Active; 'I' for Inactive)
REMARK    1  A    between atoms: N1_5  and  C5_6 
REMARK    2  A    between atoms: C5_6  and  C6_7 
REMARK    3  A    between atoms: C6_7  and  C7_8 
REMARK    4  A    between atoms: C7_8  and  N2_10 
REMARK    5  A    between atoms: C11_13  and  N3_14 
ROOT
HETATM    1  C7  UNL     1      -0.661   0.264  -1.008  1.00  0.00     0.220 C 
HETATM    2  C8  UNL     1      -0.866   1.739  -0.767  1.00  0.00     0.043 C 
ENDROOT
BRANCH   1   3
HETATM    3  C6  UNL     1      -1.614  -0.559  -0.207  1.00  0.00     0.056 C 
BRANCH   3   4
HETATM    4  C5  UNL     1      -3.037  -0.184  -0.635  1.00  0.00     0.144 C 
BRANCH   4   5
HETATM    5  N1  UNL     1      -4.028  -0.917   0.105  1.00  0.00    -0.327 N 
HETATM    6  C4  UNL     1      -4.205  -0.644   1.536  1.00  0.00     0.143 C 
HETATM    7  C3  UNL     1      -5.627  -0.181   1.726  1.00  0.00     0.032 C 
HETATM    8  C2  UNL     1      -6.549  -0.520   0.581  1.00  0.00     0.046 C 
HETATM    9  C1  UNL     1      -6.478   0.625  -0.437  1.00  0.00     0.017 C 
HETATM   10  C18 UNL     1      -6.145  -1.732  -0.149  1.00  0.00     0.098 C 
HETATM   11  N4  UNL     1      -4.888  -1.903  -0.373  1.00  0.00    -0.295 N 
HETATM   12 CL1  UNL     1      -7.320  -2.880  -0.681  1.00  0.00    -0.068 Cl
ATOM     13  H4  UNL     1      -4.540  -2.720  -0.875  1.00  0.00     0.187 HD
ENDBRANCH   4   5
ENDBRANCH   3   4
ENDBRANCH   1   3
BRANCH   1  14
HETATM   14  N2  UNL     1       0.712  -0.139  -0.938  1.00  0.00     0.092 N 
HETATM   15  C9  UNL     1       1.306  -0.068   0.355  1.00  0.00     0.275 C 
HETATM   16  C10 UNL     1       2.655  -0.759   0.351  1.00  0.00     0.066 C 
HETATM   17  C11 UNL     1       3.489  -0.400  -0.827  1.00  0.00     0.226 C 
HETATM   18  C16 UNL     1       2.881   0.848  -1.456  1.00  0.00     0.066 C 
HETATM   19  C17 UNL     1       1.474   0.584  -1.934  1.00  0.00     0.275 C 
BRANCH  17  20
HETATM   20  N3  UNL     1       4.857  -0.147  -0.580  1.00  0.00     0.093 N 
HETATM   21  C12 UNL     1       5.612  -1.251  -0.068  1.00  0.00     0.273 C 
HETATM   22  C13 UNL     1       6.957  -0.580   0.213  1.00  0.00     0.032 C 
HETATM   23  C14 UNL     1       6.464   0.694   0.906  1.00  0.00     0.032 C 
HETATM   24  C15 UNL     1       5.129   0.999   0.246  1.00  0.00     0.273 C 
ENDBRANCH  17  20
ENDBRANCH   1  14
TORSDOF 5
