REMARK  5 active torsions:
REMARK  status: ('A' for Active; 'I' for Inactive)
REMARK    1  A    between atoms: C2_2  and  C3_3 
REMARK    2  A    between atoms: C2_2  and  C4_5 
REMARK    3  A    between atoms: N1_9  and  N2_10 
REMARK    4  A    between atoms: C10_15  and  C11_16 
REMARK    5  A    between atoms: C11_16  and  C12_17 
ROOT
HETATM    1  C4  UNL     1      -0.789   0.974  -0.882  1.00  0.00     0.169 C 
HETATM    2  O1  UNL     1       0.136   1.515  -1.871  1.00  0.00    -0.292 OA
HETATM    3  C5  UNL     1       1.472   1.340  -1.544  1.00  0.00     0.382 C 
HETATM    4  O2  UNL     1       2.344   2.180  -1.900  1.00  0.00    -0.236 OA
HETATM    5  N1  UNL     1       1.881   0.206  -0.799  1.00  0.00    -0.234 N 
HETATM    6  C8  UNL     1       0.932  -0.874  -0.640  1.00  0.00     0.116 C 
HETATM    7  C9  UNL     1       1.366  -1.752   0.494  1.00  0.00     0.035 C 
HETATM    8  C10 UNL     1      -0.489  -0.445  -0.624  1.00  0.00     0.044 C 
ENDROOT
BRANCH   1   9
HETATM    9  C2  UNL     1      -0.761   1.955   0.209  1.00  0.00    -0.050 C 
HETATM   10  C1  UNL     1      -0.247   1.774   1.405  1.00  0.00     0.017 C 
BRANCH   9  11
HETATM   11  C3  UNL     1      -1.347   3.344  -0.050  1.00  0.00     0.121 C 
HETATM   12 BR1  UNL     1      -1.179   4.484   1.489  1.00  0.00    -0.092 Br
ENDBRANCH   9  11
ENDBRANCH   1   9
BRANCH   8  13
HETATM   13  C11 UNL     1      -1.361  -1.151   0.367  1.00  0.00     0.013 C 
BRANCH  13  14
HETATM   14  C12 UNL     1      -2.816  -1.167  -0.038  1.00  0.00    -0.022 C 
HETATM   15  C13 UNL     1      -3.130  -1.830  -1.321  1.00  0.00     0.009 C 
HETATM   16  C14 UNL     1      -3.660  -1.770   1.059  1.00  0.00     0.009 C 
ENDBRANCH  13  14
ENDBRANCH   8  13
BRANCH   5  17
HETATM   17  N2  UNL     1       3.128   0.037  -0.225  1.00  0.00    -0.330 N 
HETATM   18  C6  UNL     1       4.187  -0.231  -1.151  1.00  0.00     0.170 C 
HETATM   19  C7  UNL     1       3.468   0.873   0.859  1.00  0.00     0.170 C 
ENDBRANCH   5  17
TORSDOF 5
