REMARK  7 active torsions:
REMARK  status: ('A' for Active; 'I' for Inactive)
REMARK    1  A    between atoms: C2_2  and  C3_4 
REMARK    2  A    between atoms: C3_4  and  N1_7 
REMARK    3  A    between atoms: N1_7  and  C6_8 
REMARK    4  A    between atoms: C6_8  and  C7_9 
REMARK    5  A    between atoms: C6_8  and  C13_15 
REMARK    6  A    between atoms: C7_9  and  C8_10 
REMARK    7  A    between atoms: C13_15  and  C14_17 
ROOT
HETATM    1  C6  UNL     1      -0.331  -0.103   0.015  1.00  0.00     0.125 C 
ENDROOT
BRANCH   1   2
HETATM    2  N1  UNL     1      -1.487  -0.426  -0.133  1.00  0.00    -0.436 NA
BRANCH   2   3
HETATM    3  C3  UNL     1      -2.706  -0.893  -0.352  1.00  0.00     0.102 C 
HETATM    4  C4  UNL     1      -3.810   0.099  -0.714  1.00  0.00     0.055 C 
HETATM    5  C5  UNL     1      -2.749  -1.913  -1.497  1.00  0.00     0.055 C 
BRANCH   3   6
HETATM    6  C2  UNL     1      -3.247  -1.586   0.921  1.00  0.00     0.119 C 
HETATM    7  C1  UNL     1      -4.552  -2.274   0.625  1.00  0.00     0.030 C 
HETATM    8 CL1  UNL     1      -2.059  -2.653   1.651  1.00  0.00    -0.122 Cl
ENDBRANCH   3   6
ENDBRANCH   2   3
ENDBRANCH   1   2
BRANCH   1   9
HETATM    9  C7  UNL     1      -0.069   1.200   0.658  1.00  0.00     0.081 C 
BRANCH   9  10
HETATM   10  C8  UNL     1       0.617   2.231  -0.145  1.00  0.00    -0.008 C 
HETATM   11  C9  UNL     1      -0.136   2.610  -1.405  1.00  0.00     0.005 C 
HETATM   12  C10 UNL     1       0.395   3.998  -1.670  1.00  0.00     0.000 C 
HETATM   13  C11 UNL     1       0.431   4.625  -0.307  1.00  0.00     0.000 C 
HETATM   14  C12 UNL     1       0.547   3.528   0.699  1.00  0.00     0.005 C 
ENDBRANCH   9  10
ENDBRANCH   1   9
BRANCH   1  15
HETATM   15  C13 UNL     1       0.755  -0.940  -0.420  1.00  0.00     0.198 C 
HETATM   16  O1  UNL     1       0.414  -2.053  -0.983  1.00  0.00    -0.289 OA
BRANCH  15  17
HETATM   17  C14 UNL     1       2.202  -0.729  -0.326  1.00  0.00     0.156 C 
HETATM   18  C15 UNL     1       2.587  -0.587   1.128  1.00  0.00     0.042 C 
HETATM   19  C16 UNL     1       3.892  -1.313   1.345  1.00  0.00     0.126 C 
HETATM   20  N2  UNL     1       3.877  -2.328   0.314  1.00  0.00    -0.356 N 
HETATM   21  C17 UNL     1       4.703  -3.533   0.345  1.00  0.00     0.152 C 
HETATM   22  C18 UNL     1       2.960  -1.982  -0.704  1.00  0.00     0.231 C 
HETATM   23  O2  UNL     1       2.792  -2.611  -1.765  1.00  0.00    -0.273 OA
ENDBRANCH  15  17
ENDBRANCH   1  15
TORSDOF 7
