REMARK  5 active torsions:
REMARK  status: ('A' for Active; 'I' for Inactive)
REMARK    1  A    between atoms: C1_2  and  C2_3 
REMARK    2  A    between atoms: C2_3  and  C3_4 
REMARK    3  A    between atoms: C3_4  and  C4_5 
REMARK    4  A    between atoms: C4_5  and  C5_6 
REMARK    5  A    between atoms: C5_6  and  N1_7 
ROOT
HETATM    1  N1  UNL     1       0.424  -0.802  -0.369  1.00  0.00     0.090 N 
HETATM    2  C6  UNL     1      -0.471  -0.919   0.755  1.00  0.00     0.272 C 
HETATM    3  C7  UNL     1      -1.335  -2.136   0.711  1.00  0.00     0.030 C 
HETATM    4  C8  UNL     1      -2.723  -1.959   0.215  1.00  0.00     0.004 C 
HETATM    5  C9  UNL     1      -3.630  -1.140   1.070  1.00  0.00     0.026 C 
HETATM    6  C10 UNL     1      -4.380  -0.083   0.246  1.00  0.00     0.167 C 
HETATM    7  O1  UNL     1      -3.599   0.435  -0.759  1.00  0.00    -0.389 OA
HETATM    8  C11 UNL     1      -3.652   1.802  -0.894  1.00  0.00     0.193 C 
HETATM    9  C12 UNL     1      -2.284   2.449  -0.733  1.00  0.00     0.193 C 
HETATM   10  O2  UNL     1      -1.389   2.010  -1.684  1.00  0.00    -0.387 OA
HETATM   11  C13 UNL     1      -0.235   1.458  -1.120  1.00  0.00     0.198 C 
HETATM   12  C14 UNL     1      -0.109   0.003  -1.451  1.00  0.00     0.298 C 
ENDROOT
BRANCH   1  13
HETATM   13  C5  UNL     1       1.694  -0.242  -0.032  1.00  0.00     0.272 C 
BRANCH  13  14
HETATM   14  C4  UNL     1       2.583  -1.079   0.815  1.00  0.00     0.030 C 
BRANCH  14  15
HETATM   15  C3  UNL     1       3.872  -0.357   1.091  1.00  0.00     0.002 C 
BRANCH  15  16
HETATM   16  C2  UNL     1       4.621  -0.042  -0.174  1.00  0.00     0.011 C 
BRANCH  16  17
HETATM   17  C1  UNL     1       5.912   0.686   0.229  1.00  0.00     0.085 C 
HETATM   18 BR1  UNL     1       5.440   2.314   1.166  1.00  0.00    -0.097 Br
ENDBRANCH  16  17
ENDBRANCH  15  16
ENDBRANCH  14  15
ENDBRANCH  13  14
ENDBRANCH   1  13
TORSDOF 5
