REMARK  8 active torsions:
REMARK  status: ('A' for Active; 'I' for Inactive)
REMARK    1  A    between atoms: N2_4  and  N3_6 
REMARK    2  A    between atoms: N3_6  and  C3_8 
REMARK    3  A    between atoms: C3_8  and  C8_28 
REMARK       I    between atoms: N4_9  and  C4_11 
REMARK    4  A    between atoms: C4_11  and  C5_13 
REMARK    5  A    between atoms: C5_13  and  N5_14 
REMARK    6  A    between atoms: N5_14  and  C6_16 
REMARK    7  A    between atoms: C7_19  and  N7_20 
REMARK    8  A    between atoms: N7_20  and  N8_22 
ROOT
HETATM    1  C3  UNL     1       1.704  -0.084  -1.045  1.00  0.00     0.189 C 
HETATM    2  N4  UNL     1       0.633   0.308  -0.520  1.00  0.00    -0.306 N 
ATOM      3  H4  UNL     1       0.639   1.246  -0.120  1.00  0.00     0.170 HD
HETATM    4  C4  UNL     1      -0.563  -0.400  -0.425  1.00  0.00     0.241 C 
HETATM    5  O1  UNL     1      -1.378  -0.418  -1.394  1.00  0.00    -0.271 OA
ENDROOT
BRANCH   4   6
HETATM    6  C5  UNL     1      -0.917  -1.143   0.799  1.00  0.00     0.241 C 
BRANCH   6   7
HETATM    7  N5  UNL     1      -2.205  -1.775   0.660  1.00  0.00    -0.217 N 
ATOM      8  H5  UNL     1      -2.249  -2.794   0.633  1.00  0.00     0.178 HD
BRANCH   7   9
HETATM    9  C6  UNL     1      -3.443  -1.023   0.557  1.00  0.00     0.686 A 
HETATM   10  N6  UNL     1      -3.463   0.272   0.590  1.00  0.00    -0.167 N 
HETATM   11  C7  UNL     1      -4.615   0.909   0.493  1.00  0.00     0.194 A 
ATOM     12  H6  UNL     1      -2.594   0.796   0.690  1.00  0.00     0.186 HD
HETATM   13  S1  UNL     1      -5.713  -0.388   0.349  1.00  0.00     0.040 SA
HETATM   14  N9  UNL     1      -4.611  -1.664   0.424  1.00  0.00    -0.157 N 
ATOM     15  H9  UNL     1      -4.789  -2.667   0.379  1.00  0.00     0.193 HD
BRANCH  11  16
HETATM   16  N7  UNL     1      -4.777   2.208   0.511  1.00  0.00    -0.285 N 
ATOM     17  H7  UNL     1      -3.983   2.841   0.606  1.00  0.00     0.188 HD
BRANCH  16  18
HETATM   18  N8  UNL     1      -6.094   2.694   0.394  1.00  0.00    -0.343 N 
ATOM     19  H82 UNL     1      -6.878   2.048   0.300  1.00  0.00     0.176 HD
ATOM     20  H81 UNL     1      -6.220   3.706   0.408  1.00  0.00     0.176 HD
ENDBRANCH  16  18
ENDBRANCH  11  16
ENDBRANCH   7   9
ENDBRANCH   6   7
ENDBRANCH   4   6
BRANCH   1  21
HETATM   21  N3  UNL     1       2.794   0.884  -0.993  1.00  0.00    -0.280 N 
ATOM     22  H3  UNL     1       2.612   1.882  -1.101  1.00  0.00     0.188 HD
BRANCH  21  23
HETATM   23  N2  UNL     1       4.083   0.414  -0.793  1.00  0.00    -0.290 N 
HETATM   24  C2  UNL     1       4.782   0.871   0.179  1.00  0.00     0.103 C 
HETATM   25  C1  UNL     1       4.208   1.890   1.073  1.00  0.00     0.086 C 
HETATM   26  N1  UNL     1       6.118   0.397   0.403  1.00  0.00    -0.087 NA
ATOM     27  H2  UNL     1       4.473  -0.292  -1.417  1.00  0.00     0.188 HD
ENDBRANCH  21  23
ENDBRANCH   1  21
BRANCH   1  28
HETATM   28  C8  UNL     1       1.897  -1.362  -1.659  1.00  0.00     0.300 C 
HETATM   29  N10 UNL     1       0.905  -2.342  -1.749  1.00  0.00    -0.054 NA
HETATM   30  O2  UNL     1       3.041  -1.640  -2.160  1.00  0.00    -0.268 OA
ENDBRANCH   1  28
TORSDOF 8
