REMARK  6 active torsions:
REMARK  status: ('A' for Active; 'I' for Inactive)
REMARK    1  A    between atoms: N1_1  and  N2_4 
REMARK    2  A    between atoms: N2_4  and  C1_6 
REMARK    3  A    between atoms: C2_9  and  N4_10 
REMARK       I    between atoms: N4_10  and  C3_12 
REMARK       I    between atoms: C3_12  and  N5_13 
REMARK       I    between atoms: C3_12  and  N6_17 
REMARK    4  A    between atoms: N8_26  and  N9_27 
REMARK       I    between atoms: N9_27  and  C7_29 
REMARK    5  A    between atoms: C7_29  and  C8_31 
REMARK    6  A    between atoms: C8_31  and  C9_32 
ROOT
HETATM    1  C1  UNL     1       3.445   0.683  -0.325  1.00  0.00     0.699 A 
HETATM    2  N3  UNL     1       2.671  -0.427  -0.140  1.00  0.00    -0.173 N 
ATOM      3  H3  UNL     1       3.131  -1.333  -0.051  1.00  0.00     0.186 HD
HETATM    4  C2  UNL     1       1.338  -0.379  -0.071  1.00  0.00     0.152 A 
HETATM    5  C4  UNL     1       0.705   0.837  -0.190  1.00  0.00     0.146 A 
HETATM    6  C5  UNL     1       1.509   1.941  -0.376  1.00  0.00     0.154 A 
HETATM    7  N7  UNL     1       0.710   3.028  -0.470  1.00  0.00    -0.335 N 
ATOM      8  H7  UNL     1       1.021   3.989  -0.610  1.00  0.00     0.168 HD
HETATM    9  C6  UNL     1      -0.569   2.620  -0.347  1.00  0.00     0.209 A 
HETATM   10  N8  UNL     1      -0.585   1.283  -0.176  1.00  0.00    -0.242 N 
HETATM   11  N10 UNL     1       2.869   1.880  -0.445  1.00  0.00    -0.173 N 
ATOM     12  H10 UNL     1       3.428   2.722  -0.584  1.00  0.00     0.186 HD
ENDROOT
BRANCH   4  13
HETATM   13  N4  UNL     1       0.680  -1.430   0.108  1.00  0.00    -0.325 N 
HETATM   14  C3  UNL     1       1.050  -2.779   0.270  1.00  0.00     0.481 C 
HETATM   15  N5  UNL     1       2.006  -3.051   1.327  1.00  0.00    -0.033 N 
HETATM   16  N6  UNL     1      -0.182  -3.516   0.626  1.00  0.00    -0.033 N 
ATOM     17  H53 UNL     1       2.839  -2.476   1.198  1.00  0.00     0.278 HD
ATOM     18  H52 UNL     1       1.661  -2.677   2.211  1.00  0.00     0.278 HD
ATOM     19  H51 UNL     1       2.274  -4.028   1.444  1.00  0.00     0.278 HD
ATOM     20  H63 UNL     1      -0.662  -3.129   1.439  1.00  0.00     0.278 HD
ATOM     21  H62 UNL     1      -0.939  -3.383  -0.045  1.00  0.00     0.278 HD
ATOM     22  H61 UNL     1       0.086  -4.493   0.743  1.00  0.00     0.278 HD
ATOM     23  H4  UNL     1      -0.328  -1.278   0.144  1.00  0.00     0.165 HD
ENDBRANCH   4  13
BRANCH   1  24
HETATM   24  N2  UNL     1       4.723   0.603  -0.385  1.00  0.00    -0.138 N 
ATOM     25  H2  UNL     1       5.185  -0.302  -0.294  1.00  0.00     0.205 HD
BRANCH  24  26
HETATM   26  N1  UNL     1       5.477   1.756  -0.575  1.00  0.00    -0.331 N 
ATOM     27  H12 UNL     1       5.000   2.653  -0.664  1.00  0.00     0.177 HD
ATOM     28  H11 UNL     1       6.494   1.692  -0.623  1.00  0.00     0.177 HD
ENDBRANCH  24  26
ENDBRANCH   1  24
BRANCH  10  29
HETATM   29  N9  UNL     1      -1.677   0.452  -0.017  1.00  0.00    -0.262 N 
HETATM   30  C7  UNL     1      -3.015   0.911   0.004  1.00  0.00     0.246 C 
HETATM   31  O1  UNL     1      -3.305   2.109  -0.117  1.00  0.00    -0.271 OA
ATOM     32  H9  UNL     1      -1.509  -0.548   0.091  1.00  0.00     0.190 HD
BRANCH  30  33
HETATM   33  C8  UNL     1      -4.148  -0.063   0.178  1.00  0.00     0.217 C 
BRANCH  33  34
HETATM   34  C9  UNL     1      -5.448   0.629   0.195  1.00  0.00     0.181 C 
HETATM   35  O2  UNL     1      -5.841   1.277   1.197  1.00  0.00    -0.648 OA
HETATM   36  O3  UNL     1      -6.289   0.575  -0.934  1.00  0.00    -0.648 OA
ENDBRANCH  33  34
ENDBRANCH  30  33
ENDBRANCH  10  29
TORSDOF 6
