REMARK  7 active torsions:
REMARK  status: ('A' for Active; 'I' for Inactive)
REMARK    1  A    between atoms: N1_2  and  N2_3 
REMARK       I    between atoms: N1_2  and  C9_29 
REMARK    2  A    between atoms: N2_3  and  C2_5 
REMARK    3  A    between atoms: C4_9  and  N4_10 
REMARK    4  A    between atoms: N7_19  and  C7_20 
REMARK    5  A    between atoms: C7_20  and  C8_21 
REMARK       I    between atoms: C8_21  and  N8_23 
REMARK    6  A    between atoms: N8_23  and  N9_25 
REMARK    7  A    between atoms: N9_25  and  N10_26 
ROOT
HETATM    1  C2  UNL     1      -0.945  -0.456  -0.541  1.00  0.00     0.702 A 
HETATM    2  N3  UNL     1      -1.478  -1.649  -0.862  1.00  0.00    -0.183 N 
ATOM      3  H3  UNL     1      -2.320  -1.779  -1.423  1.00  0.00     0.184 HD
HETATM    4  C3  UNL     1      -0.746  -2.642  -0.340  1.00  0.00     0.137 A 
HETATM    5  C4  UNL     1      -0.814  -4.011  -0.341  1.00  0.00     0.131 A 
HETATM    6  N5  UNL     1       0.107  -4.712   0.298  1.00  0.00    -0.337 N 
ATOM      7  H5  UNL     1       0.057  -5.731   0.296  1.00  0.00     0.168 HD
HETATM    8  C5  UNL     1       1.108  -4.098   0.950  1.00  0.00     0.183 A 
HETATM    9  N6  UNL     1       1.208  -2.752   0.975  1.00  0.00    -0.336 N 
ATOM     10  H6  UNL     1       1.976  -2.307   1.477  1.00  0.00     0.168 HD
HETATM   11  C6  UNL     1       0.297  -2.000   0.340  1.00  0.00     0.156 A 
HETATM   12  N7  UNL     1       0.151  -0.673   0.201  1.00  0.00    -0.155 N 
ENDROOT
BRANCH  12  13
HETATM   13  C7  UNL     1       1.045   0.311   0.753  1.00  0.00     0.253 C 
BRANCH  13  14
HETATM   14  C8  UNL     1       2.148   0.654  -0.142  1.00  0.00     0.253 C 
HETATM   15  O1  UNL     1       2.217   0.091  -1.286  1.00  0.00    -0.270 OA
HETATM   16  N8  UNL     1       3.155   1.592   0.201  1.00  0.00    -0.253 N 
ATOM     17  H8  UNL     1       3.115   2.053   1.110  1.00  0.00     0.187 HD
BRANCH  16  18
HETATM   18  N9  UNL     1       4.207   1.904  -0.678  1.00  0.00    -0.027 NA
BRANCH  18  19
HETATM   19  N10 UNL     1       4.888   3.046  -0.302  1.00  0.00    -0.329 N 
ATOM     20 2H10 UNL     1       4.642   3.591   0.524  1.00  0.00     0.174 HD
ATOM     21 1H10 UNL     1       5.651   3.272  -0.940  1.00  0.00     0.174 HD
ENDBRANCH  18  19
ENDBRANCH  16  18
ENDBRANCH  13  14
ENDBRANCH  12  13
BRANCH   1  22
HETATM   22  N2  UNL     1      -1.523   0.758  -0.981  1.00  0.00    -0.126 N 
ATOM     23  H2  UNL     1      -1.131   1.222  -1.801  1.00  0.00     0.206 HD
BRANCH  22  24
HETATM   24  N1  UNL     1      -2.614   1.343  -0.329  1.00  0.00    -0.235 N 
HETATM   25  C1  UNL     1      -3.590   0.507   0.375  1.00  0.00     0.183 C 
HETATM   26  C9  UNL     1      -2.756   2.756  -0.383  1.00  0.00     0.349 C 
HETATM   27  N11 UNL     1      -3.851   3.420   0.229  1.00  0.00    -0.038 NA
HETATM   28  O2  UNL     1      -1.916   3.475  -0.977  1.00  0.00    -0.249 OA
ENDBRANCH  22  24
ENDBRANCH   1  22
BRANCH   5  29
HETATM   29  N4  UNL     1      -1.799  -4.549  -0.989  1.00  0.00    -0.383 N 
ATOM     30  H42 UNL     1      -2.510  -4.008  -1.482  1.00  0.00     0.157 HD
ATOM     31  H41 UNL     1      -1.850  -5.568  -0.990  1.00  0.00     0.157 HD
ENDBRANCH   5  29
TORSDOF 7
