REMARK  9 active torsions:
REMARK  status: ('A' for Active; 'I' for Inactive)
REMARK    1  A    between atoms: N1_1  and  C1_4 
REMARK    2  A    between atoms: C2_7  and  N3_8 
REMARK    3  A    between atoms: N4_11  and  C3_12 
REMARK    4  A    between atoms: C3_12  and  N5_13 
REMARK    5  A    between atoms: C3_12  and  C4_17 
REMARK    6  A    between atoms: C4_17  and  C5_18 
REMARK    7  A    between atoms: C5_18  and  N6_19 
REMARK    8  A    between atoms: C5_18  and  C6_23 
REMARK    9  A    between atoms: C6_23  and  N7_24 
ROOT
HETATM    1  C3  UNL     1      -0.438   1.261   0.418  1.00  0.00     0.312 C 
ENDROOT
BRANCH   1   2
HETATM    2  N4  UNL     1      -1.673   0.671   0.697  1.00  0.00    -0.101 N 
HETATM    3  C2  UNL     1      -2.619   0.632  -0.263  1.00  0.00     0.698 A 
HETATM    4  N2  UNL     1      -3.841   0.067  -0.042  1.00  0.00    -0.022 N 
HETATM    5  C1  UNL     1      -4.145  -0.474   1.150  1.00  0.00     0.694 A 
ATOM      6  H2  UNL     1      -4.533   0.055  -0.791  1.00  0.00     0.203 HD
HETATM    7  N10 UNL     1      -3.211  -0.447   2.130  1.00  0.00    -0.140 N 
HETATM    8  C9  UNL     1      -2.019   0.114   1.888  1.00  0.00     0.357 A 
ATOM      9  H10 UNL     1      -3.413  -0.850   3.045  1.00  0.00     0.189 HD
HETATM   10  O2  UNL     1      -1.152   0.139   2.797  1.00  0.00    -0.245 OA
BRANCH   3  11
HETATM   11  N3  UNL     1      -2.436   1.122  -1.446  1.00  0.00    -0.234 N 
ATOM     12  H32 UNL     1      -3.152   1.092  -2.172  1.00  0.00     0.174 HD
ATOM     13  H31 UNL     1      -1.522   1.544  -1.611  1.00  0.00     0.174 HD
ENDBRANCH   3  11
BRANCH   5  14
HETATM   14  N1  UNL     1      -5.309  -1.001   1.328  1.00  0.00    -0.234 N 
ATOM     15  H12 UNL     1      -6.013  -1.021   0.590  1.00  0.00     0.174 HD
ATOM     16  H11 UNL     1      -5.540  -1.412   2.233  1.00  0.00     0.174 HD
ENDBRANCH   5  14
ENDBRANCH   1   2
BRANCH   1  17
HETATM   17  N5  UNL     1      -0.476   1.896  -0.879  1.00  0.00    -0.057 N 
ATOM     18  H53 UNL     1      -0.765   1.250  -1.613  1.00  0.00     0.276 HD
ATOM     19  H52 UNL     1      -1.244   2.562  -0.956  1.00  0.00     0.276 HD
ATOM     20  H51 UNL     1       0.426   2.327  -1.083  1.00  0.00     0.276 HD
ENDBRANCH   1  17
BRANCH   1  21
HETATM   21  C4  UNL     1       0.792   0.435   0.443  1.00  0.00     0.090 C 
BRANCH  21  22
HETATM   22  C5  UNL     1       0.804  -0.722  -0.533  1.00  0.00     0.207 C 
BRANCH  22  23
HETATM   23  N6  UNL     1      -0.286  -1.646  -0.288  1.00  0.00    -0.073 N 
ATOM     24  H63 UNL     1      -0.284  -1.975   0.677  1.00  0.00     0.274 HD
ATOM     25  H62 UNL     1      -1.186  -1.167  -0.292  1.00  0.00     0.274 HD
ATOM     26  H61 UNL     1      -0.278  -2.426  -0.946  1.00  0.00     0.274 HD
ENDBRANCH  22  23
BRANCH  22  27
HETATM   27  C6  UNL     1       2.147  -1.416  -0.364  1.00  0.00     0.186 C 
BRANCH  27  28
HETATM   28  N7  UNL     1       3.263  -0.550  -0.640  1.00  0.00    -0.240 N 
HETATM   29  N8  UNL     1       3.982   0.236   0.144  1.00  0.00    -0.290 N 
HETATM   30  C7  UNL     1       4.945   0.857  -0.564  1.00  0.00     0.201 A 
ATOM     31  H8  UNL     1       3.829   0.355   1.145  1.00  0.00     0.188 HD
HETATM   32  N9  UNL     1       4.835   0.455  -1.837  1.00  0.00    -0.302 N 
HETATM   33  C8  UNL     1       3.803  -0.405  -1.869  1.00  0.00     0.342 A 
ATOM     34  H9  UNL     1       5.417   0.743  -2.623  1.00  0.00     0.171 HD
HETATM   35  O1  UNL     1       3.404  -0.992  -2.922  1.00  0.00    -0.245 OA
ENDBRANCH  27  28
ENDBRANCH  22  27
ENDBRANCH  21  22
ENDBRANCH   1  21
TORSDOF 9
