REMARK  8 active torsions:
REMARK  status: ('A' for Active; 'I' for Inactive)
REMARK    1  A    between atoms: C1_2  and  C2_4 
REMARK    2  A    between atoms: N3_8  and  C4_10 
REMARK    3  A    between atoms: C4_10  and  O2_11 
REMARK    4  A    between atoms: C4_10  and  C5_13 
REMARK    5  A    between atoms: C4_10  and  C6_21 
REMARK    6  A    between atoms: C5_13  and  N4_14 
REMARK    7  A    between atoms: C6_21  and  N8_22 
REMARK    8  A    between atoms: C6_21  and  O3_26 
ROOT
HETATM    1  C4  UNL     1       1.599  -0.446   0.834  1.00  0.00     0.205 C 
ENDROOT
BRANCH   1   2
HETATM    2  N3  UNL     1       0.349  -0.602   0.194  1.00  0.00    -0.340 N 
HETATM    3  C3  UNL     1      -0.651   0.164   0.114  1.00  0.00     0.108 A 
HETATM    4  N2  UNL     1      -1.734  -0.281  -0.592  1.00  0.00    -0.324 N 
HETATM    5  C7  UNL     1      -0.753   1.408   0.673  1.00  0.00     0.093 A 
HETATM    6  C2  UNL     1      -2.846   0.428  -0.750  1.00  0.00     0.174 A 
ATOM      7  H2  UNL     1      -1.685  -1.206  -1.020  1.00  0.00     0.169 HD
HETATM    8  N10 UNL     1      -2.902   1.642  -0.185  1.00  0.00    -0.327 N 
HETATM    9  C8  UNL     1      -1.907   2.193   0.532  1.00  0.00     0.121 A 
ATOM     10  H10 UNL     1      -3.757   2.184  -0.307  1.00  0.00     0.168 HD
HETATM   11  N9  UNL     1      -1.987   3.476   1.120  1.00  0.00    -0.083 NA
ATOM     12  H3  UNL     1       0.234  -1.493  -0.290  1.00  0.00     0.164 HD
BRANCH   6  13
HETATM   13  C1  UNL     1      -3.947  -0.131  -1.519  1.00  0.00     0.298 C 
HETATM   14  N1  UNL     1      -3.815  -1.427  -2.090  1.00  0.00    -0.054 NA
HETATM   15  O1  UNL     1      -5.017   0.532  -1.681  1.00  0.00    -0.268 OA
ENDBRANCH   6  13
ENDBRANCH   1   2
BRANCH   1  16
HETATM   16  O2  UNL     1       1.569   0.093   2.110  1.00  0.00    -0.365 OA
ATOM     17  H2  UNL     1       2.409   0.198   2.540  1.00  0.00     0.212 HD
ENDBRANCH   1  16
BRANCH   1  18
HETATM   18  C5  UNL     1       2.492   0.450  -0.017  1.00  0.00     0.238 C 
BRANCH  18  19
HETATM   19  N4  UNL     1       2.696  -0.152  -1.334  1.00  0.00    -0.198 N 
HETATM   20  N5  UNL     1       3.550  -0.974  -1.896  1.00  0.00    -0.209 N 
HETATM   21  N6  UNL     1       2.884  -0.869  -3.019  1.00  0.00    -0.211 N 
ATOM     22  H5  UNL     1       4.380  -1.480  -1.589  1.00  0.00     0.211 HD
HETATM   23  N7  UNL     1       2.028  -0.046  -2.460  1.00  0.00    -0.209 N 
ATOM     24  H6  UNL     1       2.989  -1.267  -3.952  1.00  0.00     0.211 HD
ATOM     25  H7  UNL     1       1.198   0.460  -2.768  1.00  0.00     0.211 HD
ENDBRANCH  18  19
ENDBRANCH   1  18
BRANCH   1  26
HETATM   26  C6  UNL     1       2.344  -1.777   0.980  1.00  0.00     0.374 C 
BRANCH  26  27
HETATM   27  N8  UNL     1       1.658  -2.658   1.895  1.00  0.00    -0.048 N 
ATOM     28  H83 UNL     1       1.503  -2.213   2.800  1.00  0.00     0.277 HD
ATOM     29  H82 UNL     1       0.685  -2.800   1.622  1.00  0.00     0.277 HD
ATOM     30  H81 UNL     1       2.154  -3.544   1.992  1.00  0.00     0.277 HD
ENDBRANCH  26  27
BRANCH  26  31
HETATM   31  O3  UNL     1       3.591  -1.483   1.504  1.00  0.00    -0.366 OA
ATOM     32  H3  UNL     1       4.053  -2.308   1.595  1.00  0.00     0.212 HD
ENDBRANCH  26  31
ENDBRANCH   1  26
TORSDOF 8
