REMARK  15 active torsions:
REMARK  status: ('A' for Active; 'I' for Inactive)
REMARK    1  A    between atoms: C2_2  and  O1_3 
REMARK    2  A    between atoms: C2_2  and  C3_5 
REMARK    3  A    between atoms: C3_5  and  O2_6 
REMARK    4  A    between atoms: C3_5  and  C4_8 
REMARK    5  A    between atoms: C4_8  and  O3_9 
REMARK    6  A    between atoms: C4_8  and  C5_11 
REMARK    7  A    between atoms: C5_11  and  O4_12 
REMARK    8  A    between atoms: C5_11  and  C6_14 
REMARK       I    between atoms: C6_14  and  N1_16 
REMARK    9  A    between atoms: N1_16  and  C7_18 
REMARK   10  A    between atoms: C8_20  and  C9_21 
REMARK   11  A    between atoms: C10_23  and  N2_24 
REMARK   12  A    between atoms: C15_33  and  O10_34 
REMARK   13  A    between atoms: C16_36  and  N4_37 
REMARK   14  A    between atoms: C17_41  and  O11_42 
REMARK   15  A    between atoms: C18_45  and  O13_46 
ROOT
HETATM    1  C7  UNL     1      -0.534   0.888  -0.306  1.00  0.00     0.279 C 
HETATM    2  O6  UNL     1       0.505  -0.023  -0.180  1.00  0.00    -0.349 OA
HETATM    3  C8  UNL     1       1.635   0.491  -0.765  1.00  0.00     0.210 C 
HETATM    4  C17 UNL     1       1.346   0.580  -2.235  1.00  0.00     0.291 C 
HETATM    5  O12 UNL     1       0.469   1.642  -2.406  1.00  0.00    -0.325 OA
HETATM    6  C18 UNL     1      -0.533   1.744  -1.506  1.00  0.00     0.309 C 
ENDROOT
BRANCH   3   7
HETATM    7  C9  UNL     1       2.864  -0.175  -0.364  1.00  0.00     0.191 C 
HETATM    8  O7  UNL     1       4.021   0.317  -0.936  1.00  0.00    -0.353 OA
HETATM    9  C10 UNL     1       5.047  -0.558  -0.598  1.00  0.00     0.263 C 
HETATM   10  C15 UNL     1       4.415  -1.786   0.021  1.00  0.00     0.200 C 
HETATM   11  C16 UNL     1       2.994  -1.638  -0.569  1.00  0.00     0.247 C 
BRANCH   9  12
HETATM   12  N2  UNL     1       5.957   0.116   0.271  1.00  0.00    -0.280 N 
HETATM   13  C11 UNL     1       6.728  -0.577   1.113  1.00  0.00     0.104 A 
HETATM   14  C12 UNL     1       7.590   0.122   1.930  1.00  0.00     0.092 A 
HETATM   15  C13 UNL     1       7.642   1.487   1.866  1.00  0.00     0.250 A 
HETATM   16  O8  UNL     1       8.431   2.109   2.615  1.00  0.00    -0.268 OA
HETATM   17  N3  UNL     1       6.856   2.163   1.010  1.00  0.00    -0.275 N 
HETATM   18  C14 UNL     1       6.023   1.453   0.224  1.00  0.00     0.331 A 
ATOM     19  H3  UNL     1       6.889   3.181   0.957  1.00  0.00     0.173 HD
HETATM   20  O9  UNL     1       5.305   2.144  -0.564  1.00  0.00    -0.246 OA
ENDBRANCH   9  12
BRANCH  10  21
HETATM   21  O10 UNL     1       4.236  -1.644   1.404  1.00  0.00    -0.389 OA
ATOM     22  H10 UNL     1       3.839  -2.415   1.793  1.00  0.00     0.210 HD
ENDBRANCH  10  21
BRANCH  11  23
HETATM   23  N4  UNL     1       3.138  -2.037  -1.957  1.00  0.00    -0.070 N 
ATOM     24  H43 UNL     1       2.369  -1.666  -2.516  1.00  0.00     0.274 HD
ATOM     25  H42 UNL     1       3.921  -1.546  -2.389  1.00  0.00     0.274 HD
ATOM     26  H41 UNL     1       3.227  -3.043  -2.098  1.00  0.00     0.274 HD
ENDBRANCH  11  23
ENDBRANCH   3   7
BRANCH   4  27
HETATM   27  O11 UNL     1       0.628  -0.554  -2.691  1.00  0.00    -0.368 OA
ATOM     28  H11 UNL     1       0.445  -0.498  -3.622  1.00  0.00     0.212 HD
ENDBRANCH   4  27
BRANCH   1  29
HETATM   29  N1  UNL     1      -1.835   0.220  -0.115  1.00  0.00    -0.328 N 
HETATM   30  C6  UNL     1      -2.668   0.454   0.972  1.00  0.00     0.251 C 
HETATM   31  O5  UNL     1      -2.325   1.283   1.884  1.00  0.00    -0.270 OA
ATOM     32  H1  UNL     1      -2.140  -0.451  -0.820  1.00  0.00     0.165 HD
BRANCH  30  33
HETATM   33  C5  UNL     1      -3.967  -0.229   1.131  1.00  0.00     0.241 C 
BRANCH  33  34
HETATM   34  C4  UNL     1      -4.985   0.254   0.103  1.00  0.00     0.187 C 
BRANCH  34  35
HETATM   35  C3  UNL     1      -6.279  -0.475   0.198  1.00  0.00     0.178 C 
BRANCH  35  36
HETATM   36  C2  UNL     1      -7.306   0.046   1.144  1.00  0.00     0.145 C 
HETATM   37  C1  UNL     1      -8.698  -0.321   0.626  1.00  0.00     0.042 C 
BRANCH  36  38
HETATM   38  O1  UNL     1      -7.145  -0.343   2.457  1.00  0.00    -0.393 OA
ATOM     39  H1  UNL     1      -6.281  -0.115   2.779  1.00  0.00     0.210 HD
ENDBRANCH  36  38
ENDBRANCH  35  36
BRANCH  35  40
HETATM   40  O2  UNL     1      -6.176  -1.848   0.168  1.00  0.00    -0.390 OA
ATOM     41  H2  UNL     1      -5.521  -2.180  -0.435  1.00  0.00     0.210 HD
ENDBRANCH  35  40
ENDBRANCH  34  35
BRANCH  34  42
HETATM   42  O3  UNL     1      -4.404  -0.056  -1.154  1.00  0.00    -0.390 OA
ATOM     43  H3  UNL     1      -3.578   0.409  -1.215  1.00  0.00     0.210 HD
ENDBRANCH  34  42
ENDBRANCH  33  34
BRANCH  33  44
HETATM   44  O4  UNL     1      -4.436   0.069   2.429  1.00  0.00    -0.383 OA
ATOM     45  H4  UNL     1      -3.802  -0.232   3.069  1.00  0.00     0.210 HD
ENDBRANCH  33  44
ENDBRANCH  30  33
ENDBRANCH   1  29
BRANCH   6  46
HETATM   46  O13 UNL     1      -0.647   3.119  -1.170  1.00  0.00    -0.367 OA
ATOM     47  H13 UNL     1      -0.646   3.671  -1.943  1.00  0.00     0.212 HD
ENDBRANCH   6  46
TORSDOF 15
