REMARK  14 active torsions:
REMARK  status: ('A' for Active; 'I' for Inactive)
REMARK    1  A    between atoms: N1_1  and  C1_5 
REMARK    2  A    between atoms: C1_5  and  O1_6 
REMARK    3  A    between atoms: C1_5  and  N2_8 
REMARK    4  A    between atoms: N2_8  and  C2_11 
REMARK    5  A    between atoms: C4_16  and  N4_17 
REMARK    6  A    between atoms: C5_22  and  O3_23 
REMARK    7  A    between atoms: C7_27  and  O5_28 
REMARK    8  A    between atoms: C7_27  and  O6_30 
REMARK    9  A    between atoms: C8_32  and  C9_33 
REMARK   10  A    between atoms: C11_40  and  C12_41 
REMARK   11  A    between atoms: C12_41  and  O10_42 
REMARK   12  A    between atoms: O10_42  and  C13_43 
REMARK   13  A    between atoms: C16_46  and  O11_47 
REMARK   14  A    between atoms: C19_51  and  O12_52 
ROOT
HETATM    1  C2  UNL     1       0.683   2.428   0.675  1.00  0.00     0.417 C 
HETATM    2  N3  UNL     1       0.145   2.443  -0.702  1.00  0.00    -0.034 N 
ATOM      3  H31 UNL     1       0.798   2.176  -1.439  1.00  0.00     0.280 HD
ATOM      4  H32 UNL     1      -0.048   3.364  -1.095  1.00  0.00     0.280 HD
HETATM    5  C3  UNL     1      -1.000   1.578  -0.530  1.00  0.00     0.263 C 
HETATM    6  C4  UNL     1      -1.863   1.357  -1.686  1.00  0.00     0.353 C 
HETATM    7  O2  UNL     1      -3.148   1.054  -1.241  1.00  0.00    -0.324 OA
HETATM    8  C5  UNL     1      -3.267  -0.297  -0.862  1.00  0.00     0.294 C 
HETATM    9  C6  UNL     1      -2.760  -0.520   0.511  1.00  0.00     0.231 C 
HETATM   10  O4  UNL     1      -3.343  -1.435   1.292  1.00  0.00    -0.314 OA
HETATM   11  C7  UNL     1      -3.560  -2.707   0.887  1.00  0.00     0.319 C 
HETATM   12  C8  UNL     1      -2.353  -3.518   0.576  1.00  0.00     0.344 C 
HETATM   13  O9  UNL     1      -1.154  -2.932   1.089  1.00  0.00    -0.256 OA
HETATM   14  N5  UNL     1      -0.634  -1.713   0.709  1.00  0.00    -0.270 N 
ATOM     15  H5  UNL     1       0.382  -1.671   0.630  1.00  0.00     0.194 HD
HETATM   16  C10 UNL     1      -1.251  -0.639   0.445  1.00  0.00     0.059 C 
HETATM   17  C11 UNL     1      -0.312   0.398   0.093  1.00  0.00     0.087 C 
HETATM   18  C19 UNL     1       0.212   1.189   1.348  1.00  0.00     0.195 C 
ENDROOT
BRANCH   1  19
HETATM   19  N2  UNL     1       0.382   3.673   1.307  1.00  0.00     0.008 N 
ATOM     20  H22 UNL     1      -0.055   3.566   2.222  1.00  0.00     0.285 HD
ATOM     21  H21 UNL     1      -0.383   4.178   0.860  1.00  0.00     0.285 HD
BRANCH  19  22
HETATM   22  C1  UNL     1       1.633   4.432   1.347  1.00  0.00     0.521 C 
BRANCH  22  23
HETATM   23  N1  UNL     1       1.466   5.762   1.860  1.00  0.00    -0.027 N 
ATOM     24  H13 UNL     1       2.331   6.302   1.827  1.00  0.00     0.279 HD
ATOM     25  H12 UNL     1       0.907   6.349   1.241  1.00  0.00     0.279 HD
ATOM     26  H11 UNL     1       1.077   5.711   2.801  1.00  0.00     0.279 HD
ENDBRANCH  22  23
BRANCH  22  27
HETATM   27  O1  UNL     1       2.171   4.503   0.046  1.00  0.00    -0.349 OA
ATOM     28  H1  UNL     1       2.282   3.623  -0.294  1.00  0.00     0.213 HD
ENDBRANCH  22  27
ENDBRANCH  19  22
ENDBRANCH   1  19
BRANCH  18  29
HETATM   29  O12 UNL     1       1.183   0.434   1.966  1.00  0.00    -0.390 OA
ATOM     30  H12 UNL     1       0.882  -0.358   2.396  1.00  0.00     0.210 HD
ENDBRANCH  18  29
BRANCH  17  31
HETATM   31  C12 UNL     1       0.952   0.005  -0.607  1.00  0.00     0.196 C 
BRANCH  31  32
HETATM   32  O10 UNL     1       1.582  -1.085  -0.024  1.00  0.00    -0.350 OA
BRANCH  32  33
HETATM   33  C13 UNL     1       2.808  -1.595  -0.357  1.00  0.00     0.069 A 
HETATM   34  C14 UNL     1       3.546  -0.983  -1.337  1.00  0.00     0.039 A 
HETATM   35  C15 UNL     1       4.794  -1.506  -1.671  1.00  0.00     0.039 A 
HETATM   36  C16 UNL     1       5.267  -2.618  -1.021  1.00  0.00     0.065 A 
HETATM   37  C17 UNL     1       4.532  -3.260  -0.018  1.00  0.00     0.039 A 
HETATM   38  C18 UNL     1       3.302  -2.722   0.291  1.00  0.00     0.039 A 
BRANCH  36  39
HETATM   39  O11 UNL     1       6.523  -3.102  -1.389  1.00  0.00    -0.361 OA
ATOM     40  H11 UNL     1       6.850  -3.872  -0.939  1.00  0.00     0.217 HD
ENDBRANCH  36  39
ENDBRANCH  32  33
ENDBRANCH  31  32
ENDBRANCH  17  31
BRANCH   6  41
HETATM   41  N4  UNL     1      -2.025   2.670  -2.365  1.00  0.00    -0.051 N 
ATOM     42  H43 UNL     1      -2.367   3.403  -1.744  1.00  0.00     0.277 HD
ATOM     43  H42 UNL     1      -1.136   3.109  -2.606  1.00  0.00     0.277 HD
ATOM     44  H41 UNL     1      -2.628   2.516  -3.173  1.00  0.00     0.277 HD
ENDBRANCH   6  41
BRANCH   8  45
HETATM   45  O3  UNL     1      -2.578  -1.031  -1.851  1.00  0.00    -0.368 OA
ATOM     46  H3  UNL     1      -2.658  -1.942  -1.595  1.00  0.00     0.212 HD
ENDBRANCH   8  45
BRANCH  11  47
HETATM   47  O5  UNL     1      -4.479  -2.800  -0.184  1.00  0.00    -0.341 OA
ATOM     48  H5  UNL     1      -4.631  -3.693  -0.468  1.00  0.00     0.215 HD
ENDBRANCH  11  47
BRANCH  11  49
HETATM   49  O6  UNL     1      -4.227  -3.328   1.948  1.00  0.00    -0.341 OA
ATOM     50  H6  UNL     1      -4.379  -4.221   1.664  1.00  0.00     0.215 HD
ENDBRANCH  11  49
BRANCH  12  51
HETATM   51  C9  UNL     1      -2.372  -4.923   1.006  1.00  0.00     0.214 C 
HETATM   52  O7  UNL     1      -3.215  -5.367   1.799  1.00  0.00    -0.646 OA
HETATM   53  O8  UNL     1      -1.400  -5.765   0.492  1.00  0.00    -0.646 OA
ENDBRANCH  12  51
TORSDOF 14
