REMARK  15 active torsions:
REMARK  status: ('A' for Active; 'I' for Inactive)
REMARK    1  A    between atoms: N1_1  and  N2_4 
REMARK    2  A    between atoms: N2_4  and  C1_6 
REMARK    3  A    between atoms: N7_20  and  C6_21 
REMARK    4  A    between atoms: C7_22  and  N8_23 
REMARK    5  A    between atoms: N8_23  and  C8_25 
REMARK    6  A    between atoms: C8_25  and  O2_26 
REMARK    7  A    between atoms: C8_25  and  C9_28 
REMARK    8  A    between atoms: C9_28  and  N9_29 
REMARK       I    between atoms: N9_29  and  C10_31 
REMARK    9  A    between atoms: C10_31  and  C11_33 
REMARK   10  A    between atoms: C11_33  and  C12_34 
REMARK   11  A    between atoms: C12_34  and  N10_35 
REMARK   12  A    between atoms: C12_34  and  O4_39 
REMARK   13  A    between atoms: C14_42  and  N11_43 
REMARK   14  A    between atoms: C15_47  and  O5_48 
REMARK   15  A    between atoms: C16_50  and  O6_51 
ROOT
HETATM    1  C6  UNL     1       0.564  -2.108   0.590  1.00  0.00     0.165 C 
HETATM    2  C7  UNL     1      -0.335  -2.401  -0.605  1.00  0.00     0.108 C 
HETATM    3  C13 UNL     1      -1.629  -2.902  -0.039  1.00  0.00     0.062 C 
HETATM    4  C14 UNL     1      -1.387  -4.393   0.305  1.00  0.00     0.216 C 
HETATM    5  C15 UNL     1      -0.072  -4.513   1.055  1.00  0.00     0.179 C 
HETATM    6  C16 UNL     1       0.433  -3.217   1.605  1.00  0.00     0.175 C 
ENDROOT
BRANCH   1   7
HETATM    7  N7  UNL     1       1.923  -1.961   0.122  1.00  0.00    -0.249 N 
HETATM    8  C4  UNL     1       2.704  -0.876   0.230  1.00  0.00     0.171 A 
HETATM    9  N4  UNL     1       2.533   0.348   0.753  1.00  0.00    -0.331 N 
HETATM   10  C5  UNL     1       3.927  -1.207  -0.365  1.00  0.00     0.169 A 
HETATM   11  C3  UNL     1       3.530   1.248   0.706  1.00  0.00     0.148 A 
ATOM     12  H4  UNL     1       1.644   0.596   1.187  1.00  0.00     0.168 HD
HETATM   13  C2  UNL     1       3.367   2.529   1.244  1.00  0.00     0.290 A 
HETATM   14  C17 UNL     1       4.737   0.914   0.116  1.00  0.00     0.155 A 
HETATM   15  N3  UNL     1       4.356   3.436   1.199  1.00  0.00    -0.153 N 
HETATM   16  O1  UNL     1       2.294   2.861   1.782  1.00  0.00    -0.265 OA
HETATM   17  C1  UNL     1       5.520   3.086   0.620  1.00  0.00     0.701 A 
ATOM     18  H3  UNL     1       4.229   4.368   1.594  1.00  0.00     0.187 HD
HETATM   19  N13 UNL     1       5.695   1.860   0.097  1.00  0.00    -0.173 N 
ATOM     20  H13 UNL     1       6.593   1.637  -0.333  1.00  0.00     0.186 HD
HETATM   21  N12 UNL     1       4.923  -0.308  -0.412  1.00  0.00    -0.322 N 
ATOM     22  H12 UNL     1       5.814  -0.550  -0.845  1.00  0.00     0.169 HD
HETATM   23  N5  UNL     1       3.812  -2.464  -0.794  1.00  0.00    -0.268 N 
HETATM   24  N6  UNL     1       2.610  -2.903  -0.496  1.00  0.00    -0.237 N 
ATOM     25  H5  UNL     1       4.537  -2.997  -1.274  1.00  0.00     0.190 HD
ATOM     26  H6  UNL     1       2.259  -3.836  -0.711  1.00  0.00     0.208 HD
BRANCH  17  27
HETATM   27  N2  UNL     1       6.496   3.956   0.564  1.00  0.00    -0.138 N 
ATOM     28  H2  UNL     1       7.383   3.704   0.127  1.00  0.00     0.205 HD
BRANCH  27  29
HETATM   29  N1  UNL     1       6.317   5.233   1.106  1.00  0.00    -0.331 N 
ATOM     30  H12 UNL     1       5.424   5.469   1.539  1.00  0.00     0.177 HD
ATOM     31  H11 UNL     1       7.078   5.911   1.062  1.00  0.00     0.177 HD
ENDBRANCH  27  29
ENDBRANCH  17  27
ENDBRANCH   1   7
BRANCH   2  32
HETATM   32  N8  UNL     1      -0.367  -1.407  -1.580  1.00  0.00    -0.389 N 
ATOM     33  H8  UNL     1      -0.035  -1.643  -2.515  1.00  0.00     0.156 HD
BRANCH  32  34
HETATM   34  C8  UNL     1      -0.825  -0.111  -1.356  1.00  0.00     0.231 C 
BRANCH  34  35
HETATM   35  O2  UNL     1      -0.621   0.616  -2.571  1.00  0.00    -0.376 OA
ATOM     36  H2  UNL     1      -0.933   1.500  -2.418  1.00  0.00     0.212 HD
ENDBRANCH  34  35
BRANCH  34  37
HETATM   37  C9  UNL     1      -2.267   0.095  -1.013  1.00  0.00     0.175 C 
BRANCH  37  38
HETATM   38  N9  UNL     1      -2.558   1.533  -0.834  1.00  0.00    -0.357 N 
HETATM   39  C10 UNL     1      -3.869   1.949  -0.502  1.00  0.00     0.221 C 
HETATM   40  O3  UNL     1      -4.781   1.099  -0.362  1.00  0.00    -0.273 OA
ATOM     41  H9  UNL     1      -1.816   2.223  -0.949  1.00  0.00     0.162 HD
BRANCH  39  42
HETATM   42  C11 UNL     1      -4.174   3.379  -0.320  1.00  0.00     0.163 C 
BRANCH  42  43
HETATM   43  C12 UNL     1      -5.629   3.577   0.037  1.00  0.00     0.324 C 
BRANCH  43  44
HETATM   44  N10 UNL     1      -6.483   3.066  -1.000  1.00  0.00    -0.053 N 
ATOM     45 3H10 UNL     1      -6.259   3.472  -1.908  1.00  0.00     0.277 HD
ATOM     46 2H10 UNL     1      -6.276   2.090  -1.213  1.00  0.00     0.277 HD
ATOM     47 1H10 UNL     1      -7.465   3.200  -0.759  1.00  0.00     0.277 HD
ENDBRANCH  43  44
BRANCH  43  48
HETATM   48  O4  UNL     1      -5.845   4.939   0.257  1.00  0.00    -0.369 OA
ATOM     49  H4  UNL     1      -6.760   5.063   0.481  1.00  0.00     0.212 HD
ENDBRANCH  43  48
ENDBRANCH  42  43
ENDBRANCH  39  42
ENDBRANCH  37  38
ENDBRANCH  34  37
ENDBRANCH  32  34
ENDBRANCH   2  32
BRANCH   6  50
HETATM   50  O6  UNL     1       1.717  -3.469   2.112  1.00  0.00    -0.391 OA
ATOM     51  H6  UNL     1       1.635  -4.167   2.751  1.00  0.00     0.210 HD
ENDBRANCH   6  50
BRANCH   5  52
HETATM   52  O5  UNL     1       0.871  -5.223   0.316  1.00  0.00    -0.391 OA
ATOM     53  H5  UNL     1       1.694  -5.298   0.785  1.00  0.00     0.210 HD
ENDBRANCH   5  52
BRANCH   4  54
HETATM   54  N11 UNL     1      -1.320  -5.080  -0.971  1.00  0.00    -0.072 N 
ATOM     55 3H11 UNL     1      -2.135  -4.923  -1.564  1.00  0.00     0.274 HD
ATOM     56 2H11 UNL     1      -0.628  -4.690  -1.611  1.00  0.00     0.274 HD
ATOM     57 1H11 UNL     1      -1.161  -6.062  -0.745  1.00  0.00     0.274 HD
ENDBRANCH   4  54
TORSDOF 15
