REMARK  14 active torsions:
REMARK  status: ('A' for Active; 'I' for Inactive)
REMARK    1  A    between atoms: O1_2  and  C2_3 
REMARK    2  A    between atoms: C3_4  and  N1_5 
REMARK    3  A    between atoms: C4_9  and  O2_10 
REMARK    4  A    between atoms: N2_12  and  N3_13 
REMARK    5  A    between atoms: C5_16  and  O3_17 
REMARK    6  A    between atoms: C6_19  and  N4_20 
REMARK    7  A    between atoms: C6_19  and  C7_24 
REMARK       I    between atoms: C7_24  and  N5_26 
REMARK    8  A    between atoms: N5_26  and  C8_28 
REMARK    9  A    between atoms: C8_28  and  N6_29 
REMARK   10  A    between atoms: N6_29  and  C9_32 
REMARK   11  A    between atoms: N10_41  and  C13_42 
REMARK   12  A    between atoms: C14_44  and  O6_45 
REMARK   13  A    between atoms: C15_47  and  O7_48 
REMARK   14  A    between atoms: C16_50  and  O8_51 
ROOT
HETATM    1  C7  UNL     1       2.738  -0.685  -1.441  1.00  0.00     0.262 C 
HETATM    2  O4  UNL     1       2.631  -1.326  -2.529  1.00  0.00    -0.270 OA
HETATM    3  N5  UNL     1       1.529  -0.163  -0.918  1.00  0.00    -0.335 N 
ATOM      4  H5  UNL     1       1.564   0.361  -0.044  1.00  0.00     0.164 HD
ENDROOT
BRANCH   3   5
HETATM    5  C8  UNL     1       0.247  -0.338  -1.565  1.00  0.00     0.357 C 
BRANCH   5   6
HETATM    6  N6  UNL     1      -0.827   0.282  -0.859  1.00  0.00    -0.048 N 
ATOM      7  H62 UNL     1      -0.879  -0.030   0.111  1.00  0.00     0.280 HD
ATOM      8  H61 UNL     1      -0.652   1.272  -0.687  1.00  0.00     0.280 HD
BRANCH   6   9
HETATM    9  C9  UNL     1      -2.044   0.069  -1.553  1.00  0.00     0.259 A 
HETATM   10  C10 UNL     1      -2.042   0.732  -2.971  1.00  0.00     0.189 A 
HETATM   11  N7  UNL     1      -3.197   1.566  -2.968  1.00  0.00    -0.283 N 
HETATM   12  N8  UNL     1      -3.926   2.445  -3.720  1.00  0.00    -0.293 N 
HETATM   13  C18 UNL     1      -3.729   1.413  -1.816  1.00  0.00     0.120 A 
HETATM   14  C11 UNL     1      -5.056   3.014  -3.186  1.00  0.00     0.199 A 
ATOM     15  H8  UNL     1      -3.633   2.676  -4.669  1.00  0.00     0.188 HD
HETATM   16  N9  UNL     1      -5.538   2.770  -1.919  1.00  0.00    -0.335 N 
HETATM   17  C12 UNL     1      -4.848   1.896  -1.118  1.00  0.00     0.142 A 
ATOM     18  H9  UNL     1      -6.386   3.227  -1.585  1.00  0.00     0.168 HD
HETATM   19  N10 UNL     1      -4.350   1.079  -0.141  1.00  0.00    -0.300 N 
HETATM   20  C17 UNL     1      -3.256   0.627  -0.869  1.00  0.00     0.080 A 
BRANCH  19  21
HETATM   21  C13 UNL     1      -4.866   0.843   1.160  1.00  0.00     0.264 C 
HETATM   22  O5  UNL     1      -4.066   0.057   1.946  1.00  0.00    -0.331 OA
HETATM   23  C14 UNL     1      -4.836  -0.485   2.937  1.00  0.00     0.290 C 
HETATM   24  C15 UNL     1      -6.272  -0.435   2.526  1.00  0.00     0.206 C 
HETATM   25  C16 UNL     1      -6.160   0.042   1.093  1.00  0.00     0.201 C 
BRANCH  23  26
HETATM   26  O6  UNL     1      -4.699   0.188   4.151  1.00  0.00    -0.368 OA
ATOM     27  H6  UNL     1      -5.234  -0.189   4.840  1.00  0.00     0.212 HD
ENDBRANCH  23  26
BRANCH  24  28
HETATM   28  O7  UNL     1      -6.909  -1.670   2.621  1.00  0.00    -0.388 OA
ATOM     29  H7  UNL     1      -7.822  -1.638   2.360  1.00  0.00     0.210 HD
ENDBRANCH  24  28
BRANCH  25  30
HETATM   30  O8  UNL     1      -5.985  -1.076   0.276  1.00  0.00    -0.388 OA
ATOM     31  H8  UNL     1      -6.792  -1.576   0.234  1.00  0.00     0.210 HD
ENDBRANCH  25  30
ENDBRANCH  19  21
ENDBRANCH   6   9
ENDBRANCH   5   6
ENDBRANCH   3   5
BRANCH   1  32
HETATM   32  C6  UNL     1       4.052  -0.509  -0.781  1.00  0.00     0.270 C 
HETATM   33  C2  UNL     1       4.110  -1.227   0.520  1.00  0.00     0.204 C 
HETATM   34  C3  UNL     1       5.088  -0.664   1.506  1.00  0.00     0.259 C 
HETATM   35  C4  UNL     1       5.265   0.808   1.434  1.00  0.00     0.247 C 
HETATM   36  N2  UNL     1       5.479   1.280   0.103  1.00  0.00    -0.175 NA
HETATM   37  C5  UNL     1       4.326   0.964  -0.689  1.00  0.00     0.262 C 
BRANCH  33  38
HETATM   38  O1  UNL     1       2.859  -1.335   1.102  1.00  0.00    -0.385 OA
HETATM   39  C1  UNL     1       2.445  -2.659   1.240  1.00  0.00     0.202 C 
ENDBRANCH  33  38
BRANCH  34  40
HETATM   40  N1  UNL     1       4.616  -0.992   2.848  1.00  0.00    -0.069 N 
ATOM     41  H13 UNL     1       3.660  -0.679   3.018  1.00  0.00     0.275 HD
ATOM     42  H12 UNL     1       4.457  -1.991   2.977  1.00  0.00     0.275 HD
ATOM     43  H11 UNL     1       5.282  -0.609   3.519  1.00  0.00     0.275 HD
ENDBRANCH  34  40
BRANCH  35  44
HETATM   44  O2  UNL     1       4.179   1.511   1.972  1.00  0.00    -0.377 OA
ATOM     45  H2  UNL     1       4.292   2.453   1.926  1.00  0.00     0.211 HD
ENDBRANCH  35  44
BRANCH  36  46
HETATM   46  N3  UNL     1       6.685   0.913  -0.449  1.00  0.00    -0.359 NA
ATOM     47  H32 UNL     1       7.505   1.138   0.114  1.00  0.00     0.171 HD
ATOM     48  H31 UNL     1       6.838   1.250  -1.399  1.00  0.00     0.171 HD
ENDBRANCH  36  46
BRANCH  37  49
HETATM   49  O3  UNL     1       4.485   1.460  -1.979  1.00  0.00    -0.376 OA
ATOM     50  H3  UNL     1       3.721   1.251  -2.504  1.00  0.00     0.211 HD
ENDBRANCH  37  49
BRANCH  32  51
HETATM   51  N4  UNL     1       5.058  -1.072  -1.702  1.00  0.00    -0.055 N 
ATOM     52  H43 UNL     1       5.995  -1.064  -1.300  1.00  0.00     0.276 HD
ATOM     53  H42 UNL     1       4.955  -2.081  -1.814  1.00  0.00     0.276 HD
ATOM     54  H41 UNL     1       5.018  -0.580  -2.594  1.00  0.00     0.276 HD
ENDBRANCH  32  51
ENDBRANCH   1  32
TORSDOF 14
