REMARK  12 active torsions:
REMARK  status: ('A' for Active; 'I' for Inactive)
REMARK    1  A    between atoms: N1_1  and  C1_4 
REMARK    2  A    between atoms: C3_8  and  C4_9 
REMARK    3  A    between atoms: C4_9  and  C5_10 
REMARK    4  A    between atoms: C5_10  and  N3_11 
REMARK    5  A    between atoms: C5_10  and  C6_15 
REMARK       I    between atoms: C6_15  and  N4_17 
REMARK    6  A    between atoms: N4_17  and  C7_19 
REMARK    7  A    between atoms: C8_20  and  O2_21 
REMARK    8  A    between atoms: C9_23  and  O3_24 
REMARK    9  A    between atoms: C10_26  and  C11_27 
REMARK   10  A    between atoms: C12_28  and  S1_29 
REMARK   11  A    between atoms: S1_29  and  C13_30 
REMARK   12  A    between atoms: N6_38  and  O4_39 
ROOT
HETATM    1  C6  UNL     1      -1.988   0.873  -0.459  1.00  0.00     0.249 C 
HETATM    2  O1  UNL     1      -1.763   2.075  -0.785  1.00  0.00    -0.271 OA
HETATM    3  N4  UNL     1      -1.139  -0.186  -0.870  1.00  0.00    -0.351 N 
ATOM      4  H4  UNL     1      -1.329  -1.151  -0.601  1.00  0.00     0.163 HD
ENDROOT
BRANCH   1   5
HETATM    5  C5  UNL     1      -3.183   0.588   0.380  1.00  0.00     0.280 C 
BRANCH   5   6
HETATM    6  C4  UNL     1      -4.431   1.163  -0.185  1.00  0.00     0.102 C 
BRANCH   6   7
HETATM    7  C3  UNL     1      -5.640   1.029   0.645  1.00  0.00     0.047 A 
HETATM    8  C2  UNL     1      -5.661   0.506   1.897  1.00  0.00     0.132 A 
HETATM    9  N2  UNL     1      -6.832   0.422   2.552  1.00  0.00    -0.197 N 
HETATM   10  C1  UNL     1      -7.944   0.858   1.949  1.00  0.00     0.717 A 
ATOM     11  H2  UNL     1      -6.872   0.032   3.494  1.00  0.00     0.183 HD
HETATM   12  N6  UNL     1      -7.948   1.380   0.711  1.00  0.00     0.016 N 
HETATM   13  N5  UNL     1      -6.806   1.463   0.069  1.00  0.00    -0.262 N 
ATOM     14  H5  UNL     1      -6.786   1.856  -0.872  1.00  0.00     0.190 HD
BRANCH  10  15
HETATM   15  N1  UNL     1      -9.070   0.778   2.579  1.00  0.00    -0.231 N 
ATOM     16  H12 UNL     1      -9.067   0.382   3.519  1.00  0.00     0.174 HD
ATOM     17  H11 UNL     1      -9.918   1.110   2.119  1.00  0.00     0.174 HD
ENDBRANCH  10  15
BRANCH  12  18
HETATM   18  O4  UNL     1      -9.144   1.802   0.174  1.00  0.00    -0.254 OA
ATOM     19  H4  UNL     1      -9.147   2.171  -0.701  1.00  0.00     0.247 HD
ENDBRANCH  12  18
ENDBRANCH   6   7
ENDBRANCH   5   6
BRANCH   5  20
HETATM   20  N3  UNL     1      -3.235  -0.831   0.621  1.00  0.00    -0.066 N 
ATOM     21  H33 UNL     1      -4.032  -1.062   1.214  1.00  0.00     0.275 HD
ATOM     22  H32 UNL     1      -3.501  -1.326  -0.230  1.00  0.00     0.275 HD
ATOM     23  H31 UNL     1      -2.378  -1.226   1.009  1.00  0.00     0.275 HD
ENDBRANCH   5  20
ENDBRANCH   1   5
BRANCH   3  24
HETATM   24  C7  UNL     1       0.006   0.155  -1.685  1.00  0.00     0.126 C 
HETATM   25  C8  UNL     1       0.036  -0.770  -2.902  1.00  0.00     0.171 C 
HETATM   26  C9  UNL     1       1.535  -0.859  -2.707  1.00  0.00     0.158 C 
HETATM   27  C10 UNL     1       1.302  -0.521  -1.248  1.00  0.00     0.065 C 
BRANCH  25  28
HETATM   28  O2  UNL     1      -0.339  -0.047  -4.038  1.00  0.00    -0.391 OA
ATOM     29  H2  UNL     1      -0.320  -0.622  -4.794  1.00  0.00     0.210 HD
ENDBRANCH  25  28
BRANCH  26  30
HETATM   30  O3  UNL     1       2.249   0.099  -3.413  1.00  0.00    -0.392 OA
ATOM     31  H3  UNL     1       3.189   0.043  -3.291  1.00  0.00     0.210 HD
ENDBRANCH  26  30
BRANCH  27  32
HETATM   32  C11 UNL     1       2.255   0.522  -0.768  1.00  0.00    -0.010 C 
HETATM   33  C12 UNL     1       3.102   0.324   0.219  1.00  0.00     0.043 C 
BRANCH  33  34
HETATM   34  S1  UNL     1       3.141  -1.259   1.050  1.00  0.00    -0.116 SA
BRANCH  34  35
HETATM   35  C13 UNL     1       4.858  -1.737   1.360  1.00  0.00     0.173 C 
HETATM   36  S2  UNL     1       5.636  -0.597   2.561  1.00  0.00    -0.143 SA
HETATM   37  C14 UNL     1       6.726   0.486   1.558  1.00  0.00     0.076 C 
HETATM   38  C15 UNL     1       7.937  -0.314   1.116  1.00  0.00     0.020 C 
HETATM   39  C16 UNL     1       7.584  -1.486   0.264  1.00  0.00     0.076 C 
HETATM   40  S3  UNL     1       5.840  -1.594  -0.166  1.00  0.00    -0.143 SA
ENDBRANCH  34  35
ENDBRANCH  33  34
ENDBRANCH  27  32
ENDBRANCH   3  24
TORSDOF 12
