REMARK  13 active torsions:
REMARK  status: ('A' for Active; 'I' for Inactive)
REMARK    1  A    between atoms: C2_2  and  C3_3 
REMARK    2  A    between atoms: C3_3  and  N1_4 
REMARK    3  A    between atoms: C4_6  and  C5_7 
REMARK    4  A    between atoms: C6_11  and  O1_12 
REMARK    5  A    between atoms: O1_12  and  C7_13 
REMARK    6  A    between atoms: C9_15  and  C10_16 
REMARK    7  A    between atoms: C10_16  and  N3_17 
REMARK    8  A    between atoms: C11_21  and  C12_22 
REMARK    9  A    between atoms: C12_22  and  O2_23 
REMARK   10  A    between atoms: C13_26  and  N4_27 
REMARK   11  A    between atoms: C18_34  and  N5_35 
REMARK   12  A    between atoms: C19_39  and  O4_40 
REMARK   13  A    between atoms: C20_42  and  O5_43 
ROOT
HETATM    1  C5  UNL     1      -0.762   2.058   0.508  1.00  0.00     0.258 C 
HETATM    2  N2  UNL     1      -0.333   0.982   1.386  1.00  0.00    -0.035 N 
ATOM      3  H21 UNL     1      -1.037   0.742   2.084  1.00  0.00     0.281 HD
ATOM      4  H22 UNL     1       0.406   1.270   2.027  1.00  0.00     0.281 HD
HETATM    5  C6  UNL     1       0.050  -0.152   0.568  1.00  0.00     0.349 C 
HETATM    6  C13 UNL     1       1.280   0.126  -0.244  1.00  0.00     0.169 C 
HETATM    7  C19 UNL     1       1.587   1.612  -0.231  1.00  0.00     0.176 C 
HETATM    8  C20 UNL     1       0.353   2.465  -0.428  1.00  0.00     0.184 C 
ENDROOT
BRANCH   5   9
HETATM    9  O1  UNL     1      -1.002  -0.635  -0.193  1.00  0.00    -0.327 OA
BRANCH   9  10
HETATM   10  C7  UNL     1      -1.414  -1.892   0.120  1.00  0.00     0.263 C 
HETATM   11  C8  UNL     1      -2.864  -1.790   0.618  1.00  0.00     0.069 C 
HETATM   12  C9  UNL     1      -3.175  -3.295   0.664  1.00  0.00     0.047 C 
HETATM   13  C11 UNL     1      -2.488  -3.733  -0.595  1.00  0.00     0.154 C 
HETATM   14  O3  UNL     1      -1.524  -2.779  -0.910  1.00  0.00    -0.353 OA
BRANCH  12  15
HETATM   15  C10 UNL     1      -4.650  -3.473   0.691  1.00  0.00     0.236 C 
BRANCH  15  16
HETATM   16  N3  UNL     1      -5.041  -4.852   0.739  1.00  0.00    -0.079 N 
ATOM     17  H33 UNL     1      -4.623  -5.378  -0.029  1.00  0.00     0.274 HD
ATOM     18  H32 UNL     1      -4.601  -5.330   1.525  1.00  0.00     0.274 HD
ATOM     19  H31 UNL     1      -6.053  -4.974   0.758  1.00  0.00     0.274 HD
ENDBRANCH  15  16
ENDBRANCH  12  15
BRANCH  13  20
HETATM   20  C12 UNL     1      -3.406  -3.871  -1.786  1.00  0.00     0.196 C 
BRANCH  20  21
HETATM   21  O2  UNL     1      -2.572  -4.277  -2.856  1.00  0.00    -0.398 OA
ATOM     22  H2  UNL     1      -3.150  -4.364  -3.605  1.00  0.00     0.209 HD
ENDBRANCH  20  21
ENDBRANCH  13  20
ENDBRANCH   9  10
ENDBRANCH   5   9
BRANCH   6  23
HETATM   23  N4  UNL     1       2.403  -0.520   0.369  1.00  0.00    -0.375 N 
HETATM   24  C14 UNL     1       3.521  -0.684  -0.250  1.00  0.00     0.076 C 
HETATM   25  S1  UNL     1       4.113  -0.262  -1.881  1.00  0.00    -0.103 SA
HETATM   26  C18 UNL     1       4.818  -1.301   0.124  1.00  0.00     0.257 C 
HETATM   27  C15 UNL     1       5.582  -0.403  -0.825  1.00  0.00     0.041 C 
HETATM   28  C16 UNL     1       5.903   0.908  -0.155  1.00  0.00     0.029 C 
HETATM   29  C17 UNL     1       6.752  -1.089  -1.486  1.00  0.00     0.029 C 
ATOM     30  H4  UNL     1       2.314  -0.861   1.326  1.00  0.00     0.160 HD
BRANCH  26  31
HETATM   31  N5  UNL     1       4.870  -2.710  -0.227  1.00  0.00    -0.068 N 
ATOM     32  H53 UNL     1       4.086  -3.222   0.177  1.00  0.00     0.275 HD
ATOM     33  H52 UNL     1       4.663  -2.854  -1.215  1.00  0.00     0.275 HD
ATOM     34  H51 UNL     1       5.761  -3.134   0.030  1.00  0.00     0.275 HD
ENDBRANCH  26  31
ENDBRANCH   6  23
BRANCH   1  35
HETATM   35  C4  UNL     1      -1.323   3.193   1.268  1.00  0.00     0.091 C 
HETATM   36  N1  UNL     1      -1.761   4.221   0.643  1.00  0.00    -0.397 N 
ATOM     37  H1  UNL     1      -1.705   4.216  -0.375  1.00  0.00     0.159 HD
BRANCH  36  38
HETATM   38  C3  UNL     1      -2.320   5.369   1.270  1.00  0.00     0.145 C 
BRANCH  38  39
HETATM   39  C2  UNL     1      -2.698   6.319   0.168  1.00  0.00    -0.018 C 
HETATM   40  C1  UNL     1      -3.950   6.700   0.020  1.00  0.00     0.008 C 
ENDBRANCH  38  39
ENDBRANCH  36  38
ENDBRANCH   1  35
BRANCH   7  41
HETATM   41  O4  UNL     1       2.338   2.007   0.846  1.00  0.00    -0.391 OA
ATOM     42  H4  UNL     1       2.530   2.937   0.854  1.00  0.00     0.210 HD
ENDBRANCH   7  41
BRANCH   8  43
HETATM   43  O5  UNL     1       0.711   3.776  -0.098  1.00  0.00    -0.390 OA
ATOM     44  H5  UNL     1       1.412   4.032  -0.686  1.00  0.00     0.210 HD
ENDBRANCH   8  43
TORSDOF 13
