REMARK  13 active torsions:
REMARK  status: ('A' for Active; 'I' for Inactive)
REMARK    1  A    between atoms: C2_2  and  O1_3 
REMARK    2  A    between atoms: O1_3  and  N1_4 
REMARK    3  A    between atoms: N1_4  and  C3_6 
REMARK    4  A    between atoms: C3_6  and  N2_8 
REMARK    5  A    between atoms: N2_8  and  C4_10 
REMARK    6  A    between atoms: C5_11  and  O2_12 
REMARK    7  A    between atoms: C7_16  and  C8_17 
REMARK    8  A    between atoms: C8_17  and  O4_18 
REMARK    9  A    between atoms: C9_20  and  O5_21 
REMARK   10  A    between atoms: C10_23  and  O6_24 
REMARK   11  A    between atoms: O6_24  and  C11_25 
REMARK   12  A    between atoms: C17_31  and  O7_32 
REMARK   13  A    between atoms: C18_34  and  N3_35 
ROOT
HETATM    1  C4  UNL     1      -1.811  -0.489   0.271  1.00  0.00     0.163 C 
HETATM    2  C5  UNL     1      -1.464  -0.764  -1.159  1.00  0.00     0.176 C 
HETATM    3  C6  UNL     1      -0.259   0.134  -1.424  1.00  0.00     0.162 C 
HETATM    4  O3  UNL     1       0.023   0.356  -2.729  1.00  0.00    -0.373 OA
HETATM    5  C7  UNL     1       0.964   1.400  -2.775  1.00  0.00     0.176 C 
HETATM    6  C9  UNL     1       1.856   1.426  -1.556  1.00  0.00     0.178 C 
HETATM    7  C10 UNL     1       2.139  -0.059  -1.224  1.00  0.00     0.162 C 
HETATM    8  C16 UNL     1       0.855  -0.613  -0.696  1.00  0.00     0.083 C 
HETATM    9  C17 UNL     1       0.682  -0.482   0.782  1.00  0.00     0.174 C 
HETATM   10  C18 UNL     1      -0.717  -0.717   1.272  1.00  0.00     0.039 C 
ENDROOT
BRANCH   1  11
HETATM   11  N2  UNL     1      -3.059  -1.104   0.597  1.00  0.00    -0.353 N 
ATOM     12  H2  UNL     1      -3.059  -2.035   1.013  1.00  0.00     0.162 HD
BRANCH  11  13
HETATM   13  C3  UNL     1      -4.295  -0.456   0.359  1.00  0.00     0.192 C 
HETATM   14  S1  UNL     1      -5.672  -1.312   0.750  1.00  0.00    -0.039 SA
BRANCH  13  15
HETATM   15  N1  UNL     1      -4.440   0.848  -0.182  1.00  0.00    -0.241 N 
ATOM     16  H1  UNL     1      -3.628   1.413  -0.431  1.00  0.00     0.197 HD
BRANCH  15  17
HETATM   17  O1  UNL     1      -5.712   1.316  -0.355  1.00  0.00    -0.279 OA
BRANCH  17  18
HETATM   18  C2  UNL     1      -6.184   1.895   0.820  1.00  0.00     0.197 C 
HETATM   19  C1  UNL     1      -7.589   2.389   0.560  1.00  0.00     0.036 C 
ENDBRANCH  17  18
ENDBRANCH  15  17
ENDBRANCH  13  15
ENDBRANCH  11  13
ENDBRANCH   1  11
BRANCH   2  20
HETATM   20  O2  UNL     1      -2.510  -0.503  -1.987  1.00  0.00    -0.391 OA
ATOM     21  H2  UNL     1      -2.290  -0.678  -2.894  1.00  0.00     0.210 HD
ENDBRANCH   2  20
BRANCH  10  22
HETATM   22  N3  UNL     1      -0.810  -1.881   2.057  1.00  0.00    -0.392 N 
HETATM   23  C19 UNL     1      -0.761  -3.159   1.545  1.00  0.00     0.148 C 
HETATM   24  C20 UNL     1      -1.192  -1.712   3.415  1.00  0.00     0.148 C 
ENDBRANCH  10  22
BRANCH   9  25
HETATM   25  O7  UNL     1       1.495  -1.416   1.416  1.00  0.00    -0.389 OA
ATOM     26  H7  UNL     1       1.385  -1.333   2.356  1.00  0.00     0.210 HD
ENDBRANCH   9  25
BRANCH   5  27
HETATM   27  C8  UNL     1       0.360   2.725  -3.123  1.00  0.00     0.198 C 
BRANCH  27  28
HETATM   28  O4  UNL     1      -0.605   3.172  -2.248  1.00  0.00    -0.398 OA
ATOM     29  H4  UNL     1      -0.988   4.013  -2.469  1.00  0.00     0.209 HD
ENDBRANCH  27  28
ENDBRANCH   5  27
BRANCH   7  30
HETATM   30  O6  UNL     1       3.217  -0.089  -0.418  1.00  0.00    -0.377 OA
BRANCH  30  31
HETATM   31  C11 UNL     1       4.391  -0.535  -0.864  1.00  0.00     0.122 C 
HETATM   32  C12 UNL     1       4.741  -1.844  -0.136  1.00  0.00     0.032 C 
HETATM   33  C13 UNL     1       5.631  -1.437   0.996  1.00  0.00     0.002 C 
HETATM   34  C14 UNL     1       5.966   0.029   0.829  1.00  0.00     0.002 C 
HETATM   35  C15 UNL     1       5.613   0.271  -0.621  1.00  0.00     0.032 C 
ENDBRANCH  30  31
ENDBRANCH   7  30
BRANCH   6  36
HETATM   36  O5  UNL     1       3.035   2.055  -1.950  1.00  0.00    -0.390 OA
ATOM     37  H5  UNL     1       3.596   2.071  -1.183  1.00  0.00     0.210 HD
ENDBRANCH   6  36
TORSDOF 13
