REMARK  11 active torsions:
REMARK  status: ('A' for Active; 'I' for Inactive)
REMARK    1  A    between atoms: N1_2  and  C2_4 
REMARK    2  A    between atoms: C3_5  and  O1_6 
REMARK    3  A    between atoms: O1_6  and  C4_7 
REMARK    4  A    between atoms: C5_9  and  C6_10 
REMARK    5  A    between atoms: C6_10  and  N2_11 
REMARK    6  A    between atoms: C7_15  and  O3_16 
REMARK    7  A    between atoms: C8_19  and  O5_20 
REMARK    8  A    between atoms: C15_28  and  N3_29 
REMARK       I    between atoms: N3_29  and  C16_31 
REMARK    9  A    between atoms: C16_31  and  C17_33 
REMARK   10  A    between atoms: C17_33  and  C18_34 
REMARK   11  A    between atoms: C20_37  and  O8_38 
ROOT
HETATM    1  C2  UNL     1       0.095  -0.028  -1.155  1.00  0.00     0.069 C 
HETATM    2  C3  UNL     1      -1.053   0.902  -0.807  1.00  0.00     0.097 C 
HETATM    3  C9  UNL     1      -0.900   2.343  -1.155  1.00  0.00     0.039 C 
HETATM    4  C10 UNL     1      -0.674   3.367  -0.154  1.00  0.00    -0.001 C 
HETATM    5  C11 UNL     1       0.289   3.458   0.923  1.00  0.00    -0.027 C 
HETATM    6  C12 UNL     1       1.735   3.664   0.704  1.00  0.00     0.027 C 
HETATM    7  C13 UNL     1       2.652   2.475   1.135  1.00  0.00     0.006 C 
HETATM    8  C14 UNL     1       2.012   1.380   0.411  1.00  0.00     0.028 C 
HETATM    9  C15 UNL     1       2.219  -0.034   0.352  1.00  0.00     0.119 C 
HETATM   10  C20 UNL     1       0.894  -0.661  -0.117  1.00  0.00     0.193 C 
ENDROOT
BRANCH   2  11
HETATM   11  O1  UNL     1      -1.630   0.616   0.407  1.00  0.00    -0.313 OA
BRANCH  11  12
HETATM   12  C4  UNL     1      -2.878   0.053   0.395  1.00  0.00     0.322 C 
HETATM   13  O2  UNL     1      -2.803  -1.176   1.044  1.00  0.00    -0.344 OA
HETATM   14  C5  UNL     1      -4.029  -1.745   1.311  1.00  0.00     0.205 C 
HETATM   15  C7  UNL     1      -4.913  -0.806   2.109  1.00  0.00     0.290 C 
HETATM   16  O4  UNL     1      -5.075   0.350   1.383  1.00  0.00    -0.324 OA
HETATM   17  C8  UNL     1      -3.843   0.971   1.103  1.00  0.00     0.316 C 
BRANCH  14  18
HETATM   18  C6  UNL     1      -4.747  -2.162   0.048  1.00  0.00     0.266 C 
BRANCH  18  19
HETATM   19  N2  UNL     1      -6.019  -2.749   0.366  1.00  0.00    -0.077 N 
ATOM     20  H23 UNL     1      -5.926  -3.523   1.024  1.00  0.00     0.274 HD
ATOM     21  H22 UNL     1      -6.590  -2.130   0.941  1.00  0.00     0.274 HD
ATOM     22  H21 UNL     1      -6.504  -3.030  -0.486  1.00  0.00     0.274 HD
ENDBRANCH  18  19
ENDBRANCH  14  18
BRANCH  15  23
HETATM   23  O3  UNL     1      -4.351  -0.609   3.363  1.00  0.00    -0.368 OA
ATOM     24  H3  UNL     1      -4.905  -0.021   3.863  1.00  0.00     0.212 HD
ENDBRANCH  15  23
BRANCH  17  25
HETATM   25  O5  UNL     1      -4.138   2.073   0.284  1.00  0.00    -0.367 OA
ATOM     26  H5  UNL     1      -4.746   2.651   0.730  1.00  0.00     0.212 HD
ENDBRANCH  17  25
ENDBRANCH  11  12
ENDBRANCH   2  11
BRANCH   1  27
HETATM   27  N1  UNL     1       0.748   0.376  -2.380  1.00  0.00    -0.393 N 
HETATM   28  C1  UNL     1      -0.171   0.308  -3.533  1.00  0.00     0.146 C 
ATOM     29  H1  UNL     1       1.722   0.671  -2.440  1.00  0.00     0.159 HD
ENDBRANCH   1  27
BRANCH  10  30
HETATM   30  O8  UNL     1       1.221  -2.014  -0.318  1.00  0.00    -0.387 OA
ATOM     31  H8  UNL     1       1.743  -2.427   0.360  1.00  0.00     0.210 HD
ENDBRANCH  10  30
BRANCH   9  32
HETATM   32  N3  UNL     1       3.352  -0.501  -0.403  1.00  0.00    -0.353 N 
HETATM   33  C16 UNL     1       4.361  -1.349   0.118  1.00  0.00     0.225 C 
HETATM   34  O6  UNL     1       4.273  -1.731   1.330  1.00  0.00    -0.273 OA
ATOM     35  H3  UNL     1       3.434  -0.203  -1.375  1.00  0.00     0.163 HD
BRANCH  33  36
HETATM   36  C17 UNL     1       5.514  -1.822  -0.661  1.00  0.00     0.180 C 
BRANCH  36  37
HETATM   37  C18 UNL     1       6.401  -2.697   0.144  1.00  0.00     0.131 C 
HETATM   38  C19 UNL     1       6.364  -4.184  -0.042  1.00  0.00     0.091 C 
HETATM   39  O7  UNL     1       7.171  -2.228   0.965  1.00  0.00    -0.298 OA
ENDBRANCH  36  37
ENDBRANCH  33  36
ENDBRANCH   9  32
TORSDOF 11
