REMARK  11 active torsions:
REMARK  status: ('A' for Active; 'I' for Inactive)
REMARK    1  A    between atoms: N1_2  and  C2_5 
REMARK    2  A    between atoms: C2_5  and  C3_6 
REMARK    3  A    between atoms: C7_10  and  O1_11 
REMARK    4  A    between atoms: O1_11  and  C8_12 
REMARK    5  A    between atoms: C10_14  and  S1_15 
REMARK    6  A    between atoms: S1_15  and  C11_16 
REMARK    7  A    between atoms: C14_20  and  O3_21 
REMARK    8  A    between atoms: C15_23  and  O4_24 
REMARK    9  A    between atoms: C16_26  and  C17_27 
REMARK   10  A    between atoms: C18_30  and  N2_31 
REMARK   11  A    between atoms: C20_36  and  N3_37 
ROOT
HETATM    1  C8  UNL     1      -1.569   0.440   1.441  1.00  0.00     0.156 C 
HETATM    2  C9  UNL     1      -0.319  -0.371   1.457  1.00  0.00     0.051 C 
HETATM    3  C10 UNL     1       0.835   0.177   0.689  1.00  0.00     0.082 C 
HETATM    4  C18 UNL     1       1.035   1.631   1.137  1.00  0.00     0.199 C 
HETATM    5  C19 UNL     1      -0.177   2.395   0.718  1.00  0.00     0.069 C 
HETATM    6  C20 UNL     1      -1.371   1.919   1.483  1.00  0.00     0.214 C 
ENDROOT
BRANCH   3   7
HETATM    7  S1  UNL     1       2.315  -0.724   1.232  1.00  0.00    -0.129 SA
BRANCH   7   8
HETATM    8  C11 UNL     1       3.797  -0.148   0.364  1.00  0.00     0.200 C 
HETATM    9  O2  UNL     1       3.669  -0.495  -0.975  1.00  0.00    -0.367 OA
HETATM   10  C12 UNL     1       4.751  -0.185  -1.760  1.00  0.00     0.150 C 
HETATM   11  C13 UNL     1       4.493  -0.813  -3.132  1.00  0.00     0.042 C 
HETATM   12  C14 UNL     1       6.054  -0.782  -1.271  1.00  0.00     0.176 C 
HETATM   13  C15 UNL     1       5.681  -1.701  -0.100  1.00  0.00     0.167 C 
HETATM   14  C16 UNL     1       5.051  -0.762   0.938  1.00  0.00     0.157 C 
BRANCH  12  15
HETATM   15  O3  UNL     1       6.745  -1.456  -2.252  1.00  0.00    -0.390 OA
ATOM     16  H3  UNL     1       7.562  -1.831  -1.945  1.00  0.00     0.210 HD
ENDBRANCH  12  15
BRANCH  13  17
HETATM   17  O4  UNL     1       6.820  -2.246   0.445  1.00  0.00    -0.392 OA
ATOM     18  H4  UNL     1       6.589  -2.815   1.170  1.00  0.00     0.210 HD
ENDBRANCH  13  17
BRANCH  14  19
HETATM   19  C17 UNL     1       6.077   0.264   1.230  1.00  0.00     0.183 C 
HETATM   20  O5  UNL     1       5.902   1.483   1.008  1.00  0.00    -0.648 OA
HETATM   21  O6  UNL     1       7.282  -0.138   1.770  1.00  0.00    -0.648 OA
ENDBRANCH  14  19
ENDBRANCH   7   8
ENDBRANCH   3   7
BRANCH   4  22
HETATM   22  N2  UNL     1       1.203   1.566   2.586  1.00  0.00    -0.074 N 
ATOM     23  H23 UNL     1       0.442   1.088   3.068  1.00  0.00     0.274 HD
ATOM     24  H22 UNL     1       1.947   0.936   2.886  1.00  0.00     0.274 HD
ATOM     25  H21 UNL     1       1.336   2.532   2.884  1.00  0.00     0.274 HD
ENDBRANCH   4  22
BRANCH   1  26
HETATM   26  O1  UNL     1      -2.375   0.012   0.401  1.00  0.00    -0.354 OA
BRANCH  26  27
HETATM   27  C7  UNL     1      -3.544  -0.592   0.805  1.00  0.00     0.260 C 
HETATM   28  C6  UNL     1      -3.775  -1.949   0.241  1.00  0.00     0.061 C 
HETATM   29  C5  UNL     1      -4.334  -1.964  -1.147  1.00  0.00     0.007 C 
HETATM   30  C4  UNL     1      -4.206  -0.640  -1.828  1.00  0.00     0.034 C 
HETATM   31  C3  UNL     1      -4.527   0.529  -0.966  1.00  0.00     0.150 C 
HETATM   32  O7  UNL     1      -4.605   0.234   0.383  1.00  0.00    -0.354 OA
BRANCH  31  33
HETATM   33  C2  UNL     1      -5.861   1.132  -1.366  1.00  0.00     0.263 C 
BRANCH  33  34
HETATM   34  N1  UNL     1      -6.933   0.199  -1.122  1.00  0.00    -0.077 N 
HETATM   35  C1  UNL     1      -8.194   0.759  -1.496  1.00  0.00     0.267 C 
ATOM     36  H12 UNL     1      -6.937  -0.125  -0.155  1.00  0.00     0.276 HD
ATOM     37  H11 UNL     1      -6.766  -0.695  -1.584  1.00  0.00     0.276 HD
ENDBRANCH  33  34
ENDBRANCH  31  33
ENDBRANCH  26  27
ENDBRANCH   1  26
BRANCH   6  38
HETATM   38  N3  UNL     1      -1.230   2.397   2.869  1.00  0.00    -0.072 N 
ATOM     39  H33 UNL     1      -2.018   2.107   3.448  1.00  0.00     0.274 HD
ATOM     40  H32 UNL     1      -0.485   1.904   3.362  1.00  0.00     0.274 HD
ATOM     41  H31 UNL     1      -1.095   3.408   2.898  1.00  0.00     0.274 HD
ENDBRANCH   6  38
TORSDOF 11
