REMARK  7 active torsions:
REMARK  status: ('A' for Active; 'I' for Inactive)
REMARK    1  A    between atoms: C2_2  and  N1_3 
REMARK    2  A    between atoms: C2_2  and  C3_7 
REMARK       I    between atoms: C3_7  and  N2_9 
REMARK    3  A    between atoms: N2_9  and  C4_11 
REMARK    4  A    between atoms: C4_11  and  N3_12 
REMARK       I    between atoms: N3_12  and  C5_14 
REMARK       I    between atoms: C5_14  and  N4_16 
REMARK    5  A    between atoms: N5_20  and  N6_21 
REMARK    6  A    between atoms: N6_21  and  O5_23 
REMARK    7  A    between atoms: C8_26  and  N7_28 
ROOT
HETATM    1  C4  UNL     1       0.552  -0.309   0.547  1.00  0.00     0.163 C 
HETATM    2  C6  UNL     1       0.875  -0.977   1.866  1.00  0.00     0.201 C 
HETATM    3  N5  UNL     1       1.486  -2.247   1.546  1.00  0.00    -0.302 N 
HETATM    4  C7  UNL     1       2.064  -2.120   0.237  1.00  0.00     0.187 C 
HETATM    5  C8  UNL     1       1.007  -1.277  -0.479  1.00  0.00     0.182 C 
HETATM    6  C9  UNL     1      -0.057  -2.233  -0.944  1.00  0.00     0.053 C 
ENDROOT
BRANCH   1   7
HETATM    7  N2  UNL     1      -0.845   0.051   0.474  1.00  0.00    -0.329 N 
HETATM    8  C3  UNL     1      -1.477   0.698  -0.602  1.00  0.00     0.249 C 
HETATM    9  O1  UNL     1      -0.797   1.004  -1.603  1.00  0.00    -0.271 OA
ATOM     10  H2  UNL     1      -1.427  -0.186   1.278  1.00  0.00     0.165 HD
BRANCH   8  11
HETATM   11  C2  UNL     1      -2.913   1.041  -0.622  1.00  0.00     0.270 C 
HETATM   12  C1  UNL     1      -3.741  -0.247  -0.559  1.00  0.00     0.050 C 
BRANCH  11  13
HETATM   13  N1  UNL     1      -3.291   1.700  -1.857  1.00  0.00    -0.067 N 
ATOM     14  H13 UNL     1      -3.187   1.109  -2.682  1.00  0.00     0.275 HD
ATOM     15  H12 UNL     1      -4.295   1.857  -1.943  1.00  0.00     0.275 HD
ATOM     16  H11 UNL     1      -2.740   2.557  -1.899  1.00  0.00     0.275 HD
ENDBRANCH  11  13
ENDBRANCH   8  11
ENDBRANCH   1   7
BRANCH   1  17
HETATM   17  N3  UNL     1       1.319   0.913   0.406  1.00  0.00    -0.307 N 
HETATM   18  C5  UNL     1       1.207   1.991   1.329  1.00  0.00     0.383 C 
HETATM   19  O2  UNL     1       0.414   1.868   2.294  1.00  0.00    -0.241 OA
HETATM   20  N4  UNL     1       1.942   3.187   1.210  1.00  0.00    -0.055 N 
HETATM   21  O3  UNL     1       1.842   4.216   2.082  1.00  0.00    -0.528 OA
HETATM   22  O4  UNL     1       2.806   3.355   0.183  1.00  0.00    -0.528 OA
ATOM     23  H3  UNL     1       1.961   1.004  -0.382  1.00  0.00     0.167 HD
ENDBRANCH   1  17
BRANCH   5  24
HETATM   24  N7  UNL     1       1.655  -0.718  -1.629  1.00  0.00    -0.065 N 
ATOM     25  H73 UNL     1       1.052  -0.017  -2.059  1.00  0.00     0.275 HD
ATOM     26  H72 UNL     1       2.437  -0.133  -1.335  1.00  0.00     0.275 HD
ATOM     27  H71 UNL     1       1.968  -1.384  -2.335  1.00  0.00     0.275 HD
ENDBRANCH   5  24
BRANCH   3  28
HETATM   28  N6  UNL     1       1.535  -3.408   2.322  1.00  0.00    -0.212 N 
ATOM     29  H6  UNL     1       2.269  -3.514   3.022  1.00  0.00     0.215 HD
BRANCH  28  30
HETATM   30  O5  UNL     1       0.687  -4.323   2.169  1.00  0.00    -0.275 OA
ATOM     31  H5  UNL     1       0.720  -5.112   2.697  1.00  0.00     0.246 HD
ENDBRANCH  28  30
ENDBRANCH   3  28
TORSDOF 7
