REMARK  7 active torsions:
REMARK  status: ('A' for Active; 'I' for Inactive)
REMARK    1  A    between atoms: N1_1  and  N2_4 
REMARK       I    between atoms: N2_4  and  C1_6 
REMARK       I    between atoms: C1_6  and  N3_8 
REMARK    2  A    between atoms: C2_9  and  C3_10 
REMARK    3  A    between atoms: C3_10  and  C4_11 
REMARK    4  A    between atoms: C4_11  and  S1_12 
REMARK    5  A    between atoms: S1_12  and  N4_13 
REMARK    6  A    between atoms: N5_18  and  O4_20 
REMARK    7  A    between atoms: C5_24  and  C6_25 
ROOT
HETATM    1  N2  UNL     1      -2.691   2.261  -0.742  1.00  0.00    -0.258 N 
ATOM      2  H2  UNL     1      -3.494   1.701  -0.454  1.00  0.00     0.191 HD
HETATM    3  C1  UNL     1      -1.414   1.679  -0.740  1.00  0.00     0.347 C 
HETATM    4  O1  UNL     1      -0.527   2.496  -1.122  1.00  0.00    -0.245 OA
HETATM    5  N3  UNL     1      -1.094   0.336  -0.366  1.00  0.00    -0.231 N 
HETATM    6  C2  UNL     1       0.142  -0.207  -0.414  1.00  0.00     0.144 A 
HETATM    7  N6  UNL     1      -0.009  -1.494   0.072  1.00  0.00    -0.333 N 
ATOM      8  H6  UNL     1       0.745  -2.174   0.167  1.00  0.00     0.168 HD
HETATM    9  C5  UNL     1      -1.272  -1.714   0.395  1.00  0.00     0.141 A 
HETATM   10  C7  UNL     1      -1.997  -0.550   0.123  1.00  0.00     0.160 A 
HETATM   11  N8  UNL     1      -3.370  -0.369   0.328  1.00  0.00    -0.079 NA
ENDROOT
BRANCH   6  12
HETATM   12  C3  UNL     1       1.430   0.271  -0.891  1.00  0.00     0.092 C 
HETATM   13  N5  UNL     1       1.732   1.333  -1.485  1.00  0.00    -0.269 N 
ATOM     14  H5  UNL     1       0.982   1.995  -1.685  1.00  0.00     0.194 HD
BRANCH  12  15
HETATM   15  C4  UNL     1       2.619  -0.633  -0.603  1.00  0.00     0.225 C 
BRANCH  15  16
HETATM   16  S1  UNL     1       3.177  -0.502   1.053  1.00  0.00     0.230 S 
HETATM   17  O2  UNL     1       4.392  -1.362   1.255  1.00  0.00    -0.206 OA
HETATM   18  O3  UNL     1       2.147  -0.962   2.015  1.00  0.00    -0.206 OA
BRANCH  16  19
HETATM   19  N4  UNL     1       3.661   1.126   1.389  1.00  0.00    -0.328 N 
ATOM     20  H42 UNL     1       3.621   1.887   0.711  1.00  0.00     0.168 HD
ATOM     21  H41 UNL     1       3.986   1.202   2.353  1.00  0.00     0.168 HD
ENDBRANCH  16  19
ENDBRANCH  15  16
ENDBRANCH  12  15
BRANCH  13  22
HETATM   22  O4  UNL     1       2.972   1.659  -1.876  1.00  0.00    -0.290 OA
ATOM     23  H4  UNL     1       3.201   2.464  -2.326  1.00  0.00     0.244 HD
ENDBRANCH  13  22
ENDBRANCH   6  12
BRANCH   9  24
HETATM   24  C6  UNL     1      -1.874  -2.920   0.939  1.00  0.00     0.284 C 
HETATM   25  N7  UNL     1      -1.051  -4.039   1.175  1.00  0.00    -0.056 NA
HETATM   26  O5  UNL     1      -3.088  -2.951   1.185  1.00  0.00    -0.269 OA
ENDBRANCH   9  24
BRANCH   1  27
HETATM   27  N1  UNL     1      -2.891   3.601  -1.132  1.00  0.00    -0.341 N 
ATOM     28  H12 UNL     1      -2.078   4.147  -1.417  1.00  0.00     0.177 HD
ATOM     29  H11 UNL     1      -3.819   4.024  -1.133  1.00  0.00     0.177 HD
ENDBRANCH   1  27
TORSDOF 7
