REMARK  10 active torsions:
REMARK  status: ('A' for Active; 'I' for Inactive)
REMARK    1  A    between atoms: N1_2  and  N2_3 
REMARK    2  A    between atoms: N1_2  and  N3_6 
REMARK    3  A    between atoms: N4_8  and  C2_10 
REMARK    4  A    between atoms: C3_12  and  N5_13 
REMARK    5  A    between atoms: C5_20  and  C6_21 
REMARK    6  A    between atoms: C6_21  and  O2_22 
REMARK    7  A    between atoms: C6_21  and  N7_24 
REMARK    8  A    between atoms: N7_24  and  N8_26 
REMARK       I    between atoms: N8_26  and  C7_28 
REMARK    9  A    between atoms: C7_28  and  C8_30 
REMARK   10  A    between atoms: N9_31  and  N10_33 
ROOT
HETATM    1  C2  UNL     1      -1.659   1.017  -0.219  1.00  0.00     0.113 A 
HETATM    2  S1  UNL     1      -2.934   2.145   0.096  1.00  0.00    -0.034 SA
HETATM    3  C3  UNL     1      -2.416   3.757   0.014  1.00  0.00     0.147 A 
HETATM    4  N6  UNL     1      -1.128   3.914  -0.276  1.00  0.00    -0.303 N 
ATOM      5  H6  UNL     1      -0.790   4.875  -0.331  1.00  0.00     0.171 HD
HETATM    6  C4  UNL     1      -0.240   2.967  -0.500  1.00  0.00     0.264 A 
HETATM    7  O1  UNL     1       0.951   3.361  -0.762  1.00  0.00    -0.267 OA
HETATM    8  C5  UNL     1      -0.437   1.592  -0.485  1.00  0.00     0.119 A 
ENDROOT
BRANCH   8   9
HETATM    9  C6  UNL     1       0.718   0.722  -0.718  1.00  0.00     0.173 C 
BRANCH   9  10
HETATM   10  O2  UNL     1       1.702   1.294  -1.351  1.00  0.00    -0.344 OA
ATOM     11  H2  UNL     1       2.451   0.730  -1.502  1.00  0.00     0.219 HD
ENDBRANCH   9  10
BRANCH   9  12
HETATM   12  N7  UNL     1       0.909  -0.599  -0.362  1.00  0.00    -0.276 N 
ATOM     13  H7  UNL     1       0.177  -1.097   0.144  1.00  0.00     0.189 HD
BRANCH  12  14
HETATM   14  N8  UNL     1       2.117  -1.269  -0.695  1.00  0.00    -0.263 N 
HETATM   15  C7  UNL     1       3.381  -0.883  -0.206  1.00  0.00     0.276 C 
HETATM   16  O3  UNL     1       3.475   0.093   0.562  1.00  0.00    -0.265 OA
ATOM     17  H8  UNL     1       2.067  -2.072  -1.322  1.00  0.00     0.190 HD
BRANCH  15  18
HETATM   18  C8  UNL     1       4.577  -1.609  -0.584  1.00  0.00     0.182 C 
HETATM   19  N9  UNL     1       5.741  -1.310  -0.182  1.00  0.00    -0.313 N 
ATOM     20  H9  UNL     1       6.501  -1.900  -0.520  1.00  0.00     0.185 HD
BRANCH  19  21
HETATM   21  N10 UNL     1       6.099  -0.271   0.665  1.00  0.00    -0.345 N 
ATOM     22 2H10 UNL     1       5.325   0.308   0.992  1.00  0.00     0.176 HD
ATOM     23 1H10 UNL     1       7.036  -0.030   0.989  1.00  0.00     0.176 HD
ENDBRANCH  19  21
ENDBRANCH  15  18
ENDBRANCH  12  14
ENDBRANCH   9  12
ENDBRANCH   8   9
BRANCH   1  24
HETATM   24  N4  UNL     1      -1.918  -0.387  -0.223  1.00  0.00    -0.277 N 
HETATM   25  N3  UNL     1      -3.029  -0.771   0.241  1.00  0.00    -0.226 N 
ATOM     26  H3  UNL     1      -3.687  -0.077   0.594  1.00  0.00     0.210 HD
ATOM     27  H4  UNL     1      -1.235  -1.052  -0.585  1.00  0.00     0.189 HD
BRANCH  25  28
HETATM   28  N1  UNL     1      -3.381  -2.138   0.282  1.00  0.00    -0.231 N 
HETATM   29  C1  UNL     1      -2.362  -3.089  -0.111  1.00  0.00     0.201 C 
BRANCH  28  30
HETATM   30  N2  UNL     1      -4.614  -2.607   0.669  1.00  0.00    -0.328 N 
ATOM     31  H22 UNL     1      -4.868  -3.594   0.699  1.00  0.00     0.178 HD
ATOM     32  H21 UNL     1      -5.332  -1.937   0.946  1.00  0.00     0.178 HD
ENDBRANCH  28  30
ENDBRANCH  25  28
ENDBRANCH   1  24
BRANCH   3  33
HETATM   33  N5  UNL     1      -3.197   4.767   0.217  1.00  0.00    -0.380 N 
ATOM     34  H52 UNL     1      -4.185   4.647   0.439  1.00  0.00     0.158 HD
ATOM     35  H51 UNL     1      -2.885   5.737   0.168  1.00  0.00     0.158 HD
ENDBRANCH   3  33
TORSDOF 10
