REMARK  8 active torsions:
REMARK  status: ('A' for Active; 'I' for Inactive)
REMARK    1  A    between atoms: N1_1  and  C1_5 
REMARK    2  A    between atoms: C1_5  and  C2_6 
REMARK    3  A    between atoms: C1_5  and  C5_23 
REMARK       I    between atoms: C2_6  and  N2_8 
REMARK    4  A    between atoms: C4_15  and  S1_16 
REMARK    5  A    between atoms: S1_16  and  N5_17 
REMARK    6  A    between atoms: C5_23  and  O4_24 
REMARK    7  A    between atoms: C5_23  and  N6_26 
REMARK    8  A    between atoms: N6_26  and  O5_27 
ROOT
HETATM    1  C2  UNL     1      -1.392  -0.595   1.288  1.00  0.00     0.258 C 
HETATM    2  O1  UNL     1      -1.193   0.102   2.329  1.00  0.00    -0.271 OA
HETATM    3  N2  UNL     1      -0.299  -1.255   0.691  1.00  0.00    -0.304 N 
ATOM      4  H2  UNL     1      -0.381  -2.251   0.485  1.00  0.00     0.171 HD
HETATM    5  C3  UNL     1       0.815  -0.641   0.391  1.00  0.00     0.168 A 
HETATM    6  N3  UNL     1       1.174   0.633   0.553  1.00  0.00    -0.278 N 
ATOM      7  H3  UNL     1       0.529   1.302   0.973  1.00  0.00     0.189 HD
HETATM    8  N4  UNL     1       2.327   1.002   0.179  1.00  0.00    -0.281 N 
ATOM      9  H4  UNL     1       2.611   1.974   0.299  1.00  0.00     0.188 HD
HETATM   10  C4  UNL     1       3.166   0.137  -0.366  1.00  0.00     0.208 A 
HETATM   11  S2  UNL     1       2.240  -1.295  -0.338  1.00  0.00    -0.020 SA
ENDROOT
BRANCH   1  12
HETATM   12  C1  UNL     1      -2.726  -0.738   0.684  1.00  0.00     0.321 C 
BRANCH  12  13
HETATM   13  N1  UNL     1      -2.634  -1.578  -0.476  1.00  0.00    -0.062 N 
ATOM     14  H13 UNL     1      -1.941  -1.240  -1.144  1.00  0.00     0.275 HD
ATOM     15  H12 UNL     1      -2.206  -2.480  -0.267  1.00  0.00     0.275 HD
ATOM     16  H11 UNL     1      -3.559  -1.677  -0.895  1.00  0.00     0.275 HD
ENDBRANCH  12  13
BRANCH  12  17
HETATM   17  C5  UNL     1      -3.349   0.603   0.379  1.00  0.00     0.277 C 
BRANCH  17  18
HETATM   18  O4  UNL     1      -4.620   0.377  -0.107  1.00  0.00    -0.375 OA
ATOM     19  H4  UNL     1      -5.012   1.221  -0.299  1.00  0.00     0.211 HD
ENDBRANCH  17  18
BRANCH  17  20
HETATM   20  N6  UNL     1      -2.517   1.346  -0.514  1.00  0.00    -0.069 NA
BRANCH  20  21
HETATM   21  O5  UNL     1      -2.328   0.700  -1.686  1.00  0.00    -0.294 OA
ATOM     22  H5  UNL     1      -1.775   1.194  -2.280  1.00  0.00     0.238 HD
ENDBRANCH  20  21
ENDBRANCH  17  20
ENDBRANCH  12  17
ENDBRANCH   1  12
BRANCH  10  23
HETATM   23  S1  UNL     1       4.798   0.309  -0.980  1.00  0.00     0.280 S 
HETATM   24  O2  UNL     1       5.027  -0.661  -2.131  1.00  0.00    -0.199 OA
HETATM   25  O3  UNL     1       4.982   1.683  -1.561  1.00  0.00    -0.199 OA
BRANCH  23  26
HETATM   26  N5  UNL     1       5.960   0.022   0.248  1.00  0.00    -0.323 N 
ATOM     27  H52 UNL     1       5.716  -0.217   1.209  1.00  0.00     0.169 HD
ATOM     28  H51 UNL     1       6.910   0.122  -0.109  1.00  0.00     0.169 HD
ENDBRANCH  23  26
ENDBRANCH  10  23
TORSDOF 8
