REMARK  7 active torsions:
REMARK  status: ('A' for Active; 'I' for Inactive)
REMARK    1  A    between atoms: C2_2  and  C3_4 
REMARK    2  A    between atoms: C3_4  and  O2_5 
REMARK    3  A    between atoms: C3_4  and  N1_7 
REMARK    4  A    between atoms: N2_10  and  C6_11 
REMARK    5  A    between atoms: C7_14  and  C8_15 
REMARK       I    between atoms: C8_15  and  N4_17 
REMARK    6  A    between atoms: N4_17  and  N5_18 
REMARK    7  A    between atoms: C9_23  and  N7_24 
ROOT
HETATM    1  C6  UNL     1       1.484   0.205  -0.666  1.00  0.00     0.696 A 
HETATM    2  N3  UNL     1       2.773   0.018  -0.312  1.00  0.00    -0.169 N 
ATOM      3  H3  UNL     1       3.005  -0.123   0.671  1.00  0.00     0.186 HD
HETATM    4  C7  UNL     1       3.720   0.014  -1.191  1.00  0.00     0.220 A 
HETATM    5  N6  UNL     1       3.491   0.196  -2.504  1.00  0.00    -0.169 N 
ATOM      6  H6  UNL     1       4.260   0.179  -3.174  1.00  0.00     0.186 HD
HETATM    7  C9  UNL     1       2.276   0.393  -2.898  1.00  0.00     0.692 A 
HETATM    8  N8  UNL     1       1.291   0.402  -2.037  1.00  0.00    -0.022 N 
ATOM      9  H8  UNL     1       0.343   0.559  -2.380  1.00  0.00     0.203 HD
ENDROOT
BRANCH   1  10
HETATM   10  N2  UNL     1       0.340   0.157   0.169  1.00  0.00    -0.214 N 
HETATM   11  C5  UNL     1      -0.724  -0.759  -0.360  1.00  0.00     0.160 C 
HETATM   12  C4  UNL     1      -1.964   0.199  -0.229  1.00  0.00     0.140 C 
HETATM   13  N1  UNL     1      -2.261   0.203   1.155  1.00  0.00    -0.379 N 
HETATM   14  C11 UNL     1      -1.163   0.176   2.057  1.00  0.00     0.140 C 
HETATM   15  C10 UNL     1       0.102   0.765   1.418  1.00  0.00     0.160 C 
BRANCH  13  16
HETATM   16  C3  UNL     1      -3.471  -0.453   1.503  1.00  0.00     0.286 C 
BRANCH  16  17
HETATM   17  C2  UNL     1      -4.633   0.363   1.084  1.00  0.00     0.170 C 
HETATM   18  C1  UNL     1      -5.388   0.223  -0.181  1.00  0.00     0.096 C 
HETATM   19  O1  UNL     1      -4.965   1.226   1.930  1.00  0.00    -0.294 OA
ENDBRANCH  16  17
BRANCH  16  20
HETATM   20  O2  UNL     1      -3.507  -1.702   0.778  1.00  0.00    -0.370 OA
ATOM     21  H2  UNL     1      -2.761  -2.226   1.047  1.00  0.00     0.212 HD
ENDBRANCH  16  20
ENDBRANCH  13  16
ENDBRANCH   1  10
BRANCH   4  22
HETATM   22  C8  UNL     1       5.205  -0.010  -0.787  1.00  0.00     0.379 C 
HETATM   23  O3  UNL     1       5.968  -0.265  -1.689  1.00  0.00    -0.246 OA
HETATM   24  N4  UNL     1       5.516   0.265   0.452  1.00  0.00    -0.285 NA
BRANCH  24  25
HETATM   25  N5  UNL     1       5.858   0.555   1.765  1.00  0.00    -0.276 N 
ATOM     26  H52 UNL     1       6.032   0.292   0.795  1.00  0.00     0.191 HD
ATOM     27  H51 UNL     1       6.101   0.770   2.732  1.00  0.00     0.191 HD
ENDBRANCH  24  25
ENDBRANCH   4  22
BRANCH   7  28
HETATM   28  N7  UNL     1       2.102   0.515  -4.184  1.00  0.00    -0.234 N 
ATOM     29  H72 UNL     1       2.870   0.508  -4.855  1.00  0.00     0.174 HD
ATOM     30  H71 UNL     1       1.143   0.670  -4.495  1.00  0.00     0.174 HD
ENDBRANCH   7  28
TORSDOF 7
