REMARK  6 active torsions:
REMARK  status: ('A' for Active; 'I' for Inactive)
REMARK    1  A    between atoms: C4_4  and  C5_5 
REMARK    2  A    between atoms: N3_10  and  C6_11 
REMARK    3  A    between atoms: C6_11  and  C7_12 
REMARK       I    between atoms: C7_12  and  N4_14 
REMARK    4  A    between atoms: N4_14  and  N5_16 
REMARK    5  A    between atoms: N5_16  and  C8_18 
REMARK    6  A    between atoms: C9_25  and  N9_26 
ROOT
HETATM    1  C7  UNL     1       0.167   0.292  -0.290  1.00  0.00     0.256 C 
HETATM    2  O1  UNL     1      -0.101  -0.936  -0.275  1.00  0.00    -0.270 OA
HETATM    3  N4  UNL     1       1.533   0.675  -0.231  1.00  0.00    -0.254 N 
ATOM      4  H4  UNL     1       1.770   1.667  -0.244  1.00  0.00     0.190 HD
ENDROOT
BRANCH   3   5
HETATM    5  N5  UNL     1       2.561  -0.266  -0.156  1.00  0.00    -0.128 N 
ATOM      6  H5  UNL     1       2.446  -1.173  -0.608  1.00  0.00     0.205 HD
BRANCH   5   7
HETATM    7  C8  UNL     1       3.671  -0.002   0.486  1.00  0.00     0.727 A 
HETATM    8  N6  UNL     1       3.885   1.159   1.096  1.00  0.00    -0.115 N 
HETATM    9  N7  UNL     1       5.022   1.381   1.732  1.00  0.00    -0.214 N 
ATOM     10  H6  UNL     1       3.167   1.883   1.073  1.00  0.00     0.207 HD
HETATM   11  N8  UNL     1       5.986   0.480   1.793  1.00  0.00    -0.117 N 
ATOM     12  H7  UNL     1       5.160   2.281   2.192  1.00  0.00     0.209 HD
HETATM   13  C9  UNL     1       5.780  -0.705   1.176  1.00  0.00     0.706 A 
ATOM     14  H8  UNL     1       6.856   0.672   2.289  1.00  0.00     0.207 HD
HETATM   15  N10 UNL     1       4.620  -0.951   0.519  1.00  0.00    -0.019 N 
ATOM     16  H10 UNL     1       4.470  -1.847   0.055  1.00  0.00     0.203 HD
BRANCH  13  17
HETATM   17  N9  UNL     1       6.668  -1.627   1.193  1.00  0.00    -0.233 N 
ATOM     18  H92 UNL     1       7.541  -1.442   1.687  1.00  0.00     0.174 HD
ATOM     19  H91 UNL     1       6.513  -2.521   0.727  1.00  0.00     0.174 HD
ENDBRANCH  13  17
ENDBRANCH   5   7
ENDBRANCH   3   5
BRANCH   1  20
HETATM   20  C6  UNL     1      -0.904   1.318  -0.369  1.00  0.00     0.253 C 
BRANCH  20  21
HETATM   21  N3  UNL     1      -2.212   0.723  -0.421  1.00  0.00    -0.287 N 
HETATM   22  C2  UNL     1      -2.868   0.373  -1.542  1.00  0.00     0.027 A 
HETATM   23  C1  UNL     1      -2.382   0.528  -2.944  1.00  0.00     0.070 C 
HETATM   24  C3  UNL     1      -4.073  -0.153  -1.124  1.00  0.00     0.060 A 
HETATM   25  C4  UNL     1      -4.124  -0.111   0.269  1.00  0.00     0.085 A 
HETATM   26  N2  UNL     1      -2.959   0.434   0.644  1.00  0.00    -0.295 N 
ATOM     27  H2  UNL     1      -2.682   0.604   1.611  1.00  0.00     0.187 HD
BRANCH  25  28
HETATM   28  C5  UNL     1      -5.226  -0.570   1.117  1.00  0.00     0.141 C 
HETATM   29  N1  UNL     1      -5.327  -1.942   1.467  1.00  0.00    -0.087 NA
HETATM   30  S1  UNL     1      -6.351   0.473   1.674  1.00  0.00    -0.061 SA
ENDBRANCH  25  28
ENDBRANCH  20  21
ENDBRANCH   1  20
TORSDOF 6
