REMARK  13 active torsions:
REMARK  status: ('A' for Active; 'I' for Inactive)
REMARK    1  A    between atoms: N1_1  and  C1_5 
REMARK    2  A    between atoms: C1_5  and  C2_6 
REMARK       I    between atoms: C2_6  and  N2_8 
REMARK    3  A    between atoms: N2_8  and  C3_10 
REMARK    4  A    between atoms: C5_12  and  C6_13 
REMARK    5  A    between atoms: C6_13  and  O2_14 
REMARK    6  A    between atoms: C6_13  and  C7_16 
REMARK    7  A    between atoms: C7_16  and  N3_17 
REMARK    8  A    between atoms: N3_17  and  N4_18 
REMARK    9  A    between atoms: C12_26  and  S1_27 
REMARK   10  A    between atoms: S1_27  and  N6_28 
REMARK   11  A    between atoms: C15_37  and  C16_38 
REMARK   12  A    between atoms: C15_37  and  N9_43 
REMARK   13  A    between atoms: C16_38  and  N8_39 
REMARK       I    between atoms: N9_43  and  C17_45 
ROOT
HETATM    1  C3  UNL     1      -0.914   1.123   0.492  1.00  0.00     0.103 C 
HETATM    2  C4  UNL     1      -1.145   0.501   1.877  1.00  0.00     0.033 C 
HETATM    3  C5  UNL     1      -1.218  -0.960   1.652  1.00  0.00     0.019 C 
HETATM    4  C8  UNL     1      -1.026  -1.212   0.185  1.00  0.00     0.030 C 
HETATM    5  C9  UNL     1      -0.411   0.056  -0.349  1.00  0.00     0.072 A 
HETATM    6  C10 UNL     1       1.073  -0.118  -0.379  1.00  0.00     0.058 A 
HETATM    7  C11 UNL     1       2.236  -0.322   0.311  1.00  0.00     0.093 A 
HETATM    8  N5  UNL     1       2.324  -0.472   1.736  1.00  0.00    -0.099 NA
HETATM    9  C12 UNL     1       3.426  -0.394  -0.382  1.00  0.00     0.110 A 
HETATM   10  C13 UNL     1       3.428  -0.260  -1.751  1.00  0.00     0.102 A 
HETATM   11  C14 UNL     1       2.216  -0.055  -2.392  1.00  0.00     0.251 A 
HETATM   12  O5  UNL     1       2.245   0.063  -3.647  1.00  0.00    -0.268 OA
HETATM   13  N7  UNL     1       1.032   0.017  -1.706  1.00  0.00    -0.285 N 
HETATM   14  C15 UNL     1      -0.386   0.191  -1.866  1.00  0.00     0.156 A 
ENDROOT
BRANCH   1  15
HETATM   15  N2  UNL     1      -0.015   2.260   0.676  1.00  0.00    -0.354 N 
HETATM   16  C2  UNL     1      -0.441   3.579   0.857  1.00  0.00     0.243 C 
HETATM   17  O1  UNL     1      -1.661   3.841   0.870  1.00  0.00    -0.272 OA
ATOM     18  H2  UNL     1       0.989   2.080   0.672  1.00  0.00     0.162 HD
BRANCH  16  19
HETATM   19  C1  UNL     1       0.532   4.671   1.035  1.00  0.00     0.332 C 
BRANCH  19  20
HETATM   20  N1  UNL     1       1.901   4.143   0.988  1.00  0.00    -0.071 N 
ATOM     21  H13 UNL     1       2.043   3.392   1.664  1.00  0.00     0.274 HD
ATOM     22  H12 UNL     1       2.076   3.612   0.135  1.00  0.00     0.274 HD
ATOM     23  H11 UNL     1       2.575   4.899   1.111  1.00  0.00     0.274 HD
ENDBRANCH  19  20
ENDBRANCH  16  19
ENDBRANCH   1  15
BRANCH  14  24
HETATM   24  C16 UNL     1      -1.143  -1.024  -2.399  1.00  0.00     0.285 C 
BRANCH  24  25
HETATM   25  N8  UNL     1      -1.210  -1.142  -3.810  1.00  0.00    -0.075 N 
ATOM     26  H83 UNL     1      -1.598  -0.288  -4.211  1.00  0.00     0.274 HD
ATOM     27  H82 UNL     1      -0.270  -1.119  -4.205  1.00  0.00     0.274 HD
ATOM     28  H81 UNL     1      -1.715  -1.953  -4.166  1.00  0.00     0.274 HD
ENDBRANCH  24  25
ENDBRANCH  14  24
BRANCH  14  29
HETATM   29  N9  UNL     1      -0.821   1.444  -2.363  1.00  0.00    -0.316 N 
HETATM   30  C17 UNL     1      -0.877   1.975  -3.631  1.00  0.00     0.330 C 
HETATM   31  N10 UNL     1      -1.392   3.322  -3.798  1.00  0.00    -0.040 NA
HETATM   32  O6  UNL     1      -0.537   1.448  -4.690  1.00  0.00    -0.251 OA
ATOM     33  H9  UNL     1      -1.159   2.077  -1.638  1.00  0.00     0.166 HD
ENDBRANCH  14  29
BRANCH   3  34
HETATM   34  C6  UNL     1      -2.615  -1.465   2.021  1.00  0.00     0.138 C 
BRANCH  34  35
HETATM   35  O2  UNL     1      -2.922  -1.217   3.344  1.00  0.00    -0.394 OA
ATOM     36  H2  UNL     1      -3.789  -1.530   3.573  1.00  0.00     0.210 HD
ENDBRANCH  34  35
BRANCH  34  37
HETATM   37  C7  UNL     1      -2.630  -2.959   1.805  1.00  0.00     0.166 C 
BRANCH  37  38
HETATM   38  N3  UNL     1      -3.952  -3.480   2.118  1.00  0.00    -0.146 NA
BRANCH  38  39
HETATM   39  N4  UNL     1      -4.023  -4.855   1.935  1.00  0.00    -0.348 N 
ATOM     40  H42 UNL     1      -3.234  -5.418   1.618  1.00  0.00     0.172 HD
ATOM     41  H41 UNL     1      -4.950  -5.220   2.154  1.00  0.00     0.172 HD
ENDBRANCH  38  39
ENDBRANCH  37  38
ENDBRANCH  34  37
ENDBRANCH   3  34
BRANCH   9  42
HETATM   42  S1  UNL     1       4.951  -0.653   0.433  1.00  0.00     0.258 S 
HETATM   43  O3  UNL     1       5.159   0.478   1.433  1.00  0.00    -0.201 OA
HETATM   44  O4  UNL     1       6.092  -0.662  -0.543  1.00  0.00    -0.201 OA
BRANCH  42  45
HETATM   45  N6  UNL     1       4.968  -2.127   1.292  1.00  0.00    -0.324 N 
ATOM     46  H62 UNL     1       4.176  -2.769   1.317  1.00  0.00     0.169 HD
ATOM     47  H61 UNL     1       5.858  -2.278   1.767  1.00  0.00     0.169 HD
ENDBRANCH  42  45
ENDBRANCH   9  42
TORSDOF 13
