REMARK  11 active torsions:
REMARK  status: ('A' for Active; 'I' for Inactive)
REMARK    1  A    between atoms: N1_1  and  C1_4 
REMARK    2  A    between atoms: C4_12  and  C5_13 
REMARK    3  A    between atoms: C5_13  and  C6_14 
REMARK    4  A    between atoms: C6_14  and  N4_15 
REMARK    5  A    between atoms: C6_14  and  C7_19 
REMARK       I    between atoms: C7_19  and  N5_21 
REMARK    6  A    between atoms: N5_21  and  O3_22 
REMARK    7  A    between atoms: N5_21  and  N6_24 
REMARK    8  A    between atoms: C8_25  and  O4_26 
REMARK    9  A    between atoms: C10_32  and  C11_33 
REMARK   10  A    between atoms: C11_33  and  N8_34 
REMARK   11  A    between atoms: N8_34  and  C12_36 
ROOT
HETATM    1  C7  UNL     1       0.257  -0.146   0.280  1.00  0.00     0.289 C 
HETATM    2  O2  UNL     1      -0.427  -0.409   1.307  1.00  0.00    -0.267 OA
HETATM    3  N5  UNL     1      -0.362  -0.196  -0.992  1.00  0.00    -0.141 N 
ENDROOT
BRANCH   1   4
HETATM    4  C6  UNL     1       1.672   0.206   0.430  1.00  0.00     0.284 C 
BRANCH   4   5
HETATM    5  C5  UNL     1       2.612  -0.803  -0.241  1.00  0.00     0.101 C 
BRANCH   5   6
HETATM    6  C4  UNL     1       4.024  -0.348  -0.118  1.00  0.00     0.028 A 
HETATM    7  N3  UNL     1       4.813  -0.686   0.919  1.00  0.00    -0.351 N 
HETATM    8  C3  UNL     1       6.092  -0.235   0.967  1.00  0.00     0.147 A 
ATOM      9  H3  UNL     1       4.451  -1.279   1.666  1.00  0.00     0.166 HD
HETATM   10  C2  UNL     1       6.903  -0.580   2.029  1.00  0.00     0.290 A 
HETATM   11  C17 UNL     1       6.637   0.568  -0.011  1.00  0.00     0.153 A 
HETATM   12  N2  UNL     1       8.181  -0.120   2.062  1.00  0.00    -0.154 N 
HETATM   13  O1  UNL     1       6.428  -1.313   2.935  1.00  0.00    -0.265 OA
HETATM   14  C1  UNL     1       8.698   0.663   1.101  1.00  0.00     0.680 A 
ATOM     15  H2  UNL     1       8.773  -0.381   2.851  1.00  0.00     0.187 HD
HETATM   16  N13 UNL     1       7.921   1.007   0.060  1.00  0.00    -0.174 N 
ATOM     17  H13 UNL     1       8.297   1.600  -0.680  1.00  0.00     0.186 HD
HETATM   18  N12 UNL     1       5.842   0.904  -1.049  1.00  0.00    -0.348 N 
HETATM   19  C16 UNL     1       4.573   0.466  -1.111  1.00  0.00     0.114 A 
ATOM     20  H12 UNL     1       6.208   1.497  -1.794  1.00  0.00     0.167 HD
BRANCH  14  21
HETATM   21  N1  UNL     1       9.936   1.085   1.173  1.00  0.00    -0.234 N 
ATOM     22  H12 UNL     1      10.526   0.824   1.963  1.00  0.00     0.174 HD
ATOM     23  H11 UNL     1      10.329   1.680   0.443  1.00  0.00     0.174 HD
ENDBRANCH  14  21
ENDBRANCH   5   6
ENDBRANCH   4   5
BRANCH   4  24
HETATM   24  N4  UNL     1       2.035   0.303   1.848  1.00  0.00    -0.066 N 
ATOM     25  H43 UNL     1       2.036  -0.603   2.316  1.00  0.00     0.275 HD
ATOM     26  H42 UNL     1       3.019   0.532   1.986  1.00  0.00     0.275 HD
ATOM     27  H41 UNL     1       1.410   0.974   2.294  1.00  0.00     0.275 HD
ENDBRANCH   4  24
ENDBRANCH   1   4
BRANCH   3  28
HETATM   28  O3  UNL     1       0.320   0.080  -2.121  1.00  0.00    -0.269 OA
ATOM     29  H3  UNL     1      -0.095   0.046  -2.975  1.00  0.00     0.246 HD
ENDBRANCH   3  28
BRANCH   3  30
HETATM   30  N6  UNL     1      -1.735  -0.542  -1.103  1.00  0.00    -0.139 NA
HETATM   31  C8  UNL     1      -1.886  -1.153  -2.416  1.00  0.00     0.324 C 
HETATM   32  N7  UNL     1      -1.961  -0.000  -3.329  1.00  0.00    -0.320 N 
HETATM   33  C9  UNL     1      -2.233   1.135  -2.558  1.00  0.00     0.242 C 
ATOM     34  H7  UNL     1      -1.837  -0.025  -4.341  1.00  0.00     0.166 HD
HETATM   35  O5  UNL     1      -2.242   2.316  -3.030  1.00  0.00    -0.272 OA
HETATM   36  C10 UNL     1      -2.488   0.701  -1.177  1.00  0.00     0.197 C 
BRANCH  31  37
HETATM   37  O4  UNL     1      -0.795  -1.905  -2.801  1.00  0.00    -0.362 OA
ATOM     38  H4  UNL     1      -0.894  -2.304  -3.658  1.00  0.00     0.213 HD
ENDBRANCH  31  37
BRANCH  36  39
HETATM   39  C11 UNL     1      -3.964   0.493  -0.984  1.00  0.00     0.169 C 
BRANCH  39  40
HETATM   40  N8  UNL     1      -4.265  -0.087   0.283  1.00  0.00    -0.224 N 
ATOM     41  H8  UNL     1      -3.504  -0.289   0.932  1.00  0.00     0.177 HD
BRANCH  40  42
HETATM   42  C12 UNL     1      -5.472  -0.361   0.626  1.00  0.00     0.682 A 
HETATM   43  N9  UNL     1      -5.733  -0.915   1.844  1.00  0.00    -0.179 N 
HETATM   44  C13 UNL     1      -6.989  -1.196   2.191  1.00  0.00     0.137 A 
ATOM     45  H9  UNL     1      -4.968  -1.114   2.489  1.00  0.00     0.185 HD
HETATM   46  N10 UNL     1      -7.302  -1.772   3.446  1.00  0.00    -0.082 NA
HETATM   47  C14 UNL     1      -8.016  -0.922   1.308  1.00  0.00     0.120 A 
HETATM   48  C15 UNL     1      -7.725  -0.360   0.079  1.00  0.00     0.262 A 
HETATM   49  O6  UNL     1      -8.655  -0.108  -0.727  1.00  0.00    -0.268 OA
HETATM   50  N11 UNL     1      -6.459  -0.091  -0.237  1.00  0.00    -0.156 N 
ATOM     51  H11 UNL     1      -6.240   0.324  -1.143  1.00  0.00     0.187 HD
ENDBRANCH  40  42
ENDBRANCH  39  40
ENDBRANCH  36  39
ENDBRANCH   3  30
TORSDOF 11
