REMARK  12 active torsions:
REMARK  status: ('A' for Active; 'I' for Inactive)
REMARK    1  A    between atoms: N1_2  and  C3_4 
REMARK    2  A    between atoms: N4_10  and  N5_12 
REMARK    3  A    between atoms: N5_12  and  C5_14 
REMARK    4  A    between atoms: C5_14  and  N6_15 
REMARK    5  A    between atoms: C5_14  and  C8_28 
REMARK       I    between atoms: N6_15  and  C6_17 
REMARK    6  A    between atoms: C6_17  and  C7_19 
REMARK       I    between atoms: C7_19  and  N7_21 
REMARK    7  A    between atoms: N7_21  and  O3_23 
REMARK    8  A    between atoms: O3_23  and  N8_24 
REMARK    9  A    between atoms: N8_24  and  N9_25 
REMARK   10  A    between atoms: C11_33  and  S1_34 
REMARK   11  A    between atoms: S1_34  and  N11_35 
REMARK   12  A    between atoms: C15_45  and  N13_46 
ROOT
HETATM    1  C5  UNL     1      -0.992  -0.970  -1.954  1.00  0.00     0.268 C 
ENDROOT
BRANCH   1   2
HETATM    2  N5  UNL     1       0.380  -1.352  -1.755  1.00  0.00    -0.304 N 
ATOM      3  H5  UNL     1       0.920  -1.752  -2.522  1.00  0.00     0.183 HD
BRANCH   2   4
HETATM    4  N4  UNL     1       0.957  -1.172  -0.516  1.00  0.00    -0.283 N 
HETATM    5  C4  UNL     1       2.176  -0.946  -0.276  1.00  0.00     0.180 A 
HETATM    6  N3  UNL     1       3.077  -0.856  -1.269  1.00  0.00    -0.267 N 
HETATM    7  C15 UNL     1       2.619  -0.786   1.019  1.00  0.00     0.162 A 
HETATM    8  N2  UNL     1       4.363  -0.622  -1.075  1.00  0.00    -0.130 N 
ATOM      9  H3  UNL     1       2.749  -0.975  -2.228  1.00  0.00     0.189 HD
HETATM   10  C3  UNL     1       4.817  -0.461   0.188  1.00  0.00     0.695 A 
ATOM     11  H2  UNL     1       5.004  -0.564  -1.867  1.00  0.00     0.205 HD
HETATM   12  N14 UNL     1       3.924  -0.550   1.201  1.00  0.00    -0.172 N 
ATOM     13  H14 UNL     1       4.264  -0.431   2.155  1.00  0.00     0.186 HD
ATOM     14  H4  UNL     1       0.335  -1.227   0.290  1.00  0.00     0.188 HD
BRANCH  10  15
HETATM   15  N1  UNL     1       6.194  -0.209   0.436  1.00  0.00    -0.225 N 
HETATM   16  C1  UNL     1       7.041  -1.351   0.694  1.00  0.00     0.168 C 
HETATM   17  C2  UNL     1       6.777   1.105   0.442  1.00  0.00     0.168 C 
ENDBRANCH  10  15
BRANCH   7  18
HETATM   18  N13 UNL     1       1.782  -0.867   1.997  1.00  0.00    -0.382 N 
ATOM     19 2H13 UNL     1       0.788  -1.047   1.858  1.00  0.00     0.157 HD
ATOM     20 1H13 UNL     1       2.110  -0.749   2.956  1.00  0.00     0.157 HD
ENDBRANCH   7  18
ENDBRANCH   2   4
ENDBRANCH   1   2
BRANCH   1  21
HETATM   21  N6  UNL     1      -1.765  -1.776  -0.995  1.00  0.00    -0.324 N 
HETATM   22  C6  UNL     1      -2.886  -2.555  -1.375  1.00  0.00     0.313 C 
HETATM   23  O1  UNL     1      -3.286  -2.601  -2.560  1.00  0.00    -0.262 OA
ATOM     24  H6  UNL     1      -1.482  -1.774  -0.015  1.00  0.00     0.165 HD
BRANCH  22  25
HETATM   25  C7  UNL     1      -3.580  -3.316  -0.353  1.00  0.00     0.334 C 
HETATM   26  O2  UNL     1      -3.166  -3.260   0.835  1.00  0.00    -0.260 OA
HETATM   27  N7  UNL     1      -4.702  -4.118  -0.638  1.00  0.00    -0.203 N 
ATOM     28  H7  UNL     1      -5.056  -4.179  -1.593  1.00  0.00     0.200 HD
BRANCH  27  29
HETATM   29  O3  UNL     1      -5.316  -4.814   0.363  1.00  0.00    -0.140 OA
BRANCH  29  30
HETATM   30  N8  UNL     1      -4.360  -5.552   1.004  1.00  0.00     0.040 NA
BRANCH  30  31
HETATM   31  N9  UNL     1      -4.700  -6.917   0.964  1.00  0.00    -0.321 N 
ATOM     32  H92 UNL     1      -5.540  -7.286   0.518  1.00  0.00     0.174 HD
ATOM     33  H91 UNL     1      -3.987  -7.468   1.442  1.00  0.00     0.174 HD
ENDBRANCH  30  31
ENDBRANCH  29  30
ENDBRANCH  27  29
ENDBRANCH  22  25
ENDBRANCH   1  21
BRANCH   1  34
HETATM   34  C8  UNL     1      -1.177   0.452  -1.476  1.00  0.00     0.127 A 
HETATM   35  N10 UNL     1      -2.043   0.886  -0.625  1.00  0.00    -0.341 N 
HETATM   36  C9  UNL     1      -1.923   2.281  -0.421  1.00  0.00     0.062 A 
ATOM     37  H10 UNL     1      -2.730   0.296  -0.156  1.00  0.00     0.167 HD
HETATM   38  C10 UNL     1      -2.630   3.181   0.391  1.00  0.00     0.057 A 
HETATM   39  C14 UNL     1      -0.889   2.734  -1.222  1.00  0.00     0.060 A 
HETATM   40  C11 UNL     1      -2.312   4.522   0.407  1.00  0.00     0.081 A 
HETATM   41  C12 UNL     1      -1.279   4.927  -0.401  1.00  0.00     0.027 A 
HETATM   42  C13 UNL     1      -0.570   4.055  -1.209  1.00  0.00     0.033 A 
HETATM   43  N12 UNL     1      -0.405   1.565  -1.902  1.00  0.00    -0.341 N 
ATOM     44  H12 UNL     1       0.361   1.539  -2.575  1.00  0.00     0.167 HD
BRANCH  40  45
HETATM   45  S1  UNL     1      -3.212   5.669   1.407  1.00  0.00     0.256 S 
HETATM   46  O4  UNL     1      -2.345   6.733   1.975  1.00  0.00    -0.201 OA
HETATM   47  O5  UNL     1      -3.913   4.880   2.484  1.00  0.00    -0.201 OA
BRANCH  45  48
HETATM   48  N11 UNL     1      -4.479   6.348   0.410  1.00  0.00    -0.324 N 
ATOM     49 2H11 UNL     1      -4.654   6.115  -0.567  1.00  0.00     0.169 HD
ATOM     50 1H11 UNL     1      -4.998   7.010   0.987  1.00  0.00     0.169 HD
ENDBRANCH  45  48
ENDBRANCH  40  45
ENDBRANCH   1  34
TORSDOF 12
