REMARK  13 active torsions:
REMARK  status: ('A' for Active; 'I' for Inactive)
REMARK       I    between atoms: N1_1  and  C1_4 
REMARK       I    between atoms: C1_4  and  N3_6 
REMARK       I    between atoms: N3_6  and  C2_8 
REMARK    1  A    between atoms: C2_8  and  C3_10 
REMARK    2  A    between atoms: C3_10  and  N4_11 
REMARK    3  A    between atoms: C3_10  and  C4_15 
REMARK    4  A    between atoms: C4_15  and  N5_16 
REMARK    5  A    between atoms: N5_16  and  N6_18 
REMARK    6  A    between atoms: N6_18  and  C5_20 
REMARK    7  A    between atoms: C8_27  and  N9_28 
REMARK    8  A    between atoms: N9_28  and  C9_30 
REMARK    9  A    between atoms: C11_32  and  O2_33 
REMARK   10  A    between atoms: C12_35  and  O3_36 
REMARK   11  A    between atoms: O3_36  and  S1_37 
REMARK   12  A    between atoms: S1_37  and  N10_38 
REMARK   13  A    between atoms: C13_46  and  N12_47 
ROOT
HETATM    1  C5  UNL     1      -1.203   0.448  -0.198  1.00  0.00     0.150 A 
HETATM    2  N7  UNL     1      -0.841   0.076   1.019  1.00  0.00    -0.336 N 
ATOM      3  H7  UNL     1      -1.550  -0.070   1.738  1.00  0.00     0.168 HD
HETATM    4  C6  UNL     1       0.460  -0.111   1.312  1.00  0.00     0.182 A 
HETATM    5  N8  UNL     1       1.415   0.071   0.392  1.00  0.00    -0.347 N 
ATOM      6  H8  UNL     1       2.388  -0.082   0.657  1.00  0.00     0.167 HD
HETATM    7  C7  UNL     1       1.138   0.448  -0.867  1.00  0.00     0.109 A 
HETATM    8  C8  UNL     1       2.140   0.627  -1.788  1.00  0.00     0.148 A 
HETATM    9  N11 UNL     1       1.684   1.016  -3.038  1.00  0.00    -0.175 N 
ATOM     10  H11 UNL     1       2.372   1.169  -3.775  1.00  0.00     0.186 HD
HETATM   11  C13 UNL     1       0.404   1.200  -3.328  1.00  0.00     0.678 A 
HETATM   12  N13 UNL     1      -0.551   1.016  -2.400  1.00  0.00    -0.186 N 
ATOM     13  H13 UNL     1      -1.531   1.164  -2.641  1.00  0.00     0.184 HD
HETATM   14  C14 UNL     1      -0.215   0.638  -1.156  1.00  0.00     0.125 A 
ENDROOT
BRANCH   1  15
HETATM   15  N6  UNL     1      -2.416   0.652  -0.572  1.00  0.00    -0.288 N 
ATOM     16  H6  UNL     1      -2.591   0.938  -1.535  1.00  0.00     0.188 HD
BRANCH  15  17
HETATM   17  N5  UNL     1      -3.510   0.496   0.297  1.00  0.00    -0.332 N 
ATOM     18  H5  UNL     1      -3.892   1.330   0.743  1.00  0.00     0.180 HD
BRANCH  17  19
HETATM   19  C4  UNL     1      -4.115  -0.755   0.590  1.00  0.00     0.182 C 
BRANCH  19  20
HETATM   20  C3  UNL     1      -5.311  -0.658   1.490  1.00  0.00     0.294 C 
BRANCH  20  21
HETATM   21  C2  UNL     1      -6.397   0.151   0.917  1.00  0.00     0.256 C 
HETATM   22  N3  UNL     1      -7.688  -0.397   0.632  1.00  0.00    -0.300 N 
HETATM   23  C1  UNL     1      -8.742   0.360   0.083  1.00  0.00     0.188 C 
ATOM     24  H3  UNL     1      -7.853  -1.383   0.836  1.00  0.00     0.171 HD
HETATM   25  N1  UNL     1      -9.872  -0.196  -0.147  1.00  0.00    -0.373 N 
HETATM   26  N2  UNL     1      -8.546   1.729  -0.211  1.00  0.00    -0.064 NA
ATOM     27  H12 UNL     1     -10.635   0.352  -0.544  1.00  0.00     0.158 HD
ATOM     28  H11 UNL     1     -10.013  -1.184   0.065  1.00  0.00     0.158 HD
HETATM   29  O1  UNL     1      -6.242   1.365   0.651  1.00  0.00    -0.271 OA
ENDBRANCH  20  21
BRANCH  20  30
HETATM   30  N4  UNL     1      -5.811  -2.011   1.740  1.00  0.00    -0.065 N 
ATOM     31  H43 UNL     1      -6.649  -2.015   2.322  1.00  0.00     0.275 HD
ATOM     32  H42 UNL     1      -6.216  -2.437   0.906  1.00  0.00     0.275 HD
ATOM     33  H41 UNL     1      -5.058  -2.572   2.137  1.00  0.00     0.275 HD
ENDBRANCH  20  30
ENDBRANCH  19  20
ENDBRANCH  17  19
ENDBRANCH  15  17
ENDBRANCH   1  15
BRANCH   8  34
HETATM   34  N9  UNL     1       3.368   0.476  -1.599  1.00  0.00    -0.347 N 
ATOM     35  H9  UNL     1       3.936   0.663  -2.426  1.00  0.00     0.163 HD
BRANCH  34  36
HETATM   36  C9  UNL     1       4.105   0.107  -0.493  1.00  0.00     0.227 C 
HETATM   37  C10 UNL     1       4.586   1.293   0.363  1.00  0.00     0.090 C 
HETATM   38  C11 UNL     1       5.537   0.548   1.292  1.00  0.00     0.178 C 
HETATM   39  C12 UNL     1       6.027  -0.547   0.365  1.00  0.00     0.311 C 
HETATM   40  O6  UNL     1       5.398  -0.387  -0.849  1.00  0.00    -0.333 OA
BRANCH  38  41
HETATM   41  O2  UNL     1       6.555   1.339   1.763  1.00  0.00    -0.390 OA
ATOM     42  H2  UNL     1       7.148   0.875   2.342  1.00  0.00     0.210 HD
ENDBRANCH  38  41
BRANCH  39  43
HETATM   43  O3  UNL     1       7.402  -0.586   0.287  1.00  0.00    -0.224 OA
BRANCH  43  44
HETATM   44  S1  UNL     1       8.106  -1.966   0.820  1.00  0.00     0.358 S 
HETATM   45  O4  UNL     1       8.414  -1.824   2.295  1.00  0.00    -0.176 OA
HETATM   46  O5  UNL     1       7.287  -3.197   0.659  1.00  0.00    -0.176 OA
BRANCH  44  47
HETATM   47  N10 UNL     1       9.643  -2.248   0.039  1.00  0.00    -0.306 N 
ATOM     48 2H10 UNL     1      10.040  -1.621  -0.661  1.00  0.00     0.171 HD
ATOM     49 1H10 UNL     1      10.081  -3.107   0.371  1.00  0.00     0.171 HD
ENDBRANCH  44  47
ENDBRANCH  43  44
ENDBRANCH  39  43
ENDBRANCH  34  36
ENDBRANCH   8  34
BRANCH  11  50
HETATM   50  N12 UNL     1       0.066   1.567  -4.534  1.00  0.00    -0.234 N 
ATOM     51 2H12 UNL     1       0.791   1.707  -5.238  1.00  0.00     0.174 HD
ATOM     52 1H12 UNL     1      -0.919   1.709  -4.757  1.00  0.00     0.174 HD
ENDBRANCH  11  50
TORSDOF 13
