REMARK  13 active torsions:
REMARK  status: ('A' for Active; 'I' for Inactive)
REMARK    1  A    between atoms: N1_1  and  N2_4 
REMARK       I    between atoms: N2_4  and  C1_6 
REMARK    2  A    between atoms: C1_6  and  C2_8 
REMARK    3  A    between atoms: C3_9  and  N3_10 
REMARK       I    between atoms: N3_10  and  C4_12 
REMARK    4  A    between atoms: C4_12  and  C5_14 
REMARK    5  A    between atoms: C7_21  and  O4_22 
REMARK    6  A    between atoms: C10_26  and  N6_27 
REMARK       I    between atoms: N7_31  and  C11_32 
REMARK    7  A    between atoms: C11_32  and  C12_34 
REMARK    8  A    between atoms: C12_34  and  C13_35 
REMARK    9  A    between atoms: C13_35  and  N8_36 
REMARK   10  A    between atoms: N8_36  and  C14_38 
REMARK   11  A    between atoms: C14_38  and  O6_39 
REMARK   12  A    between atoms: N9_41  and  O7_43 
REMARK   13  A    between atoms: C15_45  and  O8_46 
ROOT
HETATM    1  C2  UNL     1      -0.164  -2.277   0.649  1.00  0.00     0.076 C 
HETATM    2  C3  UNL     1      -0.347  -2.284  -0.831  1.00  0.00     0.137 C 
HETATM    3  C8  UNL     1       0.925  -1.956  -1.571  1.00  0.00     0.095 C 
HETATM    4  C9  UNL     1       1.204  -0.524  -1.788  1.00  0.00     0.069 C 
HETATM    5  C10 UNL     1       1.389   0.348  -0.606  1.00  0.00     0.290 C 
HETATM    6  N7  UNL     1       1.334  -0.259   0.691  1.00  0.00    -0.280 N 
HETATM    7  C11 UNL     1       1.667   0.674   1.734  1.00  0.00     0.226 C 
HETATM    8  O5  UNL     1       1.616   0.281   2.918  1.00  0.00    -0.273 OA
HETATM    9  C15 UNL     1       1.087  -1.582   1.124  1.00  0.00     0.241 C 
HETATM   10  C16 UNL     1       2.239  -2.404   0.514  1.00  0.00     0.255 C 
HETATM   11  O9  UNL     1       3.205  -2.760   1.195  1.00  0.00    -0.283 OA
HETATM   12  C17 UNL     1       2.038  -2.688  -0.901  1.00  0.00     0.206 C 
HETATM   13  O10 UNL     1       2.769  -3.501  -1.491  1.00  0.00    -0.289 OA
ENDROOT
BRANCH   2  14
HETATM   14  N3  UNL     1      -1.513  -1.594  -1.324  1.00  0.00    -0.346 N 
HETATM   15  C4  UNL     1      -2.573  -2.301  -1.939  1.00  0.00     0.273 C 
HETATM   16  O2  UNL     1      -2.517  -3.567  -2.077  1.00  0.00    -0.266 OA
ATOM     17  H3  UNL     1      -1.575  -0.580  -1.228  1.00  0.00     0.163 HD
BRANCH  15  18
HETATM   18  C5  UNL     1      -3.760  -1.650  -2.440  1.00  0.00     0.156 A 
HETATM   19  N4  UNL     1      -4.821  -2.266  -3.058  1.00  0.00    -0.300 N 
HETATM   20  C6  UNL     1      -5.722  -1.346  -3.383  1.00  0.00     0.327 A 
ATOM     21  H4  UNL     1      -4.903  -3.267  -3.238  1.00  0.00     0.171 HD
HETATM   22  O3  UNL     1      -6.841  -1.492  -3.965  1.00  0.00    -0.247 OA
HETATM   23  N5  UNL     1      -5.303  -0.121  -3.003  1.00  0.00    -0.287 N 
HETATM   24  C7  UNL     1      -4.084  -0.322  -2.419  1.00  0.00     0.177 A 
ATOM     25  H5  UNL     1      -5.792   0.766  -3.126  1.00  0.00     0.172 HD
BRANCH  24  26
HETATM   26  O4  UNL     1      -3.369   0.756  -1.911  1.00  0.00    -0.344 OA
ATOM     27  H4  UNL     1      -3.594   1.679  -1.896  1.00  0.00     0.219 HD
ENDBRANCH  24  26
ENDBRANCH  15  18
ENDBRANCH   2  14
BRANCH   1  28
HETATM   28  C1  UNL     1      -1.340  -1.962   1.470  1.00  0.00     0.269 C 
HETATM   29  N2  UNL     1      -2.006  -0.721   1.514  1.00  0.00    -0.273 N 
ATOM     30  H2  UNL     1      -1.674   0.057   0.943  1.00  0.00     0.189 HD
HETATM   31  O1  UNL     1      -1.866  -2.857   2.248  1.00  0.00    -0.266 OA
BRANCH  29  32
HETATM   32  N1  UNL     1      -3.120  -0.556   2.339  1.00  0.00    -0.342 N 
ATOM     33  H12 UNL     1      -3.439  -1.344   2.903  1.00  0.00     0.176 HD
ATOM     34  H11 UNL     1      -3.602   0.342   2.371  1.00  0.00     0.176 HD
ENDBRANCH  29  32
ENDBRANCH   1  28
BRANCH   9  35
HETATM   35  O8  UNL     1       1.199  -1.818   2.487  1.00  0.00    -0.360 OA
ATOM     36  H8  UNL     1       1.987  -1.380   2.786  1.00  0.00     0.213 HD
ENDBRANCH   9  35
BRANCH   5  37
HETATM   37  N6  UNL     1       0.526   1.506  -0.776  1.00  0.00    -0.058 N 
ATOM     38  H63 UNL     1       0.684   1.993  -1.658  1.00  0.00     0.276 HD
ATOM     39  H62 UNL     1      -0.450   1.254  -0.935  1.00  0.00     0.276 HD
ATOM     40  H61 UNL     1       0.653   2.107   0.038  1.00  0.00     0.276 HD
ENDBRANCH   5  37
BRANCH   7  41
HETATM   41  C12 UNL     1       2.072   2.075   1.508  1.00  0.00     0.123 C 
BRANCH  41  42
HETATM   42  C13 UNL     1       2.689   2.578   2.831  1.00  0.00     0.132 C 
BRANCH  42  43
HETATM   43  N8  UNL     1       3.121   3.947   2.685  1.00  0.00    -0.354 N 
ATOM     44  H8  UNL     1       2.990   4.445   1.804  1.00  0.00     0.163 HD
BRANCH  43  45
HETATM   45  C14 UNL     1       3.731   4.583   3.794  1.00  0.00     0.237 C 
HETATM   46  N9  UNL     1       5.036   4.644   3.869  1.00  0.00    -0.233 N 
ATOM     47  H9  UNL     1       5.459   5.105   4.674  1.00  0.00     0.198 HD
BRANCH  45  48
HETATM   48  O6  UNL     1       2.931   5.131   4.782  1.00  0.00    -0.331 OA
ATOM     49  H6  UNL     1       3.340   5.558   5.526  1.00  0.00     0.221 HD
ENDBRANCH  45  48
BRANCH  46  50
HETATM   50  O7  UNL     1       5.848   4.119   2.920  1.00  0.00    -0.287 OA
ATOM     51  H7  UNL     1       6.795   4.163   2.974  1.00  0.00     0.244 HD
ENDBRANCH  46  50
ENDBRANCH  43  45
ENDBRANCH  42  43
ENDBRANCH  41  42
ENDBRANCH   7  41
TORSDOF 13
