REMARK  11 active torsions:
REMARK  status: ('A' for Active; 'I' for Inactive)
REMARK    1  A    between atoms: N1_1  and  N2_4 
REMARK       I    between atoms: N2_4  and  C1_6 
REMARK    2  A    between atoms: C1_6  and  O2_8 
REMARK    3  A    between atoms: O2_8  and  C2_9 
REMARK    4  A    between atoms: C2_9  and  C3_11 
REMARK    5  A    between atoms: C3_11  and  C4_12 
REMARK    6  A    between atoms: C4_12  and  S1_13 
REMARK    7  A    between atoms: S1_13  and  C5_14 
REMARK    8  A    between atoms: C5_14  and  C6_15 
REMARK    9  A    between atoms: C7_16  and  C8_17 
REMARK   10  A    between atoms: C9_18  and  O4_19 
REMARK   11  A    between atoms: N5_32  and  N6_33 
ROOT
HETATM    1  C6  UNL     1      -2.335   1.426   0.245  1.00  0.00     0.063 A 
HETATM    2  C7  UNL     1      -3.295   0.649  -0.321  1.00  0.00     0.053 A 
HETATM    3  S2  UNL     1      -4.742   1.327   0.416  1.00  0.00    -0.056 SA
HETATM    4  C12 UNL     1      -4.016   2.514   1.358  1.00  0.00     0.164 A 
HETATM    5  S3  UNL     1      -4.727   3.623   2.384  1.00  0.00    -0.050 SA
HETATM    6  N5  UNL     1      -2.721   2.368   1.095  1.00  0.00    -0.247 N 
ENDROOT
BRANCH   1   7
HETATM    7  C5  UNL     1      -0.855   1.235  -0.080  1.00  0.00     0.134 C 
BRANCH   7   8
HETATM    8  S1  UNL     1       0.210   2.310   0.942  1.00  0.00    -0.163 SA
BRANCH   8   9
HETATM    9  C4  UNL     1       1.935   2.005   0.490  1.00  0.00     0.084 C 
BRANCH   9  10
HETATM   10  C3  UNL     1       2.367   0.600   0.857  1.00  0.00     0.121 C 
BRANCH  10  11
HETATM   11  C2  UNL     1       3.785   0.405   0.463  1.00  0.00     0.268 C 
HETATM   12  O3  UNL     1       4.434   1.355  -0.092  1.00  0.00    -0.265 OA
BRANCH  11  13
HETATM   13  O2  UNL     1       4.452  -0.776   0.669  1.00  0.00    -0.226 OA
BRANCH  13  14
HETATM   14  C1  UNL     1       5.761  -1.033   0.331  1.00  0.00     0.386 C 
HETATM   15  N2  UNL     1       6.382  -2.285   0.580  1.00  0.00    -0.252 N 
ATOM     16  H2  UNL     1       5.836  -3.021   1.027  1.00  0.00     0.191 HD
HETATM   17  O1  UNL     1       6.420  -0.106  -0.224  1.00  0.00    -0.236 OA
BRANCH  15  18
HETATM   18  N1  UNL     1       7.707  -2.549   0.238  1.00  0.00    -0.341 N 
ATOM     19  H12 UNL     1       8.238  -1.801  -0.209  1.00  0.00     0.177 HD
ATOM     20  H11 UNL     1       8.153  -3.449   0.417  1.00  0.00     0.177 HD
ENDBRANCH  15  18
ENDBRANCH  13  14
ENDBRANCH  11  13
ENDBRANCH  10  11
ENDBRANCH   9  10
ENDBRANCH   8   9
ENDBRANCH   7   8
ENDBRANCH   1   7
BRANCH   2  21
HETATM   21  C8  UNL     1      -3.350  -0.547  -1.187  1.00  0.00     0.102 A 
HETATM   22  C9  UNL     1      -4.453  -1.413  -0.912  1.00  0.00     0.161 A 
HETATM   23  N3  UNL     1      -4.611  -2.479  -1.689  1.00  0.00    -0.288 N 
HETATM   24  C10 UNL     1      -3.782  -2.761  -2.705  1.00  0.00     0.329 A 
ATOM     25  H3  UNL     1      -5.393  -3.107  -1.506  1.00  0.00     0.172 HD
HETATM   26  O5  UNL     1      -4.002  -3.802  -3.401  1.00  0.00    -0.247 OA
HETATM   27  N4  UNL     1      -2.744  -1.978  -2.993  1.00  0.00    -0.275 N 
HETATM   28  C11 UNL     1      -2.530  -0.854  -2.220  1.00  0.00     0.265 A 
ATOM     29  H4  UNL     1      -2.120  -2.204  -3.768  1.00  0.00     0.173 HD
HETATM   30  O6  UNL     1      -1.538  -0.162  -2.560  1.00  0.00    -0.267 OA
BRANCH  22  31
HETATM   31  O4  UNL     1      -5.301  -1.117   0.134  1.00  0.00    -0.345 OA
ATOM     32  H4  UNL     1      -6.034  -1.693   0.317  1.00  0.00     0.219 HD
ENDBRANCH  22  31
ENDBRANCH   2  21
BRANCH   6  33
HETATM   33  N6  UNL     1      -1.839   3.288   1.783  1.00  0.00    -0.337 N 
ATOM     34  H62 UNL     1      -0.845   3.176   1.581  1.00  0.00     0.177 HD
ATOM     35  H61 UNL     1      -2.136   4.012   2.437  1.00  0.00     0.177 HD
ENDBRANCH   6  33
TORSDOF 11
