REMARK  11 active torsions:
REMARK  status: ('A' for Active; 'I' for Inactive)
REMARK    1  A    between atoms: C1_2  and  O2_4 
REMARK    2  A    between atoms: O2_4  and  N2_5 
REMARK    3  A    between atoms: C2_7  and  C3_8 
REMARK    4  A    between atoms: C5_10  and  C6_11 
REMARK    5  A    between atoms: C6_11  and  O3_12 
REMARK    6  A    between atoms: C6_11  and  N3_14 
REMARK    7  A    between atoms: N3_14  and  C7_16 
REMARK    8  A    between atoms: C11_21  and  S1_22 
REMARK    9  A    between atoms: C12_24  and  N4_25 
REMARK   10  A    between atoms: N6_31  and  O5_32 
REMARK   11  A    between atoms: C14_35  and  O7_36 
ROOT
HETATM    1  N3  UNL     1      -0.217  -0.253   0.648  1.00  0.00    -0.342 N 
ATOM      2  H3  UNL     1       0.141   0.574   1.126  1.00  0.00     0.164 HD
ENDROOT
BRANCH   1   3
HETATM    3  C6  UNL     1       0.688  -1.134  -0.096  1.00  0.00     0.278 C 
BRANCH   3   4
HETATM    4  C5  UNL     1       2.083  -0.629  -0.018  1.00  0.00     0.105 A 
HETATM    5  C4  UNL     1       3.255  -1.322  -0.241  1.00  0.00     0.055 A 
HETATM    6  C3  UNL     1       4.310  -0.437  -0.053  1.00  0.00     0.042 A 
HETATM    7  C14 UNL     1       3.705   0.756   0.277  1.00  0.00     0.195 A 
HETATM    8  O6  UNL     1       2.402   0.608   0.288  1.00  0.00    -0.287 OA
BRANCH   6   9
HETATM    9  C2  UNL     1       5.744  -0.712  -0.178  1.00  0.00     0.131 C 
HETATM   10  N2  UNL     1       6.569   0.241   0.036  1.00  0.00    -0.267 N 
ATOM     11  H2  UNL     1       6.224   1.167   0.287  1.00  0.00     0.194 HD
BRANCH  10  12
HETATM   12  O2  UNL     1       7.916   0.019  -0.071  1.00  0.00    -0.184 OA
BRANCH  12  13
HETATM   13  C1  UNL     1       8.882   0.834   0.479  1.00  0.00     0.394 C 
HETATM   14  N1  UNL     1      10.243   0.509   0.305  1.00  0.00    -0.031 NA
HETATM   15  O1  UNL     1       8.535   1.839   1.117  1.00  0.00    -0.240 OA
ENDBRANCH  12  13
ENDBRANCH  10  12
ENDBRANCH   6   9
BRANCH   7  16
HETATM   16  O7  UNL     1       4.358   1.931   0.554  1.00  0.00    -0.340 OA
ATOM     17  H7  UNL     1       3.941   2.754   0.782  1.00  0.00     0.220 HD
ENDBRANCH   7  16
ENDBRANCH   3   4
BRANCH   3  18
HETATM   18  O3  UNL     1       0.610  -2.384   0.560  1.00  0.00    -0.370 OA
ATOM     19  H3  UNL     1      -0.282  -2.707   0.510  1.00  0.00     0.212 HD
ENDBRANCH   3  18
ENDBRANCH   1   3
BRANCH   1  20
HETATM   20  C7  UNL     1      -1.601  -0.571   0.691  1.00  0.00     0.151 A 
HETATM   21  C8  UNL     1      -2.699  -0.060   0.135  1.00  0.00     0.106 A 
HETATM   22  C9  UNL     1      -3.038   0.972  -0.713  1.00  0.00     0.191 A 
HETATM   23  C13 UNL     1      -3.506  -0.990   0.736  1.00  0.00     0.154 A 
HETATM   24  O4  UNL     1      -2.137   1.744  -1.124  1.00  0.00    -0.287 OA
HETATM   25  C10 UNL     1      -4.300   1.306  -1.208  1.00  0.00     0.079 A 
HETATM   26  C11 UNL     1      -5.484   0.679  -0.914  1.00  0.00     0.059 A 
HETATM   27  C12 UNL     1      -5.737  -0.423  -0.131  1.00  0.00     0.118 A 
HETATM   28  N5  UNL     1      -4.856  -1.094   0.619  1.00  0.00    -0.325 N 
ATOM     29  H5  UNL     1      -5.273  -1.814   1.210  1.00  0.00     0.169 HD
HETATM   30  N6  UNL     1      -2.467  -1.513   1.292  1.00  0.00    -0.189 N 
BRANCH  26  31
HETATM   31  S1  UNL     1      -6.924   1.409  -1.664  1.00  0.00    -0.042 SA
HETATM   32  S2  UNL     1      -7.748   2.898  -0.377  1.00  0.00    -0.007 SA
ENDBRANCH  26  31
BRANCH  27  33
HETATM   33  N4  UNL     1      -6.955  -0.818  -0.147  1.00  0.00    -0.384 N 
ATOM     34  H42 UNL     1      -7.627  -0.306  -0.719  1.00  0.00     0.157 HD
ATOM     35  H41 UNL     1      -7.143  -1.635   0.434  1.00  0.00     0.157 HD
ENDBRANCH  27  33
BRANCH  30  36
HETATM   36  O5  UNL     1      -2.278  -2.574   2.140  1.00  0.00    -0.279 OA
ATOM     37  H5  UNL     1      -2.860  -3.207   2.544  1.00  0.00     0.245 HD
ENDBRANCH  30  36
ENDBRANCH   1  20
TORSDOF 11
