REMARK  4 active torsions:
REMARK  status: ('A' for Active; 'I' for Inactive)
REMARK    1  A    between atoms: C3_4  and  N2_5 
REMARK    2  A    between atoms: C9_13  and  C10_14 
REMARK       I    between atoms: C10_14  and  N4_16 
REMARK    3  A    between atoms: N4_16  and  N5_18 
REMARK    4  A    between atoms: C11_23  and  N7_24 
ROOT
HETATM    1  N1  UNL     1      -1.424  -0.073  -3.917  1.00  0.00    -0.191 NA
HETATM    2  C1  UNL     1      -0.634   0.016  -3.066  1.00  0.00     0.107 C 
HETATM    3  C2  UNL     1       0.351   0.102  -2.004  1.00  0.00     0.132 A 
HETATM    4  C3  UNL     1      -0.045   0.037  -0.683  1.00  0.00     0.130 A 
HETATM    5  N3  UNL     1       0.943   0.125   0.240  1.00  0.00    -0.323 N 
ATOM      6  H3  UNL     1       0.685   0.079   1.226  1.00  0.00     0.169 HD
HETATM    7  C9  UNL     1       2.244   0.270  -0.067  1.00  0.00     0.179 A 
HETATM    8  N6  UNL     1       2.584   0.329  -1.380  1.00  0.00    -0.323 N 
ATOM      9  H6  UNL     1       3.567   0.438  -1.630  1.00  0.00     0.169 HD
HETATM   10  C11 UNL     1       1.669   0.248  -2.361  1.00  0.00     0.125 A 
ENDROOT
BRANCH   4  11
HETATM   11  N2  UNL     1      -1.408  -0.101  -0.314  1.00  0.00    -0.366 N 
HETATM   12  C4  UNL     1      -2.169   1.063   0.037  1.00  0.00     0.124 C 
HETATM   13  C5  UNL     1      -3.362   0.811   0.872  1.00  0.00     0.020 C 
HETATM   14  C6  UNL     1      -3.534  -0.526   1.472  1.00  0.00     0.003 C 
HETATM   15  C7  UNL     1      -2.533  -1.573   1.148  1.00  0.00     0.020 C 
HETATM   16  C8  UNL     1      -2.074  -1.380  -0.281  1.00  0.00     0.124 C 
ENDBRANCH   4  11
BRANCH  10  17
HETATM   17  N7  UNL     1       2.003   0.306  -3.617  1.00  0.00    -0.384 N 
ATOM     18  H72 UNL     1       1.309   0.245  -4.362  1.00  0.00     0.157 HD
ATOM     19  H71 UNL     1       2.982   0.414  -3.882  1.00  0.00     0.157 HD
ENDBRANCH  10  17
BRANCH   7  20
HETATM   20  C10 UNL     1       3.246   0.363   0.978  1.00  0.00     0.303 C 
HETATM   21  O1  UNL     1       2.887   0.316   2.172  1.00  0.00    -0.263 OA
HETATM   22  N4  UNL     1       4.617   0.505   0.671  1.00  0.00    -0.270 N 
ATOM     23  H4  UNL     1       4.900   0.541  -0.308  1.00  0.00     0.189 HD
BRANCH  22  24
HETATM   24  N5  UNL     1       5.600   0.598   1.659  1.00  0.00    -0.342 N 
ATOM     25  H52 UNL     1       5.300   0.560   2.633  1.00  0.00     0.176 HD
ATOM     26  H51 UNL     1       6.590   0.701   1.437  1.00  0.00     0.176 HD
ENDBRANCH  22  24
ENDBRANCH   7  20
TORSDOF 4
