REMARK  2 active torsions:
REMARK  status: ('A' for Active; 'I' for Inactive)
REMARK    1  A    between atoms: C3_8  and  C4_9 
REMARK    2  A    between atoms: C4_9  and  C5_10 
ROOT
HETATM    1  C5  UNL     1       1.105  -0.784   0.869  1.00  0.00     0.088 A 
HETATM    2  N3  UNL     1       1.870  -1.049  -0.209  1.00  0.00    -0.353 N 
ATOM      3  H3  UNL     1       1.520  -1.730  -0.883  1.00  0.00     0.166 HD
HETATM    4  C6  UNL     1       3.046  -0.486  -0.455  1.00  0.00     0.123 A 
HETATM    5  C7  UNL     1       3.531   0.433   0.442  1.00  0.00     0.106 A 
HETATM    6  N4  UNL     1       4.648   1.165   0.494  1.00  0.00    -0.279 N 
ATOM      7  H4  UNL     1       5.404   1.165  -0.191  1.00  0.00     0.184 HD
HETATM    8  N5  UNL     1       4.590   1.892   1.603  1.00  0.00    -0.021 NA
HETATM    9  N6  UNL     1       3.460   1.630   2.245  1.00  0.00    -0.267 N 
ATOM     10  H6  UNL     1       3.172   2.056   3.126  1.00  0.00     0.186 HD
HETATM   11  C8  UNL     1       2.744   0.708   1.552  1.00  0.00     0.149 A 
HETATM   12  N7  UNL     1       1.555   0.102   1.749  1.00  0.00    -0.329 N 
ATOM     13  H7  UNL     1       1.001   0.325   2.576  1.00  0.00     0.168 HD
ENDROOT
BRANCH   1  14
HETATM   14  C4  UNL     1      -0.168  -1.515   0.958  1.00  0.00     0.135 C 
BRANCH  14  15
HETATM   15  C3  UNL     1      -1.296  -0.806   0.305  1.00  0.00     0.035 A 
HETATM   16  C2  UNL     1      -1.597  -1.012  -1.030  1.00  0.00     0.115 A 
HETATM   17  N2  UNL     1      -2.613  -0.381  -1.643  1.00  0.00    -0.346 N 
HETATM   18  C1  UNL     1      -3.384   0.489  -0.960  1.00  0.00     0.168 A 
ATOM     19  H2  UNL     1      -2.802  -0.561  -2.629  1.00  0.00     0.167 HD
HETATM   20  N1  UNL     1      -4.369   1.126  -1.480  1.00  0.00    -0.381 N 
HETATM   21  C9  UNL     1      -3.108   0.720   0.386  1.00  0.00     0.289 A 
ATOM     22  H12 UNL     1      -4.571   0.957  -2.465  1.00  0.00     0.157 HD
ATOM     23  H11 UNL     1      -4.952   1.784  -0.963  1.00  0.00     0.157 HD
HETATM   24  N8  UNL     1      -2.081   0.068   0.965  1.00  0.00    -0.322 N 
HETATM   25  O1  UNL     1      -3.834   1.537   1.023  1.00  0.00    -0.264 OA
ATOM     26  H8  UNL     1      -1.888   0.245   1.951  1.00  0.00     0.169 HD
ENDBRANCH  14  15
ENDBRANCH   1  14
TORSDOF 2
