REMARK  4 active torsions:
REMARK  status: ('A' for Active; 'I' for Inactive)
REMARK    1  A    between atoms: C1_4  and  C2_5 
REMARK    2  A    between atoms: C2_5  and  C3_6 
REMARK       I    between atoms: C3_6  and  N2_8 
REMARK       I    between atoms: C4_10  and  N3_11 
REMARK       I    between atoms: C4_10  and  N6_18 
REMARK    3  A    between atoms: N3_11  and  N4_13 
REMARK    4  A    between atoms: N4_13  and  C5_15 
ROOT
HETATM    1  C3  UNL     1       1.707   0.074   1.009  1.00  0.00     0.240 C 
HETATM    2  O1  UNL     1       1.362   0.652   2.052  1.00  0.00    -0.272 OA
HETATM    3  N2  UNL     1       1.006  -1.009   0.444  1.00  0.00    -0.156 N 
ATOM      4  H2  UNL     1       1.449  -1.927   0.470  1.00  0.00     0.187 HD
HETATM    5  C4  UNL     1      -0.159  -0.918  -0.104  1.00  0.00     0.721 C 
HETATM    6  N3  UNL     1      -0.807   0.339  -0.160  1.00  0.00    -0.128 N 
ATOM      7  H3  UNL     1      -0.631   0.943  -0.963  1.00  0.00     0.205 HD
HETATM    8  N6  UNL     1      -0.726  -2.117  -0.627  1.00  0.00    -0.080 N 
HETATM    9  C6  UNL     1      -0.660  -2.594  -1.865  1.00  0.00     0.226 A 
HETATM   10  N7  UNL     1      -1.341  -3.748  -1.892  1.00  0.00    -0.345 N 
ATOM     11  H7  UNL     1      -1.469  -4.349  -2.706  1.00  0.00     0.167 HD
HETATM   12  C7  UNL     1      -1.823  -3.975  -0.665  1.00  0.00     0.199 A 
HETATM   13  N8  UNL     1      -1.432  -2.951   0.113  1.00  0.00    -0.274 N 
ATOM     14  H8  UNL     1      -1.644  -2.838   1.104  1.00  0.00     0.189 HD
ENDROOT
BRANCH   6  15
HETATM   15  N4  UNL     1      -1.677   0.788   0.835  1.00  0.00    -0.264 N 
ATOM     16  H4  UNL     1      -1.526   0.502   1.802  1.00  0.00     0.189 HD
BRANCH  15  17
HETATM   17  C5  UNL     1      -2.771   1.639   0.517  1.00  0.00     0.200 C 
HETATM   18  N5  UNL     1      -2.991   2.043  -0.814  1.00  0.00    -0.068 NA
HETATM   19  S1  UNL     1      -3.809   2.184   1.652  1.00  0.00    -0.043 SA
ENDBRANCH  15  17
ENDBRANCH   6  15
BRANCH   1  20
HETATM   20  C2  UNL     1       2.938   0.550   0.309  1.00  0.00     0.147 C 
BRANCH  20  21
HETATM   21  C1  UNL     1       3.554   1.697   1.038  1.00  0.00     0.062 C 
HETATM   22  N1  UNL     1       4.126   2.614   0.368  1.00  0.00    -0.411 N 
ATOM     23  H12 UNL     1       4.155   2.552  -0.650  1.00  0.00     0.155 HD
ATOM     24  H11 UNL     1       4.547   3.398   0.866  1.00  0.00     0.155 HD
ENDBRANCH  20  21
ENDBRANCH   1  20
TORSDOF 4
