REMARK  8 active torsions:
REMARK  status: ('A' for Active; 'I' for Inactive)
REMARK    1  A    between atoms: C2_2  and  N1_3 
REMARK    2  A    between atoms: C2_2  and  C12_24 
REMARK       I    between atoms: N1_3  and  C3_5 
REMARK       I    between atoms: C3_5  and  N2_7 
REMARK    3  A    between atoms: N2_7  and  C4_9 
REMARK    4  A    between atoms: C4_9  and  C5_10 
REMARK    5  A    between atoms: C4_9  and  C7_14 
REMARK    6  A    between atoms: C5_10  and  C6_11 
REMARK       I    between atoms: C7_14  and  N4_16 
REMARK    7  A    between atoms: N4_16  and  C8_18 
REMARK    8  A    between atoms: C8_18  and  C9_19 
ROOT
HETATM    1  C4  UNL     1      -0.409  -0.744   0.352  1.00  0.00     0.186 C 
ENDROOT
BRANCH   1   2
HETATM    2  N2  UNL     1       0.761  -0.510  -0.462  1.00  0.00    -0.329 N 
HETATM    3  C3  UNL     1       1.977   0.001  -0.002  1.00  0.00     0.317 C 
HETATM    4  N1  UNL     1       3.121   0.228  -0.780  1.00  0.00    -0.335 N 
HETATM    5  O1  UNL     1       2.071   0.293   1.237  1.00  0.00    -0.247 OA
ATOM      6  H1  UNL     1       3.064   0.001  -1.773  1.00  0.00     0.164 HD
ATOM      7  H2  UNL     1       0.694  -0.736  -1.454  1.00  0.00     0.165 HD
BRANCH   4   8
HETATM    8  C2  UNL     1       4.367   0.754  -0.294  1.00  0.00     0.136 C 
HETATM    9  C1  UNL     1       5.522  -0.194  -0.447  1.00  0.00     0.036 C 
BRANCH   8  10
HETATM   10  C12 UNL     1       4.670   2.113  -0.914  1.00  0.00     0.208 C 
HETATM   11 CL1  UNL     1       5.013   1.974  -2.647  1.00  0.00    -0.082 Cl
HETATM   12 CL2  UNL     1       6.094   2.802  -0.125  1.00  0.00    -0.082 Cl
HETATM   13 CL3  UNL     1       3.270   3.173  -0.698  1.00  0.00    -0.082 Cl
ENDBRANCH   8  10
ENDBRANCH   4   8
ENDBRANCH   1   2
BRANCH   1  14
HETATM   14  C5  UNL     1      -0.946  -2.147   0.195  1.00  0.00     0.134 C 
BRANCH  14  15
HETATM   15  C6  UNL     1      -0.011  -3.209   0.558  1.00  0.00     0.233 C 
HETATM   16  N3  UNL     1      -0.393  -4.560   0.458  1.00  0.00    -0.062 NA
HETATM   17  O2  UNL     1       1.137  -2.934   0.962  1.00  0.00    -0.277 OA
ENDBRANCH  14  15
ENDBRANCH   1  14
BRANCH   1  18
HETATM   18  C7  UNL     1      -1.511   0.179   0.035  1.00  0.00     0.242 C 
HETATM   19  O3  UNL     1      -1.372   1.004  -0.876  1.00  0.00    -0.271 OA
HETATM   20  N4  UNL     1      -2.704   0.125   0.756  1.00  0.00    -0.342 N 
ATOM     21  H4  UNL     1      -2.778  -0.569   1.500  1.00  0.00     0.163 HD
BRANCH  20  22
HETATM   22  C8  UNL     1      -3.847   0.989   0.521  1.00  0.00     0.111 A 
HETATM   23  C10 UNL     1      -4.708   0.538  -0.677  1.00  0.00     0.043 A 
HETATM   24  C11 UNL     1      -5.179   0.365   0.713  1.00  0.00     0.043 A 
BRANCH  22  25
HETATM   25  C9  UNL     1      -3.621   2.423   0.698  1.00  0.00     0.259 C 
HETATM   26  N5  UNL     1      -2.406   3.018   1.083  1.00  0.00    -0.060 NA
HETATM   27  O4  UNL     1      -4.594   3.200   0.489  1.00  0.00    -0.274 OA
ENDBRANCH  22  25
ENDBRANCH  20  22
ENDBRANCH   1  18
TORSDOF 8
