REMARK  7 active torsions:
REMARK  status: ('A' for Active; 'I' for Inactive)
REMARK       I    between atoms: C2_2  and  N1_4 
REMARK    1  A    between atoms: N1_4  and  C3_6 
REMARK    2  A    between atoms: C3_6  and  C5_8 
REMARK       I    between atoms: C5_8  and  N2_10 
REMARK    3  A    between atoms: N2_10  and  C6_12 
REMARK    4  A    between atoms: C6_12  and  C7_13 
REMARK    5  A    between atoms: C6_12  and  C13_26 
REMARK    6  A    between atoms: C7_13  and  N3_14 
REMARK       I    between atoms: N3_14  and  C8_16 
REMARK    7  A    between atoms: C8_16  and  C9_18 
ROOT
HETATM    1  C6  UNL     1       0.218   0.442   0.004  1.00  0.00     0.116 C 
ENDROOT
BRANCH   1   2
HETATM    2  N2  UNL     1      -1.237   0.634   0.162  1.00  0.00    -0.320 N 
HETATM    3  C5  UNL     1      -2.209  -0.012  -0.624  1.00  0.00     0.244 C 
HETATM    4  O2  UNL     1      -1.902  -0.825  -1.547  1.00  0.00    -0.271 OA
ATOM      5  H2  UNL     1      -1.558   1.276   0.887  1.00  0.00     0.169 HD
BRANCH   3   6
HETATM    6  C3  UNL     1      -3.652   0.249  -0.387  1.00  0.00     0.172 C 
HETATM    7  C4  UNL     1      -4.006   0.002   1.064  1.00  0.00     0.042 C 
BRANCH   6   8
HETATM    8  N1  UNL     1      -4.481  -0.514  -1.298  1.00  0.00    -0.348 N 
HETATM    9  C2  UNL     1      -5.317   0.075  -2.262  1.00  0.00     0.214 C 
HETATM   10  C1  UNL     1      -6.133  -0.774  -3.156  1.00  0.00     0.117 C 
HETATM   11  O1  UNL     1      -5.362   1.321  -2.353  1.00  0.00    -0.274 OA
ATOM     12  H1  UNL     1      -4.457  -1.532  -1.236  1.00  0.00     0.163 HD
ENDBRANCH   6   8
ENDBRANCH   3   6
ENDBRANCH   1   2
BRANCH   1  13
HETATM   13  C7  UNL     1       0.769  -0.317   1.132  1.00  0.00     0.126 C 
BRANCH  13  14
HETATM   14  N3  UNL     1       2.154  -0.548   1.153  1.00  0.00    -0.329 N 
HETATM   15  C8  UNL     1       3.209   0.333   1.383  1.00  0.00     0.272 C 
HETATM   16  O3  UNL     1       3.047   1.538   1.653  1.00  0.00    -0.266 OA
ATOM     17  H3  UNL     1       2.432  -1.513   0.971  1.00  0.00     0.168 HD
BRANCH  15  18
HETATM   18  C9  UNL     1       4.621  -0.113   1.322  1.00  0.00     0.103 A 
HETATM   19  C10 UNL     1       5.009  -1.405   1.043  1.00  0.00     0.062 A 
HETATM   20  C11 UNL     1       6.387  -1.451   1.069  1.00  0.00     0.074 A 
HETATM   21 CL1  UNL     1       7.404  -2.873   0.777  1.00  0.00    -0.081 Cl
HETATM   22  C12 UNL     1       6.814  -0.178   1.366  1.00  0.00     0.126 A 
HETATM   23 CL2  UNL     1       8.509   0.274   1.512  1.00  0.00    -0.063 Cl
HETATM   24  N4  UNL     1       5.739   0.600   1.512  1.00  0.00    -0.341 N 
ATOM     25  H4  UNL     1       5.765   1.595   1.736  1.00  0.00     0.167 HD
ENDBRANCH  15  18
ENDBRANCH  13  14
ENDBRANCH   1  13
BRANCH   1  26
HETATM   26  C13 UNL     1       0.875   1.609  -0.504  1.00  0.00     0.282 C 
HETATM   27  N5  UNL     1       1.937   1.624  -1.464  1.00  0.00    -0.056 NA
HETATM   28  O4  UNL     1       0.496   2.760  -0.088  1.00  0.00    -0.269 OA
ENDBRANCH   1  26
TORSDOF 7
