REMARK  9 active torsions:
REMARK  status: ('A' for Active; 'I' for Inactive)
REMARK    1  A    between atoms: N3_4  and  C2_6 
REMARK    2  A    between atoms: C2_6  and  N4_7 
REMARK    3  A    between atoms: C2_6  and  C12_28 
REMARK    4  A    between atoms: N4_7  and  C3_10 
REMARK    5  A    between atoms: C3_10  and  N5_11 
REMARK    6  A    between atoms: C3_10  and  C4_15 
REMARK    7  A    between atoms: C4_15  and  C5_16 
REMARK    8  A    between atoms: C5_16  and  C6_17 
REMARK       I    between atoms: C6_17  and  N6_19 
REMARK    9  A    between atoms: N6_19  and  N7_21 
ROOT
HETATM    1  C3  UNL     1      -2.140  -0.009   0.621  1.00  0.00     0.383 C 
ENDROOT
BRANCH   1   2
HETATM    2  N4  UNL     1      -2.536   0.534  -0.649  1.00  0.00    -0.021 N 
ATOM      3  H42 UNL     1      -1.887   0.291  -1.397  1.00  0.00     0.282 HD
ATOM      4  H41 UNL     1      -2.427   1.547  -0.692  1.00  0.00     0.282 HD
BRANCH   2   5
HETATM    5  C2  UNL     1      -3.894   0.109  -0.931  1.00  0.00     0.343 C 
BRANCH   5   6
HETATM    6  N3  UNL     1      -4.865   0.543   0.017  1.00  0.00    -0.336 N 
HETATM    7  C1  UNL     1      -5.798  -0.142   0.552  1.00  0.00     0.198 C 
HETATM    8  N1  UNL     1      -6.631   0.580   1.486  1.00  0.00    -0.067 NA
HETATM    9  N2  UNL     1      -6.063  -1.506   0.304  1.00  0.00    -0.067 NA
ATOM     10  H3  UNL     1      -4.807   1.521   0.302  1.00  0.00     0.164 HD
ENDBRANCH   5   6
BRANCH   5  11
HETATM   11  C12 UNL     1      -4.250   0.780  -2.268  1.00  0.00     0.233 C 
HETATM   12 CL1  UNL     1      -5.889   0.240  -2.698  1.00  0.00    -0.080 Cl
HETATM   13 CL2  UNL     1      -3.072   0.327  -3.522  1.00  0.00    -0.080 Cl
HETATM   14 CL3  UNL     1      -4.310   2.548  -2.064  1.00  0.00    -0.080 Cl
ENDBRANCH   5  11
ENDBRANCH   2   5
ENDBRANCH   1   2
BRANCH   1  15
HETATM   15  N5  UNL     1      -2.874   0.695   1.655  1.00  0.00    -0.050 N 
ATOM     16  H53 UNL     1      -2.756   1.707   1.604  1.00  0.00     0.276 HD
ATOM     17  H52 UNL     1      -3.883   0.668   1.511  1.00  0.00     0.276 HD
ATOM     18  H51 UNL     1      -2.593   0.310   2.557  1.00  0.00     0.276 HD
ENDBRANCH   1  15
BRANCH   1  19
HETATM   19  C4  UNL     1      -0.666   0.232   0.901  1.00  0.00     0.071 C 
BRANCH  19  20
HETATM   20  C5  UNL     1       0.220  -0.392  -0.121  1.00  0.00     0.108 C 
BRANCH  20  21
HETATM   21  C6  UNL     1       1.631  -0.113   0.211  1.00  0.00     0.236 C 
HETATM   22  O1  UNL     1       1.907   0.578   1.215  1.00  0.00    -0.272 OA
HETATM   23  N6  UNL     1       2.671  -0.622  -0.597  1.00  0.00    -0.265 N 
ATOM     24  H6  UNL     1       2.395  -1.181  -1.405  1.00  0.00     0.190 HD
BRANCH  23  25
HETATM   25  N7  UNL     1       4.028  -0.437  -0.400  1.00  0.00    -0.259 N 
HETATM   26  C7  UNL     1       4.696  -0.555   0.879  1.00  0.00     0.152 C 
HETATM   27  C8  UNL     1       5.614   0.670   0.973  1.00  0.00     0.022 C 
HETATM   28  C9  UNL     1       6.759   0.529  -0.003  1.00  0.00     0.011 C 
HETATM   29  C10 UNL     1       6.360  -0.304  -1.220  1.00  0.00     0.105 C 
HETATM   30  C11 UNL     1       4.899  -0.102  -1.502  1.00  0.00     0.238 C 
HETATM   31  O2  UNL     1       4.442   0.313  -2.573  1.00  0.00    -0.272 OA
ENDBRANCH  23  25
ENDBRANCH  20  21
ENDBRANCH  19  20
ENDBRANCH   1  19
TORSDOF 9
