REMARK  10 active torsions:
REMARK  status: ('A' for Active; 'I' for Inactive)
REMARK    1  A    between atoms: C2_2  and  C3_3 
REMARK    2  A    between atoms: C2_2  and  N3_9 
REMARK    3  A    between atoms: C3_3  and  C4_4 
REMARK    4  A    between atoms: N3_9  and  C5_11 
REMARK    5  A    between atoms: C5_11  and  C10_28 
REMARK       I    between atoms: N4_12  and  C6_14 
REMARK    6  A    between atoms: C6_14  and  C7_16 
REMARK    7  A    between atoms: C7_16  and  N5_17 
REMARK    8  A    between atoms: C7_16  and  C8_21 
REMARK    9  A    between atoms: C8_21  and  N6_22 
REMARK   10  A    between atoms: C8_21  and  C9_26 
REMARK       I    between atoms: C10_28  and  N7_30 
ROOT
HETATM    1  C5  UNL     1       0.006  -0.043   1.090  1.00  0.00     0.173 C 
HETATM    2  N4  UNL     1       1.155   0.343   1.452  1.00  0.00    -0.307 N 
ATOM      3  H4  UNL     1       1.155   1.265   1.889  1.00  0.00     0.170 HD
HETATM    4  C6  UNL     1       2.416  -0.233   1.375  1.00  0.00     0.256 C 
HETATM    5  O1  UNL     1       2.667  -1.221   2.139  1.00  0.00    -0.271 OA
ENDROOT
BRANCH   1   6
HETATM    6  N3  UNL     1      -1.064   0.894   1.370  1.00  0.00    -0.367 N 
ATOM      7  H3  UNL     1      -1.856   0.592   1.937  1.00  0.00     0.161 HD
BRANCH   6   8
HETATM    8  C2  UNL     1      -1.033   2.248   0.863  1.00  0.00     0.085 C 
HETATM    9  C1  UNL     1      -2.235   2.981   1.348  1.00  0.00     0.032 C 
BRANCH   8  10
HETATM   10  C3  UNL     1      -0.855   2.259  -0.616  1.00  0.00     0.097 C 
BRANCH  10  11
HETATM   11  C4  UNL     1      -0.707   3.605  -1.191  1.00  0.00     0.088 C 
HETATM   12  N1  UNL     1      -1.560   4.016  -2.066  1.00  0.00    -0.391 N 
ATOM     13  H12 UNL     1      -2.315   3.383  -2.329  1.00  0.00     0.157 HD
ATOM     14  H11 UNL     1      -1.457   4.949  -2.465  1.00  0.00     0.157 HD
HETATM   15  N2  UNL     1       0.335   4.479  -0.828  1.00  0.00    -0.088 NA
ENDBRANCH  10  11
ENDBRANCH   8  10
ENDBRANCH   6   8
ENDBRANCH   1   6
BRANCH   1  16
HETATM   16  C10 UNL     1      -0.270  -1.295   0.465  1.00  0.00     0.287 C 
HETATM   17  O2  UNL     1       0.760  -2.042   0.249  1.00  0.00    -0.264 OA
HETATM   18  N7  UNL     1      -1.526  -1.787   0.069  1.00  0.00    -0.345 N 
HETATM   19  C11 UNL     1      -2.805  -1.159   0.202  1.00  0.00     0.132 C 
HETATM   20  C15 UNL     1      -1.547  -3.124  -0.562  1.00  0.00     0.132 C 
HETATM   21  C12 UNL     1      -3.839  -1.973  -0.592  1.00  0.00     0.099 C 
HETATM   22  C13 UNL     1      -3.948  -3.328   0.085  1.00  0.00     0.246 C 
HETATM   23  F2  UNL     1      -4.319  -3.098   1.396  1.00  0.00    -0.206 F 
HETATM   24  F3  UNL     1      -4.906  -4.055  -0.557  1.00  0.00    -0.206 F 
HETATM   25  C14 UNL     1      -2.592  -4.013   0.090  1.00  0.00     0.099 C 
ENDBRANCH   1  16
BRANCH   4  26
HETATM   26  C7  UNL     1       3.458   0.273   0.438  1.00  0.00     0.307 C 
BRANCH  26  27
HETATM   27  N5  UNL     1       2.981   1.366  -0.343  1.00  0.00    -0.064 N 
ATOM     28  H53 UNL     1       2.123   1.122  -0.838  1.00  0.00     0.275 HD
ATOM     29  H52 UNL     1       2.618   2.114   0.248  1.00  0.00     0.275 HD
ATOM     30  H51 UNL     1       3.694   1.712  -0.984  1.00  0.00     0.275 HD
ENDBRANCH  26  27
BRANCH  26  31
HETATM   31  C8  UNL     1       4.073  -0.775  -0.422  1.00  0.00     0.251 C 
BRANCH  31  32
HETATM   32  N6  UNL     1       4.725  -1.823   0.354  1.00  0.00    -0.070 N 
ATOM     33  H63 UNL     1       5.410  -1.429   0.999  1.00  0.00     0.274 HD
ATOM     34  H62 UNL     1       4.081  -2.234   1.029  1.00  0.00     0.274 HD
ATOM     35  H61 UNL     1       5.146  -2.541  -0.235  1.00  0.00     0.274 HD
ENDBRANCH  31  32
BRANCH  31  36
HETATM   36  C9  UNL     1       5.154  -0.156  -1.274  1.00  0.00     0.257 C 
HETATM   37  F1  UNL     1       4.633   0.816  -2.074  1.00  0.00    -0.253 F 
ENDBRANCH  31  36
ENDBRANCH  26  31
ENDBRANCH   4  26
TORSDOF 10
