REMARK  16 active torsions:
REMARK  status: ('A' for Active; 'I' for Inactive)
REMARK    1  A    between atoms: C2_2  and  C3_3 
REMARK    2  A    between atoms: C3_3  and  C4_4 
REMARK    3  A    between atoms: C4_4  and  C5_5 
REMARK    4  A    between atoms: C5_5  and  C6_6 
REMARK    5  A    between atoms: C6_6  and  C7_7 
REMARK    6  A    between atoms: C7_7  and  C8_8 
REMARK    7  A    between atoms: C8_8  and  N1_9 
REMARK    8  A    between atoms: N1_9  and  C9_11 
REMARK    9  A    between atoms: C10_14  and  N3_15 
REMARK   10  A    between atoms: N3_15  and  C11_17 
REMARK   11  A    between atoms: C13_19  and  N4_20 
REMARK   12  A    between atoms: N4_20  and  C14_22 
REMARK   13  A    between atoms: C14_22  and  C15_23 
REMARK   14  A    between atoms: C15_23  and  C16_24 
REMARK   15  A    between atoms: C18_28  and  N6_29 
REMARK   16  A    between atoms: N9_37  and  O1_38 
ROOT
HETATM    1  C9  UNL     1      -1.692   2.580   0.209  1.00  0.00     0.707 A 
HETATM    2  N2  UNL     1      -0.943   1.471   0.302  1.00  0.00    -0.174 N 
ATOM      3  H2  UNL     1      -1.403   0.562   0.247  1.00  0.00     0.186 HD
HETATM    4  C10 UNL     1       0.396   1.513   0.465  1.00  0.00     0.125 A 
HETATM    5  C19 UNL     1       0.972   2.761   0.534  1.00  0.00     0.097 A 
HETATM    6  C20 UNL     1       0.238   3.937   0.442  1.00  0.00     0.166 A 
HETATM    7  N8  UNL     1       0.856   5.206   0.516  1.00  0.00    -0.079 NA
HETATM    8  N9  UNL     1      -1.093   3.798   0.280  1.00  0.00    -0.038 N 
ENDROOT
BRANCH   4   9
HETATM    9  N3  UNL     1       1.023   0.410   0.544  1.00  0.00    -0.328 N 
ATOM     10  H3  UNL     1       0.460  -0.438   0.478  1.00  0.00     0.169 HD
BRANCH   9  11
HETATM   11  C11 UNL     1       2.397   0.231   0.711  1.00  0.00     0.126 A 
HETATM   12  C12 UNL     1       3.136  -0.437  -0.239  1.00  0.00     0.097 A 
HETATM   13  C13 UNL     1       4.504  -0.638  -0.114  1.00  0.00     0.120 A 
HETATM   14  N5  UNL     1       5.088  -0.146   0.990  1.00  0.00    -0.177 N 
HETATM   15  C18 UNL     1       4.390   0.514   1.939  1.00  0.00     0.679 A 
ATOM     16  H5  UNL     1       6.092  -0.275   1.116  1.00  0.00     0.185 HD
HETATM   17  N7  UNL     1       3.057   0.696   1.793  1.00  0.00    -0.177 N 
ATOM     18  H7  UNL     1       2.540   1.195   2.516  1.00  0.00     0.185 HD
BRANCH  13  19
HETATM   19  N4  UNL     1       5.187  -1.264  -1.007  1.00  0.00    -0.376 N 
ATOM     20  H4  UNL     1       4.741  -1.637  -1.845  1.00  0.00     0.161 HD
BRANCH  19  21
HETATM   21  C14 UNL     1       6.609  -1.423  -0.785  1.00  0.00     0.121 C 
BRANCH  21  22
HETATM   22  C15 UNL     1       7.273  -2.202  -1.885  1.00  0.00     0.019 C 
BRANCH  22  23
HETATM   23  C16 UNL     1       8.756  -2.293  -1.527  1.00  0.00    -0.003 C 
HETATM   24  C17 UNL     1       8.908  -2.997  -0.200  1.00  0.00     0.005 C 
ENDBRANCH  22  23
ENDBRANCH  21  22
ENDBRANCH  19  21
ENDBRANCH  13  19
BRANCH  15  25
HETATM   25  N6  UNL     1       4.951   0.986   2.998  1.00  0.00    -0.234 N 
ATOM     26  H62 UNL     1       5.956   0.849   3.108  1.00  0.00     0.174 HD
ATOM     27  H61 UNL     1       4.424   1.485   3.715  1.00  0.00     0.174 HD
ENDBRANCH  15  25
ENDBRANCH   9  11
ENDBRANCH   4   9
BRANCH   1  28
HETATM   28  N1  UNL     1      -2.972   2.585   0.053  1.00  0.00    -0.224 N 
ATOM     29  H1  UNL     1      -3.467   3.475  -0.009  1.00  0.00     0.177 HD
BRANCH  28  30
HETATM   30  C8  UNL     1      -3.723   1.339  -0.036  1.00  0.00     0.138 C 
BRANCH  30  31
HETATM   31  C7  UNL     1      -5.120   1.555  -0.506  1.00  0.00     0.020 C 
BRANCH  31  32
HETATM   32  C6  UNL     1      -5.883   0.264  -0.610  1.00  0.00     0.002 C 
BRANCH  32  33
HETATM   33  C5  UNL     1      -5.962  -0.422   0.718  1.00  0.00     0.000 C 
BRANCH  33  34
HETATM   34  C4  UNL     1      -6.739  -1.727   0.629  1.00  0.00     0.004 C 
BRANCH  34  35
HETATM   35  C3  UNL     1      -8.156  -1.529   0.164  1.00  0.00     0.026 C 
BRANCH  35  36
HETATM   36  C2  UNL     1      -8.847  -2.838   0.112  1.00  0.00    -0.037 C 
HETATM   37  C1  UNL     1      -8.229  -3.942   0.453  1.00  0.00     0.007 C 
ENDBRANCH  35  36
ENDBRANCH  34  35
ENDBRANCH  33  34
ENDBRANCH  32  33
ENDBRANCH  31  32
ENDBRANCH  30  31
ENDBRANCH  28  30
ENDBRANCH   1  28
BRANCH   8  38
HETATM   38  O1  UNL     1      -1.826   4.963   0.189  1.00  0.00    -0.268 OA
ATOM     39  H1  UNL     1      -1.407   5.814   0.239  1.00  0.00     0.246 HD
ENDBRANCH   8  38
TORSDOF 16
