REMARK  13 active torsions:
REMARK  status: ('A' for Active; 'I' for Inactive)
REMARK    1  A    between atoms: N1_1  and  C1_4 
REMARK    2  A    between atoms: C5_13  and  C6_14 
REMARK    3  A    between atoms: C6_14  and  C7_15 
REMARK    4  A    between atoms: C7_15  and  C8_16 
REMARK    5  A    between atoms: C10_22  and  C11_23 
REMARK       I    between atoms: C11_23  and  N6_25 
REMARK    6  A    between atoms: N6_25  and  C12_27 
REMARK    7  A    between atoms: C12_27  and  C13_28 
REMARK    8  A    between atoms: C13_28  and  C14_29 
REMARK    9  A    between atoms: C14_29  and  C15_30 
REMARK   10  A    between atoms: C15_30  and  C16_31 
REMARK   11  A    between atoms: C16_31  and  C17_32 
REMARK   12  A    between atoms: C17_32  and  C18_33 
REMARK   13  A    between atoms: C18_33  and  N7_34 
REMARK       I    between atoms: N7_34  and  C19_36 
ROOT
HETATM    1  C8  UNL     1      -2.745  -2.047  -1.631  1.00  0.00     0.043 A 
HETATM    2  N4  UNL     1      -3.989  -2.160  -1.119  1.00  0.00    -0.354 N 
ATOM      3  H4  UNL     1      -4.817  -1.711  -1.510  1.00  0.00     0.166 HD
HETATM    4  C9  UNL     1      -3.992  -2.939  -0.030  1.00  0.00     0.181 A 
HETATM    5  N5  UNL     1      -2.726  -3.338   0.166  1.00  0.00    -0.346 N 
ATOM      6  H5  UNL     1      -2.401  -3.944   0.920  1.00  0.00     0.167 HD
HETATM    7  C10 UNL     1      -1.953  -2.800  -0.807  1.00  0.00     0.124 A 
ENDROOT
BRANCH   1   8
HETATM    8  C7  UNL     1      -2.365  -1.246  -2.805  1.00  0.00     0.065 C 
BRANCH   8   9
HETATM    9  C6  UNL     1      -1.789   0.107  -2.461  1.00  0.00     0.064 C 
BRANCH   9  10
HETATM   10  C5  UNL     1      -2.780   0.928  -1.692  1.00  0.00     0.026 A 
HETATM   11  C4  UNL     1      -3.678   1.758  -2.323  1.00  0.00     0.113 A 
HETATM   12  N3  UNL     1      -4.552   2.479  -1.601  1.00  0.00    -0.357 N 
HETATM   13  C3  UNL     1      -4.552   2.391  -0.258  1.00  0.00     0.146 A 
ATOM     14  H3  UNL     1      -5.216   3.094  -2.071  1.00  0.00     0.165 HD
HETATM   15  C2  UNL     1      -5.439   3.119   0.518  1.00  0.00     0.290 A 
HETATM   16  C20 UNL     1      -3.648   1.554   0.411  1.00  0.00     0.154 A 
HETATM   17  N2  UNL     1      -5.422   3.017   1.851  1.00  0.00    -0.154 N 
HETATM   18  O1  UNL     1      -6.272   3.888  -0.035  1.00  0.00    -0.265 OA
HETATM   19  C1  UNL     1      -4.535   2.199   2.461  1.00  0.00     0.680 A 
ATOM     20  H2  UNL     1      -6.081   3.559   2.410  1.00  0.00     0.187 HD
HETATM   21  N10 UNL     1      -3.664   1.480   1.748  1.00  0.00    -0.174 N 
ATOM     22  H10 UNL     1      -3.004   0.868   2.227  1.00  0.00     0.186 HD
HETATM   23  N9  UNL     1      -2.808   0.866  -0.362  1.00  0.00    -0.342 N 
ATOM     24  H9  UNL     1      -2.139   0.248   0.098  1.00  0.00     0.167 HD
BRANCH  19  25
HETATM   25  N1  UNL     1      -4.574   2.147   3.755  1.00  0.00    -0.234 N 
ATOM     26  H12 UNL     1      -5.239   2.696   4.299  1.00  0.00     0.174 HD
ATOM     27  H11 UNL     1      -3.905   1.530   4.215  1.00  0.00     0.174 HD
ENDBRANCH  19  25
ENDBRANCH   9  10
ENDBRANCH   8   9
ENDBRANCH   1   8
BRANCH   7  28
HETATM   28  C11 UNL     1      -0.517  -3.049  -0.926  1.00  0.00     0.270 C 
HETATM   29  O2  UNL     1       0.134  -2.619  -1.897  1.00  0.00    -0.266 OA
HETATM   30  N6  UNL     1       0.173  -3.790   0.065  1.00  0.00    -0.356 N 
ATOM     31  H6  UNL     1      -0.362  -4.145   0.857  1.00  0.00     0.162 HD
BRANCH  30  32
HETATM   32  C12 UNL     1       1.582  -4.072   0.021  1.00  0.00     0.123 C 
BRANCH  32  33
HETATM   33  C13 UNL     1       2.461  -2.834   0.033  1.00  0.00     0.020 C 
BRANCH  33  34
HETATM   34  C14 UNL     1       2.168  -2.082   1.293  1.00  0.00     0.002 C 
BRANCH  34  35
HETATM   35  C15 UNL     1       3.031  -0.834   1.371  1.00  0.00     0.000 C 
BRANCH  35  36
HETATM   36  C16 UNL     1       2.770   0.082   0.215  1.00  0.00     0.002 C 
BRANCH  36  37
HETATM   37  C17 UNL     1       3.589   1.334   0.328  1.00  0.00     0.020 C 
BRANCH  37  38
HETATM   38  C18 UNL     1       5.041   1.027   0.332  1.00  0.00     0.124 C 
BRANCH  38  39
HETATM   39  N7  UNL     1       5.818   2.222   0.411  1.00  0.00    -0.345 N 
HETATM   40  C19 UNL     1       5.793   3.218  -0.573  1.00  0.00     0.328 C 
HETATM   41  N8  UNL     1       6.579   4.419  -0.468  1.00  0.00    -0.040 NA
HETATM   42  O3  UNL     1       5.078   3.093  -1.588  1.00  0.00    -0.251 OA
ATOM     43  H7  UNL     1       6.420   2.357   1.223  1.00  0.00     0.163 HD
ENDBRANCH  38  39
ENDBRANCH  37  38
ENDBRANCH  36  37
ENDBRANCH  35  36
ENDBRANCH  34  35
ENDBRANCH  33  34
ENDBRANCH  32  33
ENDBRANCH  30  32
ENDBRANCH   7  28
TORSDOF 13
