REMARK  17 active torsions:
REMARK  status: ('A' for Active; 'I' for Inactive)
REMARK    1  A    between atoms: N1_1  and  C1_5 
REMARK    2  A    between atoms: C1_5  and  N2_6 
REMARK    3  A    between atoms: N2_6  and  C2_8 
REMARK    4  A    between atoms: C2_8  and  C3_9 
REMARK    5  A    between atoms: C6_12  and  C7_13 
REMARK    6  A    between atoms: C7_13  and  C8_14 
REMARK    7  A    between atoms: C8_14  and  C9_15 
REMARK    8  A    between atoms: C9_15  and  C10_16 
REMARK    9  A    between atoms: C13_19  and  C14_20 
REMARK   10  A    between atoms: C14_20  and  S1_21 
REMARK   11  A    between atoms: S1_21  and  C15_22 
REMARK   12  A    between atoms: C15_22  and  C16_23 
REMARK   13  A    between atoms: C16_23  and  C17_24 
REMARK   14  A    between atoms: C17_24  and  O1_25 
REMARK   15  A    between atoms: C17_24  and  C18_27 
REMARK   16  A    between atoms: C18_27  and  O2_28 
REMARK   17  A    between atoms: C20_32  and  O3_33 
ROOT
HETATM    1  C10 UNL     1      -0.009  -0.301  -1.296  1.00  0.00     0.035 C 
HETATM    2  C11 UNL     1      -0.024   1.105  -1.753  1.00  0.00     0.024 C 
HETATM    3  C12 UNL     1       1.445   1.410  -2.004  1.00  0.00     0.015 C 
HETATM    4  C13 UNL     1       2.238   0.224  -1.518  1.00  0.00     0.004 C 
HETATM    5  C19 UNL     1       2.344  -0.842  -2.583  1.00  0.00     0.087 C 
HETATM    6  S2  UNL     1       0.568  -1.339  -2.688  1.00  0.00    -0.155 SA
HETATM    7  C20 UNL     1       1.273  -0.338  -0.460  1.00  0.00     0.146 C 
ENDROOT
BRANCH   1   8
HETATM    8  C9  UNL     1      -1.187  -0.826  -0.615  1.00  0.00     0.027 C 
BRANCH   8   9
HETATM    9  C8  UNL     1      -1.507  -0.060   0.650  1.00  0.00     0.030 C 
BRANCH   9  10
HETATM   10  C7  UNL     1      -2.715  -0.681   1.246  1.00  0.00    -0.010 C 
BRANCH  10  11
HETATM   11  C6  UNL     1      -3.894  -0.314   0.780  1.00  0.00     0.028 A 
HETATM   12  C5  UNL     1      -4.032   0.617  -0.228  1.00  0.00     0.019 A 
HETATM   13  C4  UNL     1      -5.303   0.976  -0.690  1.00  0.00     0.032 A 
HETATM   14  C3  UNL     1      -6.388   0.370  -0.104  1.00  0.00     0.050 A 
HETATM   15  N3  UNL     1      -6.237  -0.528   0.870  1.00  0.00    -0.322 N 
HETATM   16  C21 UNL     1      -5.037  -0.900   1.342  1.00  0.00     0.255 A 
ATOM     17  H3  UNL     1      -7.072  -0.952   1.275  1.00  0.00     0.169 HD
HETATM   18  O4  UNL     1      -4.908  -1.747   2.261  1.00  0.00    -0.267 OA
BRANCH  14  19
HETATM   19  C2  UNL     1      -7.590   0.684  -0.515  1.00  0.00     0.114 C 
BRANCH  19  20
HETATM   20  N2  UNL     1      -8.725   0.070   0.077  1.00  0.00    -0.375 N 
ATOM     21  H2  UNL     1      -8.795  -0.947   0.060  1.00  0.00     0.160 HD
BRANCH  20  22
HETATM   22  C1  UNL     1      -9.773   0.818   0.695  1.00  0.00     0.351 C 
BRANCH  22  23
HETATM   23  N1  UNL     1     -10.780  -0.069   1.202  1.00  0.00    -0.064 N 
ATOM     24  H13 UNL     1     -11.134  -0.697   0.480  1.00  0.00     0.276 HD
ATOM     25  H12 UNL     1     -10.389  -0.770   1.832  1.00  0.00     0.276 HD
ATOM     26  H11 UNL     1     -11.528   0.465   1.643  1.00  0.00     0.276 HD
ENDBRANCH  22  23
ENDBRANCH  20  22
ENDBRANCH  19  20
ENDBRANCH  14  19
ENDBRANCH  10  11
ENDBRANCH   9  10
ENDBRANCH   8   9
ENDBRANCH   1   8
BRANCH   7  27
HETATM   27  O3  UNL     1       1.575  -1.632  -0.121  1.00  0.00    -0.393 OA
ATOM     28  H3  UNL     1       2.371  -1.655   0.398  1.00  0.00     0.210 HD
ENDBRANCH   7  27
BRANCH   4  29
HETATM   29  C14 UNL     1       3.512   0.673  -0.949  1.00  0.00     0.086 C 
BRANCH  29  30
HETATM   30  S1  UNL     1       4.581  -0.628  -0.321  1.00  0.00    -0.168 SA
BRANCH  30  31
HETATM   31  C15 UNL     1       6.068   0.196   0.317  1.00  0.00     0.076 C 
BRANCH  31  32
HETATM   32  C16 UNL     1       7.054  -0.803   0.879  1.00  0.00     0.044 C 
BRANCH  32  33
HETATM   33  C17 UNL     1       8.248   0.005   1.378  1.00  0.00     0.142 C 
BRANCH  33  34
HETATM   34  O1  UNL     1       8.752   0.688   0.250  1.00  0.00    -0.393 OA
ATOM     35  H1  UNL     1       9.496   1.191   0.561  1.00  0.00     0.210 HD
ENDBRANCH  33  34
BRANCH  33  36
HETATM   36  C18 UNL     1       9.346  -0.929   1.827  1.00  0.00     0.195 C 
BRANCH  36  37
HETATM   37  O2  UNL     1      10.469  -0.201   2.151  1.00  0.00    -0.398 OA
ATOM     38  H2  UNL     1      11.160  -0.789   2.434  1.00  0.00     0.209 HD
ENDBRANCH  36  37
ENDBRANCH  33  36
ENDBRANCH  32  33
ENDBRANCH  31  32
ENDBRANCH  30  31
ENDBRANCH  29  30
ENDBRANCH   4  29
TORSDOF 17
