REMARK  4 active torsions:
REMARK  status: ('A' for Active; 'I' for Inactive)
REMARK    1  A    between atoms: N1_1  and  C1_4 
REMARK    2  A    between atoms: C4_11  and  N4_12 
REMARK    3  A    between atoms: N4_12  and  N5_14 
REMARK    4  A    between atoms: C5_17  and  C6_18 
ROOT
HETATM    1  C1  UNL     1      -2.190  -1.181   0.329  1.00  0.00     0.677 A 
HETATM    2  N2  UNL     1      -2.200   0.118  -0.030  1.00  0.00    -0.189 N 
ATOM      3  H2  UNL     1      -3.028   0.680  -0.227  1.00  0.00     0.184 HD
HETATM    4  C2  UNL     1      -0.927   0.541  -0.083  1.00  0.00     0.094 A 
HETATM    5  C3  UNL     1      -0.104  -0.521   0.251  1.00  0.00     0.106 A 
HETATM    6  N3  UNL     1      -0.888  -1.558   0.498  1.00  0.00    -0.187 N 
ATOM      7  H3  UNL     1      -0.571  -2.488   0.771  1.00  0.00     0.184 HD
HETATM    8  C4  UNL     1       0.997   0.235   0.098  1.00  0.00     0.092 A 
HETATM    9  C5  UNL     1       0.114   1.340  -0.251  1.00  0.00     0.062 A 
ENDROOT
BRANCH   8  10
HETATM   10  N4  UNL     1       2.397  -0.006   0.234  1.00  0.00    -0.304 N 
ATOM     11  H4  UNL     1       2.935   0.638   0.814  1.00  0.00     0.186 HD
BRANCH  10  12
HETATM   12  N5  UNL     1       3.072  -1.049  -0.364  1.00  0.00    -0.345 N 
ATOM     13  H52 UNL     1       2.518  -1.683  -0.940  1.00  0.00     0.176 HD
ATOM     14  H51 UNL     1       4.073  -1.221  -0.267  1.00  0.00     0.176 HD
ENDBRANCH  10  12
ENDBRANCH   8  10
BRANCH   9  15
HETATM   15  C6  UNL     1       0.297   2.731  -0.626  1.00  0.00     0.274 C 
HETATM   16  O1  UNL     1      -0.720   3.450  -0.875  1.00  0.00    -0.301 OA
ENDBRANCH   9  15
BRANCH   1  17
HETATM   17  N1  UNL     1      -3.228  -1.944   0.488  1.00  0.00    -0.234 N 
ATOM     18  H12 UNL     1      -4.200  -1.662   0.362  1.00  0.00     0.174 HD
ATOM     19  H11 UNL     1      -3.220  -2.927   0.760  1.00  0.00     0.174 HD
ENDBRANCH   1  17
TORSDOF 4
