REMARK  4 active torsions:
REMARK  status: ('A' for Active; 'I' for Inactive)
REMARK    1  A    between atoms: N1_1  and  C1_4 
REMARK    2  A    between atoms: N3_7  and  O1_8 
REMARK    3  A    between atoms: C2_10  and  C3_11 
REMARK    4  A    between atoms: N5_15  and  N6_16 
ROOT
HETATM    1  C1  UNL     1      -1.537   0.875   0.492  1.00  0.00     0.713 A 
HETATM    2  N2  UNL     1      -0.432   1.624   0.296  1.00  0.00    -0.104 N 
ATOM      3  H2  UNL     1      -0.519   2.640   0.326  1.00  0.00     0.208 HD
HETATM    4  N3  UNL     1       0.760   1.097   0.066  1.00  0.00    -0.142 N 
HETATM    5  C2  UNL     1       0.924  -0.246   0.016  1.00  0.00     0.164 A 
HETATM    6  C4  UNL     1      -0.198  -1.017   0.215  1.00  0.00     0.173 A 
HETATM    7  N5  UNL     1      -1.398  -0.462   0.447  1.00  0.00    -0.101 N 
ENDROOT
BRANCH   1   8
HETATM    8  N1  UNL     1      -2.640   1.471   0.706  1.00  0.00    -0.232 N 
ATOM      9  H12 UNL     1      -2.745   2.485   0.740  1.00  0.00     0.174 HD
ATOM     10  H11 UNL     1      -3.475   0.905   0.854  1.00  0.00     0.174 HD
ENDBRANCH   1   8
BRANCH   7  11
HETATM   11  N6  UNL     1      -2.513  -1.275   0.644  1.00  0.00    -0.325 N 
ATOM     12  H62 UNL     1      -3.425  -0.853   0.820  1.00  0.00     0.178 HD
ATOM     13  H61 UNL     1      -2.408  -2.289   0.610  1.00  0.00     0.178 HD
ENDBRANCH   7  11
BRANCH   4  14
HETATM   14  O1  UNL     1       1.888   1.892  -0.134  1.00  0.00    -0.267 OA
ATOM     15  H1  UNL     1       2.744   1.514  -0.299  1.00  0.00     0.247 HD
ENDBRANCH   4  14
BRANCH   5  16
HETATM   16  C3  UNL     1       2.214  -0.864  -0.233  1.00  0.00     0.287 C 
HETATM   17  N4  UNL     1       3.330  -0.017  -0.430  1.00  0.00    -0.056 NA
HETATM   18  O2  UNL     1       2.268  -2.118  -0.261  1.00  0.00    -0.269 OA
ENDBRANCH   5  16
TORSDOF 4
