REMARK  13 active torsions:
REMARK  status: ('A' for Active; 'I' for Inactive)
REMARK    1  A    between atoms: N1_1  and  C1_4 
REMARK    2  A    between atoms: C2_7  and  N3_8 
REMARK    3  A    between atoms: N4_10  and  C3_12 
REMARK    4  A    between atoms: C5_14  and  C6_15 
REMARK    5  A    between atoms: C6_15  and  C7_17 
REMARK    6  A    between atoms: C7_17  and  N5_18 
REMARK    7  A    between atoms: C9_23  and  N6_24 
REMARK    8  A    between atoms: C10_29  and  C11_30 
REMARK    9  A    between atoms: C11_30  and  N9_31 
REMARK   10  A    between atoms: C11_30  and  N10_35 
REMARK   11  A    between atoms: C12_43  and  C13_44 
REMARK   12  A    between atoms: C13_44  and  O2_45 
REMARK   13  A    between atoms: C13_44  and  O3_47 
ROOT
HETATM    1  C3  UNL     1       0.632   0.725  -0.691  1.00  0.00     0.122 A 
HETATM    2  C4  UNL     1       0.520   2.058  -0.315  1.00  0.00     0.065 A 
HETATM    3  C5  UNL     1      -0.712   2.579   0.010  1.00  0.00     0.019 A 
HETATM    4  C8  UNL     1      -1.816   1.722  -0.055  1.00  0.00     0.067 A 
HETATM    5  C9  UNL     1      -1.692   0.408  -0.428  1.00  0.00     0.149 A 
HETATM    6  N12 UNL     1      -0.471  -0.045  -0.733  1.00  0.00    -0.325 N 
ATOM      7  H12 UNL     1      -0.371  -1.021  -1.011  1.00  0.00     0.169 HD
ENDROOT
BRANCH   1   8
HETATM    8  N4  UNL     1       1.893   0.160  -1.032  1.00  0.00    -0.284 N 
HETATM    9  N3  UNL     1       2.443  -0.632  -0.214  1.00  0.00    -0.283 N 
ATOM     10  H3  UNL     1       1.975  -0.848   0.666  1.00  0.00     0.188 HD
ATOM     11  H4  UNL     1       2.344   0.389  -1.918  1.00  0.00     0.188 HD
BRANCH   9  12
HETATM   12  C2  UNL     1       3.693  -1.222  -0.499  1.00  0.00     0.152 A 
HETATM   13  N2  UNL     1       3.885  -1.940  -1.641  1.00  0.00    -0.175 N 
HETATM   14  C1  UNL     1       5.064  -2.513  -1.938  1.00  0.00     0.680 A 
ATOM     15  H2  UNL     1       3.108  -2.046  -2.293  1.00  0.00     0.186 HD
HETATM   16  N13 UNL     1       6.060  -2.352  -1.059  1.00  0.00    -0.156 N 
HETATM   17  C14 UNL     1       5.943  -1.660   0.084  1.00  0.00     0.274 A 
ATOM     18  H13 UNL     1       6.961  -2.781  -1.271  1.00  0.00     0.187 HD
HETATM   19  C12 UNL     1       4.725  -1.067   0.392  1.00  0.00     0.110 A 
HETATM   20  O4  UNL     1       6.903  -1.529   0.886  1.00  0.00    -0.267 OA
BRANCH  14  21
HETATM   21  N1  UNL     1       5.252  -3.199  -3.025  1.00  0.00    -0.234 N 
ATOM     22  H12 UNL     1       4.493  -3.322  -3.695  1.00  0.00     0.174 HD
ATOM     23  H11 UNL     1       6.147  -3.634  -3.250  1.00  0.00     0.174 HD
ENDBRANCH  14  21
BRANCH  19  24
HETATM   24  C13 UNL     1       4.627  -0.308   1.660  1.00  0.00     0.297 C 
BRANCH  24  25
HETATM   25  O2  UNL     1       5.233  -1.088   2.645  1.00  0.00    -0.367 OA
ATOM     26  H2  UNL     1       5.170  -0.601   3.458  1.00  0.00     0.213 HD
ENDBRANCH  24  25
BRANCH  24  27
HETATM   27  O3  UNL     1       3.304  -0.021   1.966  1.00  0.00    -0.367 OA
ATOM     28  H3  UNL     1       3.241   0.466   2.779  1.00  0.00     0.213 HD
ENDBRANCH  24  27
ENDBRANCH  19  24
ENDBRANCH   9  12
ENDBRANCH   1   8
BRANCH   3  29
HETATM   29  C6  UNL     1      -0.892   3.970   0.412  1.00  0.00     0.184 C 
HETATM   30  O1  UNL     1       0.149   4.690   0.450  1.00  0.00    -0.291 OA
BRANCH  29  31
HETATM   31  C7  UNL     1      -2.198   4.542   0.761  1.00  0.00     0.313 C 
BRANCH  31  32
HETATM   32  N5  UNL     1      -2.045   5.932   1.113  1.00  0.00    -0.072 N 
ATOM     33  H53 UNL     1      -1.357   6.066   1.854  1.00  0.00     0.274 HD
ATOM     34  H52 UNL     1      -1.577   6.464   0.379  1.00  0.00     0.274 HD
ATOM     35  H51 UNL     1      -2.953   6.329   1.356  1.00  0.00     0.274 HD
ENDBRANCH  31  32
ENDBRANCH  29  31
ENDBRANCH   3  29
BRANCH   5  36
HETATM   36  N6  UNL     1      -2.836  -0.435  -0.483  1.00  0.00    -0.164 N 
HETATM   37  N7  UNL     1      -3.361  -0.825  -1.649  1.00  0.00    -0.218 N 
HETATM   38  N8  UNL     1      -4.401  -1.591  -1.440  1.00  0.00    -0.268 N 
ATOM     39  H7  UNL     1      -3.003  -0.564  -2.568  1.00  0.00     0.210 HD
HETATM   40  C10 UNL     1      -4.521  -1.676  -0.091  1.00  0.00     0.172 A 
ATOM     41  H8  UNL     1      -4.996  -2.031  -2.142  1.00  0.00     0.190 HD
HETATM   42  N11 UNL     1      -3.552  -0.961   0.490  1.00  0.00    -0.260 N 
ATOM     43  H11 UNL     1      -3.397  -0.845   1.492  1.00  0.00     0.190 HD
BRANCH  40  44
HETATM   44  C11 UNL     1      -5.616  -2.481   0.536  1.00  0.00     0.447 C 
BRANCH  44  45
HETATM   45  N9  UNL     1      -5.707  -3.743  -0.140  1.00  0.00    -0.043 N 
ATOM     46  H93 UNL     1      -5.829  -3.638  -1.147  1.00  0.00     0.277 HD
ATOM     47  H92 UNL     1      -4.817  -4.241  -0.156  1.00  0.00     0.277 HD
ATOM     48  H91 UNL     1      -6.453  -4.292   0.287  1.00  0.00     0.277 HD
ENDBRANCH  44  45
BRANCH  44  49
HETATM   49  N10 UNL     1      -6.867  -1.766   0.312  1.00  0.00    -0.043 N 
ATOM     50 3H10 UNL     1      -6.840  -0.803   0.646  1.00  0.00     0.277 HD
ATOM     51 2H10 UNL     1      -7.037  -1.561  -0.673  1.00  0.00     0.277 HD
ATOM     52 1H10 UNL     1      -7.613  -2.315   0.739  1.00  0.00     0.277 HD
ENDBRANCH  44  49
ENDBRANCH  40  44
ENDBRANCH   5  36
TORSDOF 13
