REMARK  12 active torsions:
REMARK  status: ('A' for Active; 'I' for Inactive)
REMARK    1  A    between atoms: C2_2  and  N1_3 
REMARK    2  A    between atoms: C3_4  and  N2_5 
REMARK    3  A    between atoms: C5_13  and  C6_14 
REMARK    4  A    between atoms: C6_14  and  O1_15 
REMARK    5  A    between atoms: C6_14  and  N5_17 
REMARK    6  A    between atoms: N5_17  and  N6_19 
REMARK    7  A    between atoms: N7_22  and  N8_23 
REMARK    8  A    between atoms: C8_26  and  N9_27 
REMARK    9  A    between atoms: C11_33  and  N11_34 
REMARK   10  A    between atoms: N11_34  and  C12_36 
REMARK   11  A    between atoms: C12_36  and  O3_37 
REMARK   12  A    between atoms: N12_39  and  O4_41 
ROOT
HETATM    1  N1  UNL     1      -2.668  -2.226   0.771  1.00  0.00    -0.147 N 
HETATM    2  C3  UNL     1      -1.603  -2.883   0.315  1.00  0.00     0.682 A 
HETATM    3  N3  UNL     1      -0.607  -2.150  -0.213  1.00  0.00    -0.176 N 
ATOM      4  H3  UNL     1       0.228  -2.612  -0.573  1.00  0.00     0.186 HD
HETATM    5  C4  UNL     1      -0.706  -0.816  -0.268  1.00  0.00     0.139 A 
HETATM    6  N4  UNL     1       0.295  -0.097  -0.799  1.00  0.00    -0.341 N 
ATOM      7  H4  UNL     1       1.115  -0.590  -1.151  1.00  0.00     0.167 HD
HETATM    8  C5  UNL     1       0.265   1.254  -0.888  1.00  0.00     0.063 A 
HETATM    9  C10 UNL     1      -0.822   1.940  -0.425  1.00  0.00     0.060 A 
HETATM   10  C11 UNL     1      -1.911   1.251   0.144  1.00  0.00     0.057 A 
HETATM   11  C13 UNL     1      -1.823  -0.111   0.207  1.00  0.00     0.104 A 
HETATM   12  C14 UNL     1      -2.814  -0.873   0.737  1.00  0.00     0.278 A 
HETATM   13  O5  UNL     1      -3.852  -0.355   1.189  1.00  0.00    -0.266 OA
ENDROOT
BRANCH   8  14
HETATM   14  C6  UNL     1       1.449   1.918  -1.510  1.00  0.00     0.285 C 
BRANCH  14  15
HETATM   15  O1  UNL     1       1.782   3.070  -0.808  1.00  0.00    -0.370 OA
ATOM     16  H1  UNL     1       2.535   3.492  -1.204  1.00  0.00     0.212 HD
ENDBRANCH  14  15
BRANCH  14  17
HETATM   17  N5  UNL     1       2.570   1.012  -1.528  1.00  0.00    -0.276 N 
ATOM     18  H5  UNL     1       2.881   0.696  -2.447  1.00  0.00     0.185 HD
BRANCH  17  19
HETATM   19  N6  UNL     1       3.268   0.525  -0.447  1.00  0.00    -0.125 N 
HETATM   20  C7  UNL     1       3.188   0.728   0.873  1.00  0.00     0.397 A 
HETATM   21  O2  UNL     1       2.379   1.495   1.444  1.00  0.00    -0.240 OA
HETATM   22  N7  UNL     1       4.109  -0.012   1.535  1.00  0.00    -0.034 N 
HETATM   23  C8  UNL     1       4.775  -0.687   0.607  1.00  0.00     0.719 A 
HETATM   24  N10 UNL     1       4.269  -0.364  -0.579  1.00  0.00    -0.101 N 
HETATM   25  C9  UNL     1       4.785  -0.937  -1.823  1.00  0.00     0.200 C 
BRANCH  22  26
HETATM   26  N8  UNL     1       4.324  -0.062   2.909  1.00  0.00    -0.320 N 
ATOM     27  H82 UNL     1       3.812   0.457   3.622  1.00  0.00     0.178 HD
ATOM     28  H81 UNL     1       5.018  -0.619   3.408  1.00  0.00     0.178 HD
ENDBRANCH  22  26
BRANCH  23  29
HETATM   29  N9  UNL     1       5.755  -1.522   0.849  1.00  0.00    -0.231 N 
ATOM     30  H92 UNL     1       6.143  -1.770   1.759  1.00  0.00     0.174 HD
ATOM     31  H91 UNL     1       6.267  -2.041   0.136  1.00  0.00     0.174 HD
ENDBRANCH  23  29
ENDBRANCH  17  19
ENDBRANCH  14  17
ENDBRANCH   8  14
BRANCH  10  32
HETATM   32  N11 UNL     1      -3.000   2.020   0.602  1.00  0.00    -0.320 N 
ATOM     33  H11 UNL     1      -3.805   1.554   1.021  1.00  0.00     0.169 HD
BRANCH  32  34
HETATM   34  C12 UNL     1      -2.990   3.446   0.487  1.00  0.00     0.241 C 
HETATM   35  N12 UNL     1      -2.580   4.140   1.465  1.00  0.00    -0.233 N 
ATOM     36  H12 UNL     1      -2.264   3.680   2.319  1.00  0.00     0.198 HD
BRANCH  34  37
HETATM   37  O3  UNL     1      -3.420   4.028  -0.669  1.00  0.00    -0.331 OA
ATOM     38  H3  UNL     1      -3.413   4.975  -0.745  1.00  0.00     0.221 HD
ENDBRANCH  34  37
BRANCH  35  39
HETATM   39  O4  UNL     1      -2.561   5.505   1.377  1.00  0.00    -0.287 OA
ATOM     40  H4  UNL     1      -2.254   6.025   2.110  1.00  0.00     0.244 HD
ENDBRANCH  35  39
ENDBRANCH  32  34
ENDBRANCH  10  32
BRANCH   2  41
HETATM   41  N2  UNL     1      -1.486  -4.191   0.342  1.00  0.00    -0.234 N 
ATOM     42  H22 UNL     1      -2.242  -4.747   0.743  1.00  0.00     0.174 HD
ATOM     43  H21 UNL     1      -0.670  -4.694  -0.007  1.00  0.00     0.174 HD
ENDBRANCH   2  41
BRANCH   1  44
HETATM   44  C2  UNL     1      -3.777  -2.966   1.375  1.00  0.00     0.146 C 
HETATM   45  C1  UNL     1      -4.753  -3.370   0.313  1.00  0.00     0.027 C 
ENDBRANCH   1  44
TORSDOF 12
