REMARK  6 active torsions:
REMARK  status: ('A' for Active; 'I' for Inactive)
REMARK    1  A    between atoms: N1_2  and  C2_4 
REMARK    2  A    between atoms: C2_4  and  O1_5 
REMARK    3  A    between atoms: C2_4  and  C3_7 
REMARK    4  A    between atoms: C4_9  and  N2_10 
REMARK    5  A    between atoms: N3_13  and  C7_14 
REMARK    6  A    between atoms: N4_17  and  C10_18 
ROOT
HETATM    1  N2  UNL     1      -3.550  -1.227  -0.236  1.00  0.00    -0.352 N 
HETATM    2  C5  UNL     1      -2.933  -1.786  -1.406  1.00  0.00     0.169 C 
HETATM    3  C6  UNL     1      -1.532  -1.256  -1.490  1.00  0.00     0.083 C 
HETATM    4  N3  UNL     1      -0.774  -1.197  -0.325  1.00  0.00    -0.366 N 
HETATM    5  C20 UNL     1      -1.438  -0.905   0.868  1.00  0.00     0.083 C 
HETATM    6  C21 UNL     1      -2.850  -1.378   1.019  1.00  0.00     0.169 C 
ENDROOT
BRANCH   4   7
HETATM    7  C7  UNL     1       0.588  -1.530  -0.316  1.00  0.00     0.091 C 
HETATM    8  C8  UNL     1       1.207  -1.194   1.015  1.00  0.00     0.056 C 
HETATM    9  C9  UNL     1       2.662  -0.937   1.023  1.00  0.00     0.275 C 
HETATM   10  N4  UNL     1       3.439  -1.384  -0.059  1.00  0.00     0.093 N 
HETATM   11  C18 UNL     1       2.784  -1.598  -1.298  1.00  0.00     0.275 C 
HETATM   12  C19 UNL     1       1.442  -0.851  -1.352  1.00  0.00     0.056 C 
BRANCH  10  13
HETATM   13  C10 UNL     1       4.661  -0.680  -0.270  1.00  0.00     0.223 C 
HETATM   14  C11 UNL     1       4.518   0.774  -0.615  1.00  0.00     0.036 C 
HETATM   15  C12 UNL     1       5.906   1.323  -0.896  1.00  0.00     0.011 C 
HETATM   16  C13 UNL     1       6.651   1.319   0.423  1.00  0.00    -0.048 C 
HETATM   17  C14 UNL     1       7.993   1.985   0.301  1.00  0.00     0.015 C 
HETATM   18  C15 UNL     1       5.883   2.051   1.499  1.00  0.00     0.015 C 
HETATM   19  C16 UNL     1       6.867  -0.142   0.788  1.00  0.00     0.011 C 
HETATM   20  C17 UNL     1       5.572  -0.896   0.920  1.00  0.00     0.036 C 
ENDBRANCH  10  13
ENDBRANCH   4   7
BRANCH   1  21
HETATM   21  C4  UNL     1      -4.801  -0.549  -0.196  1.00  0.00     0.148 A 
HETATM   22  S1  UNL     1      -5.312   0.983  -0.724  1.00  0.00    -0.048 SA
HETATM   23  C3  UNL     1      -6.975   0.914  -0.198  1.00  0.00     0.081 A 
HETATM   24  C22 UNL     1      -6.997  -0.336   0.363  1.00  0.00     0.029 A 
HETATM   25  N5  UNL     1      -5.898  -1.029   0.342  1.00  0.00    -0.339 N 
HETATM   26  C23 UNL     1      -8.255  -0.923   0.993  1.00  0.00     0.070 C 
ATOM     27  H5  UNL     1      -5.888  -1.963   0.751  1.00  0.00     0.168 HD
BRANCH  23  28
HETATM   28  C2  UNL     1      -7.987   1.944  -0.366  1.00  0.00     0.155 C 
BRANCH  28  29
HETATM   29  N1  UNL     1      -9.291   1.950   0.043  1.00  0.00    -0.374 N 
HETATM   30  C1  UNL     1     -10.171   3.096  -0.219  1.00  0.00     0.148 C 
ATOM     31  H1  UNL     1      -9.661   1.141   0.541  1.00  0.00     0.161 HD
ENDBRANCH  28  29
BRANCH  28  32
HETATM   32  O1  UNL     1      -7.563   3.003  -0.999  1.00  0.00    -0.345 OA
ATOM     33  H1  UNL     1      -6.657   2.999  -1.283  1.00  0.00     0.219 HD
ENDBRANCH  28  32
ENDBRANCH  23  28
ENDBRANCH   1  21
TORSDOF 6
