REMARK  4 active torsions:
REMARK  status: ('A' for Active; 'I' for Inactive)
REMARK    1  A    between atoms: S1_2  and  C2_4 
REMARK    2  A    between atoms: C2_4  and  C3_5 
REMARK    3  A    between atoms: C3_5  and  O2_6 
REMARK    4  A    between atoms: C3_5  and  C4_8 
ROOT
HETATM    1  C4  UNL     1       2.599   0.220  -0.030  1.00  0.00     0.184 A 
HETATM    2  O3  UNL     1       2.194   0.323  -1.362  1.00  0.00    -0.367 OA
HETATM    3  C5  UNL     1       1.558  -0.912  -1.386  1.00  0.00     0.093 A 
HETATM    4  C6  UNL     1       2.068  -1.896  -2.382  1.00  0.00     0.049 C 
HETATM    5  C7  UNL     1       1.952  -1.113   0.034  1.00  0.00     0.189 A 
HETATM    6  O4  UNL     1       0.821  -1.141   0.822  1.00  0.00    -0.364 OA
HETATM    7  C8  UNL     1      -0.278  -1.384   0.021  1.00  0.00     0.089 C 
HETATM    8  C9  UNL     1      -0.467  -2.878  -0.070  1.00  0.00     0.051 C 
HETATM    9  C10 UNL     1      -1.500  -0.684   0.519  1.00  0.00    -0.037 C 
HETATM   10  C11 UNL     1      -1.563  -0.374   1.789  1.00  0.00    -0.019 C 
HETATM   11  C12 UNL     1      -2.710   0.322   2.430  1.00  0.00     0.041 C 
HETATM   12  C13 UNL     1      -3.525   1.095   1.424  1.00  0.00    -0.009 C 
HETATM   13  C14 UNL     1      -2.982   2.477   1.196  1.00  0.00     0.021 C 
HETATM   14  C15 UNL     1      -4.932   1.241   1.963  1.00  0.00     0.097 C 
HETATM   15  C16 UNL     1      -5.696   1.355   0.684  1.00  0.00     0.150 C 
HETATM   16  O5  UNL     1      -6.737   2.005   0.475  1.00  0.00    -0.293 OA
HETATM   17  C17 UNL     1      -4.941   0.530  -0.264  1.00  0.00     0.054 C 
HETATM   18  C18 UNL     1      -3.697   0.378   0.155  1.00  0.00    -0.055 C 
HETATM   19  C19 UNL     1      -2.573  -0.385  -0.489  1.00  0.00     0.006 C 
HETATM   20  C20 UNL     1      -3.200  -1.721  -0.909  1.00  0.00     0.025 C 
HETATM   21  C21 UNL     1      -2.013   0.368  -1.647  1.00  0.00     0.019 C 
HETATM   22  C22 UNL     1      -0.509   0.500  -1.500  1.00  0.00     0.012 C 
HETATM   23  C23 UNL     1       0.055  -0.876  -1.364  1.00  0.00     0.061 C 
ENDROOT
BRANCH   1  24
HETATM   24  C3  UNL     1       4.076   0.328   0.078  1.00  0.00     0.161 C 
BRANCH  24  25
HETATM   25  C2  UNL     1       4.642   0.374   1.445  1.00  0.00     0.142 C 
BRANCH  25  26
HETATM   26  S1  UNL     1       6.389   0.710   1.333  1.00  0.00     0.013 S 
HETATM   27  C1  UNL     1       6.718   2.250   0.538  1.00  0.00     0.127 C 
HETATM   28  O1  UNL     1       6.995   0.663   2.901  1.00  0.00    -0.258 OA
ENDBRANCH  25  26
ENDBRANCH  24  25
BRANCH  24  29
HETATM   29  O2  UNL     1       4.711  -0.683  -0.644  1.00  0.00    -0.392 OA
ATOM     30  H2  UNL     1       4.348  -0.713  -1.521  1.00  0.00     0.210 HD
ENDBRANCH  24  29
ENDBRANCH   1  24
TORSDOF 4
