REMARK  3 active torsions:
REMARK  status: ('A' for Active; 'I' for Inactive)
REMARK    1  A    between atoms: N1_2  and  C1_4 
REMARK    2  A    between atoms: C1_4  and  C2_5 
REMARK    3  A    between atoms: C2_5  and  C3_6 
ROOT
HETATM    1  C3  UNL     1      -0.579   0.152  -0.351  1.00  0.00    -0.017 A 
HETATM    2  C4  UNL     1      -1.310  -1.014  -0.385  1.00  0.00     0.029 A 
HETATM    3  C5  UNL     1      -2.674  -1.017  -0.086  1.00  0.00     0.107 A 
HETATM    4  N2  UNL     1      -3.218   0.167   0.229  1.00  0.00    -0.311 N 
ATOM      5  H2  UNL     1      -4.213   0.194   0.451  1.00  0.00     0.186 HD
HETATM    6  N3  UNL     1      -2.541   1.300   0.269  1.00  0.00    -0.294 N 
ATOM      7  H3  UNL     1      -3.017   2.167   0.518  1.00  0.00     0.187 HD
HETATM    8  C6  UNL     1      -1.229   1.317  -0.016  1.00  0.00     0.101 A 
HETATM    9 BR1  UNL     1      -0.171   2.920   0.010  1.00  0.00    -0.029 Br
ENDROOT
BRANCH   1  10
HETATM   10  C2  UNL     1       0.861   0.134  -0.654  1.00  0.00     0.092 C 
BRANCH  10  11
HETATM   11  C1  UNL     1       1.634   0.197   0.619  1.00  0.00     0.145 C 
BRANCH  11  12
HETATM   12  N1  UNL     1       2.855  -0.187   0.696  1.00  0.00    -0.131 N 
HETATM   13  O1  UNL     1       3.458  -0.669  -0.438  1.00  0.00    -0.533 OA
HETATM   14  O2  UNL     1       3.581  -0.140   1.851  1.00  0.00    -0.533 OA
ENDBRANCH  11  12
ENDBRANCH  10  11
ENDBRANCH   1  10
TORSDOF 3
