REMARK  2 active torsions:
REMARK  status: ('A' for Active; 'I' for Inactive)
REMARK    1  A    between atoms: C2_4  and  C3_5 
REMARK    2  A    between atoms: N1_6  and  N2_8 
ROOT
HETATM    1  C3  UNL     1      -0.419   0.203  -0.876  1.00  0.00     0.093 C 
HETATM    2  N1  UNL     1       0.237   0.713   0.108  1.00  0.00    -0.317 N 
ATOM      3  H1  UNL     1      -0.265   1.344   0.733  1.00  0.00     0.185 HD
ENDROOT
BRANCH   1   4
HETATM    4  C2  UNL     1      -1.834   0.588  -0.992  1.00  0.00     0.138 C 
HETATM    5  C1  UNL     1      -2.700  -0.588  -1.469  1.00  0.00     0.446 C 
HETATM    6  F1  UNL     1      -1.940  -1.674  -1.768  1.00  0.00    -0.172 F 
HETATM    7  F2  UNL     1      -3.519  -0.176  -2.474  1.00  0.00    -0.172 F 
HETATM    8  N3  UNL     1      -3.517  -0.810  -0.268  1.00  0.00     0.162 N 
HETATM    9  C9  UNL     1      -3.886   0.575   0.091  1.00  0.00     0.287 C 
HETATM   10  C10 UNL     1      -2.543  -0.686   0.835  1.00  0.00     0.287 C 
HETATM   11  C8  UNL     1      -2.404   0.730   0.391  1.00  0.00     0.059 C 
ENDBRANCH   1   4
BRANCH   2  12
HETATM   12  N2  UNL     1       1.558   0.472   0.378  1.00  0.00    -0.324 N 
HETATM   13  C4  UNL     1       1.908  -0.709   1.151  1.00  0.00     0.168 C 
HETATM   14  C5  UNL     1       2.863  -1.503   0.284  1.00  0.00     0.189 C 
HETATM   15  O1  UNL     1       3.897  -0.769  -0.219  1.00  0.00    -0.388 OA
HETATM   16  C6  UNL     1       3.956   0.537   0.170  1.00  0.00     0.189 C 
HETATM   17  C7  UNL     1       2.669   1.300  -0.042  1.00  0.00     0.168 C 
ENDBRANCH   2  12
TORSDOF 2
