REMARK  1 active torsions:
REMARK  status: ('A' for Active; 'I' for Inactive)
REMARK    1  A    between atoms: C2_2  and  C3_3 
ROOT
HETATM    1  C3  UNL     1       0.614  -1.077  -0.040  1.00  0.00     0.185 C 
HETATM    2  O1  UNL     1      -0.007  -0.808   1.225  1.00  0.00    -0.308 OA
HETATM    3  C4  UNL     1      -1.192  -0.117   1.339  1.00  0.00     0.276 C 
HETATM    4  O2  UNL     1      -2.033  -0.295   2.261  1.00  0.00    -0.264 OA
HETATM    5  C5  UNL     1      -1.480   0.901   0.294  1.00  0.00     0.189 C 
HETATM    6 BR1  UNL     1      -3.297   1.566   0.501  1.00  0.00    -0.078 Br
HETATM    7  C6  UNL     1      -1.270   0.260  -1.033  1.00  0.00     0.178 A 
HETATM    8  O3  UNL     1      -0.125   0.549  -1.785  1.00  0.00    -0.371 OA
HETATM    9  C7  UNL     1      -0.264  -0.722  -1.186  1.00  0.00     0.186 A 
ENDROOT
BRANCH   1  10
HETATM   10  C2  UNL     1       1.961  -0.449  -0.100  1.00  0.00    -0.002 C 
HETATM   11  C1  UNL     1       2.274   0.623   0.622  1.00  0.00     0.009 C 
ENDBRANCH   1  10
TORSDOF 1
