REMARK  4 active torsions:
REMARK  status: ('A' for Active; 'I' for Inactive)
REMARK    1  A    between atoms: C2_2  and  N1_3 
REMARK    2  A    between atoms: C2_2  and  C3_7 
REMARK    3  A    between atoms: N1_3  and  N2_4 
REMARK    4  A    between atoms: C3_7  and  C4_9 
ROOT
HETATM    1  C3  UNL     1      -0.376   0.853  -0.675  1.00  0.00     0.171 C 
HETATM    2 BR1  UNL     1      -0.551   2.733  -0.155  1.00  0.00    -0.077 Br
ENDROOT
BRANCH   1   3
HETATM    3  C2  UNL     1      -1.475   0.076  -0.096  1.00  0.00     0.102 C 
HETATM    4  C1  UNL     1      -1.543  -1.387  -0.286  1.00  0.00     0.084 C 
BRANCH   3   5
HETATM    5  N1  UNL     1      -2.360   0.645   0.562  1.00  0.00    -0.341 NA
BRANCH   5   6
HETATM    6  N2  UNL     1      -3.327   1.202   1.128  1.00  0.00    -0.280 N 
ATOM      7  H22 UNL     1      -3.781   0.977   0.243  1.00  0.00     0.191 HD
ATOM      8  H21 UNL     1      -4.054   1.670   1.669  1.00  0.00     0.191 HD
ENDBRANCH   5   6
ENDBRANCH   3   5
ENDBRANCH   1   3
BRANCH   1   9
HETATM    9  C4  UNL     1       0.953   0.429  -0.178  1.00  0.00     0.054 A 
HETATM   10  C5  UNL     1       1.393   0.341   1.120  1.00  0.00     0.169 A 
HETATM   11  O1  UNL     1       2.637  -0.080   1.063  1.00  0.00    -0.316 OA
HETATM   12  C6  UNL     1       3.016  -0.265  -0.160  1.00  0.00     0.233 A 
HETATM   13  N3  UNL     1       1.970   0.049  -0.962  1.00  0.00    -0.347 N 
ATOM     14  H3  UNL     1       1.959   0.004  -1.981  1.00  0.00     0.167 HD
ENDBRANCH   1   9
TORSDOF 4
