REMARK  3 active torsions:
REMARK  status: ('A' for Active; 'I' for Inactive)
REMARK    1  A    between atoms: C4_6  and  N1_7 
REMARK    2  A    between atoms: N1_7  and  C5_10 
REMARK    3  A    between atoms: C5_10  and  C6_11 
ROOT
HETATM    1  N1  UNL     1       0.889   0.558   0.790  1.00  0.00    -0.061 N 
ATOM      2  H11 UNL     1       0.649   1.402   0.270  1.00  0.00     0.278 HD
ATOM      3  H12 UNL     1       0.759   0.939   1.727  1.00  0.00     0.278 HD
ENDROOT
BRANCH   1   4
HETATM    4  C4  UNL     1       2.242   0.107   0.545  1.00  0.00     0.286 C 
HETATM    5  C1  UNL     1       3.258   1.135   0.796  1.00  0.00     0.289 C 
HETATM    6  O1  UNL     1       3.228   2.159   1.549  1.00  0.00    -0.263 OA
HETATM    7  O2  UNL     1       4.366   0.799   0.019  1.00  0.00    -0.320 OA
HETATM    8  C2  UNL     1       4.004  -0.139  -0.974  1.00  0.00     0.181 C 
HETATM    9  C3  UNL     1       2.470  -0.175  -0.943  1.00  0.00     0.070 C 
ENDBRANCH   1   4
BRANCH   1  10
HETATM   10  C5  UNL     1       0.007  -0.554   0.503  1.00  0.00     0.238 C 
BRANCH  10  11
HETATM   11  C6  UNL     1      -1.454  -0.158   0.738  1.00  0.00     0.011 C 
HETATM   12  C7  UNL     1      -1.806   1.017  -0.184  1.00  0.00     0.006 C 
HETATM   13  C8  UNL     1      -3.316   0.897  -0.251  1.00  0.00     0.000 C 
HETATM   14  C9  UNL     1      -3.497  -0.587  -0.499  1.00  0.00     0.000 C 
HETATM   15  C10 UNL     1      -2.385  -1.239   0.286  1.00  0.00     0.006 C 
ENDBRANCH  10  11
ENDBRANCH   1  10
TORSDOF 3
