REMARK  4 active torsions:
REMARK  status: ('A' for Active; 'I' for Inactive)
REMARK    1  A    between atoms: N1_1  and  C1_5 
REMARK    2  A    between atoms: C1_5  and  C2_6 
REMARK    3  A    between atoms: C1_5  and  C7_13 
REMARK    4  A    between atoms: C2_6  and  C3_7 
ROOT
HETATM    1  C1  UNL     1      -0.188  -0.273  -0.252  1.00  0.00     0.192 C 
ENDROOT
BRANCH   1   2
HETATM    2  N1  UNL     1       0.191  -1.160  -1.326  1.00  0.00    -0.074 N 
ATOM      3  H13 UNL     1       0.218  -0.659  -2.214  1.00  0.00     0.274 HD
ATOM      4  H12 UNL     1       1.174  -1.421  -1.247  1.00  0.00     0.274 HD
ATOM      5  H11 UNL     1      -0.397  -1.990  -1.400  1.00  0.00     0.274 HD
ENDBRANCH   1   2
BRANCH   1   6
HETATM    6  C2  UNL     1       0.667   0.934  -0.145  1.00  0.00     0.085 C 
BRANCH   6   7
HETATM    7  C3  UNL     1       2.093   0.580   0.113  1.00  0.00    -0.016 C 
HETATM    8  N2  UNL     1       2.649   1.003   1.219  1.00  0.00    -0.396 N 
HETATM    9  C4  UNL     1       3.997   0.586   1.316  1.00  0.00     0.119 C 
ATOM     10  H2  UNL     1       2.170   1.564   1.924  1.00  0.00     0.159 HD
HETATM   11  C5  UNL     1       4.094  -0.619   0.372  1.00  0.00     0.025 C 
HETATM   12  C6  UNL     1       3.065  -0.192  -0.680  1.00  0.00     0.054 C 
ENDBRANCH   6   7
ENDBRANCH   1   6
BRANCH   1  13
HETATM   13  C7  UNL     1      -1.653   0.053  -0.439  1.00  0.00     0.016 C 
HETATM   14  C8  UNL     1      -2.161   0.985   0.640  1.00  0.00     0.007 C 
HETATM   15  C9  UNL     1      -3.662   0.878   0.449  1.00  0.00     0.000 C 
HETATM   16  C10 UNL     1      -3.881  -0.547   0.046  1.00  0.00     0.000 C 
HETATM   17  C11 UNL     1      -2.531  -1.154  -0.245  1.00  0.00     0.007 C 
ENDBRANCH   1  13
TORSDOF 4
