REMARK  3 active torsions:
REMARK  status: ('A' for Active; 'I' for Inactive)
REMARK    1  A    between atoms: O1_1  and  N1_3 
REMARK    2  A    between atoms: N1_3  and  C7_13 
REMARK    3  A    between atoms: C1_4  and  C2_5 
ROOT
HETATM    1  N1  UNL     1       0.645   0.183   0.665  1.00  0.00    -0.216 N 
HETATM    2  C1  UNL     1      -0.179  -0.069  -0.267  1.00  0.00     0.154 C 
ENDROOT
BRANCH   1   3
HETATM    3  O1  UNL     1       0.161   0.439   1.927  1.00  0.00    -0.281 OA
ATOM      4  H1  UNL     1       0.778   0.628   2.625  1.00  0.00     0.245 HD
ENDBRANCH   1   3
BRANCH   1   5
HETATM    5  C7  UNL     1       2.039   0.212   0.460  1.00  0.00     0.146 A 
HETATM    6  C8  UNL     1       2.698  -0.016  -0.720  1.00  0.00     0.053 A 
HETATM    7  C9  UNL     1       4.078   0.028  -0.854  1.00  0.00     0.022 A 
HETATM    8  C10 UNL     1       4.818   0.316   0.257  1.00  0.00     0.107 A 
HETATM    9  N3  UNL     1       4.165   0.535   1.396  1.00  0.00    -0.310 N 
HETATM   10  N4  UNL     1       2.856   0.494   1.524  1.00  0.00    -0.284 N 
ATOM     11  H3  UNL     1       4.717   0.749   2.226  1.00  0.00     0.186 HD
ATOM     12  H4  UNL     1       2.439   0.676   2.437  1.00  0.00     0.188 HD
ENDBRANCH   1   5
BRANCH   2  13
HETATM   13  C2  UNL     1      -1.609  -0.089  -0.009  1.00  0.00     0.050 A 
HETATM   14  C3  UNL     1      -2.413  -0.363  -1.044  1.00  0.00     0.034 A 
HETATM   15  C4  UNL     1      -3.863  -0.410  -0.907  1.00  0.00     0.046 A 
HETATM   16  C5  UNL     1      -4.375  -0.171   0.287  1.00  0.00     0.131 A 
HETATM   17  F1  UNL     1      -5.726  -0.202   0.472  1.00  0.00    -0.205 F 
HETATM   18  C6  UNL     1      -3.460   0.121   1.374  1.00  0.00     0.130 A 
HETATM   19  N2  UNL     1      -2.192   0.166   1.271  1.00  0.00    -0.362 N 
ATOM     20  H2  UNL     1      -1.608   0.378   2.080  1.00  0.00     0.165 HD
ENDBRANCH   2  13
TORSDOF 3
