REMARK  2 active torsions:
REMARK  status: ('A' for Active; 'I' for Inactive)
REMARK    1  A    between atoms: S1_2  and  C2_3 
REMARK    2  A    between atoms: N2_7  and  C4_8 
ROOT
HETATM    1  C2  UNL     1       1.112  -0.497  -0.552  1.00  0.00     0.145 A 
HETATM    2  N1  UNL     1       0.326   0.142  -1.426  1.00  0.00    -0.333 N 
ATOM      3  H1  UNL     1       0.746   0.590  -2.240  1.00  0.00     0.168 HD
HETATM    4  C3  UNL     1      -1.024   0.208  -1.252  1.00  0.00     0.186 A 
HETATM    5  N2  UNL     1      -1.576  -0.371  -0.199  1.00  0.00    -0.329 N 
HETATM    6  C5  UNL     1      -0.810  -1.027   0.704  1.00  0.00     0.186 A 
HETATM    7  N3  UNL     1       0.525  -1.077   0.508  1.00  0.00    -0.333 N 
ATOM      8  H3  UNL     1       1.106  -1.571   1.186  1.00  0.00     0.168 HD
ENDROOT
BRANCH   1   9
HETATM    9  S1  UNL     1       2.876  -0.571  -0.799  1.00  0.00    -0.098 SA
HETATM   10  C1  UNL     1       3.598   0.880   0.022  1.00  0.00     0.099 C 
ENDBRANCH   1   9
BRANCH   5  11
HETATM   11  C4  UNL     1      -3.002  -0.305  -0.011  1.00  0.00     0.215 C 
HETATM   12 BR1  UNL     1      -3.377   1.297   1.038  1.00  0.00    -0.074 Br
ENDBRANCH   5  11
TORSDOF 2
