REMARK  3 active torsions:
REMARK  status: ('A' for Active; 'I' for Inactive)
REMARK    1  A    between atoms: N2_5  and  C4_6 
REMARK    2  A    between atoms: C4_6  and  C5_7 
REMARK    3  A    between atoms: C4_6  and  C8_10 
ROOT
HETATM    1  N1  UNL     1      -4.267  -2.663   0.243  1.00  0.00    -0.197 NA
HETATM    2  C1  UNL     1      -3.403  -1.911   0.368  1.00  0.00     0.068 C 
HETATM    3  C2  UNL     1      -2.321  -0.968   0.520  1.00  0.00     0.146 C 
HETATM    4  C3  UNL     1      -1.082  -1.361  -0.314  1.00  0.00     0.139 C 
HETATM    5  N2  UNL     1      -0.460  -0.154  -0.564  1.00  0.00    -0.401 N 
HETATM    6  C10 UNL     1      -1.536   0.706  -0.998  1.00  0.00     0.156 C 
HETATM    7  C11 UNL     1      -2.663   0.417  -0.045  1.00  0.00     0.206 C 
HETATM    8  F1  UNL     1      -3.861   0.268  -0.728  1.00  0.00    -0.246 F 
ENDROOT
BRANCH   5   9
HETATM    9  C4  UNL     1       0.585   0.431   0.103  1.00  0.00     0.114 C 
BRANCH   9  10
HETATM   10  C5  UNL     1       1.868  -0.307   0.018  1.00  0.00     0.011 A 
HETATM   11  C6  UNL     1       1.946  -1.707   0.617  1.00  0.00     0.007 A 
HETATM   12  C7  UNL     1       2.815  -0.558   1.095  1.00  0.00     0.007 A 
ENDBRANCH   9  10
BRANCH   9  13
HETATM   13  C8  UNL     1       0.799   1.908  -0.235  1.00  0.00     0.168 A 
HETATM   14  C9  UNL     1       2.002   2.445  -0.794  1.00  0.00     0.202 A 
HETATM   15  O1  UNL     1       1.994   2.317   0.592  1.00  0.00    -0.379 OA
ENDBRANCH   9  13
ENDBRANCH   5   9
TORSDOF 3
