REMARK  4 active torsions:
REMARK  status: ('A' for Active; 'I' for Inactive)
REMARK    1  A    between atoms: O1_1  and  C1_3 
REMARK    2  A    between atoms: C1_3  and  C2_4 
REMARK    3  A    between atoms: C2_4  and  S1_5 
REMARK    4  A    between atoms: S1_5  and  C3_6 
ROOT
HETATM    1  C3  UNL     1      -0.366  -0.100   0.294  1.00  0.00     0.078 C 
HETATM    2  C4  UNL     1      -0.663  -1.056  -0.859  1.00  0.00     0.049 C 
HETATM    3  C5  UNL     1      -2.150  -0.769  -1.021  1.00  0.00     0.123 C 
HETATM    4  C6  UNL     1      -2.400   0.697  -1.238  1.00  0.00     0.034 C 
HETATM    5  C7  UNL     1      -2.330   1.282   0.170  1.00  0.00     0.035 C 
HETATM    6  C8  UNL     1      -1.740   0.070   0.883  1.00  0.00     0.135 C 
HETATM    7  O2  UNL     1      -2.547  -0.933   0.318  1.00  0.00    -0.379 OA
ENDROOT
BRANCH   1   8
HETATM    8  S1  UNL     1       0.849  -0.740   1.440  1.00  0.00    -0.160 SA
BRANCH   8   9
HETATM    9  C2  UNL     1       2.425   0.125   1.128  1.00  0.00     0.100 C 
BRANCH   9  10
HETATM   10  C1  UNL     1       3.341  -0.717   0.271  1.00  0.00     0.174 C 
BRANCH  10  11
HETATM   11  O1  UNL     1       4.205   0.085  -0.462  1.00  0.00    -0.400 OA
ATOM     12  H1  UNL     1       4.781  -0.444  -1.001  1.00  0.00     0.209 HD
ENDBRANCH  10  11
ENDBRANCH   9  10
ENDBRANCH   8   9
ENDBRANCH   1   8
TORSDOF 4
