REMARK  4 active torsions:
REMARK  status: ('A' for Active; 'I' for Inactive)
REMARK    1  A    between atoms: C2_2  and  C3_3 
REMARK    2  A    between atoms: C3_3  and  C4_4 
REMARK    3  A    between atoms: C7_7  and  C8_8 
REMARK    4  A    between atoms: C8_8  and  N1_9 
ROOT
HETATM    1  C8  UNL     1      -2.438   0.341  -0.156  1.00  0.00     0.295 C 
HETATM    2  C9  UNL     1      -3.130  -0.172   1.026  1.00  0.00     0.092 C 
HETATM    3  N2  UNL     1      -3.670  -0.589   1.946  1.00  0.00    -0.195 NA
ENDROOT
BRANCH   1   4
HETATM    4  C7  UNL     1      -1.251  -0.519  -0.454  1.00  0.00     0.057 C 
HETATM    5  C6  UNL     1      -0.184  -0.496   0.593  1.00  0.00     0.047 C 
HETATM    6  C4  UNL     1       1.075  -0.641  -0.289  1.00  0.00     0.061 C 
HETATM    7  C5  UNL     1       1.203  -2.164  -0.510  1.00  0.00     0.046 C 
HETATM    8  O1  UNL     1       0.804   0.045  -1.434  1.00  0.00    -0.380 OA
HETATM    9  C10 UNL     1      -0.545  -0.147  -1.736  1.00  0.00     0.176 C 
BRANCH   6  10
HETATM   10  C3  UNL     1       2.247  -0.240   0.499  1.00  0.00     0.064 C 
BRANCH  10  11
HETATM   11  C2  UNL     1       2.431   1.159   0.844  1.00  0.00    -0.034 C 
HETATM   12  C1  UNL     1       1.754   2.210   0.504  1.00  0.00     0.007 C 
ENDBRANCH  10  11
ENDBRANCH   6  10
ENDBRANCH   1   4
BRANCH   1  13
HETATM   13  N1  UNL     1      -2.113   1.732  -0.004  1.00  0.00    -0.062 N 
ATOM     14  H13 UNL     1      -1.389   1.859   0.703  1.00  0.00     0.275 HD
ATOM     15  H12 UNL     1      -1.613   2.078  -0.823  1.00  0.00     0.275 HD
ATOM     16  H11 UNL     1      -2.922   2.318   0.199  1.00  0.00     0.275 HD
ENDBRANCH   1  13
TORSDOF 4
