REMARK  4 active torsions:
REMARK  status: ('A' for Active; 'I' for Inactive)
REMARK    1  A    between atoms: C2_2  and  C3_3 
REMARK    2  A    between atoms: C3_3  and  C4_4 
REMARK    3  A    between atoms: C4_4  and  C5_5 
REMARK    4  A    between atoms: C9_10  and  O1_11 
ROOT
HETATM    1  C5  UNL     1      -3.490   0.728   0.182  1.00  0.00     0.124 C 
HETATM    2  C6  UNL     1      -3.253   1.827   1.097  1.00  0.00     0.059 C 
HETATM    3  N1  UNL     1      -3.079   2.700   1.838  1.00  0.00    -0.197 NA
ENDROOT
BRANCH   1   4
HETATM    4  C4  UNL     1      -2.190   0.315  -0.515  1.00  0.00     0.017 C 
BRANCH   4   5
HETATM    5  C3  UNL     1      -1.241  -0.103   0.581  1.00  0.00     0.038 C 
BRANCH   5   6
HETATM    6  C2  UNL     1       0.103  -0.542   0.025  1.00  0.00     0.057 C 
HETATM    7  C1  UNL     1      -0.189  -1.723  -0.896  1.00  0.00     0.046 C 
HETATM    8  C7  UNL     1       0.709   0.606  -0.724  1.00  0.00     0.040 C 
HETATM    9  C8  UNL     1       2.205   0.559  -0.802  1.00  0.00     0.036 C 
HETATM   10  C9  UNL     1       2.839   0.076   0.484  1.00  0.00     0.142 C 
HETATM   11  C10 UNL     1       2.158  -1.228   0.845  1.00  0.00     0.200 C 
HETATM   12  O2  UNL     1       0.839  -0.986   1.088  1.00  0.00    -0.378 OA
BRANCH  10  13
HETATM   13  O1  UNL     1       2.709   0.973   1.516  1.00  0.00    -0.393 OA
ATOM     14  H1  UNL     1       3.107   0.670   2.323  1.00  0.00     0.210 HD
ENDBRANCH  10  13
ENDBRANCH   5   6
ENDBRANCH   4   5
ENDBRANCH   1   4
TORSDOF 4
