REMARK  4 active torsions:
REMARK  status: ('A' for Active; 'I' for Inactive)
REMARK    1  A    between atoms: S1_2  and  C2_3 
REMARK    2  A    between atoms: C3_5  and  C4_6 
REMARK       I    between atoms: C4_6  and  N1_8 
REMARK    3  A    between atoms: N1_8  and  C5_10 
REMARK    4  A    between atoms: C5_10  and  C6_11 
ROOT
HETATM    1  C4  UNL     1       2.343  -1.494   0.111  1.00  0.00     0.261 C 
HETATM    2  O1  UNL     1       2.552  -2.606   0.717  1.00  0.00    -0.267 OA
HETATM    3  N1  UNL     1       1.051  -0.931   0.086  1.00  0.00    -0.356 N 
ATOM      4  H1  UNL     1       0.865  -0.048  -0.390  1.00  0.00     0.162 HD
ENDROOT
BRANCH   3   5
HETATM    5  C5  UNL     1      -0.005  -1.660   0.767  1.00  0.00     0.127 C 
BRANCH   5   6
HETATM    6  C6  UNL     1      -1.332  -0.962   0.671  1.00  0.00     0.008 C 
HETATM    7  C7  UNL     1      -1.303   0.423   1.284  1.00  0.00     0.036 C 
HETATM    8  C8  UNL     1      -2.713   0.891   1.387  1.00  0.00     0.019 C 
HETATM    9  C9  UNL     1      -3.272   0.341   2.707  1.00  0.00     0.037 C 
HETATM   10  C10 UNL     1      -2.730   2.416   1.562  1.00  0.00     0.037 C 
HETATM   11  N2  UNL     1      -3.586   0.550   0.357  1.00  0.00    -0.405 N 
HETATM   12  C11 UNL     1      -3.190  -0.232  -0.719  1.00  0.00     0.019 C 
ATOM     13  H2  UNL     1      -4.548   0.886   0.395  1.00  0.00     0.154 HD
HETATM   14  C12 UNL     1      -3.388   0.574  -2.013  1.00  0.00     0.037 C 
HETATM   15  C13 UNL     1      -4.132  -1.441  -0.816  1.00  0.00     0.037 C 
HETATM   16  C14 UNL     1      -1.796  -0.755  -0.746  1.00  0.00     0.036 C 
ENDBRANCH   5   6
ENDBRANCH   3   5
BRANCH   1  17
HETATM   17  C3  UNL     1       3.534  -0.895  -0.526  1.00  0.00     0.115 A 
HETATM   18  S2  UNL     1       5.117  -1.550  -0.516  1.00  0.00    -0.071 SA
HETATM   19  C2  UNL     1       5.922  -0.355  -1.412  1.00  0.00     0.083 A 
HETATM   20  C16 UNL     1       4.929   0.542  -1.704  1.00  0.00     0.180 A 
HETATM   21  C15 UNL     1       3.686   0.257  -1.241  1.00  0.00     0.179 A 
HETATM   22  F2  UNL     1       5.201   1.698  -2.450  1.00  0.00    -0.201 F 
HETATM   23  F1  UNL     1       2.622   1.133  -1.504  1.00  0.00    -0.201 F 
BRANCH  19  24
HETATM   24  S1  UNL     1       7.667  -0.244  -1.892  1.00  0.00    -0.124 SA
HETATM   25  C1  UNL     1       8.507   0.654  -0.532  1.00  0.00     0.096 C 
ENDBRANCH  19  24
ENDBRANCH   1  17
TORSDOF 4
