REMARK  6 active torsions:
REMARK  status: ('A' for Active; 'I' for Inactive)
REMARK    1  A    between atoms: C2_2  and  C3_3 
REMARK    2  A    between atoms: C3_3  and  O1_4 
REMARK    3  A    between atoms: C13_17  and  C14_18 
REMARK    4  A    between atoms: C14_18  and  O2_19 
REMARK    5  A    between atoms: O2_19  and  C15_20 
REMARK    6  A    between atoms: C18_27  and  N3_28 
ROOT
HETATM    1  C3  UNL     1      -0.973   1.738   0.314  1.00  0.00     0.071 C 
HETATM    2  C4  UNL     1      -1.764   1.815   1.642  1.00  0.00     0.078 C 
HETATM    3  C5  UNL     1      -2.666   0.670   1.786  1.00  0.00    -0.011 C 
HETATM    4  C6  UNL     1      -3.908   0.841   2.213  1.00  0.00     0.194 C 
HETATM    5  F1  UNL     1      -4.353   2.076   2.519  1.00  0.00    -0.219 F 
HETATM    6  C7  UNL     1      -2.095  -0.666   1.426  1.00  0.00     0.130 C 
HETATM    7  F2  UNL     1      -2.384  -1.514   2.472  1.00  0.00    -0.238 F 
HETATM    8  C8  UNL     1      -2.691  -1.088   0.134  1.00  0.00     0.057 C 
HETATM    9  C9  UNL     1      -1.739  -1.271  -0.989  1.00  0.00    -0.043 C 
HETATM   10  C10 UNL     1      -1.180  -2.695  -0.916  1.00  0.00     0.015 C 
HETATM   11  C11 UNL     1      -2.566  -1.233  -2.285  1.00  0.00     0.015 C 
HETATM   12  C12 UNL     1      -0.665  -0.263  -1.125  1.00  0.00     0.023 C 
HETATM   13  C13 UNL     1      -0.284   0.446   0.159  1.00  0.00     0.017 C 
HETATM   14  C19 UNL     1      -0.605  -0.447   1.369  1.00  0.00     0.063 C 
ENDROOT
BRANCH  13  15
HETATM   15  C14 UNL     1       1.234   0.506   0.167  1.00  0.00     0.190 C 
BRANCH  15  16
HETATM   16  O2  UNL     1       1.761  -0.828   0.016  1.00  0.00    -0.332 OA
BRANCH  16  17
HETATM   17  C15 UNL     1       3.149  -0.903   0.008  1.00  0.00     0.187 A 
HETATM   18  N1  UNL     1       3.969   0.152   0.128  1.00  0.00    -0.343 N 
HETATM   19  C16 UNL     1       5.314   0.044   0.116  1.00  0.00     0.107 A 
ATOM     20  H1  UNL     1       3.557   1.079   0.233  1.00  0.00     0.167 HD
HETATM   21  C17 UNL     1       5.889  -1.199  -0.025  1.00  0.00     0.107 A 
HETATM   22  N2  UNL     1       5.104  -2.261  -0.146  1.00  0.00    -0.348 N 
HETATM   23  C18 UNL     1       3.767  -2.146  -0.133  1.00  0.00     0.151 A 
ATOM     24  H2  UNL     1       5.525  -3.184  -0.251  1.00  0.00     0.167 HD
BRANCH  23  25
HETATM   25  N3  UNL     1       3.066  -3.214  -0.255  1.00  0.00    -0.382 N 
ATOM     26  H32 UNL     1       2.050  -3.127  -0.245  1.00  0.00     0.157 HD
ATOM     27  H31 UNL     1       3.518  -4.123  -0.358  1.00  0.00     0.157 HD
ENDBRANCH  23  25
ENDBRANCH  16  17
ENDBRANCH  15  16
ENDBRANCH  13  15
BRANCH   1  28
HETATM   28  C2  UNL     1      -0.157   2.985   0.316  1.00  0.00     0.034 C 
HETATM   29  C1  UNL     1       0.482   3.358  -0.978  1.00  0.00     0.008 C 
ENDBRANCH   1  28
BRANCH   1  30
HETATM   30  O1  UNL     1      -1.992   1.949  -0.651  1.00  0.00    -0.389 OA
ATOM     31  H1  UNL     1      -2.512   1.154  -0.652  1.00  0.00     0.210 HD
ENDBRANCH   1  30
TORSDOF 6
