REMARK  4 active torsions:
REMARK  status: ('A' for Active; 'I' for Inactive)
REMARK    1  A    between atoms: C2_2  and  C3_3 
REMARK    2  A    between atoms: C6_14  and  S2_15 
REMARK    3  A    between atoms: S2_15  and  C7_16 
REMARK    4  A    between atoms: C7_16  and  C8_17 
ROOT
HETATM    1  C3  UNL     1      -3.328  -0.965   0.056  1.00  0.00     0.136 C 
HETATM    2  N1  UNL     1      -4.369  -1.407  -0.814  1.00  0.00    -0.218 N 
ATOM      3  H1  UNL     1      -4.882  -2.257  -0.579  1.00  0.00     0.178 HD
HETATM    4  C4  UNL     1      -4.712  -0.704  -1.992  1.00  0.00     0.673 C 
HETATM    5  N2  UNL     1      -5.875  -0.818  -2.514  1.00  0.00    -0.235 N 
ATOM      6  H21 UNL     1      -6.122  -0.311  -3.364  1.00  0.00     0.174 HD
ATOM      7  H22 UNL     1      -6.608  -1.409  -2.121  1.00  0.00     0.174 HD
HETATM    8  N3  UNL     1      -3.697   0.114  -2.537  1.00  0.00    -0.185 N 
ATOM      9  H3  UNL     1      -3.862   0.644  -3.392  1.00  0.00     0.185 HD
HETATM   10  C5  UNL     1      -2.419   0.187  -1.862  1.00  0.00     0.101 A 
HETATM   11  S1  UNL     1      -0.892   0.824  -2.352  1.00  0.00    -0.063 SA
HETATM   12  C6  UNL     1       0.082   0.230  -1.070  1.00  0.00     0.065 A 
HETATM   13  C14 UNL     1      -0.814  -0.444  -0.295  1.00  0.00     0.079 A 
HETATM   14  C15 UNL     1      -0.368  -1.149   0.926  1.00  0.00     0.102 C 
HETATM   15  N4  UNL     1      -0.035  -1.717   1.907  1.00  0.00    -0.191 NA
HETATM   16  C16 UNL     1      -2.112  -0.458  -0.710  1.00  0.00     0.022 A 
ENDROOT
BRANCH  12  17
HETATM   17  S2  UNL     1       1.831   0.521  -0.932  1.00  0.00    -0.116 SA
BRANCH  17  18
HETATM   18  C7  UNL     1       2.624  -0.212   0.479  1.00  0.00     0.118 C 
BRANCH  18  19
HETATM   19  C8  UNL     1       4.057   0.153   0.460  1.00  0.00    -0.043 A 
HETATM   20  C9  UNL     1       4.464   1.297   1.087  1.00  0.00     0.050 A 
HETATM   21  C10 UNL     1       5.808   1.688   1.098  1.00  0.00     0.119 A 
HETATM   22  F1  UNL     1       6.186   2.826   1.726  1.00  0.00    -0.206 F 
HETATM   23  C11 UNL     1       6.729   0.895   0.460  1.00  0.00     0.084 A 
HETATM   24  C12 UNL     1       6.337  -0.257  -0.174  1.00  0.00     0.119 A 
HETATM   25  F2  UNL     1       7.266  -1.006  -0.786  1.00  0.00    -0.206 F 
HETATM   26  C13 UNL     1       4.986  -0.626  -0.171  1.00  0.00     0.050 A 
ENDBRANCH  18  19
ENDBRANCH  17  18
ENDBRANCH  12  17
BRANCH   1  27
HETATM   27  C2  UNL     1      -3.933   0.254   0.787  1.00  0.00     0.026 C 
HETATM   28  C1  UNL     1      -2.994   0.868   1.760  1.00  0.00     0.007 C 
ENDBRANCH   1  27
TORSDOF 4
