REMARK  5 active torsions:
REMARK  status: ('A' for Active; 'I' for Inactive)
REMARK    1  A    between atoms: C6_6  and  C7_7 
REMARK    2  A    between atoms: N1_11  and  C11_12 
REMARK    3  A    between atoms: C13_20  and  C14_21 
REMARK    4  A    between atoms: C14_21  and  O2_22 
REMARK    5  A    between atoms: C14_21  and  C15_24 
ROOT
HETATM    1  C11 UNL     1      -1.463  -0.201  -1.379  1.00  0.00     0.138 A 
HETATM    2  N2  UNL     1      -2.044   0.009  -2.633  1.00  0.00    -0.242 N 
ATOM      3  H2  UNL     1      -1.516   0.168  -3.491  1.00  0.00     0.196 HD
HETATM    4  O1  UNL     1      -3.302  -0.023  -2.571  1.00  0.00    -0.218 OA
HETATM    5  C12 UNL     1      -3.721  -0.246  -1.336  1.00  0.00     0.176 A 
HETATM    6  N3  UNL     1      -4.955  -0.318  -1.053  1.00  0.00    -0.378 N 
ATOM      7  H31 UNL     1      -5.278  -0.490  -0.101  1.00  0.00     0.158 HD
ATOM      8  H32 UNL     1      -5.794  -0.233  -1.627  1.00  0.00     0.158 HD
HETATM    9  C13 UNL     1      -2.592  -0.361  -0.563  1.00  0.00     0.075 A 
ENDROOT
BRANCH   1  10
HETATM   10  N1  UNL     1      -0.081  -0.205  -1.196  1.00  0.00    -0.356 N 
HETATM   11  C7  UNL     1       0.799   0.831  -0.784  1.00  0.00     0.126 C 
HETATM   12  C8  UNL     1       1.388   1.044  -2.254  1.00  0.00     0.032 C 
HETATM   13  C9  UNL     1       1.672  -0.429  -2.599  1.00  0.00     0.022 C 
HETATM   14  C10 UNL     1       0.836  -1.260  -1.591  1.00  0.00     0.125 C 
BRANCH  11  15
HETATM   15  C6  UNL     1       2.019   0.531  -0.010  1.00  0.00     0.012 A 
HETATM   16  C4  UNL     1       2.286   0.007   1.219  1.00  0.00    -0.046 A 
HETATM   17  C3  UNL     1       3.568  -0.052   1.626  1.00  0.00     0.022 A 
HETATM   18  C5  UNL     1       1.151  -0.499   2.099  1.00  0.00     0.049 C 
HETATM   19  C2  UNL     1       4.532   0.414   0.789  1.00  0.00    -0.020 A 
HETATM   20  C1  UNL     1       6.026   0.454   1.033  1.00  0.00     0.056 C 
HETATM   21  S1  UNL     1       3.639   0.926  -0.552  1.00  0.00    -0.097 SA
ENDBRANCH  11  15
ENDBRANCH   1  10
BRANCH   9  22
HETATM   22  C14 UNL     1      -2.490  -0.633   0.865  1.00  0.00     0.231 C 
BRANCH  22  23
HETATM   23  O2  UNL     1      -2.011  -1.957   1.038  1.00  0.00    -0.385 OA
ATOM     24  H2  UNL     1      -1.945  -2.134   1.969  1.00  0.00     0.210 HD
ENDBRANCH  22  23
BRANCH  22  25
HETATM   25  C15 UNL     1      -3.696  -0.471   1.733  1.00  0.00     0.269 C 
HETATM   26  C16 UNL     1      -4.269   0.907   1.762  1.00  0.00     0.093 C 
HETATM   27  F1  UNL     1      -3.256  -0.713   3.085  1.00  0.00    -0.204 F 
HETATM   28  F2  UNL     1      -4.633  -1.479   1.567  1.00  0.00    -0.204 F 
ENDBRANCH  22  25
ENDBRANCH   9  22
TORSDOF 5
