REMARK  7 active torsions:
REMARK  status: ('A' for Active; 'I' for Inactive)
REMARK    1  A    between atoms: C3_6  and  C4_7 
REMARK    2  A    between atoms: C7_11  and  C8_12 
REMARK    3  A    between atoms: C8_12  and  O2_13 
REMARK    4  A    between atoms: C8_12  and  N2_15 
REMARK    5  A    between atoms: N2_15  and  C9_17 
REMARK    6  A    between atoms: C9_17  and  C10_18 
REMARK    7  A    between atoms: N3_20  and  C12_21 
ROOT
HETATM    1  C8  UNL     1      -2.432   0.498   1.048  1.00  0.00     0.150 C 
ENDROOT
BRANCH   1   2
HETATM    2  C7  UNL     1      -3.583  -0.352   1.096  1.00  0.00     0.073 A 
HETATM    3  C2  UNL     1      -4.400  -0.453   2.257  1.00  0.00     0.089 A 
HETATM    4  C1  UNL     1      -4.127   0.250   3.538  1.00  0.00     0.080 C 
HETATM    5  O1  UNL     1      -5.373  -1.250   1.955  1.00  0.00    -0.241 OA
HETATM    6  N1  UNL     1      -5.281  -1.671   0.749  1.00  0.00    -0.261 N 
HETATM    7  C3  UNL     1      -4.166  -1.141   0.138  1.00  0.00     0.088 A 
ATOM      8  H1  UNL     1      -5.941  -2.309   0.304  1.00  0.00     0.194 HD
BRANCH   7   9
HETATM    9  C4  UNL     1      -3.758  -1.411  -1.261  1.00  0.00     0.141 C 
HETATM   10  C5  UNL     1      -3.677  -0.165  -2.115  1.00  0.00     0.058 C 
HETATM   11  C6  UNL     1      -5.003  -2.158  -1.873  1.00  0.00     0.058 C 
HETATM   12  F1  UNL     1      -2.685  -2.245  -1.396  1.00  0.00    -0.237 F 
ENDBRANCH   7   9
ENDBRANCH   1   2
BRANCH   1  13
HETATM   13  O2  UNL     1      -2.409   1.463   1.919  1.00  0.00    -0.346 OA
ATOM     14  H2  UNL     1      -1.645   2.027   1.887  1.00  0.00     0.219 HD
ENDBRANCH   1  13
BRANCH   1  15
HETATM   15  N2  UNL     1      -1.327   0.454   0.216  1.00  0.00    -0.370 N 
ATOM     16  H2  UNL     1      -1.240  -0.269  -0.499  1.00  0.00     0.161 HD
BRANCH  15  17
HETATM   17  C9  UNL     1      -0.277   1.477   0.387  1.00  0.00     0.130 C 
BRANCH  17  18
HETATM   18  C10 UNL     1       0.852   1.312  -0.571  1.00  0.00     0.060 A 
HETATM   19  C11 UNL     1       1.606   0.018  -0.512  1.00  0.00     0.280 A 
HETATM   20  N3  UNL     1       2.775   0.629   0.066  1.00  0.00     0.094 N 
HETATM   21  C17 UNL     1       2.126   1.902   0.003  1.00  0.00     0.280 A 
BRANCH  20  22
HETATM   22  C12 UNL     1       3.981   0.503  -0.730  1.00  0.00     0.223 C 
HETATM   23  C13 UNL     1       5.161   1.153  -0.083  1.00  0.00     0.036 C 
HETATM   24  C14 UNL     1       6.213   0.075   0.098  1.00  0.00     0.002 C 
HETATM   25  C15 UNL     1       5.878  -0.987  -0.926  1.00  0.00     0.002 C 
HETATM   26  C16 UNL     1       4.346  -0.961  -0.873  1.00  0.00     0.036 C 
ENDBRANCH  20  22
ENDBRANCH  17  18
ENDBRANCH  15  17
ENDBRANCH   1  15
TORSDOF 7
