REMARK  8 active torsions:
REMARK  status: ('A' for Active; 'I' for Inactive)
REMARK    1  A    between atoms: C2_2  and  N1_4 
REMARK    2  A    between atoms: N1_4  and  C4_6 
REMARK    3  A    between atoms: C4_6  and  O1_7 
REMARK    4  A    between atoms: C5_9  and  C6_10 
REMARK    5  A    between atoms: C6_10  and  C7_11 
REMARK    6  A    between atoms: C7_11  and  C8_12 
REMARK    7  A    between atoms: C8_12  and  C9_13 
REMARK    8  A    between atoms: C11_15  and  N2_16 
ROOT
HETATM    1  C7  UNL     1       0.632   0.275   0.261  1.00  0.00     0.003 C 
ENDROOT
BRANCH   1   2
HETATM    2  C6  UNL     1       0.411  -0.796  -0.629  1.00  0.00     0.004 C 
BRANCH   2   3
HETATM    3  C5  UNL     1      -0.686  -1.227  -1.138  1.00  0.00     0.055 C 
HETATM    4  C4  UNL     1      -2.035  -0.836  -1.024  1.00  0.00     0.135 C 
BRANCH   4   5
HETATM    5  N1  UNL     1      -2.695   0.159  -0.324  1.00  0.00    -0.367 N 
ATOM      6  H1  UNL     1      -2.180   0.807   0.272  1.00  0.00     0.162 HD
BRANCH   5   7
HETATM    7  C2  UNL     1      -4.187   0.262  -0.463  1.00  0.00     0.075 C 
HETATM    8  C1  UNL     1      -4.563   1.616  -1.000  1.00  0.00     0.032 C 
HETATM    9  C3  UNL     1      -4.799   0.041   0.912  1.00  0.00     0.032 C 
ENDBRANCH   5   7
ENDBRANCH   4   5
BRANCH   4  10
HETATM   10  O1  UNL     1      -2.842  -1.615  -1.769  1.00  0.00    -0.346 OA
ATOM     11  H1  UNL     1      -2.389  -2.298  -2.249  1.00  0.00     0.219 HD
ENDBRANCH   4  10
ENDBRANCH   2   3
ENDBRANCH   1   2
BRANCH   1  12
HETATM   12  C8  UNL     1       1.777   0.658   0.738  1.00  0.00     0.037 C 
BRANCH  12  13
HETATM   13  C9  UNL     1       3.066   0.070   0.458  1.00  0.00     0.079 A 
HETATM   14  C10 UNL     1       4.290   0.522   1.003  1.00  0.00     0.076 A 
HETATM   15  C11 UNL     1       5.303  -0.264   0.523  1.00  0.00     0.146 A 
HETATM   16  C12 UNL     1       4.681  -1.172  -0.299  1.00  0.00     0.155 A 
HETATM   17 BR1  UNL     1       5.645  -2.538  -1.251  1.00  0.00    -0.020 Br
HETATM   18  O4  UNL     1       3.412  -0.937  -0.298  1.00  0.00    -0.301 OA
BRANCH  15  19
HETATM   19  N2  UNL     1       6.692  -0.174   0.801  1.00  0.00    -0.112 N 
HETATM   20  O2  UNL     1       7.183   0.901   1.109  1.00  0.00    -0.532 OA
HETATM   21  O3  UNL     1       7.490  -1.287   0.727  1.00  0.00    -0.532 OA
ENDBRANCH  15  19
ENDBRANCH  12  13
ENDBRANCH   1  12
TORSDOF 8
