REMARK  16 active torsions:
REMARK  status: ('A' for Active; 'I' for Inactive)
REMARK    1  A    between atoms: C2_2  and  C3_3 
REMARK    2  A    between atoms: C3_3  and  O2_5 
REMARK    3  A    between atoms: O2_5  and  C4_6 
REMARK    4  A    between atoms: C5_7  and  O3_8 
REMARK    5  A    between atoms: C6_10  and  C7_11 
REMARK    6  A    between atoms: C7_11  and  O5_13 
REMARK    7  A    between atoms: C9_15  and  O6_16 
REMARK    8  A    between atoms: C10_18  and  C11_19 
REMARK    9  A    between atoms: C12_22  and  C13_23 
REMARK   10  A    between atoms: C13_23  and  O9_24 
REMARK   11  A    between atoms: O9_24  and  C14_25 
REMARK   12  A    between atoms: C14_25  and  C15_27 
REMARK   13  A    between atoms: C15_27  and  O11_28 
REMARK   14  A    between atoms: C15_27  and  C18_33 
REMARK   15  A    between atoms: O11_28  and  C16_29 
REMARK   16  A    between atoms: C16_29  and  C17_31 
ROOT
HETATM    1  C4  UNL     1       2.297   0.374   0.982  1.00  0.00     0.126 A 
HETATM    2  C5  UNL     1       3.515  -0.024   1.480  1.00  0.00     0.119 A 
HETATM    3  C6  UNL     1       3.759  -1.369   1.599  1.00  0.00     0.109 A 
HETATM    4  C9  UNL     1       2.794  -2.294   1.222  1.00  0.00     0.102 A 
HETATM    5  C10 UNL     1       1.540  -1.817   0.707  1.00  0.00     0.089 A 
HETATM    6  C12 UNL     1       1.272  -0.507   0.581  1.00  0.00     0.043 A 
ENDROOT
BRANCH   6   7
HETATM    7  C13 UNL     1       0.108   0.168   0.107  1.00  0.00     0.161 C 
BRANCH   7   8
HETATM    8  O9  UNL     1      -1.056  -0.395  -0.300  1.00  0.00    -0.288 OA
BRANCH   8   9
HETATM    9  C14 UNL     1      -2.117   0.383  -0.771  1.00  0.00     0.293 C 
HETATM   10  O10 UNL     1      -1.896   1.624  -0.790  1.00  0.00    -0.262 OA
BRANCH   9  11
HETATM   11  C15 UNL     1      -3.395  -0.121  -1.220  1.00  0.00     0.239 C 
BRANCH  11  12
HETATM   12  O11 UNL     1      -4.125   0.997  -1.783  1.00  0.00    -0.304 OA
BRANCH  12  13
HETATM   13  C16 UNL     1      -4.491   0.959  -3.113  1.00  0.00     0.273 C 
HETATM   14  O12 UNL     1      -4.178  -0.044  -3.793  1.00  0.00    -0.264 OA
BRANCH  13  15
HETATM   15  C17 UNL     1      -5.235   2.104  -3.676  1.00  0.00     0.225 C 
HETATM   16 CL1  UNL     1      -4.153   3.345  -4.340  1.00  0.00    -0.120 Cl
ENDBRANCH  13  15
ENDBRANCH  12  13
ENDBRANCH  11  12
BRANCH  11  17
HETATM   17  C18 UNL     1      -4.324  -0.626  -0.140  1.00  0.00    -0.015 C 
HETATM   18  C19 UNL     1      -5.587  -1.092  -0.883  1.00  0.00     0.018 C 
HETATM   19  C20 UNL     1      -3.836  -1.786   0.639  1.00  0.00     0.018 C 
HETATM   20  C21 UNL     1      -4.722   0.499   0.764  1.00  0.00     0.018 C 
ENDBRANCH  11  17
ENDBRANCH   9  11
ENDBRANCH   8   9
ENDBRANCH   7   8
ENDBRANCH   6   7
BRANCH   1  21
HETATM   21  O2  UNL     1       2.084   1.739   0.877  1.00  0.00    -0.275 OA
BRANCH  21  22
HETATM   22  C3  UNL     1       2.611   2.401  -0.236  1.00  0.00     0.263 C 
HETATM   23  O1  UNL     1       3.252   1.742  -1.089  1.00  0.00    -0.265 OA
BRANCH  22  24
HETATM   24  C2  UNL     1       2.438   3.858  -0.440  1.00  0.00     0.107 C 
HETATM   25  C1  UNL     1       3.104   4.265  -1.711  1.00  0.00     0.015 C 
ENDBRANCH  22  24
ENDBRANCH  21  22
ENDBRANCH   1  21
BRANCH   5  26
HETATM   26  C11 UNL     1       0.636  -2.852   0.324  1.00  0.00     0.213 C 
HETATM   27  O7  UNL     1      -0.482  -2.738  -0.139  1.00  0.00    -0.644 OA
HETATM   28  O8  UNL     1       1.040  -4.201   0.482  1.00  0.00    -0.644 OA
ENDBRANCH   5  26
BRANCH   2  29
HETATM   29  O3  UNL     1       4.441   0.925   1.841  1.00  0.00    -0.357 OA
ATOM     30  H3  UNL     1       5.283   0.650   2.185  1.00  0.00     0.218 HD
ENDBRANCH   2  29
BRANCH   4  31
HETATM   31  O6  UNL     1       3.007  -3.602   1.327  1.00  0.00    -0.358 OA
ATOM     32  H6  UNL     1       2.347  -4.235   1.069  1.00  0.00     0.217 HD
ENDBRANCH   4  31
BRANCH   3  33
HETATM   33  C7  UNL     1       5.024  -1.872   2.121  1.00  0.00     0.298 C 
HETATM   34  O4  UNL     1       5.197  -3.106   2.209  1.00  0.00    -0.259 OA
BRANCH  33  35
HETATM   35  O5  UNL     1       6.074  -1.090   2.536  1.00  0.00    -0.322 OA
HETATM   36  C8  UNL     1       7.256  -1.682   3.026  1.00  0.00     0.213 C 
ENDBRANCH  33  35
ENDBRANCH   3  33
TORSDOF 16
