REMARK  10 active torsions:
REMARK  status: ('A' for Active; 'I' for Inactive)
REMARK    1  A    between atoms: N1_2  and  N2_3 
REMARK    2  A    between atoms: N1_2  and  C6_19 
REMARK    3  A    between atoms: N2_3  and  C2_5 
REMARK    4  A    between atoms: C2_5  and  N3_6 
REMARK    5  A    between atoms: C2_5  and  C3_10 
REMARK    6  A    between atoms: C6_19  and  C7_20 
REMARK    7  A    between atoms: C6_19  and  C8_23 
REMARK    8  A    between atoms: C9_25  and  C10_26 
REMARK    9  A    between atoms: C10_26  and  O4_27 
REMARK   10  A    between atoms: O4_27  and  N5_28 
ROOT
HETATM    1  C6  UNL     1       0.289  -0.300   0.958  1.00  0.00     0.259 C 
ENDROOT
BRANCH   1   2
HETATM    2  N1  UNL     1       1.066   0.601   0.158  1.00  0.00    -0.313 N 
HETATM    3  C1  UNL     1       0.752   1.977   0.270  1.00  0.00     0.172 C 
BRANCH   2   4
HETATM    4  N2  UNL     1       2.380   0.244   0.117  1.00  0.00    -0.303 N 
ATOM      5  H2  UNL     1       2.675  -0.726   0.230  1.00  0.00     0.182 HD
BRANCH   4   6
HETATM    6  C2  UNL     1       3.330   1.303  -0.093  1.00  0.00     0.339 C 
BRANCH   6   7
HETATM    7  N3  UNL     1       3.021   1.921  -1.358  1.00  0.00    -0.052 N 
ATOM      8  H33 UNL     1       2.993   1.254  -2.129  1.00  0.00     0.277 HD
ATOM      9  H32 UNL     1       2.053   2.238  -1.419  1.00  0.00     0.277 HD
ATOM     10  H31 UNL     1       3.695   2.672  -1.507  1.00  0.00     0.277 HD
ENDBRANCH   6   7
BRANCH   6  11
HETATM   11  C3  UNL     1       4.705   0.681  -0.232  1.00  0.00     0.064 A 
HETATM   12  S1  UNL     1       5.302  -0.542   0.781  1.00  0.00    -0.064 SA
HETATM   13  C4  UNL     1       6.862  -0.929   0.262  1.00  0.00     0.112 A 
HETATM   14  N4  UNL     1       7.724  -1.812   0.730  1.00  0.00    -0.388 N 
HETATM   15  S2  UNL     1       7.038   0.134  -1.043  1.00  0.00    -0.052 SA
ATOM     16  H42 UNL     1       7.618  -2.453   1.517  1.00  0.00     0.157 HD
ATOM     17  H41 UNL     1       8.666  -2.046   0.417  1.00  0.00     0.157 HD
HETATM   18  C5  UNL     1       5.612   1.035  -1.186  1.00  0.00     0.094 A 
HETATM   19 CL1  UNL     1       5.463   2.247  -2.460  1.00  0.00    -0.075 Cl
ENDBRANCH   6  11
ENDBRANCH   4   6
ENDBRANCH   2   4
ENDBRANCH   1   2
BRANCH   1  20
HETATM   20  C7  UNL     1       0.453  -0.060   2.409  1.00  0.00     0.205 C 
HETATM   21  O1  UNL     1      -0.158  -0.741   3.257  1.00  0.00    -0.646 OA
HETATM   22  O2  UNL     1       1.301   0.940   2.835  1.00  0.00    -0.646 OA
ENDBRANCH   1  20
BRANCH   1  23
HETATM   23  C8  UNL     1      -1.149  -0.356   0.557  1.00  0.00     0.095 A 
HETATM   24  O3  UNL     1      -2.064   0.488   0.957  1.00  0.00    -0.313 OA
HETATM   25  C9  UNL     1      -3.242   0.209   0.454  1.00  0.00     0.094 A 
HETATM   26  C11 UNL     1      -3.120  -0.917  -0.353  1.00  0.00     0.051 A 
HETATM   27  C12 UNL     1      -1.786  -1.254  -0.270  1.00  0.00    -0.009 A 
HETATM   28  C16 UNL     1      -4.046  -1.675  -1.148  1.00  0.00     0.162 C 
HETATM   29  C13 UNL     1      -1.281  -2.429  -1.017  1.00  0.00     0.043 C 
HETATM   30  C14 UNL     1      -2.107  -2.818  -2.189  1.00  0.00     0.012 C 
HETATM   31  C15 UNL     1      -3.588  -2.851  -1.930  1.00  0.00     0.084 C 
HETATM   32  O7  UNL     1      -5.268  -1.386  -1.220  1.00  0.00    -0.292 OA
BRANCH  25  33
HETATM   33  C10 UNL     1      -4.532   0.921   0.661  1.00  0.00     0.274 C 
BRANCH  33  34
HETATM   34  O4  UNL     1      -4.305   2.009   1.528  1.00  0.00    -0.215 OA
BRANCH  34  35
HETATM   35  N5  UNL     1      -5.368   2.804   1.854  1.00  0.00     0.005 N 
HETATM   36  O5  UNL     1      -5.612   3.024   3.048  1.00  0.00    -0.511 OA
HETATM   37  O6  UNL     1      -6.132   3.333   0.855  1.00  0.00    -0.511 OA
ENDBRANCH  34  35
ENDBRANCH  33  34
ENDBRANCH  25  33
ENDBRANCH   1  23
TORSDOF 10
