REMARK  10 active torsions:
REMARK  status: ('A' for Active; 'I' for Inactive)
REMARK    1  A    between atoms: O1_2  and  C2_3 
REMARK    2  A    between atoms: C6_15  and  N5_16 
REMARK    3  A    between atoms: N5_16  and  C7_18 
REMARK    4  A    between atoms: C12_23  and  O2_24 
REMARK    5  A    between atoms: O2_24  and  C13_25 
REMARK    6  A    between atoms: C13_25  and  C14_26 
REMARK    7  A    between atoms: C14_26  and  O3_27 
REMARK    8  A    between atoms: O3_27  and  C15_28 
REMARK    9  A    between atoms: C16_31  and  N7_32 
REMARK   10  A    between atoms: C17_37  and  N9_38 
ROOT
HETATM    1  C2  UNL     1      -1.530   1.597   2.429  1.00  0.00     0.102 A 
HETATM    2  C3  UNL     1      -2.436   2.360   1.768  1.00  0.00     0.057 A 
HETATM    3  C4  UNL     1      -3.321   1.896   0.778  1.00  0.00     0.040 A 
HETATM    4  C5  UNL     1      -4.236   2.824   0.154  1.00  0.00     0.149 A 
HETATM    5  N1  UNL     1      -5.173   2.761  -0.770  1.00  0.00    -0.268 N 
ATOM      6  H1  UNL     1      -5.420   1.897  -1.252  1.00  0.00     0.190 HD
HETATM    7  N2  UNL     1      -5.762   3.912  -1.016  1.00  0.00    -0.227 N 
ATOM      8  H2  UNL     1      -6.508   4.094  -1.687  1.00  0.00     0.210 HD
HETATM    9  N3  UNL     1      -5.182   4.779  -0.210  1.00  0.00    -0.227 N 
ATOM     10  H3  UNL     1      -5.407   5.772  -0.147  1.00  0.00     0.210 HD
HETATM   11  N4  UNL     1      -4.267   4.157   0.500  1.00  0.00    -0.268 N 
ATOM     12  H4  UNL     1      -3.670   4.595   1.201  1.00  0.00     0.190 HD
HETATM   13  C6  UNL     1      -3.230   0.545   0.484  1.00  0.00     0.045 A 
HETATM   14  C11 UNL     1      -2.307  -0.280   1.145  1.00  0.00     0.069 A 
HETATM   15  C12 UNL     1      -1.469   0.231   2.100  1.00  0.00     0.104 A 
ENDROOT
BRANCH  15  16
HETATM   16  O2  UNL     1      -0.555  -0.507   2.769  1.00  0.00    -0.346 OA
BRANCH  16  17
HETATM   17  C13 UNL     1      -0.211  -1.827   2.659  1.00  0.00     0.202 C 
BRANCH  17  18
HETATM   18  C14 UNL     1       0.410  -2.236   1.355  1.00  0.00     0.205 C 
BRANCH  18  19
HETATM   19  O3  UNL     1       1.605  -1.502   1.133  1.00  0.00    -0.319 OA
BRANCH  19  20
HETATM   20  C15 UNL     1       2.390  -1.661   0.021  1.00  0.00     0.252 A 
HETATM   21  N6  UNL     1       2.142  -2.509  -0.979  1.00  0.00    -0.154 N 
HETATM   22  C16 UNL     1       2.930  -2.645  -2.059  1.00  0.00     0.693 A 
ATOM     23  H6  UNL     1       1.305  -3.088  -0.920  1.00  0.00     0.188 HD
HETATM   24  N8  UNL     1       4.030  -1.858  -2.096  1.00  0.00    -0.022 N 
HETATM   25  C17 UNL     1       4.335  -0.987  -1.122  1.00  0.00     0.698 A 
ATOM     26  H8  UNL     1       4.655  -1.930  -2.899  1.00  0.00     0.203 HD
HETATM   27  N10 UNL     1       3.503  -0.905  -0.075  1.00  0.00    -0.154 N 
ATOM     28  H10 UNL     1       3.719  -0.248   0.675  1.00  0.00     0.188 HD
BRANCH  22  29
HETATM   29  N7  UNL     1       2.651  -3.474  -2.996  1.00  0.00    -0.234 N 
ATOM     30  H72 UNL     1       1.822  -4.067  -2.968  1.00  0.00     0.174 HD
ATOM     31  H71 UNL     1       3.249  -3.577  -3.816  1.00  0.00     0.174 HD
ENDBRANCH  22  29
BRANCH  25  32
HETATM   32  N9  UNL     1       5.508  -0.191  -1.227  1.00  0.00    -0.214 N 
HETATM   33  C18 UNL     1       5.568   1.119  -1.850  1.00  0.00     0.144 C 
HETATM   34  C19 UNL     1       6.774   1.805  -1.233  1.00  0.00     0.059 C 
HETATM   35  C20 UNL     1       7.597   0.716  -0.581  1.00  0.00     0.190 C 
HETATM   36  F1  UNL     1       8.829   0.599  -1.187  1.00  0.00    -0.248 F 
HETATM   37  C21 UNL     1       6.801  -0.566  -0.733  1.00  0.00     0.178 C 
ENDBRANCH  25  32
ENDBRANCH  19  20
ENDBRANCH  18  19
ENDBRANCH  17  18
ENDBRANCH  16  17
ENDBRANCH  15  16
BRANCH   1  38
HETATM   38  O1  UNL     1      -0.672   2.100   3.404  1.00  0.00    -0.353 OA
HETATM   39  C1  UNL     1      -0.768   3.480   3.703  1.00  0.00     0.210 C 
ENDBRANCH   1  38
BRANCH  13  40
HETATM   40  N5  UNL     1      -4.075  -0.012  -0.496  1.00  0.00    -0.381 N 
ATOM     41  H5  UNL     1      -4.736   0.610  -0.961  1.00  0.00     0.160 HD
BRANCH  40  42
HETATM   42  C7  UNL     1      -4.072  -1.402  -0.890  1.00  0.00     0.019 C 
HETATM   43  C8  UNL     1      -5.142  -1.610  -1.995  1.00  0.00     0.037 C 
HETATM   44  C9  UNL     1      -4.494  -2.315   0.233  1.00  0.00     0.037 C 
HETATM   45  C10 UNL     1      -2.765  -1.848  -1.492  1.00  0.00     0.037 C 
ENDBRANCH  40  42
ENDBRANCH  13  40
TORSDOF 10
