REMARK  8 active torsions:
REMARK  status: ('A' for Active; 'I' for Inactive)
REMARK    1  A    between atoms: C1_4  and  C2_5 
REMARK    2  A    between atoms: C2_5  and  O1_6 
REMARK    3  A    between atoms: O1_6  and  C3_7 
REMARK    4  A    between atoms: C5_9  and  N2_10 
REMARK    5  A    between atoms: N2_10  and  C6_12 
REMARK    6  A    between atoms: C8_14  and  N3_15 
REMARK    7  A    between atoms: C15_26  and  N5_27 
REMARK    8  A    between atoms: C16_30  and  N6_31 
ROOT
HETATM    1  N2  UNL     1       0.716  -2.620  -0.320  1.00  0.00    -0.352 N 
ATOM      2  H2  UNL     1       0.762  -3.624  -0.493  1.00  0.00     0.166 HD
ENDROOT
BRANCH   1   3
HETATM    3  C5  UNL     1       1.935  -1.954  -0.442  1.00  0.00     0.075 A 
HETATM    4  C4  UNL     1       2.216  -0.733   0.099  1.00  0.00     0.088 A 
HETATM    5  C3  UNL     1       3.477  -0.125   0.010  1.00  0.00     0.147 A 
HETATM    6  N7  UNL     1       4.473  -0.748  -0.629  1.00  0.00    -0.302 N 
HETATM    7  C17 UNL     1       4.208  -1.949  -1.163  1.00  0.00     0.282 A 
ATOM      8  H7  UNL     1       5.398  -0.326  -0.707  1.00  0.00     0.171 HD
HETATM    9  C16 UNL     1       2.994  -2.583  -1.103  1.00  0.00     0.197 A 
HETATM   10  O6  UNL     1       5.154  -2.544  -1.770  1.00  0.00    -0.265 OA
BRANCH   5  11
HETATM   11  O1  UNL     1       3.728   1.116   0.569  1.00  0.00    -0.331 OA
BRANCH  11  12
HETATM   12  C2  UNL     1       2.705   1.831   1.261  1.00  0.00     0.221 C 
BRANCH  12  13
HETATM   13  C1  UNL     1       3.284   3.099   1.729  1.00  0.00     0.079 C 
HETATM   14  N1  UNL     1       4.435   3.549   1.443  1.00  0.00    -0.409 N 
ATOM     15  H12 UNL     1       5.000   2.963   0.829  1.00  0.00     0.155 HD
ATOM     16  H11 UNL     1       4.837   4.429   1.768  1.00  0.00     0.155 HD
ENDBRANCH  12  13
ENDBRANCH  11  12
ENDBRANCH   5  11
BRANCH   9  17
HETATM   17  N6  UNL     1       2.822  -3.864  -1.705  1.00  0.00    -0.107 N 
HETATM   18  O4  UNL     1       2.194  -4.062  -2.761  1.00  0.00    -0.531 OA
HETATM   19  O5  UNL     1       3.384  -4.948  -1.080  1.00  0.00    -0.531 OA
ENDBRANCH   9  17
ENDBRANCH   1   3
BRANCH   1  20
HETATM   20  C6  UNL     1      -0.564  -2.140   0.001  1.00  0.00     0.068 A 
HETATM   21  C7  UNL     1      -0.912  -0.810  -0.241  1.00  0.00     0.063 A 
HETATM   22  C8  UNL     1      -2.172  -0.291  -0.001  1.00  0.00     0.054 A 
HETATM   23  C13 UNL     1      -3.108  -1.154   0.500  1.00  0.00     0.063 A 
HETATM   24 CL1  UNL     1      -4.758  -0.586   0.838  1.00  0.00    -0.082 Cl
HETATM   25  C14 UNL     1      -2.857  -2.467   0.764  1.00  0.00     0.064 A 
HETATM   26  C15 UNL     1      -1.550  -2.962   0.505  1.00  0.00     0.131 A 
BRANCH  22  27
HETATM   27  N3  UNL     1      -2.501   1.060  -0.247  1.00  0.00    -0.376 N 
HETATM   28  C9  UNL     1      -2.969   1.986   0.768  1.00  0.00     0.150 C 
HETATM   29  C10 UNL     1      -2.645   3.400   0.261  1.00  0.00     0.252 C 
HETATM   30  N4  UNL     1      -3.539   3.661  -0.840  1.00  0.00    -0.072 N 
HETATM   31  C11 UNL     1      -3.473   2.630  -1.858  1.00  0.00     0.252 C 
ATOM     32  H42 UNL     1      -4.496   3.796  -0.514  1.00  0.00     0.277 HD
ATOM     33  H41 UNL     1      -3.372   4.585  -1.239  1.00  0.00     0.277 HD
HETATM   34  C12 UNL     1      -2.375   1.632  -1.596  1.00  0.00     0.150 C 
ENDBRANCH  22  27
BRANCH  26  35
HETATM   35  N5  UNL     1      -1.363  -4.322   0.839  1.00  0.00    -0.113 N 
HETATM   36  O2  UNL     1      -0.670  -5.096   0.220  1.00  0.00    -0.532 OA
HETATM   37  O3  UNL     1      -2.057  -4.820   1.939  1.00  0.00    -0.532 OA
ENDBRANCH  26  35
ENDBRANCH   1  20
TORSDOF 8
