REMARK  11 active torsions:
REMARK  status: ('A' for Active; 'I' for Inactive)
REMARK    1  A    between atoms: C2_2  and  S1_3 
REMARK    2  A    between atoms: S1_3  and  C3_4 
REMARK    3  A    between atoms: C5_7  and  N2_8 
REMARK    4  A    between atoms: C5_7  and  C7_17 
REMARK       I    between atoms: N2_8  and  C6_10 
REMARK       I    between atoms: C6_10  and  N3_12 
REMARK    5  A    between atoms: N3_12  and  N4_14 
REMARK    6  A    between atoms: C7_17  and  S2_18 
REMARK    7  A    between atoms: S2_18  and  C8_19 
REMARK    8  A    between atoms: C10_21  and  C11_22 
REMARK    9  A    between atoms: C11_22  and  C12_23 
REMARK   10  A    between atoms: C13_25  and  O5_26 
REMARK   11  A    between atoms: C14_28  and  O6_29 
ROOT
HETATM    1  C3  UNL     1      -2.409  -0.300  -0.154  1.00  0.00     0.109 C 
HETATM    2  C4  UNL     1      -1.936  -1.551   0.331  1.00  0.00     0.109 C 
HETATM    3  N1  UNL     1      -1.585  -2.599   0.721  1.00  0.00    -0.191 NA
HETATM    4  C5  UNL     1      -1.765   0.850  -0.201  1.00  0.00     0.083 C 
ENDROOT
BRANCH   1   5
HETATM    5  S1  UNL     1      -4.108  -0.298  -0.785  1.00  0.00    -0.117 SA
BRANCH   5   6
HETATM    6  C2  UNL     1      -4.835  -1.940  -0.635  1.00  0.00     0.075 C 
HETATM    7  C1  UNL     1      -5.015  -2.360   0.818  1.00  0.00     0.016 C 
ENDBRANCH   5   6
ENDBRANCH   1   5
BRANCH   4   8
HETATM    8  N2  UNL     1      -2.442   1.963  -0.726  1.00  0.00    -0.304 N 
HETATM    9  C6  UNL     1      -3.746   2.393  -0.424  1.00  0.00     0.344 C 
HETATM   10  O1  UNL     1      -4.143   2.393   0.754  1.00  0.00    -0.245 OA
HETATM   11  N3  UNL     1      -4.601   2.826  -1.465  1.00  0.00    -0.191 N 
ATOM     12  H3  UNL     1      -4.264   2.822  -2.428  1.00  0.00     0.198 HD
ATOM     13  H2  UNL     1      -1.928   2.524  -1.405  1.00  0.00     0.171 HD
BRANCH  11  14
HETATM   14  N4  UNL     1      -5.902   3.259  -1.192  1.00  0.00    -0.035 N 
HETATM   15  O2  UNL     1      -6.054   4.074  -0.262  1.00  0.00    -0.516 OA
HETATM   16  O3  UNL     1      -7.015   2.845  -1.876  1.00  0.00    -0.516 OA
ENDBRANCH  11  14
ENDBRANCH   4   8
BRANCH   4  17
HETATM   17  C7  UNL     1      -0.370   1.033   0.261  1.00  0.00     0.064 C 
HETATM   18  C15 UNL     1       0.200   2.203   0.176  1.00  0.00     0.109 C 
HETATM   19  C16 UNL     1      -0.351   3.468  -0.348  1.00  0.00     0.084 C 
HETATM   20  F1  UNL     1       1.502   2.351   0.670  1.00  0.00    -0.210 F 
BRANCH  17  21
HETATM   21  S2  UNL     1       0.470  -0.373   0.961  1.00  0.00    -0.117 SA
BRANCH  21  22
HETATM   22  C8  UNL     1       2.204  -0.245   1.021  1.00  0.00     0.084 C 
HETATM   23  C9  UNL     1       2.922  -0.286  -0.333  1.00  0.00     0.026 C 
HETATM   24  C10 UNL     1       4.355  -0.233   0.215  1.00  0.00     0.024 C 
HETATM   25  C13 UNL     1       4.323  -1.193   1.376  1.00  0.00     0.152 C 
HETATM   26  C14 UNL     1       2.858  -1.539   1.602  1.00  0.00     0.161 C 
BRANCH  24  27
HETATM   27  C11 UNL     1       5.378  -0.518  -0.817  1.00  0.00     0.076 C 
BRANCH  27  28
HETATM   28  C12 UNL     1       5.266  -1.837  -1.457  1.00  0.00     0.231 C 
HETATM   29  O4  UNL     1       6.107  -2.130  -2.304  1.00  0.00    -0.307 OA
ENDBRANCH  27  28
ENDBRANCH  24  27
BRANCH  25  30
HETATM   30  O5  UNL     1       5.087  -2.331   1.148  1.00  0.00    -0.393 OA
ATOM     31  H5  UNL     1       5.067  -2.936   1.880  1.00  0.00     0.210 HD
ENDBRANCH  25  30
BRANCH  26  32
HETATM   32  O6  UNL     1       2.472  -2.623   0.848  1.00  0.00    -0.392 OA
ATOM     33  H6  UNL     1       2.870  -3.410   1.201  1.00  0.00     0.210 HD
ENDBRANCH  26  32
ENDBRANCH  21  22
ENDBRANCH  17  21
ENDBRANCH   4  17
TORSDOF 11
