REMARK  5 active torsions:
REMARK  status: ('A' for Active; 'I' for Inactive)
REMARK    1  A    between atoms: O1_1  and  C1_3 
REMARK    2  A    between atoms: C1_3  and  C2_4 
REMARK    3  A    between atoms: C1_3  and  N2_15 
REMARK    4  A    between atoms: N3_18  and  S1_19 
REMARK    5  A    between atoms: S1_19  and  N4_22 
ROOT
HETATM    1  N2  UNL     1       0.301  -0.045  -0.161  1.00  0.00    -0.358 N 
HETATM    2  C10 UNL     1      -0.282   1.188   0.237  1.00  0.00     0.145 C 
HETATM    3  C11 UNL     1      -1.830   1.140   0.212  1.00  0.00     0.156 C 
HETATM    4  N3  UNL     1      -2.316   0.648  -1.010  1.00  0.00    -0.295 N 
HETATM    5  C16 UNL     1      -1.735  -0.558  -1.461  1.00  0.00     0.156 C 
HETATM    6  C17 UNL     1      -0.718  -1.103  -0.472  1.00  0.00     0.145 C 
ENDROOT
BRANCH   1   7
HETATM    7  C1  UNL     1       1.613  -0.411  -0.301  1.00  0.00     0.153 C 
BRANCH   7   8
HETATM    8  O1  UNL     1       1.762  -1.670  -0.701  1.00  0.00    -0.345 OA
ATOM      9  H1  UNL     1       0.923  -2.099  -0.821  1.00  0.00     0.219 HD
ENDBRANCH   7   8
BRANCH   7  10
HETATM   10  C2  UNL     1       2.889   0.241  -0.119  1.00  0.00     0.079 A 
HETATM   11  C3  UNL     1       3.165   1.527   0.275  1.00  0.00     0.203 A 
HETATM   12  F1  UNL     1       2.387   2.576   0.615  1.00  0.00    -0.185 F 
HETATM   13  N1  UNL     1       4.517   1.686   0.298  1.00  0.00    -0.335 N 
HETATM   14  C4  UNL     1       5.115   0.556  -0.064  1.00  0.00     0.019 A 
ATOM     15  H1  UNL     1       5.000   2.547   0.555  1.00  0.00     0.168 HD
HETATM   16  C5  UNL     1       4.153  -0.375  -0.333  1.00  0.00    -0.016 A 
HETATM   17  C9  UNL     1       6.559   0.173  -0.222  1.00  0.00     0.057 C 
HETATM   18  C6  UNL     1       4.483  -1.748  -0.755  1.00  0.00     0.042 C 
HETATM   19  C7  UNL     1       5.908  -2.131  -0.655  1.00  0.00     0.005 C 
HETATM   20  C8  UNL     1       6.711  -1.228   0.257  1.00  0.00     0.006 C 
ENDBRANCH   7  10
ENDBRANCH   1   7
BRANCH   4  21
HETATM   21  S1  UNL     1      -3.799   1.135  -1.598  1.00  0.00     0.300 S 
HETATM   22  O2  UNL     1      -3.891   2.650  -1.801  1.00  0.00    -0.188 OA
HETATM   23  O3  UNL     1      -3.982   0.539  -2.986  1.00  0.00    -0.188 OA
BRANCH  21  24
HETATM   24  N4  UNL     1      -5.097   0.731  -0.579  1.00  0.00    -0.193 NA
HETATM   25  C12 UNL     1      -5.307  -0.654  -0.333  1.00  0.00     0.109 C 
HETATM   26  C13 UNL     1      -6.187  -0.680   0.909  1.00  0.00     0.017 C 
HETATM   27  C14 UNL     1      -6.395   0.764   1.307  1.00  0.00     0.017 C 
HETATM   28  C15 UNL     1      -5.208   1.461   0.632  1.00  0.00     0.109 C 
ENDBRANCH  21  24
ENDBRANCH   4  21
TORSDOF 5
