REMARK  2 active torsions:
REMARK  status: ('A' for Active; 'I' for Inactive)
REMARK       I    between atoms: C1_2  and  N2_4 
REMARK    1  A    between atoms: C5_8  and  C6_9 
REMARK       I    between atoms: C6_9  and  N3_11 
REMARK    2  A    between atoms: C9_14  and  C10_15 
REMARK       I    between atoms: C10_15  and  N4_17 
ROOT
HETATM    1  C6  UNL     1      -2.687  -0.306   0.944  1.00  0.00     0.242 C 
HETATM    2  O2  UNL     1      -3.117  -0.798   2.041  1.00  0.00    -0.271 OA
HETATM    3  N3  UNL     1      -1.333  -0.455   0.606  1.00  0.00    -0.350 N 
HETATM    4  C7  UNL     1      -0.807   0.092  -0.599  1.00  0.00     0.126 C 
HETATM    5  C8  UNL     1       0.669   0.356  -0.576  1.00  0.00     0.034 C 
HETATM    6  C9  UNL     1       1.458  -0.677   0.177  1.00  0.00     0.081 C 
HETATM    7  C16 UNL     1       0.584  -1.829   0.644  1.00  0.00     0.034 C 
HETATM    8  C17 UNL     1      -0.477  -1.183   1.521  1.00  0.00     0.126 C 
ENDROOT
BRANCH   1   9
HETATM    9  C5  UNL     1      -3.707   0.389   0.134  1.00  0.00     0.180 C 
HETATM   10  N2  UNL     1      -4.955   0.563   0.794  1.00  0.00    -0.323 N 
HETATM   11  C1  UNL     1      -5.151   1.293   1.990  1.00  0.00     0.331 C 
HETATM   12  C2  UNL     1      -5.979  -0.118   0.050  1.00  0.00     0.128 C 
HETATM   13  N1  UNL     1      -4.131   1.954   2.690  1.00  0.00    -0.040 NA
HETATM   14  O1  UNL     1      -6.342   1.349   2.458  1.00  0.00    -0.251 OA
HETATM   15  C3  UNL     1      -5.237  -1.249  -0.590  1.00  0.00     0.022 C 
HETATM   16  C4  UNL     1      -3.977  -0.545  -1.057  1.00  0.00     0.037 C 
ENDBRANCH   1   9
BRANCH   6  17
HETATM   17  C10 UNL     1       2.597  -1.199  -0.615  1.00  0.00     0.224 C 
HETATM   18  O3  UNL     1       2.611  -2.409  -0.934  1.00  0.00    -0.273 OA
HETATM   19  N4  UNL     1       3.669  -0.360  -1.019  1.00  0.00    -0.352 N 
HETATM   20  C11 UNL     1       4.769  -0.904  -1.806  1.00  0.00     0.127 C 
HETATM   21  C15 UNL     1       3.747   1.044  -0.685  1.00  0.00     0.127 C 
HETATM   22  C12 UNL     1       5.290   0.205  -2.710  1.00  0.00     0.040 C 
HETATM   23  C13 UNL     1       5.896   1.334  -1.880  1.00  0.00     0.085 C 
HETATM   24 CL1  UNL     1       7.624   0.991  -1.671  1.00  0.00    -0.125 Cl
HETATM   25  C14 UNL     1       5.230   1.381  -0.541  1.00  0.00     0.040 C 
ENDBRANCH   6  17
TORSDOF 2
