REMARK  7 active torsions:
REMARK  status: ('A' for Active; 'I' for Inactive)
REMARK    1  A    between atoms: C2_2  and  C4_4 
REMARK    2  A    between atoms: C6_11  and  C7_12 
REMARK    3  A    between atoms: C11_17  and  N4_18 
REMARK    4  A    between atoms: N4_18  and  C12_20 
REMARK    5  A    between atoms: C12_20  and  C13_21 
REMARK    6  A    between atoms: C13_21  and  C14_22 
REMARK    7  A    between atoms: C14_22  and  N5_23 
ROOT
HETATM    1  C4  UNL     1      -1.738   0.240  -2.918  1.00  0.00     0.059 A 
HETATM    2  N1  UNL     1      -3.102   0.330  -3.087  1.00  0.00    -0.335 N 
ATOM      3  H1  UNL     1      -3.594   0.595  -3.940  1.00  0.00     0.168 HD
HETATM    4  C5  UNL     1      -3.659   0.000  -1.907  1.00  0.00     0.175 A 
HETATM    5  S1  UNL     1      -5.172  -0.194  -1.128  1.00  0.00     0.025 SA
HETATM    6  N2  UNL     1      -4.597  -0.646   0.359  1.00  0.00    -0.312 N 
ATOM      7  H2  UNL     1      -5.139  -0.879   1.191  1.00  0.00     0.175 HD
HETATM    8  C6  UNL     1      -3.233  -0.638   0.224  1.00  0.00     0.102 A 
HETATM    9  N3  UNL     1      -2.774  -0.298  -0.970  1.00  0.00    -0.263 N 
HETATM   10  C11 UNL     1      -1.537  -0.143  -1.622  1.00  0.00     0.134 A 
ENDROOT
BRANCH  10  11
HETATM   11  N4  UNL     1      -0.301  -0.320  -0.951  1.00  0.00    -0.374 N 
ATOM     12  H4  UNL     1      -0.310  -0.733  -0.018  1.00  0.00     0.161 HD
BRANCH  11  13
HETATM   13  C12 UNL     1       0.963   0.054  -1.520  1.00  0.00     0.123 C 
BRANCH  13  14
HETATM   14  C13 UNL     1       2.102  -0.164  -0.486  1.00  0.00     0.039 C 
BRANCH  14  15
HETATM   15  C14 UNL     1       1.824   0.706   0.684  1.00  0.00     0.118 C 
BRANCH  15  16
HETATM   16  N5  UNL     1       2.783   0.631   1.737  1.00  0.00    -0.408 N 
HETATM   17  C15 UNL     1       4.077   1.142   1.483  1.00  0.00     0.143 C 
HETATM   18  C16 UNL     1       4.355   2.228   2.528  1.00  0.00     0.187 C 
HETATM   19  O1  UNL     1       4.390   1.686   3.801  1.00  0.00    -0.388 OA
HETATM   20  C17 UNL     1       3.470   0.695   4.011  1.00  0.00     0.187 C 
HETATM   21  C18 UNL     1       2.283   0.812   3.053  1.00  0.00     0.143 C 
ENDBRANCH  15  16
ENDBRANCH  14  15
ENDBRANCH  13  14
ENDBRANCH  11  13
ENDBRANCH  10  11
BRANCH   1  22
HETATM   22  C2  UNL     1      -0.788   0.469  -4.035  1.00  0.00     0.031 C 
HETATM   23  C1  UNL     1      -1.543   1.272  -5.150  1.00  0.00     0.016 C 
HETATM   24  C3  UNL     1      -0.583  -0.898  -4.720  1.00  0.00     0.016 C 
ENDBRANCH   1  22
BRANCH   8  25
HETATM   25  C7  UNL     1      -2.457  -1.007   1.465  1.00  0.00     0.054 C 
HETATM   26  C8  UNL     1      -3.304  -1.016   2.729  1.00  0.00     0.012 C 
HETATM   27  C9  UNL     1      -2.425  -2.197   3.168  1.00  0.00     0.002 C 
HETATM   28  C10 UNL     1      -2.261  -2.473   1.686  1.00  0.00     0.012 C 
ENDBRANCH   8  25
TORSDOF 7
