REMARK  7 active torsions:
REMARK  status: ('A' for Active; 'I' for Inactive)
REMARK    1  A    between atoms: C6_11  and  C7_12 
REMARK    2  A    between atoms: N4_17  and  C11_18 
REMARK    3  A    between atoms: C11_18  and  C12_19 
REMARK    4  A    between atoms: C12_19  and  C13_20 
REMARK    5  A    between atoms: C13_20  and  C14_21 
REMARK    6  A    between atoms: C14_21  and  C15_22 
REMARK    7  A    between atoms: C15_22  and  N5_23 
ROOT
HETATM    1  N1  UNL     1      -6.046  -2.112  -2.608  1.00  0.00    -0.100 NA
HETATM    2  C1  UNL     1      -4.668  -1.852  -2.487  1.00  0.00     0.078 A 
HETATM    3  C2  UNL     1      -3.779  -2.438  -3.364  1.00  0.00     0.046 A 
HETATM    4  C3  UNL     1      -2.407  -2.185  -3.253  1.00  0.00     0.091 A 
HETATM    5  N2  UNL     1      -1.941  -1.369  -2.290  1.00  0.00    -0.350 N 
ATOM      6  H2  UNL     1      -0.938  -1.195  -2.222  1.00  0.00     0.166 HD
HETATM    7  C4  UNL     1      -2.779  -0.777  -1.413  1.00  0.00     0.138 A 
HETATM    8  C5  UNL     1      -4.126  -1.028  -1.526  1.00  0.00     0.103 A 
HETATM    9  N3  UNL     1      -4.690  -0.323  -0.544  1.00  0.00    -0.337 N 
ATOM     10  H3  UNL     1      -5.689  -0.285  -0.343  1.00  0.00     0.168 HD
HETATM   11  C6  UNL     1      -3.707   0.346   0.156  1.00  0.00     0.127 A 
HETATM   12  N4  UNL     1      -2.533   0.072  -0.373  1.00  0.00    -0.316 N 
ENDROOT
BRANCH  12  13
HETATM   13  C11 UNL     1      -1.206   0.525  -0.020  1.00  0.00     0.132 C 
BRANCH  13  14
HETATM   14  C12 UNL     1      -0.548  -0.399   0.978  1.00  0.00     0.020 C 
BRANCH  14  15
HETATM   15  C13 UNL     1       0.814   0.029   1.381  1.00  0.00     0.003 C 
BRANCH  15  16
HETATM   16  C14 UNL     1       1.821   0.126   0.272  1.00  0.00     0.030 C 
BRANCH  16  17
HETATM   17  C15 UNL     1       3.147   0.580   0.874  1.00  0.00     0.272 C 
BRANCH  17  18
HETATM   18  N5  UNL     1       4.157   0.690  -0.158  1.00  0.00     0.092 N 
HETATM   19  C16 UNL     1       4.463  -0.637  -0.636  1.00  0.00     0.298 C 
HETATM   20  C17 UNL     1       5.884  -0.708  -1.161  1.00  0.00     0.198 C 
HETATM   21  O1  UNL     1       6.818  -0.439  -0.186  1.00  0.00    -0.388 OA
HETATM   22  C18 UNL     1       6.312   0.317   0.865  1.00  0.00     0.198 C 
HETATM   23  C19 UNL     1       5.342   1.352   0.331  1.00  0.00     0.298 C 
ENDBRANCH  17  18
ENDBRANCH  16  17
ENDBRANCH  15  16
ENDBRANCH  14  15
ENDBRANCH  13  14
ENDBRANCH  12  13
BRANCH  11  24
HETATM   24  C7  UNL     1      -4.051   1.214   1.304  1.00  0.00     0.049 A 
HETATM   25  C8  UNL     1      -3.311   1.925   2.182  1.00  0.00     0.023 A 
HETATM   26  C9  UNL     1      -3.957   2.643   3.131  1.00  0.00     0.009 A 
HETATM   27  C10 UNL     1      -5.316   2.603   3.139  1.00  0.00     0.050 A 
HETATM   28  S1  UNL     1      -5.671   1.572   1.833  1.00  0.00    -0.098 SA
ENDBRANCH  11  24
TORSDOF 7
