REMARK  7 active torsions:
REMARK  status: ('A' for Active; 'I' for Inactive)
REMARK    1  A    between atoms: C2_7  and  C3_8 
REMARK    2  A    between atoms: C3_8  and  C4_9 
REMARK    3  A    between atoms: C4_9  and  C5_10 
REMARK    4  A    between atoms: C5_10  and  C6_11 
REMARK    5  A    between atoms: C6_11  and  N3_12 
REMARK    6  A    between atoms: C7_17  and  C8_18 
REMARK    7  A    between atoms: N7_26  and  C14_27 
ROOT
HETATM    1  C4  UNL     1      -0.718  -1.286   1.940  1.00  0.00     0.009 C 
ENDROOT
BRANCH   1   2
HETATM    2  C3  UNL     1      -2.029  -0.686   1.512  1.00  0.00     0.078 C 
BRANCH   2   3
HETATM    3  C2  UNL     1      -2.560  -1.262   0.270  1.00  0.00     0.105 A 
HETATM    4  N2  UNL     1      -2.026  -2.249  -0.469  1.00  0.00    -0.286 N 
HETATM    5  N1  UNL     1      -2.776  -2.509  -1.521  1.00  0.00    -0.274 N 
ATOM      6  H2  UNL     1      -1.156  -2.733  -0.246  1.00  0.00     0.188 HD
HETATM    7  C1  UNL     1      -3.832  -1.682  -1.488  1.00  0.00     0.199 A 
ATOM      8  H1  UNL     1      -2.587  -3.214  -2.234  1.00  0.00     0.189 HD
HETATM    9  S1  UNL     1      -5.052  -1.638  -2.606  1.00  0.00    -0.039 SA
HETATM   10  N7  UNL     1      -3.698  -0.924  -0.395  1.00  0.00    -0.275 N 
BRANCH  10  11
HETATM   11  C14 UNL     1      -4.592   0.088   0.028  1.00  0.00     0.043 A 
HETATM   12  C15 UNL     1      -4.362   1.398  -0.293  1.00  0.00     0.030 A 
HETATM   13  C16 UNL     1      -5.251   2.360   0.134  1.00  0.00     0.002 A 
HETATM   14  C17 UNL     1      -6.373   2.056   0.878  1.00  0.00     0.000 A 
HETATM   15  C18 UNL     1      -6.559   0.723   1.174  1.00  0.00     0.002 A 
HETATM   16  C19 UNL     1      -5.692  -0.262   0.764  1.00  0.00     0.030 A 
ENDBRANCH  10  11
ENDBRANCH   2   3
ENDBRANCH   1   2
BRANCH   1  17
HETATM   17  C5  UNL     1       0.411  -1.116   0.988  1.00  0.00     0.024 C 
BRANCH  17  18
HETATM   18  C6  UNL     1       0.687   0.361   0.744  1.00  0.00     0.171 C 
BRANCH  18  19
HETATM   19  N3  UNL     1       1.794   0.438  -0.187  1.00  0.00    -0.218 N 
HETATM   20  N4  UNL     1       1.782   0.477  -1.508  1.00  0.00    -0.224 N 
HETATM   21  N5  UNL     1       3.016   0.546  -1.958  1.00  0.00    -0.268 N 
ATOM     22  H4  UNL     1       0.944   0.457  -2.089  1.00  0.00     0.210 HD
HETATM   23  C7  UNL     1       3.834   0.551  -0.900  1.00  0.00     0.147 A 
ATOM     24  H5  UNL     1       3.298   0.588  -2.937  1.00  0.00     0.190 HD
HETATM   25  N6  UNL     1       3.060   0.484   0.192  1.00  0.00    -0.266 N 
ATOM     26  H6  UNL     1       3.393   0.471   1.156  1.00  0.00     0.190 HD
BRANCH  23  27
HETATM   27  C8  UNL     1       5.289   0.616  -0.914  1.00  0.00     0.011 A 
HETATM   28  C9  UNL     1       6.019   0.614   0.237  1.00  0.00     0.015 A 
HETATM   29  C10 UNL     1       7.399   0.676   0.259  1.00  0.00     0.001 A 
HETATM   30  C11 UNL     1       8.047   0.741  -0.954  1.00  0.00     0.000 A 
HETATM   31  C12 UNL     1       7.341   0.745  -2.137  1.00  0.00     0.001 A 
HETATM   32  C13 UNL     1       5.975   0.683  -2.112  1.00  0.00     0.015 A 
ENDBRANCH  23  27
ENDBRANCH  18  19
ENDBRANCH  17  18
ENDBRANCH   1  17
TORSDOF 7
