REMARK  7 active torsions:
REMARK  status: ('A' for Active; 'I' for Inactive)
REMARK    1  A    between atoms: C2_2  and  C4_4 
REMARK    2  A    between atoms: C4_4  and  C5_5 
REMARK    3  A    between atoms: C5_5  and  N1_6 
REMARK    4  A    between atoms: C8_9  and  C9_10 
REMARK    5  A    between atoms: C10_13  and  C11_14 
REMARK    6  A    between atoms: C11_14  and  S1_15 
REMARK    7  A    between atoms: S1_15  and  C12_16 
ROOT
HETATM    1  C9  UNL     1      -0.164  -0.208  -0.459  1.00  0.00     0.152 A 
HETATM    2  N2  UNL     1      -1.172   0.646  -0.808  1.00  0.00    -0.326 N 
ATOM      3  H2  UNL     1      -1.154   1.659  -0.692  1.00  0.00     0.169 HD
HETATM    4  C10 UNL     1      -2.193  -0.062  -1.330  1.00  0.00     0.113 A 
HETATM    5  N4  UNL     1      -1.798  -1.336  -1.293  1.00  0.00    -0.246 N 
ATOM      6  H4  UNL     1      -2.345  -2.134  -1.617  1.00  0.00     0.196 HD
HETATM    7  O2  UNL     1      -0.594  -1.399  -0.774  1.00  0.00    -0.222 OA
ENDROOT
BRANCH   1   8
HETATM    8  C8  UNL     1       1.138   0.215   0.155  1.00  0.00     0.065 C 
HETATM    9  C7  UNL     1       2.122  -0.873   0.321  1.00  0.00     0.028 C 
HETATM   10  C6  UNL     1       3.434  -0.655  -0.427  1.00  0.00     0.095 C 
HETATM   11  N1  UNL     1       3.967   0.650  -0.268  1.00  0.00    -0.293 NA
HETATM   12  C18 UNL     1       3.008   1.709  -0.244  1.00  0.00     0.095 C 
HETATM   13  C17 UNL     1       1.713   1.221  -0.864  1.00  0.00     0.028 C 
BRANCH  11  14
HETATM   14  C5  UNL     1       4.976   0.930  -1.221  1.00  0.00     0.059 C 
BRANCH  14  15
HETATM   15  C4  UNL     1       6.308   0.435  -0.968  1.00  0.00     0.013 C 
BRANCH  15  16
HETATM   16  C2  UNL     1       6.818  -0.100   0.097  1.00  0.00    -0.087 C 
HETATM   17  C1  UNL     1       8.296  -0.522  -0.014  1.00  0.00     0.043 C 
HETATM   18  C3  UNL     1       6.213  -0.283   1.427  1.00  0.00     0.043 C 
ENDBRANCH  15  16
ENDBRANCH  14  15
ENDBRANCH  11  14
ENDBRANCH   1   8
BRANCH   4  19
HETATM   19  C11 UNL     1      -3.458   0.506  -1.857  1.00  0.00     0.160 C 
BRANCH  19  20
HETATM   20  S1  UNL     1      -4.664   0.818  -0.530  1.00  0.00    -0.095 SA
BRANCH  20  21
HETATM   21  C12 UNL     1      -5.825  -0.250  -0.166  1.00  0.00     0.143 A 
HETATM   22  O1  UNL     1      -6.079  -1.402  -0.699  1.00  0.00    -0.230 OA
HETATM   23  N3  UNL     1      -7.096  -1.976  -0.143  1.00  0.00    -0.264 N 
HETATM   24  C13 UNL     1      -7.585  -1.185   0.836  1.00  0.00     0.038 A 
ATOM     25  H3  UNL     1      -7.472  -2.888  -0.404  1.00  0.00     0.194 HD
HETATM   26  C14 UNL     1      -8.750  -1.431   1.742  1.00  0.00     0.071 C 
HETATM   27  C15 UNL     1      -6.772  -0.075   0.825  1.00  0.00     0.005 A 
HETATM   28  C16 UNL     1      -6.898   1.100   1.725  1.00  0.00     0.054 C 
ENDBRANCH  20  21
ENDBRANCH  19  20
ENDBRANCH   4  19
TORSDOF 7
