REMARK  6 active torsions:
REMARK  status: ('A' for Active; 'I' for Inactive)
REMARK    1  A    between atoms: C1_2  and  C2_4 
REMARK    2  A    between atoms: C2_4  and  C3_5 
REMARK    3  A    between atoms: C6_12  and  C7_13 
REMARK    4  A    between atoms: C7_13  and  C8_14 
REMARK    5  A    between atoms: C8_14  and  C9_15 
REMARK    6  A    between atoms: C10_16  and  C11_17 
ROOT
HETATM    1  C9  UNL     1      -0.539  -1.093   0.224  1.00  0.00     0.041 A 
HETATM    2  C10 UNL     1      -1.643  -0.374   0.627  1.00  0.00     0.038 A 
HETATM    3  N3  UNL     1      -1.987  -0.943   1.835  1.00  0.00    -0.338 N 
ATOM      4  H3  UNL     1      -2.767  -0.658   2.428  1.00  0.00     0.168 HD
HETATM    5  C17 UNL     1      -1.123  -1.936   2.100  1.00  0.00     0.155 A 
HETATM    6  S1  UNL     1      -0.715  -3.152   3.228  1.00  0.00    -0.064 SA
HETATM    7  C18 UNL     1       0.633  -3.804   2.412  1.00  0.00     0.071 A 
HETATM    8  C19 UNL     1       0.690  -3.026   1.293  1.00  0.00     0.106 A 
HETATM    9  N4  UNL     1      -0.219  -2.071   1.148  1.00  0.00    -0.304 N 
ENDROOT
BRANCH   1  10
HETATM   10  C8  UNL     1       0.200  -0.787  -1.014  1.00  0.00     0.066 C 
BRANCH  10  11
HETATM   11  C7  UNL     1       1.270   0.252  -0.923  1.00  0.00     0.065 C 
BRANCH  11  12
HETATM   12  C6  UNL     1       2.386  -0.090   0.010  1.00  0.00     0.032 A 
HETATM   13  C3  UNL     1       3.431  -0.864  -0.359  1.00  0.00     0.042 A 
HETATM   14  N1  UNL     1       4.363  -1.152   0.603  1.00  0.00    -0.366 N 
HETATM   15  C4  UNL     1       4.240  -0.683   1.852  1.00  0.00     0.105 A 
ATOM     16  H1  UNL     1       5.166  -1.734   0.364  1.00  0.00     0.165 HD
HETATM   17  C5  UNL     1       3.165   0.107   2.200  1.00  0.00     0.105 A 
HETATM   18  N2  UNL     1       2.260   0.387   1.270  1.00  0.00    -0.366 N 
ATOM     19  H2  UNL     1       1.458   0.970   1.509  1.00  0.00     0.165 HD
BRANCH  13  20
HETATM   20  C2  UNL     1       3.664  -1.367  -1.746  1.00  0.00     0.172 C 
BRANCH  20  21
HETATM   21  C1  UNL     1       4.259  -0.248  -2.512  1.00  0.00     0.178 C 
HETATM   22  O1  UNL     1       4.495   0.840  -1.969  1.00  0.00    -0.648 OA
HETATM   23  O2  UNL     1       4.547  -0.440  -3.845  1.00  0.00    -0.648 OA
ENDBRANCH  20  21
ENDBRANCH  13  20
ENDBRANCH  11  12
ENDBRANCH  10  11
ENDBRANCH   1  10
BRANCH   2  24
HETATM   24  C11 UNL     1      -2.464   0.674   0.091  1.00  0.00     0.037 C 
HETATM   25  C12 UNL     1      -3.463   1.097   1.192  1.00  0.00     0.011 C 
HETATM   26  C13 UNL     1      -4.225   2.317   0.890  1.00  0.00     0.001 C 
HETATM   27  C14 UNL     1      -4.484   2.450  -0.578  1.00  0.00     0.000 C 
HETATM   28  C15 UNL     1      -3.198   2.513  -1.305  1.00  0.00     0.001 C 
HETATM   29  C16 UNL     1      -2.017   1.888  -0.516  1.00  0.00     0.011 C 
ENDBRANCH   2  24
TORSDOF 6
