REMARK  6 active torsions:
REMARK  status: ('A' for Active; 'I' for Inactive)
REMARK    1  A    between atoms: C2_2  and  C3_3 
REMARK    2  A    between atoms: N1_7  and  C7_8 
REMARK    3  A    between atoms: C7_8  and  C8_9 
REMARK    4  A    between atoms: C8_9  and  C9_10 
REMARK    5  A    between atoms: C9_10  and  C10_11 
REMARK    6  A    between atoms: C10_11  and  C11_12 
ROOT
HETATM    1  C11 UNL     1       2.260   0.252  -1.595  1.00  0.00     0.053 C 
HETATM    2  C12 UNL     1       2.996   0.623  -0.418  1.00  0.00     0.058 A 
HETATM    3  C13 UNL     1       4.245   0.087  -0.176  1.00  0.00     0.098 A 
HETATM    4  C14 UNL     1       5.025   0.412   0.910  1.00  0.00     0.002 A 
HETATM    5  C15 UNL     1       6.382  -0.206   1.119  1.00  0.00     0.054 C 
HETATM    6  C16 UNL     1       4.503   1.334   1.798  1.00  0.00     0.062 A 
HETATM    7  C17 UNL     1       5.340   1.695   2.981  1.00  0.00     0.077 C 
HETATM    8  O1  UNL     1       3.321   1.842   1.569  1.00  0.00    -0.279 OA
HETATM    9  C18 UNL     1       2.571   1.540   0.539  1.00  0.00     0.297 A 
HETATM   10  O2  UNL     1       1.454   2.086   0.410  1.00  0.00    -0.259 OA
HETATM   11  O3  UNL     1       4.807  -0.866  -1.074  1.00  0.00    -0.295 OA
HETATM   12  C19 UNL     1       4.048  -1.223  -2.182  1.00  0.00     0.136 C 
HETATM   13  N2  UNL     1       4.556  -1.513  -3.281  1.00  0.00    -0.382 N 
ATOM     14  H21 UNL     1       3.999  -1.775  -4.094  1.00  0.00     0.158 HD
ATOM     15  H22 UNL     1       5.561  -1.514  -3.458  1.00  0.00     0.158 HD
HETATM   16  C20 UNL     1       2.592  -1.222  -1.926  1.00  0.00     0.176 C 
HETATM   17  C21 UNL     1       2.442  -2.053  -0.697  1.00  0.00     0.073 C 
HETATM   18  N3  UNL     1       2.329  -2.715   0.259  1.00  0.00    -0.196 NA
ENDROOT
BRANCH   1  19
HETATM   19  C10 UNL     1       0.812   0.379  -1.679  1.00  0.00     0.011 C 
BRANCH  19  20
HETATM   20  C9  UNL     1      -0.078  -0.366  -0.774  1.00  0.00     0.006 C 
BRANCH  20  21
HETATM   21  C8  UNL     1      -1.519   0.049  -1.145  1.00  0.00     0.044 C 
BRANCH  21  22
HETATM   22  C7  UNL     1      -2.459  -0.714  -0.241  1.00  0.00     0.063 C 
BRANCH  22  23
HETATM   23  N1  UNL     1      -3.807  -0.478  -0.437  1.00  0.00    -0.369 N 
HETATM   24  C3  UNL     1      -4.427   0.736  -0.138  1.00  0.00     0.088 C 
HETATM   25  C4  UNL     1      -5.924   0.524  -0.338  1.00  0.00     0.031 C 
HETATM   26  C5  UNL     1      -6.107  -0.950  -0.385  1.00  0.00     0.046 C 
HETATM   27  C6  UNL     1      -4.740  -1.522  -0.545  1.00  0.00     0.063 C 
BRANCH  24  28
HETATM   28  C2  UNL     1      -4.212   1.234   1.279  1.00  0.00     0.021 C 
HETATM   29  C1  UNL     1      -4.693   0.280   2.323  1.00  0.00     0.007 C 
ENDBRANCH  24  28
ENDBRANCH  22  23
ENDBRANCH  21  22
ENDBRANCH  20  21
ENDBRANCH  19  20
ENDBRANCH   1  19
TORSDOF 6
