REMARK  7 active torsions:
REMARK  status: ('A' for Active; 'I' for Inactive)
REMARK    1  A    between atoms: C2_2  and  C3_3 
REMARK    2  A    between atoms: C3_3  and  C4_4 
REMARK    3  A    between atoms: C3_3  and  C6_6 
REMARK    4  A    between atoms: C6_6  and  N1_7 
REMARK    5  A    between atoms: N1_7  and  O1_9 
REMARK    6  A    between atoms: C8_14  and  N3_15 
REMARK    7  A    between atoms: C15_25  and  C16_26 
ROOT
HETATM    1  C6  UNL     1      -2.058  -1.534  -0.003  1.00  0.00     0.064 C 
HETATM    2  C7  UNL     1      -1.028  -0.591   0.289  1.00  0.00     0.082 A 
HETATM    3  N2  UNL     1       0.218  -0.746  -0.286  1.00  0.00    -0.189 N 
ATOM      4  H2  UNL     1       0.382  -1.594  -0.829  1.00  0.00     0.184 HD
HETATM    5  C8  UNL     1       1.216   0.116  -0.190  1.00  0.00     0.681 A 
HETATM    6  N5  UNL     1       1.014   1.231   0.521  1.00  0.00    -0.194 N 
ATOM      7  H5  UNL     1       1.778   1.902   0.599  1.00  0.00     0.184 HD
HETATM    8  C15 UNL     1      -0.171   1.516   1.150  1.00  0.00     0.042 A 
HETATM    9  C20 UNL     1      -1.183   0.560   1.006  1.00  0.00    -0.009 A 
HETATM   10  C21 UNL     1      -2.425   0.821   1.724  1.00  0.00     0.052 C 
ENDROOT
BRANCH   1  11
HETATM   11  C3  UNL     1      -3.514  -1.487  -0.016  1.00  0.00     0.039 C 
BRANCH  11  12
HETATM   12  C2  UNL     1      -3.962  -0.644  -1.220  1.00  0.00     0.006 C 
HETATM   13  C1  UNL     1      -3.503  -1.265  -2.527  1.00  0.00     0.006 C 
ENDBRANCH  11  12
BRANCH  11  14
HETATM   14  C4  UNL     1      -4.126  -2.897  -0.155  1.00  0.00     0.006 C 
HETATM   15  C5  UNL     1      -5.608  -2.855  -0.185  1.00  0.00     0.006 C 
ENDBRANCH  11  14
ENDBRANCH   1  11
BRANCH   1  16
HETATM   16  N1  UNL     1      -1.627  -2.692  -0.541  1.00  0.00    -0.271 N 
ATOM     17  H1  UNL     1      -2.303  -3.375  -0.882  1.00  0.00     0.194 HD
BRANCH  16  18
HETATM   18  O1  UNL     1      -0.321  -2.951  -0.630  1.00  0.00    -0.290 OA
ATOM     19  H1  UNL     1      -0.017  -3.767  -1.009  1.00  0.00     0.244 HD
ENDBRANCH  16  18
ENDBRANCH   1  16
BRANCH   5  20
HETATM   20  N3  UNL     1       2.495  -0.086  -0.807  1.00  0.00    -0.209 N 
HETATM   21  C9  UNL     1       2.865  -1.246  -1.624  1.00  0.00     0.177 C 
HETATM   22  C10 UNL     1       4.334  -1.002  -1.902  1.00  0.00     0.243 C 
HETATM   23  C11 UNL     1       4.265   0.525  -2.123  1.00  0.00     0.065 C 
HETATM   24  N4  UNL     1       5.057  -1.059  -0.666  1.00  0.00     0.092 N 
HETATM   25  C12 UNL     1       3.634   0.788  -0.744  1.00  0.00     0.132 C 
HETATM   26  C13 UNL     1       4.664   0.098   0.121  1.00  0.00     0.298 C 
HETATM   27  C14 UNL     1       6.472  -1.038  -0.868  1.00  0.00     0.310 C 
ENDBRANCH   5  20
BRANCH   8  28
HETATM   28  C16 UNL     1      -0.278   2.729   1.944  1.00  0.00    -0.008 C 
HETATM   29  C17 UNL     1       1.080   3.480   1.732  1.00  0.00     0.021 C 
HETATM   30  C18 UNL     1      -0.213   2.378   3.421  1.00  0.00     0.021 C 
HETATM   31  C19 UNL     1      -1.302   3.727   1.566  1.00  0.00     0.021 C 
ENDBRANCH   8  28
TORSDOF 7
