REMARK  1 active torsions:
REMARK  status: ('A' for Active; 'I' for Inactive)
REMARK    1  A    between atoms: O1_1  and  C1_3 
ROOT
HETATM    1  C1  UNL     1       1.088  -0.061  -0.435  1.00  0.00     0.256 C 
HETATM    2  C2  UNL     1       0.214   0.954   0.290  1.00  0.00     0.062 C 
HETATM    3  C3  UNL     1      -1.147   0.487  -0.245  1.00  0.00     0.031 C 
HETATM    4  C4  UNL     1      -0.906  -1.021  -0.086  1.00  0.00     0.171 C 
HETATM    5  O2  UNL     1       0.373  -1.224  -0.535  1.00  0.00    -0.361 OA
ENDROOT
BRANCH   1   6
HETATM    6  O1  UNL     1       2.201  -0.272   0.372  1.00  0.00    -0.371 OA
ATOM      7  H1  UNL     1       2.746  -0.905  -0.080  1.00  0.00     0.212 HD
ENDBRANCH   1   6
TORSDOF 1
