REMARK  1 active torsions:
REMARK  status: ('A' for Active; 'I' for Inactive)
REMARK    1  A    between atoms: N1_2  and  C3_4 
ROOT
HETATM    1  C3  UNL     1       0.193   0.097  -0.258  1.00  0.00     0.118 A 
HETATM    2  C4  UNL     1       1.042  -0.688  -1.028  1.00  0.00     0.068 A 
HETATM    3  C5  UNL     1       1.606   0.165  -1.939  1.00  0.00     0.111 A 
HETATM    4  N2  UNL     1       1.135   1.414  -1.746  1.00  0.00    -0.310 N 
ATOM      5  H2  UNL     1       1.383   2.248  -2.279  1.00  0.00     0.186 HD
HETATM    6  N3  UNL     1       0.291   1.348  -0.735  1.00  0.00    -0.286 N 
ATOM      7  H3  UNL     1      -0.223   2.147  -0.362  1.00  0.00     0.188 HD
ENDROOT
BRANCH   1   8
HETATM    8  N1  UNL     1      -0.541  -0.337   0.730  1.00  0.00    -0.375 N 
HETATM    9  C1  UNL     1      -1.366   0.652   1.415  1.00  0.00     0.150 C 
HETATM   10  C2  UNL     1      -0.557  -1.705   1.145  1.00  0.00     0.150 C 
ENDBRANCH   1   8
TORSDOF 1
