REMARK  4 active torsions:
REMARK  status: ('A' for Active; 'I' for Inactive)
REMARK    1  A    between atoms: C2_2  and  N1_3 
REMARK    2  A    between atoms: N1_3  and  C3_4 
REMARK    3  A    between atoms: C3_4  and  N2_5 
REMARK    4  A    between atoms: N2_5  and  C4_7 
ROOT
HETATM    1  C4  UNL     1      -0.970   0.364  -0.802  1.00  0.00     0.122 A 
HETATM    2  C5  UNL     1      -0.886   0.167   0.560  1.00  0.00     0.068 A 
HETATM    3  C6  UNL     1      -2.144  -0.264   0.969  1.00  0.00     0.111 A 
HETATM    4  N3  UNL     1      -2.938  -0.315  -0.131  1.00  0.00    -0.310 N 
ATOM      5  H3  UNL     1      -3.918  -0.596  -0.144  1.00  0.00     0.186 HD
HETATM    6  N4  UNL     1      -2.219   0.066  -1.198  1.00  0.00    -0.286 N 
ATOM      7  H4  UNL     1      -2.565   0.121  -2.156  1.00  0.00     0.188 HD
ENDROOT
BRANCH   1   8
HETATM    8  N2  UNL     1      -0.002   0.766  -1.554  1.00  0.00    -0.327 N 
ATOM      9  H2  UNL     1      -0.155   0.883  -2.556  1.00  0.00     0.169 HD
BRANCH   8  10
HETATM   10  C3  UNL     1       1.277   1.047  -0.999  1.00  0.00     0.275 C 
BRANCH  10  11
HETATM   11  N1  UNL     1       1.951   0.173  -0.408  1.00  0.00    -0.414 NA
BRANCH  11  12
HETATM   12  C2  UNL     1       2.696  -0.707   0.069  1.00  0.00     0.173 C 
HETATM   13  C1  UNL     1       3.354  -1.410   0.966  1.00  0.00     0.045 C 
ENDBRANCH  11  12
ENDBRANCH  10  11
ENDBRANCH   8  10
ENDBRANCH   1   8
TORSDOF 4
