REMARK  1 active torsions:
REMARK  status: ('A' for Active; 'I' for Inactive)
REMARK    1  A    between atoms: C4_4  and  C5_5 
ROOT
HETATM    1  C1  UNL     1       4.631  -1.101   0.152  1.00  0.00     0.027 C 
HETATM    2  C2  UNL     1       3.452  -0.856   0.147  1.00  0.00    -0.026 C 
HETATM    3  C3  UNL     1       2.068  -0.545   0.148  1.00  0.00    -0.009 C 
HETATM    4  C4  UNL     1       0.883  -0.260   0.150  1.00  0.00    -0.033 C 
ENDROOT
BRANCH   4   5
HETATM    5  C5  UNL     1      -0.509   0.100   0.160  1.00  0.00     0.107 A 
HETATM    6  C6  UNL     1      -1.031   1.288   0.666  1.00  0.00     0.132 A 
HETATM    7  N1  UNL     1      -2.363   1.203   0.472  1.00  0.00    -0.316 N 
HETATM    8  C7  UNL     1      -2.651   0.029  -0.122  1.00  0.00     0.325 A 
ATOM      9  H1  UNL     1      -3.045   1.915   0.734  1.00  0.00     0.170 HD
HETATM   10  O1  UNL     1      -3.815  -0.336  -0.431  1.00  0.00    -0.247 OA
HETATM   11  N2  UNL     1      -1.509  -0.661  -0.319  1.00  0.00    -0.300 N 
ATOM     12  H2  UNL     1      -1.421  -1.582  -0.748  1.00  0.00     0.171 HD
ENDBRANCH   4   5
TORSDOF 1
