REMARK  12 active torsions:
REMARK  status: ('A' for Active; 'I' for Inactive)
REMARK    1  A    between atoms: C2_2  and  C3_3 
REMARK    2  A    between atoms: C3_3  and  N1_4 
REMARK       I    between atoms: N1_4  and  C4_6 
REMARK       I    between atoms: C4_6  and  N5_28 
REMARK    3  A    between atoms: N2_7  and  C5_9 
REMARK    4  A    between atoms: C5_9  and  C6_10 
REMARK    5  A    between atoms: C6_10  and  C7_11 
REMARK    6  A    between atoms: N3_12  and  C8_14 
REMARK    7  A    between atoms: N5_28  and  C19_30 
REMARK    8  A    between atoms: C19_30  and  C20_31 
REMARK    9  A    between atoms: C20_31  and  C21_32 
REMARK   10  A    between atoms: C21_32  and  C22_33 
REMARK   11  A    between atoms: C22_33  and  C23_34 
REMARK   12  A    between atoms: C23_34  and  O1_35 
ROOT
HETATM    1  C5  UNL     1       0.529  -1.261  -1.096  1.00  0.00     0.143 C 
ENDROOT
BRANCH   1   2
HETATM    2  N2  UNL     1       1.931  -1.398  -1.256  1.00  0.00    -0.226 N 
HETATM    3  C4  UNL     1       2.886  -0.703  -0.831  1.00  0.00     0.673 C 
HETATM    4  N1  UNL     1       2.798   0.475  -0.028  1.00  0.00    -0.202 N 
HETATM    5  N5  UNL     1       4.225  -1.120  -1.174  1.00  0.00    -0.226 N 
ATOM      6  H1  UNL     1       2.331   0.414   0.877  1.00  0.00     0.183 HD
ATOM      7  H5  UNL     1       4.768  -0.615  -1.874  1.00  0.00     0.177 HD
ATOM      8  H2  UNL     1       2.213  -2.203  -1.815  1.00  0.00     0.177 HD
BRANCH   4   9
HETATM    9  C3  UNL     1       3.335   1.735  -0.437  1.00  0.00     0.105 C 
BRANCH   9  10
HETATM   10  C2  UNL     1       3.197   2.846   0.484  1.00  0.00     0.007 C 
HETATM   11  C1  UNL     1       2.620   2.780   1.666  1.00  0.00     0.012 C 
ENDBRANCH   9  10
ENDBRANCH   4   9
BRANCH   5  12
HETATM   12  C19 UNL     1       4.768  -2.261  -0.504  1.00  0.00     0.138 C 
BRANCH  12  13
HETATM   13  C20 UNL     1       6.167  -2.516  -1.006  1.00  0.00     0.020 C 
BRANCH  13  14
HETATM   14  C21 UNL     1       7.020  -1.326  -0.726  1.00  0.00     0.004 C 
BRANCH  14  15
HETATM   15  C22 UNL     1       7.089  -1.027   0.752  1.00  0.00     0.026 C 
BRANCH  15  16
HETATM   16  C23 UNL     1       7.984   0.197   0.915  1.00  0.00     0.164 C 
BRANCH  16  17
HETATM   17  O1  UNL     1       9.264  -0.048   0.419  1.00  0.00    -0.401 OA
ATOM     18  H1  UNL     1       9.822   0.714   0.521  1.00  0.00     0.209 HD
ENDBRANCH  16  17
ENDBRANCH  15  16
ENDBRANCH  14  15
ENDBRANCH  13  14
ENDBRANCH  12  13
ENDBRANCH   5  12
ENDBRANCH   1   2
BRANCH   1  19
HETATM   19  C6  UNL     1      -0.029   0.067  -1.487  1.00  0.00     0.065 C 
BRANCH  19  20
HETATM   20  C7  UNL     1      -1.553   0.069  -1.269  1.00  0.00     0.063 C 
HETATM   21  N3  UNL     1      -1.966  -0.130   0.001  1.00  0.00    -0.368 N 
ATOM     22  H3  UNL     1      -1.147  -0.168   0.608  1.00  0.00     0.165 HD
BRANCH  21  23
HETATM   23  C8  UNL     1      -2.969  -0.281   0.687  1.00  0.00     0.059 A 
HETATM   24  C9  UNL     1      -2.744  -0.463   2.093  1.00  0.00     0.053 A 
HETATM   25 BR1  UNL     1      -0.958  -0.406   2.740  1.00  0.00    -0.047 Br
HETATM   26  C10 UNL     1      -3.798  -0.659   2.928  1.00  0.00     0.109 A 
HETATM   27  N4  UNL     1      -5.045  -0.684   2.452  1.00  0.00    -0.367 N 
HETATM   28  C11 UNL     1      -5.274  -0.517   1.161  1.00  0.00     0.018 A 
ATOM     29  H4  UNL     1      -5.827  -0.833   3.090  1.00  0.00     0.165 HD
HETATM   30  C12 UNL     1      -4.246  -0.308   0.228  1.00  0.00    -0.007 A 
HETATM   31  C18 UNL     1      -6.661  -0.553   0.574  1.00  0.00     0.066 C 
HETATM   32  C13 UNL     1      -4.699  -0.121  -1.143  1.00  0.00     0.044 C 
HETATM   33  C14 UNL     1      -5.723   1.054  -1.046  1.00  0.00     0.014 C 
HETATM   34  C15 UNL     1      -6.904   0.689  -0.209  1.00  0.00    -0.042 C 
HETATM   35  C16 UNL     1      -7.139   1.818   0.799  1.00  0.00     0.015 C 
HETATM   36  C17 UNL     1      -8.139   0.502  -1.074  1.00  0.00     0.015 C 
ENDBRANCH  21  23
ENDBRANCH  19  20
ENDBRANCH   1  19
TORSDOF 12
