REMARK  11 active torsions:
REMARK  status: ('A' for Active; 'I' for Inactive)
REMARK    1  A    between atoms: C2_2  and  C4_4 
REMARK    2  A    between atoms: C4_4  and  C5_5 
REMARK    3  A    between atoms: C5_5  and  C6_6 
REMARK    4  A    between atoms: C6_6  and  C7_7 
REMARK    5  A    between atoms: C7_7  and  C8_8 
REMARK       I    between atoms: N1_12  and  C11_13 
REMARK    6  A    between atoms: C11_13  and  C12_15 
REMARK    7  A    between atoms: C12_15  and  C13_16 
REMARK    8  A    between atoms: C12_15  and  N5_26 
REMARK    9  A    between atoms: C13_16  and  C14_17 
REMARK   10  A    between atoms: C14_17  and  C15_18 
REMARK   11  A    between atoms: C15_18  and  N2_19 
REMARK       I    between atoms: N2_19  and  C16_21 
REMARK       I    between atoms: N5_26  and  C17_28 
REMARK       I    between atoms: C17_28  and  N6_30 
ROOT
HETATM    1  C12 UNL     1      -1.927  -0.115  -0.170  1.00  0.00     0.081 C 
ENDROOT
BRANCH   1   2
HETATM    2  C11 UNL     1      -1.074   0.485  -1.190  1.00  0.00     0.266 C 
HETATM    3  N1  UNL     1       0.335   0.575  -1.132  1.00  0.00    -0.347 N 
HETATM    4  C10 UNL     1       1.110   0.035  -0.036  1.00  0.00     0.128 C 
HETATM    5  C23 UNL     1       1.104   1.225  -2.195  1.00  0.00     0.128 C 
HETATM    6  C9  UNL     1       2.122  -0.912  -0.712  1.00  0.00     0.045 C 
HETATM    7  C8  UNL     1       3.065  -0.073  -1.574  1.00  0.00     0.040 C 
HETATM    8 CL1  UNL     1       3.071  -0.806  -3.209  1.00  0.00    -0.119 Cl
HETATM    9  C24 UNL     1       2.562   1.318  -1.722  1.00  0.00     0.045 C 
HETATM   10  O1  UNL     1      -1.645   0.971  -2.227  1.00  0.00    -0.266 OA
BRANCH   7  11
HETATM   11  C7  UNL     1       4.423  -0.207  -0.947  1.00  0.00     0.026 C 
BRANCH  11  12
HETATM   12  C6  UNL     1       4.514   0.372   0.420  1.00  0.00     0.002 C 
BRANCH  12  13
HETATM   13  C5  UNL     1       5.885   0.198   1.026  1.00  0.00     0.000 C 
BRANCH  13  14
HETATM   14  C4  UNL     1       6.955   0.873   0.176  1.00  0.00     0.004 C 
BRANCH  14  15
HETATM   15  C2  UNL     1       8.319   0.656   0.843  1.00  0.00    -0.023 C 
HETATM   16  C1  UNL     1       8.527  -0.849   0.905  1.00  0.00     0.009 C 
HETATM   17  C3  UNL     1       9.361   1.207  -0.085  1.00  0.00     0.009 C 
ENDBRANCH  14  15
ENDBRANCH  13  14
ENDBRANCH  12  13
ENDBRANCH  11  12
ENDBRANCH   7  11
ENDBRANCH   1   2
BRANCH   1  18
HETATM   18  C13 UNL     1      -2.076   0.605   1.107  1.00  0.00     0.064 C 
BRANCH  18  19
HETATM   19  C14 UNL     1      -2.579   1.985   1.151  1.00  0.00     0.026 C 
BRANCH  19  20
HETATM   20  C15 UNL     1      -3.937   2.161   0.573  1.00  0.00     0.122 C 
BRANCH  20  21
HETATM   21  N2  UNL     1      -4.322   3.580   0.749  1.00  0.00    -0.365 N 
HETATM   22  C16 UNL     1      -4.562   4.016   2.073  1.00  0.00     0.181 C 
HETATM   23  N3  UNL     1      -3.644   4.598   2.750  1.00  0.00    -0.374 N 
HETATM   24  N4  UNL     1      -5.831   3.809   2.646  1.00  0.00    -0.064 NA
ATOM     25  H32 UNL     1      -2.724   4.748   2.335  1.00  0.00     0.158 HD
ATOM     26  H31 UNL     1      -3.817   4.912   3.705  1.00  0.00     0.158 HD
ATOM     27  H2  UNL     1      -4.410   4.213  -0.046  1.00  0.00     0.162 HD
ENDBRANCH  20  21
ENDBRANCH  19  20
ENDBRANCH  18  19
ENDBRANCH   1  18
BRANCH   1  28
HETATM   28  N5  UNL     1      -3.185  -0.670  -0.674  1.00  0.00    -0.307 N 
HETATM   29  C17 UNL     1      -3.469  -2.051  -0.535  1.00  0.00     0.322 C 
HETATM   30  O2  UNL     1      -2.575  -2.763   0.046  1.00  0.00    -0.247 OA
HETATM   31  N6  UNL     1      -4.623  -2.702  -0.967  1.00  0.00    -0.334 N 
HETATM   32  C18 UNL     1      -4.807  -4.153  -0.747  1.00  0.00     0.127 C 
HETATM   33  C22 UNL     1      -5.687  -2.008  -1.646  1.00  0.00     0.127 C 
HETATM   34  C19 UNL     1      -6.103  -4.413  -0.044  1.00  0.00     0.020 C 
HETATM   35  C20 UNL     1      -7.238  -3.596  -0.623  1.00  0.00     0.003 C 
HETATM   36  C21 UNL     1      -6.915  -2.141  -0.740  1.00  0.00     0.020 C 
ATOM     37  H5  UNL     1      -3.862  -0.057  -1.129  1.00  0.00     0.170 HD
ENDBRANCH   1  28
TORSDOF 11
