REMARK  4 active torsions:
REMARK  status: ('A' for Active; 'I' for Inactive)
REMARK    1  A    between atoms: C5_6  and  N2_7 
REMARK    2  A    between atoms: N2_7  and  C6_9 
REMARK    3  A    between atoms: C6_9  and  C7_10 
REMARK    4  A    between atoms: C7_10  and  C8_11 
ROOT
HETATM    1  N1  UNL     1       7.580  -1.342   1.367  1.00  0.00    -0.190 NA
HETATM    2  C1  UNL     1       6.481  -1.183   1.002  1.00  0.00     0.119 C 
HETATM    3  C2  UNL     1       5.137  -0.999   0.537  1.00  0.00     0.128 A 
HETATM    4  C3  UNL     1       4.790   0.183  -0.108  1.00  0.00     0.046 A 
HETATM    5  C4  UNL     1       3.485   0.401  -0.579  1.00  0.00     0.052 A 
HETATM    6  C5  UNL     1       2.558  -0.581  -0.389  1.00  0.00     0.115 A 
HETATM    7  N4  UNL     1       2.929  -1.718   0.242  1.00  0.00    -0.285 N 
ATOM      8  H4  UNL     1       2.234  -2.451   0.384  1.00  0.00     0.188 HD
HETATM    9  N5  UNL     1       4.176  -1.915   0.687  1.00  0.00    -0.289 N 
ATOM     10  H5  UNL     1       4.400  -2.793   1.156  1.00  0.00     0.188 HD
ENDROOT
BRANCH   6  11
HETATM   11  N2  UNL     1       1.369  -0.489  -0.776  1.00  0.00    -0.375 N 
ATOM     12  H2  UNL     1       0.761  -1.284  -0.579  1.00  0.00     0.161 HD
BRANCH  11  13
HETATM   13  C6  UNL     1       0.777   0.613  -1.464  1.00  0.00     0.126 C 
BRANCH  13  14
HETATM   14  C7  UNL     1      -0.383   1.241  -0.704  1.00  0.00     0.060 C 
BRANCH  14  15
HETATM   15  C8  UNL     1      -1.438   0.250  -0.507  1.00  0.00    -0.029 A 
HETATM   16  C9  UNL     1      -1.553  -1.054  -0.923  1.00  0.00     0.096 A 
HETATM   17  N3  UNL     1      -2.742  -1.573  -0.489  1.00  0.00    -0.365 N 
HETATM   18  C10 UNL     1      -3.401  -0.627   0.202  1.00  0.00     0.042 A 
ATOM     19  H3  UNL     1      -3.074  -2.522  -0.661  1.00  0.00     0.165 HD
HETATM   20  C11 UNL     1      -4.636  -0.616   0.852  1.00  0.00     0.030 A 
HETATM   21  C15 UNL     1      -2.620   0.508   0.207  1.00  0.00    -0.002 A 
HETATM   22  C12 UNL     1      -5.101   0.502   1.502  1.00  0.00     0.002 A 
HETATM   23  C13 UNL     1      -4.328   1.637   1.511  1.00  0.00     0.001 A 
HETATM   24  C14 UNL     1      -3.089   1.627   0.859  1.00  0.00     0.014 A 
ENDBRANCH  14  15
ENDBRANCH  13  14
ENDBRANCH  11  13
ENDBRANCH   6  11
TORSDOF 4
