REMARK  4 active torsions:
REMARK  status: ('A' for Active; 'I' for Inactive)
REMARK    1  A    between atoms: C2_3  and  N2_4 
REMARK    2  A    between atoms: N2_4  and  C3_5 
REMARK    3  A    between atoms: C6_12  and  C7_13 
REMARK    4  A    between atoms: C7_13  and  C8_14 
ROOT
HETATM    1  N1  UNL     1      -4.016   2.772   2.611  1.00  0.00    -0.190 NA
HETATM    2  C1  UNL     1      -3.052   2.336   2.142  1.00  0.00     0.119 C 
HETATM    3  C2  UNL     1      -1.819   1.748   1.536  1.00  0.00     0.278 C 
ENDROOT
BRANCH   3   4
HETATM    4  N2  UNL     1      -2.131   0.630   0.872  1.00  0.00    -0.389 NA
BRANCH   4   5
HETATM    5  C3  UNL     1      -2.390  -0.352   0.275  1.00  0.00     0.188 A 
HETATM    6  N3  UNL     1      -3.443  -1.161   0.627  1.00  0.00    -0.327 N 
HETATM    7  C4  UNL     1      -3.750  -2.275  -0.053  1.00  0.00     0.182 A 
ATOM      8  H3  UNL     1      -4.011  -0.905   1.434  1.00  0.00     0.169 HD
HETATM    9  N4  UNL     1      -3.040  -2.645  -1.107  1.00  0.00    -0.361 N 
HETATM   10  C5  UNL     1      -1.994  -1.930  -1.535  1.00  0.00     0.101 A 
ATOM     11  H4  UNL     1      -3.297  -3.497  -1.605  1.00  0.00     0.166 HD
HETATM   12  C6  UNL     1      -1.670  -0.775  -0.836  1.00  0.00     0.020 A 
BRANCH  12  13
HETATM   13  C7  UNL     1      -0.523   0.042  -1.257  1.00  0.00     0.086 C 
BRANCH  13  14
HETATM   14  C8  UNL     1       0.652  -0.196  -0.383  1.00  0.00    -0.026 A 
HETATM   15  C9  UNL     1       0.672  -1.087   0.664  1.00  0.00     0.096 A 
HETATM   16  N5  UNL     1       1.893  -1.033   1.218  1.00  0.00    -0.365 N 
HETATM   17  C10 UNL     1       2.660  -0.146   0.572  1.00  0.00     0.042 A 
ATOM     18  H5  UNL     1       2.194  -1.589   2.018  1.00  0.00     0.165 HD
HETATM   19  C11 UNL     1       3.982   0.286   0.735  1.00  0.00     0.030 A 
HETATM   20  C15 UNL     1       1.892   0.388  -0.438  1.00  0.00    -0.002 A 
HETATM   21  C12 UNL     1       4.543   1.234  -0.087  1.00  0.00     0.002 A 
HETATM   22  C13 UNL     1       3.768   1.762  -1.093  1.00  0.00     0.001 A 
HETATM   23  C14 UNL     1       2.456   1.345  -1.269  1.00  0.00     0.014 A 
ENDBRANCH  13  14
ENDBRANCH  12  13
ENDBRANCH   4   5
ENDBRANCH   3   4
TORSDOF 4
