REMARK  5 active torsions:
REMARK  status: ('A' for Active; 'I' for Inactive)
REMARK    1  A    between atoms: N1_1  and  C1_5 
REMARK    2  A    between atoms: C1_5  and  C2_6 
REMARK    3  A    between atoms: C7_11  and  N2_12 
REMARK    4  A    between atoms: N2_12  and  C8_14 
REMARK    5  A    between atoms: C8_14  and  C9_15 
ROOT
HETATM    1  C2  UNL     1       3.300   0.729   0.363  1.00  0.00    -0.005 A 
HETATM    2  C3  UNL     1       3.308   1.750  -0.580  1.00  0.00     0.011 A 
HETATM    3  C4  UNL     1       2.270   1.903  -1.481  1.00  0.00     0.002 A 
HETATM    4  C5  UNL     1       1.226   0.997  -1.400  1.00  0.00     0.017 A 
HETATM    5  C6  UNL     1       1.190  -0.025  -0.476  1.00  0.00     0.035 A 
HETATM    6  C7  UNL     1       0.117  -0.898  -0.447  1.00  0.00     0.114 A 
HETATM    7  N3  UNL     1       0.152  -1.870   0.483  1.00  0.00    -0.338 N 
ATOM      8  H3  UNL     1      -0.622  -2.532   0.535  1.00  0.00     0.168 HD
HETATM    9  C15 UNL     1       1.182  -1.996   1.352  1.00  0.00     0.182 A 
HETATM   10  N4  UNL     1       2.232  -1.151   1.332  1.00  0.00    -0.351 N 
ATOM     11  H4  UNL     1       3.001  -1.259   1.993  1.00  0.00     0.166 HD
HETATM   12  C16 UNL     1       2.243  -0.165   0.423  1.00  0.00     0.055 A 
ENDROOT
BRANCH   6  13
HETATM   13  N2  UNL     1      -0.818  -0.725  -1.289  1.00  0.00    -0.371 N 
ATOM     14  H2  UNL     1      -0.705   0.058  -1.933  1.00  0.00     0.161 HD
BRANCH  13  15
HETATM   15  C8  UNL     1      -2.008  -1.497  -1.440  1.00  0.00     0.160 C 
BRANCH  15  16
HETATM   16  C9  UNL     1      -3.108  -0.787  -0.737  1.00  0.00    -0.041 A 
HETATM   17  C10 UNL     1      -3.411  -1.008   0.591  1.00  0.00     0.009 A 
HETATM   18  C11 UNL     1      -4.451  -0.322   1.217  1.00  0.00     0.001 A 
HETATM   19  C12 UNL     1      -5.211   0.599   0.528  1.00  0.00     0.000 A 
HETATM   20  C13 UNL     1      -4.908   0.819  -0.798  1.00  0.00     0.001 A 
HETATM   21  C14 UNL     1      -3.878   0.138  -1.412  1.00  0.00     0.009 A 
ENDBRANCH  15  16
ENDBRANCH  13  15
ENDBRANCH   6  13
BRANCH   1  22
HETATM   22  C1  UNL     1       4.402   0.540   1.342  1.00  0.00     0.270 C 
BRANCH  22  23
HETATM   23  N1  UNL     1       5.408   1.562   1.127  1.00  0.00    -0.075 N 
ATOM     24  H13 UNL     1       5.744   1.579   0.164  1.00  0.00     0.274 HD
ATOM     25  H12 UNL     1       5.017   2.504   1.160  1.00  0.00     0.274 HD
ATOM     26  H11 UNL     1       6.164   1.432   1.799  1.00  0.00     0.274 HD
ENDBRANCH  22  23
ENDBRANCH   1  22
TORSDOF 5
