REMARK  4 active torsions:
REMARK  status: ('A' for Active; 'I' for Inactive)
REMARK    1  A    between atoms: N3_11  and  C8_12 
REMARK    2  A    between atoms: C8_12  and  C9_13 
REMARK    3  A    between atoms: C9_13  and  C10_14 
REMARK    4  A    between atoms: C16_20  and  N4_21 
ROOT
HETATM    1  N1  UNL     1      -4.222   4.036  -0.219  1.00  0.00    -0.191 NA
HETATM    2  C1  UNL     1      -3.734   2.986  -0.139  1.00  0.00     0.103 C 
HETATM    3  C2  UNL     1      -3.138   1.669  -0.026  1.00  0.00     0.089 A 
HETATM    4  C3  UNL     1      -3.969   0.569  -0.180  1.00  0.00     0.041 A 
HETATM    5  C4  UNL     1      -3.366  -0.678  -0.066  1.00  0.00     0.011 A 
HETATM    6  C5  UNL     1      -3.872  -1.958  -0.159  1.00  0.00     0.032 A 
HETATM    7  C6  UNL     1      -2.816  -2.823   0.039  1.00  0.00     0.090 A 
HETATM    8  N2  UNL     1      -1.694  -2.121   0.247  1.00  0.00    -0.351 N 
ATOM      9  H2  UNL     1      -0.765  -2.506   0.421  1.00  0.00     0.166 HD
HETATM   10  C7  UNL     1      -2.016  -0.815   0.185  1.00  0.00     0.119 A 
HETATM   11  N3  UNL     1      -1.229   0.291   0.331  1.00  0.00    -0.317 N 
HETATM   12  C16 UNL     1      -1.795   1.508   0.224  1.00  0.00     0.123 A 
ENDROOT
BRANCH  12  13
HETATM   13  N4  UNL     1      -1.076   2.573   0.357  1.00  0.00    -0.384 N 
ATOM     14  H42 UNL     1      -1.505   3.495   0.276  1.00  0.00     0.157 HD
ATOM     15  H41 UNL     1      -0.080   2.454   0.542  1.00  0.00     0.157 HD
ENDBRANCH  12  13
BRANCH  11  16
HETATM   16  C8  UNL     1       0.174   0.189   0.592  1.00  0.00     0.137 C 
BRANCH  16  17
HETATM   17  C9  UNL     1       1.002   0.146  -0.675  1.00  0.00     0.059 C 
BRANCH  17  18
HETATM   18  C10 UNL     1       2.450   0.039  -0.368  1.00  0.00    -0.057 A 
HETATM   19  C11 UNL     1       3.004  -1.216  -0.244  1.00  0.00     0.007 A 
HETATM   20  C12 UNL     1       4.336  -1.425   0.039  1.00  0.00     0.001 A 
HETATM   21  C13 UNL     1       5.137  -0.322   0.204  1.00  0.00     0.000 A 
HETATM   22  C14 UNL     1       4.590   0.956   0.083  1.00  0.00     0.001 A 
HETATM   23  C15 UNL     1       3.259   1.142  -0.201  1.00  0.00     0.007 A 
ENDBRANCH  17  18
ENDBRANCH  16  17
ENDBRANCH  11  16
TORSDOF 4
