REMARK  3 active torsions:
REMARK  status: ('A' for Active; 'I' for Inactive)
REMARK    1  A    between atoms: C1_2  and  C2_3 
REMARK    2  A    between atoms: C7_8  and  C8_9 
REMARK    3  A    between atoms: C8_9  and  N2_10 
ROOT
HETATM    1  N2  UNL     1       0.475   0.014   0.128  1.00  0.00    -0.385 N 
ATOM      2  H2  UNL     1       0.528  -0.785   0.760  1.00  0.00     0.160 HD
HETATM    3  C9  UNL     1       1.570   0.355  -0.435  1.00  0.00     0.043 A 
HETATM    4  C10 UNL     1       1.629   1.386  -1.314  1.00  0.00     0.047 A 
HETATM    5  C11 UNL     1       2.879   1.782  -1.798  1.00  0.00     0.092 A 
HETATM    6  N3  UNL     1       3.985   1.136  -1.379  1.00  0.00    -0.351 N 
ATOM      7  H3  UNL     1       4.895   1.426  -1.736  1.00  0.00     0.166 HD
HETATM    8  C12 UNL     1       3.920   0.124  -0.507  1.00  0.00     0.117 A 
HETATM    9  N4  UNL     1       5.054  -0.478  -0.049  1.00  0.00    -0.352 N 
ATOM     10  H4  UNL     1       5.955  -0.165  -0.412  1.00  0.00     0.166 HD
HETATM   11  C13 UNL     1       5.034  -1.456   0.851  1.00  0.00     0.090 A 
HETATM   12  C14 UNL     1       3.807  -1.889   1.342  1.00  0.00     0.018 A 
HETATM   13  C15 UNL     1       2.641  -1.318   0.919  1.00  0.00     0.019 A 
HETATM   14  C16 UNL     1       2.724  -0.312  -0.001  1.00  0.00     0.034 A 
ENDROOT
BRANCH   1  15
HETATM   15  C8  UNL     1      -0.815   0.611  -0.017  1.00  0.00     0.159 C 
BRANCH  15  16
HETATM   16  C7  UNL     1      -1.917  -0.333   0.196  1.00  0.00    -0.029 A 
HETATM   17  C2  UNL     1      -3.197   0.175   0.165  1.00  0.00    -0.015 A 
HETATM   18  C3  UNL     1      -4.222  -0.720   0.396  1.00  0.00     0.013 A 
HETATM   19  C4  UNL     1      -4.041  -2.066   0.643  1.00  0.00     0.001 A 
HETATM   20  C5  UNL     1      -2.743  -2.559   0.658  1.00  0.00     0.001 A 
HETATM   21  C6  UNL     1      -1.691  -1.689   0.436  1.00  0.00     0.010 A 
BRANCH  17  22
HETATM   22  C1  UNL     1      -3.483   1.551  -0.211  1.00  0.00     0.112 C 
HETATM   23  N1  UNL     1      -2.867   2.618   0.459  1.00  0.00    -0.114 NA
ENDBRANCH  17  22
ENDBRANCH  15  16
ENDBRANCH   1  15
TORSDOF 3
