REMARK  3 active torsions:
REMARK  status: ('A' for Active; 'I' for Inactive)
REMARK    1  A    between atoms: C1_2  and  C2_3 
REMARK       I    between atoms: C1_2  and  N1_6 
REMARK    2  A    between atoms: C2_3  and  C3_4 
REMARK    3  A    between atoms: N1_6  and  C4_8 
ROOT
HETATM    1  C4  UNL     1      -0.320  -0.621  -0.159  1.00  0.00     0.088 C 
HETATM    2  C5  UNL     1      -1.369  -0.358  -1.241  1.00  0.00     0.030 C 
HETATM    3  C6  UNL     1      -2.709  -0.434  -0.583  1.00  0.00    -0.012 C 
HETATM    4  C7  UNL     1      -2.967   0.888   0.102  1.00  0.00     0.005 C 
HETATM    5  C8  UNL     1      -1.809   0.925   1.103  1.00  0.00     0.007 C 
HETATM    6  C9  UNL     1      -1.182  -0.433   1.091  1.00  0.00     0.009 C 
HETATM    7  C10 UNL     1      -2.381  -1.294   0.652  1.00  0.00     0.011 C 
ENDROOT
BRANCH   1   8
HETATM    8  N1  UNL     1       0.771   0.293  -0.217  1.00  0.00    -0.356 N 
HETATM    9  C1  UNL     1       2.114  -0.170  -0.301  1.00  0.00     0.220 C 
HETATM   10  O1  UNL     1       2.366  -1.410  -0.326  1.00  0.00    -0.274 OA
ATOM     11  H1  UNL     1       0.587   1.296  -0.198  1.00  0.00     0.162 HD
BRANCH   9  12
HETATM   12  C2  UNL     1       3.269   0.761  -0.364  1.00  0.00     0.134 C 
BRANCH  12  13
HETATM   13  C3  UNL     1       4.562  -0.000  -0.447  1.00  0.00     0.231 C 
HETATM   14  F1  UNL     1       5.612   0.885  -0.503  1.00  0.00    -0.255 F 
ENDBRANCH  12  13
ENDBRANCH   9  12
ENDBRANCH   1   8
TORSDOF 3
