REMARK  2 active torsions:
REMARK  status: ('A' for Active; 'I' for Inactive)
REMARK       I    between atoms: C1_2  and  N1_3 
REMARK       I    between atoms: C1_2  and  N2_9 
REMARK    1  A    between atoms: N1_3  and  C2_5 
REMARK    2  A    between atoms: C2_5  and  C3_6 
ROOT
HETATM    1  O1  UNL     1       0.822   0.013   1.828  1.00  0.00    -0.247 OA
HETATM    2  C1  UNL     1       0.361   0.442   0.757  1.00  0.00     0.322 C 
HETATM    3  N1  UNL     1       1.157   1.173  -0.141  1.00  0.00    -0.322 N 
ATOM      4  H1  UNL     1       0.666   1.486  -0.979  1.00  0.00     0.169 HD
HETATM    5  N2  UNL     1      -1.024   0.156   0.475  1.00  0.00    -0.331 N 
HETATM    6  C6  UNL     1      -1.600   0.623  -0.734  1.00  0.00     0.128 C 
HETATM    7  C7  UNL     1      -3.094   0.448  -0.805  1.00  0.00     0.023 C 
HETATM    8  C8  UNL     1      -3.583  -0.864  -0.309  1.00  0.00     0.040 C 
HETATM    9  C9  UNL     1      -2.842  -1.450   0.833  1.00  0.00     0.188 C 
HETATM   10  F1  UNL     1      -3.745  -1.762   1.858  1.00  0.00    -0.248 F 
HETATM   11  C10 UNL     1      -1.780  -0.595   1.431  1.00  0.00     0.164 C 
ENDROOT
BRANCH   3  12
HETATM   12  C2  UNL     1       2.505   1.547  -0.088  1.00  0.00     0.070 C 
BRANCH  12  13
HETATM   13  C3  UNL     1       3.617   0.603  -0.146  1.00  0.00     0.024 A 
HETATM   14  C4  UNL     1       3.918  -0.501   0.831  1.00  0.00     0.010 A 
HETATM   15  C5  UNL     1       3.425  -0.814  -0.576  1.00  0.00     0.010 A 
ENDBRANCH  12  13
ENDBRANCH   3  12
TORSDOF 2
