REMARK  9 active torsions:
REMARK  status: ('A' for Active; 'I' for Inactive)
REMARK    1  A    between atoms: O1_2  and  C2_3 
REMARK    2  A    between atoms: C2_3  and  C3_4 
REMARK    3  A    between atoms: C3_4  and  C4_5 
REMARK    4  A    between atoms: C4_5  and  C5_6 
REMARK    5  A    between atoms: C5_6  and  O2_7 
REMARK    6  A    between atoms: O2_7  and  N1_8 
REMARK    7  A    between atoms: C12_17  and  C13_18 
REMARK    8  A    between atoms: C16_22  and  S2_23 
REMARK    9  A    between atoms: N3_30  and  O4_32 
ROOT
HETATM    1  N1  UNL     1      -1.844   0.539   0.738  1.00  0.00    -0.275 N 
ATOM      2  H1  UNL     1      -1.758   1.380   1.308  1.00  0.00     0.193 HD
HETATM    3  C6  UNL     1      -0.767  -0.047   0.344  1.00  0.00     0.011 C 
HETATM    4  C7  UNL     1      -1.010  -1.259  -0.478  1.00  0.00     0.062 C 
HETATM    5  C8  UNL     1      -0.528  -0.930  -1.895  1.00  0.00     0.084 C 
HETATM    6  C9  UNL     1       0.627   0.004  -1.736  1.00  0.00     0.132 C 
HETATM    7  O3  UNL     1       0.485   1.122  -2.234  1.00  0.00    -0.298 OA
HETATM    8  C10 UNL     1       1.940  -0.226  -1.054  1.00  0.00     0.063 C 
HETATM    9  C11 UNL     1       2.930   0.701  -1.610  1.00  0.00     0.042 C 
HETATM   10  C12 UNL     1       3.992   1.194  -0.684  1.00  0.00     0.118 C 
HETATM   11  N2  UNL     1       3.517   1.387   0.631  1.00  0.00    -0.412 N 
ATOM     12  H2  UNL     1       3.651   2.272   1.121  1.00  0.00     0.153 HD
HETATM   13  C18 UNL     1       2.847   0.300   1.240  1.00  0.00     0.120 C 
HETATM   14  C19 UNL     1       1.703  -0.202   0.413  1.00  0.00     0.019 C 
HETATM   15  C20 UNL     1       0.475   0.606   0.791  1.00  0.00     0.061 C 
ENDROOT
BRANCH   1  16
HETATM   16  O2  UNL     1      -3.100   0.087   0.428  1.00  0.00    -0.281 OA
BRANCH  16  17
HETATM   17  C5  UNL     1      -3.883  -0.673   1.330  1.00  0.00     0.201 C 
BRANCH  17  18
HETATM   18  C4  UNL     1      -5.228  -1.029   0.705  1.00  0.00     0.037 C 
BRANCH  18  19
HETATM   19  C3  UNL     1      -5.952   0.226   0.368  1.00  0.00     0.088 C 
BRANCH  19  20
HETATM   20  C2  UNL     1      -7.265   0.056  -0.244  1.00  0.00     0.137 C 
HETATM   21  N3  UNL     1      -7.878  -1.017  -0.541  1.00  0.00    -0.251 N 
ATOM     22  H3  UNL     1      -8.800  -0.935  -0.969  1.00  0.00     0.196 HD
BRANCH  20  23
HETATM   23  O1  UNL     1      -7.975   1.247  -0.561  1.00  0.00    -0.343 OA
HETATM   24  C1  UNL     1      -9.073   1.206  -1.469  1.00  0.00     0.211 C 
ENDBRANCH  20  23
BRANCH  21  25
HETATM   25  O4  UNL     1      -7.393  -2.252  -0.329  1.00  0.00    -0.288 OA
ATOM     26  H4  UNL     1      -7.851  -3.054  -0.551  1.00  0.00     0.244 HD
ENDBRANCH  21  25
ENDBRANCH  19  20
ENDBRANCH  18  19
ENDBRANCH  17  18
ENDBRANCH  16  17
ENDBRANCH   1  16
BRANCH  10  27
HETATM   27  C13 UNL     1       5.160   0.237  -0.753  1.00  0.00     0.021 A 
HETATM   28  S1  UNL     1       5.327  -1.193  -1.664  1.00  0.00    -0.103 SA
HETATM   29  C14 UNL     1       6.894  -1.653  -1.181  1.00  0.00     0.051 A 
HETATM   30  C15 UNL     1       7.247  -0.658  -0.307  1.00  0.00     0.027 A 
HETATM   31  C16 UNL     1       6.351   0.317  -0.087  1.00  0.00     0.015 A 
BRANCH  31  32
HETATM   32  S2  UNL     1       6.685   1.700   1.047  1.00  0.00    -0.133 SA
HETATM   33  C17 UNL     1       8.304   1.584   1.795  1.00  0.00     0.095 C 
ENDBRANCH  31  32
ENDBRANCH  10  27
TORSDOF 9
