REMARK  8 active torsions:
REMARK  status: ('A' for Active; 'I' for Inactive)
REMARK    1  A    between atoms: C3_6  and  C4_7 
REMARK    2  A    between atoms: C7_10  and  C8_11 
REMARK    3  A    between atoms: C9_14  and  C10_15 
REMARK    4  A    between atoms: C10_15  and  O2_16 
REMARK    5  A    between atoms: C10_15  and  C11_18 
REMARK    6  A    between atoms: C11_18  and  N3_19 
REMARK    7  A    between atoms: C14_22  and  N4_23 
REMARK    8  A    between atoms: N4_23  and  C15_25 
ROOT
HETATM    1  C10 UNL     1      -2.151  -1.801   0.081  1.00  0.00     0.215 C 
ENDROOT
BRANCH   1   2
HETATM    2  C9  UNL     1      -3.488  -1.141   0.112  1.00  0.00     0.135 A 
HETATM    3  N2  UNL     1      -3.949  -0.094  -0.594  1.00  0.00    -0.320 N 
HETATM    4  C8  UNL     1      -5.221   0.178  -0.226  1.00  0.00     0.186 A 
ATOM      5  H2  UNL     1      -3.420   0.417  -1.300  1.00  0.00     0.169 HD
HETATM    6  O3  UNL     1      -5.498  -0.708   0.690  1.00  0.00    -0.217 OA
HETATM    7  N5  UNL     1      -4.489  -1.499   0.907  1.00  0.00    -0.244 N 
ATOM      8  H5  UNL     1      -4.470  -2.268   1.577  1.00  0.00     0.196 HD
BRANCH   4   9
HETATM    9  C7  UNL     1      -6.126   1.207  -0.703  1.00  0.00     0.073 A 
HETATM   10  C2  UNL     1      -5.910   2.142  -1.703  1.00  0.00     0.045 A 
HETATM   11  C1  UNL     1      -4.667   2.251  -2.485  1.00  0.00     0.071 C 
HETATM   12  N1  UNL     1      -7.034   2.860  -1.770  1.00  0.00    -0.265 N 
HETATM   13  O1  UNL     1      -7.894   2.420  -0.887  1.00  0.00    -0.241 OA
ATOM     14  H1  UNL     1      -7.198   3.635  -2.413  1.00  0.00     0.194 HD
HETATM   15  C3  UNL     1      -7.397   1.417  -0.210  1.00  0.00     0.096 A 
BRANCH  15  16
HETATM   16  C4  UNL     1      -8.127   0.711   0.859  1.00  0.00     0.038 C 
HETATM   17  C5  UNL     1      -9.574   1.125   0.858  1.00  0.00     0.016 C 
HETATM   18  C6  UNL     1      -7.545   0.989   2.228  1.00  0.00     0.016 C 
ENDBRANCH  15  16
ENDBRANCH   4   9
ENDBRANCH   1   2
BRANCH   1  19
HETATM   19  O2  UNL     1      -1.791  -2.101   1.383  1.00  0.00    -0.386 OA
ATOM     20  H2  UNL     1      -0.939  -2.521   1.363  1.00  0.00     0.210 HD
ENDBRANCH   1  19
BRANCH   1  21
HETATM   21  C11 UNL     1      -1.174  -0.905  -0.603  1.00  0.00     0.311 C 
BRANCH  21  22
HETATM   22  N3  UNL     1       0.157  -1.399  -0.791  1.00  0.00     0.091 N 
HETATM   23  C12 UNL     1       0.963  -0.367  -1.329  1.00  0.00     0.274 C 
HETATM   24  C13 UNL     1       2.443  -0.460  -1.190  1.00  0.00     0.055 C 
HETATM   25  C14 UNL     1       2.833  -0.975   0.146  1.00  0.00     0.080 C 
HETATM   26  C22 UNL     1       2.143  -2.369   0.229  1.00  0.00     0.055 C 
HETATM   27  C23 UNL     1       0.653  -2.072   0.336  1.00  0.00     0.274 C 
BRANCH  25  28
HETATM   28  N4  UNL     1       4.170  -1.081   0.518  1.00  0.00    -0.413 N 
ATOM     29  H4  UNL     1       4.561  -2.004   0.708  1.00  0.00     0.154 HD
BRANCH  28  30
HETATM   30  C15 UNL     1       4.993   0.046   0.639  1.00  0.00     0.077 C 
HETATM   31  C16 UNL     1       5.307   0.786  -0.610  1.00  0.00     0.025 C 
HETATM   32  C17 UNL     1       6.754   1.276  -0.647  1.00  0.00     0.006 C 
HETATM   33  C18 UNL     1       7.726   0.117  -0.609  1.00  0.00    -0.019 C 
HETATM   34  C19 UNL     1       9.079   0.674  -0.201  1.00  0.00     0.010 C 
HETATM   35  C20 UNL     1       7.317  -0.891   0.451  1.00  0.00     0.006 C 
HETATM   36  C21 UNL     1       6.297  -0.271   1.387  1.00  0.00     0.025 C 
ENDBRANCH  28  30
ENDBRANCH  25  28
ENDBRANCH  21  22
ENDBRANCH   1  21
TORSDOF 8
