REMARK  9 active torsions:
REMARK  status: ('A' for Active; 'I' for Inactive)
REMARK    1  A    between atoms: C2_2  and  C3_3 
REMARK    2  A    between atoms: C3_3  and  C4_4 
REMARK    3  A    between atoms: C10_12  and  O3_13 
REMARK    4  A    between atoms: N1_15  and  C11_16 
REMARK    5  A    between atoms: C13_18  and  O4_19 
REMARK    6  A    between atoms: C14_21  and  C15_22 
REMARK    7  A    between atoms: C17_24  and  O5_25 
REMARK    8  A    between atoms: C19_27  and  O6_28 
REMARK    9  A    between atoms: C21_30  and  O7_31 
ROOT
HETATM    1  C4  UNL     1      -0.770   1.574  -0.888  1.00  0.00     0.101 C 
HETATM    2  C5  UNL     1      -1.126   0.785  -2.104  1.00  0.00     0.211 C 
HETATM    3  O1  UNL     1      -2.502   0.901  -2.299  1.00  0.00    -0.348 OA
HETATM    4  C6  UNL     1      -2.912   1.150  -0.985  1.00  0.00     0.195 C 
HETATM    5  C7  UNL     1      -4.344   1.548  -0.962  1.00  0.00     0.085 C 
HETATM    6  O2  UNL     1      -2.040   2.120  -0.555  1.00  0.00    -0.336 OA
HETATM    7  C8  UNL     1      -2.638  -0.096  -0.187  1.00  0.00     0.065 A 
HETATM    8  C9  UNL     1      -1.427  -0.299   0.444  1.00  0.00     0.020 A 
HETATM    9  C10 UNL     1      -1.502  -1.523   1.077  1.00  0.00     0.152 A 
HETATM   10  N1  UNL     1      -2.712  -2.084   0.861  1.00  0.00    -0.308 N 
HETATM   11  C13 UNL     1      -3.391  -1.227   0.103  1.00  0.00     0.156 A 
HETATM   12  C14 UNL     1      -0.386   0.765   0.314  1.00  0.00     0.094 C 
ENDROOT
BRANCH  12  13
HETATM   13  C15 UNL     1       0.981   0.308   0.415  1.00  0.00    -0.041 A 
HETATM   14  C16 UNL     1       1.812  -0.037  -0.639  1.00  0.00     0.047 A 
HETATM   15  C17 UNL     1       3.112  -0.472  -0.493  1.00  0.00     0.104 A 
HETATM   16  C19 UNL     1       3.615  -0.569   0.783  1.00  0.00     0.135 A 
HETATM   17  C21 UNL     1       2.835  -0.237   1.891  1.00  0.00     0.104 A 
HETATM   18  C23 UNL     1       1.543   0.192   1.695  1.00  0.00     0.047 A 
BRANCH  15  19
HETATM   19  O5  UNL     1       3.845  -0.789  -1.622  1.00  0.00    -0.353 OA
HETATM   20  C18 UNL     1       3.385  -0.709  -2.929  1.00  0.00     0.210 C 
ENDBRANCH  15  19
BRANCH  16  21
HETATM   21  O6  UNL     1       4.920  -1.005   0.945  1.00  0.00    -0.351 OA
HETATM   22  C20 UNL     1       5.937  -0.009   0.950  1.00  0.00     0.210 C 
ENDBRANCH  16  21
BRANCH  17  23
HETATM   23  O7  UNL     1       3.403  -0.357   3.157  1.00  0.00    -0.353 OA
HETATM   24  C22 UNL     1       2.610  -0.020   4.275  1.00  0.00     0.210 C 
ENDBRANCH  17  23
ENDBRANCH  12  13
BRANCH   1  25
HETATM   25  C3  UNL     1       0.123   2.746  -1.145  1.00  0.00     0.067 C 
BRANCH  25  26
HETATM   26  C2  UNL     1      -0.472   3.732  -2.074  1.00  0.00    -0.034 C 
HETATM   27  C1  UNL     1      -0.681   4.975  -1.690  1.00  0.00     0.007 C 
ENDBRANCH  25  26
ENDBRANCH   1  25
BRANCH   9  28
HETATM   28  O3  UNL     1      -0.515  -2.137   1.835  1.00  0.00    -0.345 OA
ATOM     29  H3  UNL     1      -0.567  -2.980   2.271  1.00  0.00     0.219 HD
ENDBRANCH   9  28
BRANCH  11  30
HETATM   30  O4  UNL     1      -4.695  -1.380  -0.374  1.00  0.00    -0.345 OA
ATOM     31  H4  UNL     1      -5.210  -2.153  -0.176  1.00  0.00     0.219 HD
ENDBRANCH  11  30
BRANCH  10  32
HETATM   32  C11 UNL     1      -3.194  -3.367   1.351  1.00  0.00     0.129 C 
HETATM   33  C12 UNL     1      -2.898  -4.490   0.413  1.00  0.00     0.027 C 
ENDBRANCH  10  32
TORSDOF 9
