REMARK  5 active torsions:
REMARK  status: ('A' for Active; 'I' for Inactive)
REMARK    1  A    between atoms: C1_2  and  C2_3 
REMARK       I    between atoms: C1_2  and  N3_15 
REMARK    2  A    between atoms: C2_3  and  S1_4 
REMARK    3  A    between atoms: S1_4  and  C3_5 
REMARK    4  A    between atoms: C4_8  and  C5_9 
REMARK    5  A    between atoms: N3_15  and  C8_17 
ROOT
HETATM    1  C2  UNL     1       0.700  -0.410  -1.864  1.00  0.00     0.184 C 
ENDROOT
BRANCH   1   2
HETATM    2  C1  UNL     1      -0.698   0.045  -1.970  1.00  0.00     0.227 C 
HETATM    3  O1  UNL     1      -1.111   0.506  -3.053  1.00  0.00    -0.273 OA
HETATM    4  N3  UNL     1      -1.548  -0.046  -0.848  1.00  0.00    -0.356 N 
ATOM      5  H3  UNL     1      -1.200  -0.425   0.033  1.00  0.00     0.162 HD
BRANCH   4   6
HETATM    6  C8  UNL     1      -2.919   0.404  -0.961  1.00  0.00     0.084 C 
HETATM    7  C9  UNL     1      -3.817  -0.765  -0.672  1.00  0.00     0.025 C 
HETATM    8  C10 UNL     1      -4.237  -0.652   0.793  1.00  0.00     0.002 C 
HETATM    9  C11 UNL     1      -5.212   0.506   0.864  1.00  0.00     0.000 C 
HETATM   10  C12 UNL     1      -4.521   1.768   0.407  1.00  0.00     0.002 C 
HETATM   11  C13 UNL     1      -3.094   1.540   0.021  1.00  0.00     0.025 C 
ENDBRANCH   4   6
ENDBRANCH   1   2
BRANCH   1  12
HETATM   12  S1  UNL     1       0.993  -1.018  -0.189  1.00  0.00    -0.094 SA
BRANCH  12  13
HETATM   13  C3  UNL     1       2.721  -1.561  -0.125  1.00  0.00     0.130 A 
HETATM   14  N1  UNL     1       3.788  -0.854   0.191  1.00  0.00    -0.333 N 
HETATM   15  C4  UNL     1       4.962  -1.432   0.179  1.00  0.00     0.092 A 
ATOM     16  H1  UNL     1       3.700   0.131   0.442  1.00  0.00     0.168 HD
HETATM   17  N2  UNL     1       5.003  -2.721  -0.159  1.00  0.00    -0.314 N 
HETATM   18  S2  UNL     1       3.389  -3.095  -0.453  1.00  0.00     0.012 SA
ATOM     19  H2  UNL     1       5.817  -3.333  -0.224  1.00  0.00     0.175 HD
BRANCH  15  20
HETATM   20  C5  UNL     1       6.201  -0.655   0.534  1.00  0.00     0.054 A 
HETATM   21  C6  UNL     1       6.086   0.527   1.421  1.00  0.00     0.013 A 
HETATM   22  C7  UNL     1       6.218   0.761  -0.018  1.00  0.00     0.013 A 
ENDBRANCH  15  20
ENDBRANCH  12  13
ENDBRANCH   1  12
TORSDOF 5
