REMARK  7 active torsions:
REMARK  status: ('A' for Active; 'I' for Inactive)
REMARK    1  A    between atoms: C2_2  and  C3_3 
REMARK    2  A    between atoms: C3_3  and  S1_4 
REMARK    3  A    between atoms: S1_4  and  C4_5 
REMARK    4  A    between atoms: C5_8  and  C6_9 
REMARK    5  A    between atoms: C7_10  and  C8_11 
REMARK    6  A    between atoms: C11_14  and  C12_15 
REMARK       I    between atoms: C12_15  and  N2_17 
REMARK    7  A    between atoms: N2_17  and  C13_19 
ROOT
HETATM    1  C4  UNL     1       2.464   1.008  -0.825  1.00  0.00     0.114 A 
HETATM    2  N1  UNL     1       1.679   0.155  -0.231  1.00  0.00    -0.337 N 
ATOM      3  H1  UNL     1       2.070  -0.713   0.136  1.00  0.00     0.168 HD
HETATM    4  C5  UNL     1       0.398   0.390  -0.096  1.00  0.00     0.111 A 
HETATM    5  C11 UNL     1      -0.094   1.555  -0.595  1.00  0.00     0.110 A 
HETATM    6  S2  UNL     1       1.389   2.247  -1.245  1.00  0.00    -0.057 SA
ENDROOT
BRANCH   5   7
HETATM    7  C12 UNL     1      -1.410   2.177  -0.651  1.00  0.00     0.261 C 
HETATM    8  O1  UNL     1      -1.402   3.321  -1.235  1.00  0.00    -0.267 OA
HETATM    9  N2  UNL     1      -2.602   1.666  -0.154  1.00  0.00    -0.352 N 
ATOM     10  H2  UNL     1      -2.586   0.753   0.301  1.00  0.00     0.163 HD
BRANCH   9  11
HETATM   11  C13 UNL     1      -3.878   2.371  -0.251  1.00  0.00     0.084 A 
HETATM   12  C14 UNL     1      -4.206   2.897  -1.610  1.00  0.00     0.027 A 
HETATM   13  C15 UNL     1      -4.000   3.817  -0.483  1.00  0.00     0.027 A 
ENDBRANCH   9  11
ENDBRANCH   5   7
BRANCH   4  14
HETATM   14  C6  UNL     1      -0.430  -0.627   0.591  1.00  0.00    -0.047 C 
HETATM   15  C7  UNL     1      -1.071  -1.475   1.155  1.00  0.00    -0.096 C 
BRANCH  15  16
HETATM   16  C8  UNL     1      -1.848  -2.492   1.850  1.00  0.00     0.057 C 
HETATM   17  C9  UNL     1      -0.918  -3.187   2.831  1.00  0.00     0.023 C 
HETATM   18  C10 UNL     1      -2.409  -3.537   0.924  1.00  0.00     0.023 C 
ENDBRANCH  15  16
ENDBRANCH   4  14
BRANCH   1  19
HETATM   19  S1  UNL     1       4.217   1.002  -1.171  1.00  0.00    -0.101 SA
BRANCH  19  20
HETATM   20  C3  UNL     1       5.010  -0.503  -0.557  1.00  0.00     0.107 C 
BRANCH  20  21
HETATM   21  C2  UNL     1       6.459  -0.467  -0.864  1.00  0.00    -0.026 C 
HETATM   22  C1  UNL     1       7.395  -0.514   0.075  1.00  0.00     0.007 C 
ENDBRANCH  20  21
ENDBRANCH  19  20
ENDBRANCH   1  19
TORSDOF 7
