REMARK  7 active torsions:
REMARK  status: ('A' for Active; 'I' for Inactive)
REMARK    1  A    between atoms: O1_2  and  C2_3 
REMARK    2  A    between atoms: C2_3  and  O3_5 
REMARK    3  A    between atoms: O3_5  and  C3_6 
REMARK    4  A    between atoms: C3_6  and  C4_7 
REMARK    5  A    between atoms: C9_12  and  C10_13 
REMARK    6  A    between atoms: C14_20  and  C15_21 
REMARK    7  A    between atoms: C15_21  and  C16_22 
ROOT
HETATM    1  C4  UNL     1       1.347  -0.155   1.393  1.00  0.00     0.039 C 
HETATM    2  C5  UNL     1       2.161   1.014   1.794  1.00  0.00     0.011 C 
HETATM    3  C6  UNL     1       2.194   2.143   0.859  1.00  0.00     0.004 C 
HETATM    4  C7  UNL     1       1.654   1.872  -0.508  1.00  0.00     0.027 C 
HETATM    5  C8  UNL     1       0.360   1.160  -0.385  1.00  0.00    -0.023 C 
HETATM    6  C9  UNL     1       0.182   0.208   0.496  1.00  0.00    -0.071 C 
ENDROOT
BRANCH   6   7
HETATM    7  C10 UNL     1      -1.091  -0.500   0.772  1.00  0.00     0.048 C 
HETATM    8  C11 UNL     1      -0.982  -1.921   0.126  1.00  0.00     0.043 C 
HETATM    9  C12 UNL     1      -2.185  -2.049  -0.769  1.00  0.00     0.183 C 
HETATM   10  C13 UNL     1      -3.351  -2.697  -0.104  1.00  0.00     0.040 C 
HETATM   11  N1  UNL     1      -2.478  -0.647  -1.123  1.00  0.00    -0.066 N 
HETATM   12  C14 UNL     1      -2.345  -0.060   0.184  1.00  0.00     0.201 C 
ATOM     13  H12 UNL     1      -1.908  -0.238  -1.863  1.00  0.00     0.278 HD
ATOM     14  H11 UNL     1      -3.359  -0.477  -1.608  1.00  0.00     0.278 HD
BRANCH  12  15
HETATM   15  C15 UNL     1      -2.851   1.304   0.336  1.00  0.00     0.111 C 
BRANCH  15  16
HETATM   16  C16 UNL     1      -4.159   1.438  -0.398  1.00  0.00     0.125 C 
HETATM   17  C17 UNL     1      -4.841   2.782  -0.334  1.00  0.00     0.091 C 
HETATM   18  O4  UNL     1      -4.657   0.528  -1.015  1.00  0.00    -0.298 OA
ENDBRANCH  15  16
ENDBRANCH  12  15
ENDBRANCH   6   7
BRANCH   1  19
HETATM   19  C3  UNL     1       2.116  -1.341   0.971  1.00  0.00     0.190 C 
BRANCH  19  20
HETATM   20  O3  UNL     1       2.950  -1.448  -0.050  1.00  0.00    -0.297 OA
BRANCH  20  21
HETATM   21  C2  UNL     1       4.137  -1.033  -0.504  1.00  0.00     0.406 C 
HETATM   22  O2  UNL     1       4.826  -0.260   0.191  1.00  0.00    -0.230 OA
BRANCH  21  23
HETATM   23  O1  UNL     1       4.702  -1.396  -1.730  1.00  0.00    -0.303 OA
HETATM   24  C1  UNL     1       5.967  -0.906  -2.129  1.00  0.00     0.215 C 
ENDBRANCH  21  23
ENDBRANCH  20  21
ENDBRANCH  19  20
ENDBRANCH   1  19
TORSDOF 7
