REMARK  6 active torsions:
REMARK  status: ('A' for Active; 'I' for Inactive)
REMARK    1  A    between atoms: O1_2  and  C2_3 
REMARK    2  A    between atoms: C2_3  and  C3_5 
REMARK    3  A    between atoms: C3_5  and  C4_6 
REMARK    4  A    between atoms: C4_6  and  C5_7 
REMARK    5  A    between atoms: C5_7  and  C6_8 
REMARK    6  A    between atoms: C8_11  and  C9_12 
ROOT
HETATM    1  C6  UNL     1       0.069  -1.537  -0.189  1.00  0.00     0.063 C 
HETATM    2  C7  UNL     1      -0.836  -0.571   0.538  1.00  0.00     0.025 A 
HETATM    3  S1  UNL     1      -0.993   0.437   1.902  1.00  0.00    -0.084 SA
HETATM    4  C8  UNL     1      -2.560   1.055   1.610  1.00  0.00     0.090 A 
HETATM    5  C10 UNL     1      -2.916   0.439   0.430  1.00  0.00    -0.004 A 
HETATM    6  C11 UNL     1      -4.284   0.761  -0.148  1.00  0.00     0.053 C 
HETATM    7  C12 UNL     1      -2.011  -0.398  -0.108  1.00  0.00     0.091 A 
HETATM    8  O5  UNL     1      -1.893  -1.235  -1.249  1.00  0.00    -0.339 OA
HETATM    9  C13 UNL     1      -0.951  -2.255  -1.037  1.00  0.00     0.069 C 
HETATM   10  C14 UNL     1      -1.625  -3.360  -0.272  1.00  0.00     0.047 C 
HETATM   11  C15 UNL     1      -0.401  -2.698  -2.359  1.00  0.00     0.047 C 
ENDROOT
BRANCH   1  12
HETATM   12  C5  UNL     1       1.112  -0.831  -0.989  1.00  0.00     0.013 C 
BRANCH  12  13
HETATM   13  C4  UNL     1       1.943   0.008  -0.012  1.00  0.00     0.011 C 
BRANCH  13  14
HETATM   14  C3  UNL     1       3.027   0.760  -0.738  1.00  0.00     0.111 C 
BRANCH  14  15
HETATM   15  C2  UNL     1       3.778   1.541   0.279  1.00  0.00     0.258 C 
HETATM   16  O2  UNL     1       3.489   1.517   1.508  1.00  0.00    -0.265 OA
BRANCH  15  17
HETATM   17  O1  UNL     1       4.858   2.353  -0.078  1.00  0.00    -0.326 OA
HETATM   18  C1  UNL     1       5.560   3.090   0.913  1.00  0.00     0.213 C 
ENDBRANCH  15  17
ENDBRANCH  14  15
ENDBRANCH  13  14
ENDBRANCH  12  13
ENDBRANCH   1  12
BRANCH   4  19
HETATM   19  C9  UNL     1      -3.349   2.013   2.415  1.00  0.00     0.217 C 
HETATM   20  O3  UNL     1      -2.865   2.476   3.468  1.00  0.00    -0.643 OA
HETATM   21  O4  UNL     1      -4.607   2.406   2.028  1.00  0.00    -0.643 OA
ENDBRANCH   4  19
TORSDOF 6
