REMARK  1 active torsions:
REMARK  status: ('A' for Active; 'I' for Inactive)
REMARK    1  A    between atoms: N1_5  and  C4_7 
ROOT
HETATM    1  C1  UNL     1       3.088   0.069   1.126  1.00  0.00     0.132 C 
HETATM    2  C2  UNL     1       4.086   0.017  -0.029  1.00  0.00     0.102 C 
HETATM    3  S1  UNL     1       3.008   0.671  -1.376  1.00  0.00    -0.093 SA
HETATM    4  C3  UNL     1       1.453   0.319  -0.570  1.00  0.00     0.136 C 
HETATM    5  N1  UNL     1       0.314   0.608  -1.041  1.00  0.00    -0.366 N 
ATOM      6  H1  UNL     1       0.325   1.075  -1.948  1.00  0.00     0.162 HD
HETATM    7  N2  UNL     1       1.804  -0.320   0.641  1.00  0.00    -0.370 N 
ATOM      8  H2  UNL     1       1.201  -0.990   1.119  1.00  0.00     0.161 HD
ENDROOT
BRANCH   5   9
HETATM    9  C4  UNL     1      -0.976   0.380  -0.496  1.00  0.00     0.087 C 
HETATM   10  C5  UNL     1      -1.416  -1.088  -0.562  1.00  0.00     0.051 C 
HETATM   11  C6  UNL     1      -2.933  -1.044  -0.317  1.00  0.00     0.169 C 
HETATM   12  O1  UNL     1      -3.097  -0.599   0.984  1.00  0.00    -0.391 OA
HETATM   13  C7  UNL     1      -2.696   0.704   1.188  1.00  0.00     0.169 C 
HETATM   14  C8  UNL     1      -1.216   0.915   0.873  1.00  0.00     0.051 C 
ENDBRANCH   5   9
TORSDOF 1
