REMARK  2 active torsions:
REMARK  status: ('A' for Active; 'I' for Inactive)
REMARK    1  A    between atoms: C2_2  and  C3_7 
REMARK    2  A    between atoms: N1_3  and  O1_5 
ROOT
HETATM    1  C3  UNL     1      -0.498  -0.029  -0.123  1.00  0.00     0.227 C 
HETATM    2  C4  UNL     1      -0.445  -1.523  -0.041  1.00  0.00     0.054 C 
HETATM    3  C5  UNL     1       1.012  -1.807   0.376  1.00  0.00     0.071 C 
HETATM    4  C6  UNL     1       1.561  -0.412   0.462  1.00  0.00     0.457 C 
HETATM    5  N2  UNL     1       1.666   0.005  -0.916  1.00  0.00     0.121 N 
HETATM    6  C7  UNL     1       2.685   0.970  -1.166  1.00  0.00     0.312 C 
HETATM    7  C8  UNL     1       0.358   0.360  -1.349  1.00  0.00     0.322 C 
HETATM    8  N3  UNL     1       0.411   0.353   0.926  1.00  0.00     0.135 N 
HETATM    9  C9  UNL     1       0.022  -0.086   2.231  1.00  0.00     0.314 C 
ENDROOT
BRANCH   1  10
HETATM   10  C2  UNL     1      -1.779   0.612  -0.151  1.00  0.00     0.046 C 
HETATM   11  C1  UNL     1      -1.986   2.097  -0.096  1.00  0.00     0.068 C 
HETATM   12  N1  UNL     1      -2.850  -0.042  -0.251  1.00  0.00    -0.275 N 
ATOM     13  H1  UNL     1      -3.687   0.540  -0.278  1.00  0.00     0.193 HD
BRANCH  12  14
HETATM   14  O1  UNL     1      -3.098  -1.342  -0.328  1.00  0.00    -0.290 OA
ATOM     15  H1  UNL     1      -3.906  -1.836  -0.403  1.00  0.00     0.244 HD
ENDBRANCH  12  14
ENDBRANCH   1  10
TORSDOF 2
