REMARK  2 active torsions:
REMARK  status: ('A' for Active; 'I' for Inactive)
REMARK    1  A    between atoms: C2_2  and  N1_3 
REMARK    2  A    between atoms: C10_15  and  N4_16 
ROOT
HETATM    1  C1  UNL     1       1.340  -1.199  -1.473  1.00  0.00     0.041 C 
HETATM    2  C2  UNL     1       0.724  -0.294  -0.397  1.00  0.00     0.052 C 
HETATM    3  C5  UNL     1      -0.086  -1.176   0.498  1.00  0.00     0.039 C 
HETATM    4  C6  UNL     1      -1.548  -0.955   0.443  1.00  0.00     0.019 C 
HETATM    5  C7  UNL     1      -2.094  -0.667  -0.925  1.00  0.00     0.013 C 
HETATM    6  C8  UNL     1      -1.542   0.725  -0.768  1.00  0.00     0.019 C 
HETATM    7  C9  UNL     1      -0.076   0.818  -1.030  1.00  0.00     0.039 C 
HETATM    8  C10 UNL     1      -1.802   0.532   0.734  1.00  0.00     0.192 C 
ENDROOT
BRANCH   2   9
HETATM    9  N1  UNL     1       1.843   0.302   0.305  1.00  0.00    -0.277 N 
HETATM   10  C3  UNL     1       3.051  -0.215   0.584  1.00  0.00     0.202 A 
HETATM   11  N2  UNL     1       3.809   0.676   1.260  1.00  0.00    -0.346 N 
HETATM   12  C4  UNL     1       3.055   1.761   1.400  1.00  0.00     0.198 A 
ATOM     13  H2  UNL     1       4.764   0.543   1.594  1.00  0.00     0.167 HD
HETATM   14  N3  UNL     1       1.870   1.530   0.822  1.00  0.00    -0.292 N 
ATOM     15  H3  UNL     1       1.099   2.197   0.783  1.00  0.00     0.188 HD
ENDBRANCH   2   9
BRANCH   8  16
HETATM   16  N4  UNL     1      -3.196   0.731   1.002  1.00  0.00    -0.074 N 
ATOM     17  H43 UNL     1      -3.788   0.377   0.251  1.00  0.00     0.274 HD
ATOM     18  H42 UNL     1      -3.536   0.127   1.750  1.00  0.00     0.274 HD
ATOM     19  H41 UNL     1      -3.365   1.718   1.195  1.00  0.00     0.274 HD
ENDBRANCH   8  16
TORSDOF 2
