REMARK  2 active torsions:
REMARK  status: ('A' for Active; 'I' for Inactive)
REMARK    1  A    between atoms: C1_2  and  N1_3 
REMARK    2  A    between atoms: C1_2  and  C7_10 
ROOT
HETATM    1  F1  UNL     1       0.635  -0.377   1.487  1.00  0.00    -0.227 F 
HETATM    2  C1  UNL     1       0.173  -0.311   0.173  1.00  0.00     0.274 C 
ENDROOT
BRANCH   2   3
HETATM    3  N1  UNL     1      -0.797   0.708  -0.015  1.00  0.00    -0.366 N 
HETATM    4  C2  UNL     1      -1.918   0.656   0.570  1.00  0.00    -0.016 C 
HETATM    5  C3  UNL     1      -2.958   1.735   0.378  1.00  0.00     0.052 C 
HETATM    6  C6  UNL     1      -2.456  -0.362   1.497  1.00  0.00     0.052 C 
HETATM    7  C4  UNL     1      -4.019   1.480   1.394  1.00  0.00     0.006 C 
HETATM    8  C5  UNL     1      -3.550   0.340   2.262  1.00  0.00     0.006 C 
ATOM      9  H1  UNL     1      -0.587   1.494  -0.631  1.00  0.00     0.162 HD
ENDBRANCH   2   3
BRANCH   2  10
HETATM   10  C7  UNL     1       1.349  -0.189  -0.763  1.00  0.00     0.052 A 
HETATM   11  C8  UNL     1       2.308  -1.352  -0.674  1.00  0.00     0.026 A 
HETATM   12  C9  UNL     1       3.049  -1.681  -1.931  1.00  0.00     0.237 C 
HETATM   13  C11 UNL     1       2.720   0.002  -0.223  1.00  0.00     0.026 A 
HETATM   14  N2  UNL     1       4.178  -0.808  -1.902  1.00  0.00    -0.074 N 
HETATM   15  C10 UNL     1       3.810   0.378  -1.163  1.00  0.00     0.237 C 
ATOM     16  H22 UNL     1       5.015  -1.259  -1.532  1.00  0.00     0.277 HD
ATOM     17  H21 UNL     1       4.536  -0.596  -2.833  1.00  0.00     0.277 HD
ENDBRANCH   2  10
TORSDOF 2
