REMARK  2 active torsions:
REMARK  status: ('A' for Active; 'I' for Inactive)
REMARK    1  A    between atoms: N1_1  and  C1_5 
REMARK    2  A    between atoms: S1_13  and  C6_14 
ROOT
HETATM    1  C1  UNL     1      -1.836  -0.967  -0.124  1.00  0.00     0.184 C 
HETATM    2  C2  UNL     1      -2.179   0.435  -0.455  1.00  0.00     0.034 C 
HETATM    3  C3  UNL     1      -1.222   1.470   0.064  1.00  0.00     0.036 C 
HETATM    4  C4  UNL     1       0.195   1.116  -0.029  1.00  0.00     0.200 C 
HETATM    5  N2  UNL     1       1.041   2.000  -0.753  1.00  0.00    -0.062 N 
ATOM      6  H21 UNL     1       0.937   2.983  -0.502  1.00  0.00     0.278 HD
ATOM      7  H22 UNL     1       0.791   2.112  -1.735  1.00  0.00     0.278 HD
HETATM    8  C5  UNL     1       2.391   1.455  -0.528  1.00  0.00     0.297 C 
HETATM    9  S1  UNL     1       2.100  -0.297  -0.822  1.00  0.00    -0.174 SA
HETATM   10  C7  UNL     1       0.306  -0.186  -0.842  1.00  0.00     0.072 C 
HETATM   11  C8  UNL     1      -0.345  -1.228  -0.003  1.00  0.00     0.049 C 
ENDROOT
BRANCH   1  12
HETATM   12  N1  UNL     1      -2.557  -1.489   1.020  1.00  0.00    -0.075 N 
ATOM     13  H13 UNL     1      -2.428  -0.886   1.832  1.00  0.00     0.274 HD
ATOM     14  H12 UNL     1      -3.563  -1.386   0.889  1.00  0.00     0.274 HD
ATOM     15  H11 UNL     1      -2.321  -2.455   1.248  1.00  0.00     0.274 HD
ENDBRANCH   1  12
BRANCH   9  16
HETATM   16  C6  UNL     1       2.624  -1.155   0.644  1.00  0.00     0.179 C 
HETATM   17 CL1  UNL     1       2.392  -2.903   0.490  1.00  0.00    -0.120 Cl
ENDBRANCH   9  16
TORSDOF 2
