REMARK  12 active torsions:
REMARK  status: ('A' for Active; 'I' for Inactive)
REMARK    1  A    between atoms: C2_2  and  C3_4 
REMARK    2  A    between atoms: C3_4  and  C4_5 
REMARK    3  A    between atoms: C4_5  and  C5_6 
REMARK    4  A    between atoms: C5_6  and  O2_7 
REMARK    5  A    between atoms: C5_6  and  C6_9 
REMARK    6  A    between atoms: C8_11  and  C9_12 
REMARK    7  A    between atoms: C9_12  and  C10_13 
REMARK    8  A    between atoms: C11_14  and  O3_15 
REMARK    9  A    between atoms: O3_15  and  C12_16 
REMARK   10  A    between atoms: C23_29  and  O5_30 
REMARK   11  A    between atoms: O5_30  and  C24_31 
REMARK   12  A    between atoms: C32_42  and  O9_43 
ROOT
HETATM    1  C10 UNL     1       1.039   1.140  -1.207  1.00  0.00     0.091 C 
HETATM    2  C11 UNL     1       0.819   2.340  -2.120  1.00  0.00     0.148 C 
HETATM    3  C13 UNL     1      -0.646   2.380  -2.420  1.00  0.00     0.035 C 
HETATM    4  C14 UNL     1      -1.116   1.032  -2.929  1.00  0.00     0.017 C 
HETATM    5  C15 UNL     1      -1.013  -0.044  -1.824  1.00  0.00    -0.009 C 
HETATM    6  C16 UNL     1      -0.104  -1.102  -2.453  1.00  0.00     0.021 C 
HETATM    7  C17 UNL     1      -0.253   0.577  -0.727  1.00  0.00     0.016 C 
HETATM    8  C18 UNL     1      -0.219  -0.208   0.533  1.00  0.00     0.008 C 
HETATM    9  C19 UNL     1      -1.345   0.127   1.417  1.00  0.00     0.013 C 
HETATM   10  C20 UNL     1      -2.644   0.491   0.887  1.00  0.00    -0.005 C 
HETATM   11  C21 UNL     1      -2.901   2.003   0.949  1.00  0.00     0.019 C 
HETATM   12  C22 UNL     1      -3.674   0.006   1.955  1.00  0.00     0.046 C 
HETATM   13  C23 UNL     1      -4.933  -0.306   1.112  1.00  0.00     0.144 C 
HETATM   14  C26 UNL     1      -4.191  -1.160   0.119  1.00  0.00     0.026 C 
HETATM   15  C27 UNL     1      -3.733  -2.377   0.795  1.00  0.00     0.022 C 
HETATM   16  C28 UNL     1      -5.007  -1.568  -1.100  1.00  0.00     0.102 C 
HETATM   17  C29 UNL     1      -4.020  -2.447  -1.797  1.00  0.00     0.200 C 
HETATM   18  O7  UNL     1      -4.397  -3.486  -2.432  1.00  0.00    -0.289 OA
HETATM   19  C30 UNL     1      -2.608  -2.032  -1.693  1.00  0.00     0.223 C 
HETATM   20  O8  UNL     1      -1.794  -2.943  -1.787  1.00  0.00    -0.284 OA
HETATM   21  C31 UNL     1      -2.376  -0.563  -1.494  1.00  0.00     0.018 C 
HETATM   22  C32 UNL     1      -3.154  -0.127  -0.337  1.00  0.00     0.103 C 
ENDROOT
BRANCH   1  23
HETATM   23  C9  UNL     1       2.183   0.813  -0.877  1.00  0.00    -0.148 C 
BRANCH  23  24
HETATM   24  C8  UNL     1       3.498   0.448  -0.506  1.00  0.00     0.056 C 
HETATM   25  C6  UNL     1       4.036  -0.513   0.200  1.00  0.00    -0.048 C 
HETATM   26  C7  UNL     1       3.284  -1.654   0.722  1.00  0.00     0.046 C 
BRANCH  25  27
HETATM   27  C5  UNL     1       5.533  -0.446   0.293  1.00  0.00     0.147 C 
BRANCH  27  28
HETATM   28  C4  UNL     1       6.139  -0.912   1.538  1.00  0.00     0.044 C 
BRANCH  28  29
HETATM   29  C3  UNL     1       7.576  -0.401   1.636  1.00  0.00     0.080 C 
BRANCH  29  30
HETATM   30  C2  UNL     1       8.251  -0.955   2.870  1.00  0.00     0.123 C 
HETATM   31  C1  UNL     1       9.121  -2.158   2.705  1.00  0.00     0.091 C 
HETATM   32  O1  UNL     1       8.119  -0.495   3.939  1.00  0.00    -0.298 OA
ENDBRANCH  29  30
ENDBRANCH  28  29
ENDBRANCH  27  28
BRANCH  27  33
HETATM   33  O2  UNL     1       6.161  -0.912  -0.854  1.00  0.00    -0.391 OA
ATOM     34  H2  UNL     1       5.767  -0.609  -1.664  1.00  0.00     0.210 HD
ENDBRANCH  27  33
ENDBRANCH  25  27
ENDBRANCH  23  24
ENDBRANCH   1  23
BRANCH   2  35
HETATM   35  O3  UNL     1       1.236   3.539  -1.576  1.00  0.00    -0.300 OA
BRANCH  35  36
HETATM   36  C12 UNL     1       2.117   4.330  -2.353  1.00  0.00     0.373 C 
HETATM   37  N1  UNL     1       2.642   5.587  -1.949  1.00  0.00    -0.032 NA
HETATM   38  O4  UNL     1       2.459   3.873  -3.486  1.00  0.00    -0.242 OA
ENDBRANCH  35  36
ENDBRANCH   2  35
BRANCH  22  39
HETATM   39  O9  UNL     1      -4.093   0.859  -0.801  1.00  0.00    -0.383 OA
ATOM     40  H9  UNL     1      -4.424   0.458  -1.596  1.00  0.00     0.211 HD
ENDBRANCH  22  39
BRANCH  13  41
HETATM   41  O5  UNL     1      -5.805  -1.070   1.918  1.00  0.00    -0.315 OA
BRANCH  41  42
HETATM   42  C24 UNL     1      -7.102  -0.551   2.121  1.00  0.00     0.255 C 
HETATM   43  C25 UNL     1      -8.121  -1.274   2.952  1.00  0.00     0.126 C 
HETATM   44  O6  UNL     1      -7.389   0.543   1.581  1.00  0.00    -0.266 OA
ENDBRANCH  41  42
ENDBRANCH  13  41
TORSDOF 12
