REMARK  11 active torsions:
REMARK  status: ('A' for Active; 'I' for Inactive)
REMARK    1  A    between atoms: S1_2  and  C2_3 
REMARK    2  A    between atoms: C2_3  and  C3_4 
REMARK    3  A    between atoms: C3_4  and  C4_5 
REMARK    4  A    between atoms: C4_5  and  C5_6 
REMARK    5  A    between atoms: C4_5  and  S2_37 
REMARK    6  A    between atoms: C5_6  and  O2_8 
REMARK    7  A    between atoms: O2_8  and  C6_9 
REMARK    8  A    between atoms: C19_23  and  O4_24 
REMARK    9  A    between atoms: C20_26  and  O5_27 
REMARK   10  A    between atoms: C21_29  and  O6_30 
REMARK   11  A    between atoms: S2_37  and  C28_39 
ROOT
HETATM    1  C6  UNL     1       0.452   1.057   0.725  1.00  0.00     0.073 C 
HETATM    2  C7  UNL     1       0.507   2.189   1.748  1.00  0.00     0.047 C 
HETATM    3  C8  UNL     1       0.375   1.672  -0.578  1.00  0.00     0.043 C 
HETATM    4  C9  UNL     1       0.127   3.080  -0.842  1.00  0.00    -0.015 C 
HETATM    5  C10 UNL     1       0.150   3.208  -2.397  1.00  0.00     0.010 C 
HETATM    6  C11 UNL     1      -0.994   3.874  -0.407  1.00  0.00     0.008 C 
HETATM    7  C12 UNL     1      -2.392   3.490  -0.752  1.00  0.00     0.028 C 
HETATM    8  C13 UNL     1      -3.134   3.077   0.486  1.00  0.00    -0.024 C 
HETATM    9  C14 UNL     1      -3.319   1.811   0.864  1.00  0.00    -0.080 C 
HETATM   10  C15 UNL     1      -4.102   1.665   2.155  1.00  0.00     0.043 C 
HETATM   11  C16 UNL     1      -2.812   0.683   0.109  1.00  0.00     0.054 C 
HETATM   12  C17 UNL     1      -1.825  -0.211   0.728  1.00  0.00     0.137 C 
HETATM   13  O3  UNL     1      -1.784  -1.229  -0.280  1.00  0.00    -0.376 OA
HETATM   14  C18 UNL     1      -3.081  -1.607  -0.249  1.00  0.00     0.162 C 
HETATM   15  C19 UNL     1      -3.624  -2.525  -1.247  1.00  0.00     0.179 C 
HETATM   16  C20 UNL     1      -5.074  -2.772  -0.928  1.00  0.00     0.178 C 
HETATM   17  C21 UNL     1      -5.836  -1.649  -0.368  1.00  0.00     0.150 C 
HETATM   18  C22 UNL     1      -5.096  -0.475   0.188  1.00  0.00     0.047 C 
HETATM   19  C23 UNL     1      -3.810  -0.267  -0.485  1.00  0.00    -0.003 C 
HETATM   20  C24 UNL     1      -3.974  -0.056  -1.987  1.00  0.00     0.019 C 
HETATM   21  C25 UNL     1      -0.541   0.117   1.259  1.00  0.00     0.046 C 
HETATM   22  C26 UNL     1      -0.612   0.173   2.807  1.00  0.00     0.016 C 
ENDROOT
BRANCH   1  23
HETATM   23  O2  UNL     1       1.777   0.500   0.962  1.00  0.00    -0.309 OA
BRANCH  23  24
HETATM   24  C5  UNL     1       2.308  -0.548   0.311  1.00  0.00     0.272 C 
HETATM   25  O1  UNL     1       1.626  -1.090  -0.572  1.00  0.00    -0.264 OA
BRANCH  24  26
HETATM   26  C4  UNL     1       3.691  -0.996   0.692  1.00  0.00     0.138 C 
BRANCH  26  27
HETATM   27  C3  UNL     1       4.658   0.115   0.438  1.00  0.00     0.035 C 
BRANCH  27  28
HETATM   28  C2  UNL     1       4.735   0.596  -0.982  1.00  0.00     0.075 C 
BRANCH  28  29
HETATM   29  S1  UNL     1       5.947   1.974  -1.117  1.00  0.00    -0.173 SA
HETATM   30  C1  UNL     1       5.269   3.369  -0.179  1.00  0.00     0.089 C 
ENDBRANCH  28  29
ENDBRANCH  27  28
ENDBRANCH  26  27
BRANCH  26  31
HETATM   31  S2  UNL     1       4.054  -2.548   0.038  1.00  0.00    -0.206 SA
HETATM   32  C27 UNL     1       4.210  -2.659  -1.678  1.00  0.00     0.080 C 
BRANCH  31  33
HETATM   33  C28 UNL     1       5.161  -3.461   1.008  1.00  0.00     0.030 C 
HETATM   34  C29 UNL     1       5.450  -4.827   0.393  1.00  0.00     0.020 C 
HETATM   35  C30 UNL     1       6.428  -2.710   1.295  1.00  0.00     0.020 C 
ENDBRANCH  31  33
ENDBRANCH  26  31
ENDBRANCH  24  26
ENDBRANCH  23  24
ENDBRANCH   1  23
BRANCH  15  36
HETATM   36  O4  UNL     1      -2.914  -3.746  -1.171  1.00  0.00    -0.390 OA
ATOM     37  H4  UNL     1      -3.267  -4.343  -1.820  1.00  0.00     0.210 HD
ENDBRANCH  15  36
BRANCH  17  38
HETATM   38  O6  UNL     1      -6.843  -1.194  -1.260  1.00  0.00    -0.393 OA
ATOM     39  H6  UNL     1      -7.336  -0.467  -0.898  1.00  0.00     0.210 HD
ENDBRANCH  17  38
BRANCH  16  40
HETATM   40  O5  UNL     1      -5.107  -3.925  -0.107  1.00  0.00    -0.390 OA
ATOM     41  H5  UNL     1      -6.022  -4.081   0.094  1.00  0.00     0.210 HD
ENDBRANCH  16  40
TORSDOF 11
