REMARK  9 active torsions:
REMARK  status: ('A' for Active; 'I' for Inactive)
REMARK    1  A    between atoms: O1_2  and  N1_3 
REMARK       I    between atoms: N1_3  and  C2_5 
REMARK    2  A    between atoms: C2_5  and  C3_7 
REMARK    3  A    between atoms: C4_8  and  C5_9 
REMARK    4  A    between atoms: C19_26  and  O5_27 
REMARK    5  A    between atoms: O5_27  and  C20_28 
REMARK    6  A    between atoms: C20_28  and  C22_30 
REMARK    7  A    between atoms: C23_31  and  C24_32 
REMARK    8  A    between atoms: C23_31  and  C27_37 
REMARK    9  A    between atoms: C25_33  and  C26_34 
ROOT
HETATM    1  C3  UNL     1      -1.645  -0.987   0.299  1.00  0.00     0.095 C 
HETATM    2  C4  UNL     1      -2.788  -0.180  -0.355  1.00  0.00     0.033 C 
HETATM    3  C12 UNL     1      -2.387   0.813  -1.347  1.00  0.00     0.051 C 
HETATM    4  C13 UNL     1      -2.741   0.675  -2.783  1.00  0.00     0.032 C 
HETATM    5  C14 UNL     1      -2.837   2.208  -1.015  1.00  0.00     0.069 C 
HETATM    6  N2  UNL     1      -3.171   3.308  -0.742  1.00  0.00    -0.196 NA
HETATM    7  C15 UNL     1      -0.859   1.075  -1.461  1.00  0.00     0.030 C 
HETATM    8  C16 UNL     1      -0.210   0.887  -0.140  1.00  0.00     0.002 C 
HETATM    9  C17 UNL     1       1.049   1.592   0.084  1.00  0.00     0.015 C 
HETATM   10  C18 UNL     1       1.044   2.321   1.434  1.00  0.00     0.013 C 
HETATM   11  C19 UNL     1       2.308   0.768   0.031  1.00  0.00     0.126 C 
HETATM   12  C28 UNL     1       2.117  -0.661   0.384  1.00  0.00     0.033 C 
HETATM   13  C29 UNL     1       0.743  -0.970   1.005  1.00  0.00     0.013 C 
HETATM   14  C30 UNL     1      -0.253  -0.594  -0.046  1.00  0.00    -0.027 C 
HETATM   15  C31 UNL     1       0.111  -1.349  -1.300  1.00  0.00     0.016 C 
ENDROOT
BRANCH   2  16
HETATM   16  C5  UNL     1      -3.928  -1.135  -0.651  1.00  0.00    -0.003 A 
HETATM   17  C6  UNL     1      -4.049  -2.163   0.534  1.00  0.00     0.019 C 
HETATM   18  C7  UNL     1      -4.629  -1.472  -1.809  1.00  0.00     0.052 A 
HETATM   19  C8  UNL     1      -5.378  -0.644  -0.788  1.00  0.00     0.080 A 
HETATM   20  C9  UNL     1      -5.831   0.712  -0.923  1.00  0.00     0.049 C 
HETATM   21  O4  UNL     1      -6.411  -1.402  -0.156  1.00  0.00    -0.309 OA
HETATM   22  C10 UNL     1      -7.375   0.575  -0.904  1.00  0.00     0.114 C 
HETATM   23  C11 UNL     1      -7.582  -0.872  -0.607  1.00  0.00     0.259 C 
HETATM   24  O3  UNL     1      -8.715  -1.422  -0.784  1.00  0.00    -0.265 OA
ENDBRANCH   2  16
BRANCH   1  25
HETATM   25  C2  UNL     1      -1.760  -0.936   1.791  1.00  0.00     0.246 C 
HETATM   26  N1  UNL     1      -1.415  -1.987   2.663  1.00  0.00    -0.235 N 
ATOM     27  H1  UNL     1      -1.061  -2.858   2.267  1.00  0.00     0.197 HD
HETATM   28  O2  UNL     1      -2.202   0.134   2.336  1.00  0.00    -0.271 OA
BRANCH  26  29
HETATM   29  O1  UNL     1      -1.535  -1.885   3.997  1.00  0.00    -0.283 OA
HETATM   30  C1  UNL     1      -0.659  -1.046   4.622  1.00  0.00     0.237 C 
ENDBRANCH  26  29
ENDBRANCH   1  25
BRANCH  11  31
HETATM   31  O5  UNL     1       2.897   0.962  -1.206  1.00  0.00    -0.377 OA
BRANCH  31  32
HETATM   32  C20 UNL     1       4.134   1.581  -1.199  1.00  0.00     0.141 C 
HETATM   33  C21 UNL     1       4.018   2.985  -1.841  1.00  0.00     0.044 C 
BRANCH  32  34
HETATM   34  C22 UNL     1       5.187   0.844  -1.854  1.00  0.00     0.023 C 
HETATM   35  C23 UNL     1       6.081   0.059  -1.225  1.00  0.00     0.039 C 
BRANCH  35  36
HETATM   36  C24 UNL     1       6.083  -0.132   0.180  1.00  0.00     0.025 C 
HETATM   37  C25 UNL     1       6.898  -0.862   0.871  1.00  0.00     0.085 C 
BRANCH  37  38
HETATM   38  C26 UNL     1       6.722  -0.924   2.355  1.00  0.00     0.198 C 
HETATM   39  O6  UNL     1       7.471  -1.607   3.088  1.00  0.00    -0.645 OA
HETATM   40  O7  UNL     1       5.707  -0.219   2.990  1.00  0.00    -0.645 OA
ENDBRANCH  37  38
ENDBRANCH  35  36
BRANCH  35  41
HETATM   41  C27 UNL     1       7.045  -0.581  -2.100  1.00  0.00     0.209 C 
HETATM   42  O8  UNL     1       7.931  -1.331  -1.688  1.00  0.00    -0.644 OA
HETATM   43  O9  UNL     1       6.973  -0.337  -3.496  1.00  0.00    -0.644 OA
ENDBRANCH  35  41
ENDBRANCH  32  34
ENDBRANCH  31  32
ENDBRANCH  11  31
TORSDOF 9
