REMARK  1 active torsions:
REMARK  status: ('A' for Active; 'I' for Inactive)
REMARK       I    between atoms: C2_2  and  N1_4 
REMARK    1  A    between atoms: N1_4  and  C3_5 
ROOT
HETATM    1  C3  UNL     1      -0.980   0.740  -1.573  1.00  0.00     0.285 C 
HETATM    2  C4  UNL     1      -0.374   1.645  -0.506  1.00  0.00     0.203 C 
HETATM    3  O2  UNL     1      -0.797   2.816  -0.345  1.00  0.00    -0.289 OA
HETATM    4  C5  UNL     1       0.696   1.098   0.303  1.00  0.00     0.072 A 
HETATM    5  C6  UNL     1       1.109   1.760   1.450  1.00  0.00     0.074 A 
HETATM    6 CL1  UNL     1       0.342   3.262   1.930  1.00  0.00    -0.081 Cl
HETATM    7  C7  UNL     1       2.127   1.250   2.229  1.00  0.00     0.080 A 
HETATM    8 CL2  UNL     1       2.639   2.093   3.674  1.00  0.00    -0.081 Cl
HETATM    9  C8  UNL     1       2.756   0.061   1.876  1.00  0.00     0.082 A 
HETATM   10 CL3  UNL     1       4.038  -0.535   2.902  1.00  0.00    -0.081 Cl
HETATM   11  C9  UNL     1       2.324  -0.563   0.743  1.00  0.00     0.091 A 
HETATM   12 CL4  UNL     1       3.103  -2.064   0.277  1.00  0.00    -0.079 Cl
HETATM   13  C10 UNL     1       1.319  -0.078  -0.044  1.00  0.00     0.110 A 
HETATM   14  O3  UNL     1       0.856  -0.695  -1.209  1.00  0.00    -0.324 OA
HETATM   15  C11 UNL     1       0.244   0.102  -2.233  1.00  0.00     0.268 C 
HETATM   16 CL5  UNL     1      -0.167  -0.931  -3.590  1.00  0.00    -0.091 Cl
ENDROOT
BRANCH   1  17
HETATM   17  N1  UNL     1      -1.788  -0.238  -1.012  1.00  0.00    -0.398 NA
HETATM   18  C2  UNL     1      -2.576  -1.192  -0.465  1.00  0.00     0.283 C 
HETATM   19  C1  UNL     1      -2.000  -2.234   0.520  1.00  0.00     0.134 C 
HETATM   20  O1  UNL     1      -3.829  -1.427  -0.618  1.00  0.00    -0.258 OA
ENDBRANCH   1  17
TORSDOF 1
