REMARK  4 active torsions:
REMARK  status: ('A' for Active; 'I' for Inactive)
REMARK    1  A    between atoms: C4_7  and  O2_8 
REMARK    2  A    between atoms: C4_7  and  N2_10 
REMARK    3  A    between atoms: N2_10  and  C6_12 
REMARK    4  A    between atoms: C9_16  and  N3_17 
ROOT
HETATM    1  C1  UNL     1       4.801   0.192  -0.181  1.00  0.00     0.073 C 
HETATM    2  C2  UNL     1       3.426   0.749  -0.121  1.00  0.00     0.065 A 
HETATM    3  N1  UNL     1       3.073   1.996  -0.014  1.00  0.00    -0.263 N 
ATOM      4  H1  UNL     1       3.732   2.772   0.046  1.00  0.00     0.194 HD
HETATM    5  O1  UNL     1       1.823   2.132   0.007  1.00  0.00    -0.231 OA
HETATM    6  C3  UNL     1       1.205   0.921  -0.091  1.00  0.00     0.184 A 
HETATM    7  C4  UNL     1      -0.225   0.913  -0.082  1.00  0.00     0.178 C 
HETATM    8  C9  UNL     1       2.212   0.012  -0.173  1.00  0.00     0.167 A 
ENDROOT
BRANCH   7   9
HETATM    9  O2  UNL     1      -0.727   2.137   0.169  1.00  0.00    -0.344 OA
ATOM     10  H2  UNL     1      -1.677   2.132   0.175  1.00  0.00     0.219 HD
ENDBRANCH   7   9
BRANCH   7  11
HETATM   11  N2  UNL     1      -1.235  -0.026  -0.266  1.00  0.00    -0.342 N 
HETATM   12  C5  UNL     1      -1.060  -1.390  -0.589  1.00  0.00     0.154 C 
BRANCH  11  13
HETATM   13  C6  UNL     1      -2.649   0.415  -0.110  1.00  0.00     0.104 C 
HETATM   14  C7  UNL     1      -3.624  -0.691  -0.310  1.00  0.00     0.056 C 
HETATM   15  C8  UNL     1      -2.851   1.000   1.262  1.00  0.00     0.056 C 
HETATM   16 CL1  UNL     1      -2.865   1.692  -1.337  1.00  0.00    -0.096 Cl
ENDBRANCH  11  13
ENDBRANCH   7  11
BRANCH   8  17
HETATM   17  N3  UNL     1       2.228  -1.387  -0.229  1.00  0.00    -0.110 N 
HETATM   18  O3  UNL     1       2.405  -2.057  -1.268  1.00  0.00    -0.532 OA
HETATM   19  O4  UNL     1       2.063  -2.097   0.962  1.00  0.00    -0.532 OA
ENDBRANCH   8  17
TORSDOF 4
