REMARK  3 active torsions:
REMARK  status: ('A' for Active; 'I' for Inactive)
REMARK    1  A    between atoms: O1_2  and  C2_3 
REMARK    2  A    between atoms: C2_3  and  C3_5 
REMARK    3  A    between atoms: C8_12  and  S1_13 
ROOT
HETATM    1  C3  UNL     1      -1.206  -0.525   0.256  1.00  0.00     0.133 C 
HETATM    2  C4  UNL     1      -1.379  -2.001   0.194  1.00  0.00     0.019 C 
HETATM    3  C5  UNL     1      -0.784  -2.627  -1.032  1.00  0.00     0.007 C 
HETATM    4  C6  UNL     1       0.702  -2.513  -0.977  1.00  0.00     0.056 C 
HETATM    5  C7  UNL     1       1.028  -1.126  -0.440  1.00  0.00     0.031 A 
HETATM    6  N1  UNL     1       2.176  -0.934   0.101  1.00  0.00    -0.341 N 
ATOM      7  H1  UNL     1       2.820  -1.723   0.150  1.00  0.00     0.167 HD
HETATM    8  C8  UNL     1       2.603   0.308   0.634  1.00  0.00     0.140 A 
HETATM    9  N2  UNL     1       1.788   1.266   0.556  1.00  0.00    -0.367 N 
ATOM     10  H2  UNL     1       2.096   2.158   0.942  1.00  0.00     0.161 HD
HETATM   11  C10 UNL     1       0.484   1.237  -0.013  1.00  0.00     0.172 A 
HETATM   12  C11 UNL     1       0.033  -0.068  -0.532  1.00  0.00     0.170 A 
HETATM   13  F1  UNL     1      -0.347   0.142  -1.866  1.00  0.00    -0.234 F 
ENDROOT
BRANCH   1  14
HETATM   14  C2  UNL     1      -2.424   0.141  -0.268  1.00  0.00     0.266 C 
HETATM   15  O2  UNL     1      -3.411  -0.529  -0.682  1.00  0.00    -0.265 OA
BRANCH  14  16
HETATM   16  O1  UNL     1      -2.551   1.524  -0.333  1.00  0.00    -0.326 OA
HETATM   17  C1  UNL     1      -3.709   2.165  -0.831  1.00  0.00     0.213 C 
ENDBRANCH  14  16
ENDBRANCH   1  14
BRANCH   8  18
HETATM   18  S1  UNL     1       4.226   0.394   1.353  1.00  0.00    -0.099 SA
HETATM   19  C9  UNL     1       4.626   2.020   1.984  1.00  0.00     0.099 C 
ENDBRANCH   8  18
TORSDOF 3
