REMARK  4 active torsions:
REMARK  status: ('A' for Active; 'I' for Inactive)
REMARK    1  A    between atoms: C2_2  and  C4_5 
REMARK    2  A    between atoms: C5_6  and  C6_7 
REMARK    3  A    between atoms: C7_10  and  C8_11 
REMARK    4  A    between atoms: C8_11  and  N2_12 
ROOT
HETATM    1  C6  UNL     1       1.533  -0.051  -0.112  1.00  0.00     0.226 A 
HETATM    2  N1  UNL     1       0.795  -0.129   1.007  1.00  0.00    -0.315 N 
ATOM      3  H1  UNL     1       1.148  -0.120   1.964  1.00  0.00     0.170 HD
HETATM    4  C7  UNL     1      -0.485  -0.221   0.640  1.00  0.00     0.122 A 
HETATM    5  N3  UNL     1      -0.504  -0.198  -0.699  1.00  0.00    -0.244 N 
ATOM      6  H3  UNL     1      -1.339  -0.252  -1.282  1.00  0.00     0.196 HD
HETATM    7  O1  UNL     1       0.712  -0.096  -1.133  1.00  0.00    -0.209 OA
ENDROOT
BRANCH   4   8
HETATM    8  C8  UNL     1      -1.696  -0.342   1.527  1.00  0.00     0.195 C 
BRANCH   8   9
HETATM    9  N2  UNL     1      -2.861  -0.004   0.806  1.00  0.00    -0.406 N 
HETATM   10  C9  UNL     1      -2.991   1.308   0.300  1.00  0.00     0.117 C 
HETATM   11  C10 UNL     1      -3.806   1.242  -0.984  1.00  0.00     0.019 C 
HETATM   12  C11 UNL     1      -5.138   0.591  -0.665  1.00  0.00     0.003 C 
HETATM   13  C12 UNL     1      -4.854  -0.823  -0.217  1.00  0.00     0.019 C 
HETATM   14  C13 UNL     1      -4.052  -0.719   1.086  1.00  0.00     0.117 C 
ENDBRANCH   8   9
ENDBRANCH   4   8
BRANCH   1  15
HETATM   15  C5  UNL     1       2.978   0.060  -0.147  1.00  0.00    -0.017 C 
HETATM   16  C4  UNL     1       4.184   0.134  -0.181  1.00  0.00    -0.054 C 
BRANCH  16  17
HETATM   17  C2  UNL     1       5.654   0.203  -0.235  1.00  0.00     0.159 C 
HETATM   18  C1  UNL     1       6.155  -0.124  -1.637  1.00  0.00     0.066 C 
HETATM   19  C3  UNL     1       6.242  -0.837   0.690  1.00  0.00     0.066 C 
HETATM   20  F1  UNL     1       6.048   1.472   0.060  1.00  0.00    -0.230 F 
ENDBRANCH  16  17
ENDBRANCH   1  15
TORSDOF 4
