REMARK  4 active torsions:
REMARK  status: ('A' for Active; 'I' for Inactive)
REMARK    1  A    between atoms: C2_2  and  O1_3 
REMARK    2  A    between atoms: O1_3  and  C3_4 
REMARK    3  A    between atoms: C3_4  and  C4_6 
REMARK       I    between atoms: N1_11  and  C8_12 
REMARK    4  A    between atoms: C8_12  and  O3_14 
ROOT
HETATM    1  C4  UNL     1      -0.165  -0.972   0.463  1.00  0.00     0.167 C 
HETATM    2  C5  UNL     1      -0.529  -2.092  -0.529  1.00  0.00     0.107 C 
HETATM    3  S2  UNL     1       0.659  -3.444  -0.152  1.00  0.00    -0.165 SA
HETATM    4  C6  UNL     1       2.281  -2.580  -0.085  1.00  0.00     0.094 C 
HETATM    5  C7  UNL     1       2.065  -1.192  -0.659  1.00  0.00     0.139 C 
HETATM    6  N1  UNL     1       1.110  -0.409   0.089  1.00  0.00    -0.315 N 
HETATM    7  C8  UNL     1       1.466   0.915   0.439  1.00  0.00     0.363 C 
HETATM    8  O2  UNL     1       0.647   1.604   1.090  1.00  0.00    -0.238 OA
ENDROOT
BRANCH   1   9
HETATM    9  C3  UNL     1      -1.252  -0.013   0.613  1.00  0.00     0.136 C 
HETATM   10  S1  UNL     1      -1.969   0.192   2.057  1.00  0.00    -0.055 SA
BRANCH   9  11
HETATM   11  O1  UNL     1      -1.693   0.738  -0.462  1.00  0.00    -0.342 OA
BRANCH  11  12
HETATM   12  C2  UNL     1      -2.928   1.386  -0.425  1.00  0.00     0.172 C 
HETATM   13  C1  UNL     1      -4.099   0.458  -0.236  1.00  0.00     0.034 C 
ENDBRANCH  11  12
ENDBRANCH   9  11
ENDBRANCH   1   9
BRANCH   7  14
HETATM   14  O3  UNL     1       2.667   1.502   0.108  1.00  0.00    -0.309 OA
HETATM   15  C9  UNL     1       2.965   2.852   0.496  1.00  0.00     0.215 C 
ENDBRANCH   7  14
TORSDOF 4
