REMARK  3 active torsions:
REMARK  status: ('A' for Active; 'I' for Inactive)
REMARK    1  A    between atoms: O1_2  and  C2_3 
REMARK    2  A    between atoms: C2_3  and  C3_5 
REMARK    3  A    between atoms: C6_10  and  N1_11 
ROOT
HETATM    1  C3  UNL     1       0.417   0.430   0.532  1.00  0.00     0.114 A 
HETATM    2  S1  UNL     1       1.502   1.250   1.621  1.00  0.00    -0.074 SA
HETATM    3  C4  UNL     1       2.972   0.613   1.080  1.00  0.00     0.054 A 
HETATM    4 BR1  UNL     1       4.756   0.966   1.726  1.00  0.00    -0.043 Br
HETATM    5  C5  UNL     1       2.598  -0.214   0.075  1.00  0.00     0.064 A 
HETATM    6  C6  UNL     1       1.275  -0.313  -0.215  1.00  0.00     0.127 A 
ENDROOT
BRANCH   1   7
HETATM    7  C2  UNL     1      -1.050   0.578   0.531  1.00  0.00     0.302 C 
HETATM    8  O2  UNL     1      -1.534   1.396   1.397  1.00  0.00    -0.259 OA
BRANCH   7   9
HETATM    9  O1  UNL     1      -1.948  -0.038  -0.260  1.00  0.00    -0.322 OA
HETATM   10  C1  UNL     1      -3.341   0.107  -0.251  1.00  0.00     0.213 C 
ENDBRANCH   7   9
ENDBRANCH   1   7
BRANCH   6  11
HETATM   11  N1  UNL     1       0.819  -1.200  -1.287  1.00  0.00    -0.114 N 
HETATM   12  O3  UNL     1      -0.112  -0.914  -1.993  1.00  0.00    -0.532 OA
HETATM   13  O4  UNL     1       1.494  -2.377  -1.527  1.00  0.00    -0.532 OA
ENDBRANCH   6  11
TORSDOF 3
