REMARK  6 active torsions:
REMARK  status: ('A' for Active; 'I' for Inactive)
REMARK    1  A    between atoms: N1_2  and  C2_4 
REMARK    2  A    between atoms: C2_4  and  C3_5 
REMARK    3  A    between atoms: C3_5  and  S1_7 
REMARK    4  A    between atoms: S1_7  and  C4_10 
REMARK    5  A    between atoms: C7_13  and  O3_14 
REMARK    6  A    between atoms: O3_14  and  C8_15 
ROOT
HETATM    1  C4  UNL     1       0.667  -0.568   0.997  1.00  0.00     0.115 C 
HETATM    2  C5  UNL     1      -0.242   0.341   1.757  1.00  0.00     0.023 C 
HETATM    3  C6  UNL     1      -1.261   0.915   0.786  1.00  0.00     0.034 C 
HETATM    4  C7  UNL     1      -2.035  -0.280   0.229  1.00  0.00     0.132 C 
HETATM    5  C10 UNL     1      -1.116  -0.998  -0.713  1.00  0.00     0.034 C 
HETATM    6  C11 UNL     1       0.338  -0.677  -0.465  1.00  0.00     0.023 C 
ENDROOT
BRANCH   1   7
HETATM    7  S1  UNL     1       2.328   0.104   1.106  1.00  0.00     0.199 S 
HETATM    8  O1  UNL     1       2.745   0.154   2.570  1.00  0.00    -0.221 OA
HETATM    9  O2  UNL     1       2.285   1.543   0.648  1.00  0.00    -0.221 OA
BRANCH   7  10
HETATM   10  C3  UNL     1       3.466  -0.839   0.217  1.00  0.00     0.190 C 
HETATM   11 CL1  UNL     1       4.305  -2.149   0.965  1.00  0.00    -0.061 Cl
BRANCH  10  12
HETATM   12  C2  UNL     1       3.704  -0.556  -1.028  1.00  0.00    -0.010 C 
BRANCH  12  13
HETATM   13  N1  UNL     1       4.187  -0.066  -2.130  1.00  0.00    -0.359 N 
HETATM   14  C1  UNL     1       5.286   0.893  -1.951  1.00  0.00     0.156 C 
ATOM     15  H1  UNL     1       3.831  -0.327  -3.049  1.00  0.00     0.168 HD
ENDBRANCH  12  13
ENDBRANCH  10  12
ENDBRANCH   7  10
ENDBRANCH   1   7
BRANCH   4  16
HETATM   16  O3  UNL     1      -3.202   0.201  -0.370  1.00  0.00    -0.316 OA
BRANCH  16  17
HETATM   17  C8  UNL     1      -4.463  -0.118   0.117  1.00  0.00     0.255 C 
HETATM   18  C9  UNL     1      -5.638   0.445  -0.593  1.00  0.00     0.126 C 
HETATM   19  O4  UNL     1      -4.546  -0.855   1.117  1.00  0.00    -0.266 OA
ENDBRANCH  16  17
ENDBRANCH   4  16
TORSDOF 6
