REMARK  4 active torsions:
REMARK  status: ('A' for Active; 'I' for Inactive)
REMARK    1  A    between atoms: C4_5  and  C5_6 
REMARK    2  A    between atoms: C5_6  and  C6_7 
REMARK    3  A    between atoms: C7_8  and  N1_9 
REMARK    4  A    between atoms: S1_15  and  C11_17 
ROOT
HETATM    1  C1  UNL     1      -4.528   0.748  -0.437  1.00  0.00     0.080 C 
HETATM    2  C2  UNL     1      -3.176   0.765   0.140  1.00  0.00     0.174 C 
HETATM    3  C3  UNL     1      -2.988   2.008   0.989  1.00  0.00     0.080 C 
HETATM    4  O1  UNL     1      -2.133   0.807  -0.819  1.00  0.00    -0.324 OA
HETATM    5  C4  UNL     1      -1.045   0.099  -0.449  1.00  0.00     0.313 C 
HETATM    6  S1  UNL     1      -2.037  -1.323   0.090  1.00  0.00     0.185 S 
HETATM    7  O2  UNL     1      -2.713  -2.006  -0.995  1.00  0.00    -0.230 OA
HETATM    8  O3  UNL     1      -3.049  -0.338   0.984  1.00  0.00    -0.258 OA
ENDROOT
BRANCH   5   9
HETATM    9  C5  UNL     1       0.222   0.128  -0.387  1.00  0.00    -0.108 C 
BRANCH   9  10
HETATM   10  C6  UNL     1       1.562   0.159  -0.321  1.00  0.00     0.072 C 
HETATM   11  C7  UNL     1       2.409  -0.788   0.128  1.00  0.00     0.105 C 
BRANCH  11  12
HETATM   12  N1  UNL     1       3.814  -0.581   0.134  1.00  0.00    -0.327 N 
HETATM   13  C8  UNL     1       4.427   0.544  -0.267  1.00  0.00     0.114 A 
HETATM   14  C9  UNL     1       5.795   0.378  -0.129  1.00  0.00     0.106 A 
HETATM   15  N2  UNL     1       5.990  -0.849   0.367  1.00  0.00    -0.360 N 
HETATM   16  C10 UNL     1       4.811  -1.401   0.516  1.00  0.00     0.187 A 
ATOM     17  H2  UNL     1       6.890  -1.276   0.588  1.00  0.00     0.166 HD
ENDBRANCH  11  12
ENDBRANCH   9  10
ENDBRANCH   5   9
BRANCH   6  18
HETATM   18  C11 UNL     1      -1.261  -2.411   0.829  1.00  0.00     0.349 C 
HETATM   19  F1  UNL     1      -1.584  -2.584   2.089  1.00  0.00    -0.161 F 
HETATM   20  F2  UNL     1      -0.362  -3.173   0.241  1.00  0.00    -0.161 F 
ENDBRANCH   6  18
TORSDOF 4
