REMARK  4 active torsions:
REMARK  status: ('A' for Active; 'I' for Inactive)
REMARK    1  A    between atoms: C2_2  and  O1_5 
REMARK    2  A    between atoms: O1_5  and  C5_6 
REMARK    3  A    between atoms: C5_6  and  C6_8 
REMARK    4  A    between atoms: C9_13  and  N1_14 
ROOT
HETATM    1  C6  UNL     1       0.022   1.365  -0.148  1.00  0.00     0.109 A 
HETATM    2  S1  UNL     1       0.420   3.036  -0.244  1.00  0.00    -0.052 SA
HETATM    3  C7  UNL     1      -1.143   3.698  -0.153  1.00  0.00     0.160 A 
HETATM    4  F1  UNL     1      -1.542   5.023  -0.175  1.00  0.00    -0.198 F 
HETATM    5  C8  UNL     1      -1.942   2.596  -0.049  1.00  0.00     0.081 A 
HETATM    6  C9  UNL     1      -1.338   1.378  -0.046  1.00  0.00     0.057 A 
ENDROOT
BRANCH   1   7
HETATM    7  C5  UNL     1       0.967   0.221  -0.181  1.00  0.00     0.303 C 
HETATM    8  O2  UNL     1       0.664  -0.960  -0.119  1.00  0.00    -0.259 OA
BRANCH   7   9
HETATM    9  O1  UNL     1       2.312   0.540  -0.292  1.00  0.00    -0.307 OA
BRANCH   9  10
HETATM   10  C2  UNL     1       3.349  -0.385  -0.339  1.00  0.00     0.060 C 
HETATM   11  C1  UNL     1       3.272  -1.347  -1.489  1.00  0.00     0.046 C 
HETATM   12  C3  UNL     1       3.446  -1.153   0.956  1.00  0.00     0.046 C 
HETATM   13  C4  UNL     1       4.651   0.407  -0.505  1.00  0.00     0.046 C 
ENDBRANCH   9  10
ENDBRANCH   7   9
ENDBRANCH   1   7
BRANCH   6  14
HETATM   14  N1  UNL     1      -2.150   0.177   0.079  1.00  0.00    -0.375 N 
HETATM   15  C10 UNL     1      -2.120  -0.711   1.200  1.00  0.00     0.149 C 
HETATM   16  C11 UNL     1      -3.512  -0.846   1.821  1.00  0.00     0.187 C 
HETATM   17  O3  UNL     1      -4.494  -0.588   0.867  1.00  0.00    -0.388 OA
HETATM   18  C12 UNL     1      -4.189  -1.044  -0.396  1.00  0.00     0.187 C 
HETATM   19  C13 UNL     1      -3.093  -0.181  -0.982  1.00  0.00     0.149 C 
ENDBRANCH   6  14
TORSDOF 4
