REMARK  5 active torsions:
REMARK  status: ('A' for Active; 'I' for Inactive)
REMARK    1  A    between atoms: C1_2  and  N1_3 
REMARK    2  A    between atoms: C2_5  and  C3_6 
REMARK    3  A    between atoms: C3_6  and  C4_9 
REMARK    4  A    between atoms: C4_9  and  C5_12 
REMARK    5  A    between atoms: C12_20  and  C13_21 
ROOT
HETATM    1  C3  UNL     1       0.961   0.111  -0.039  1.00  0.00     0.329 C 
HETATM    2  F1  UNL     1       1.035   1.457   0.214  1.00  0.00    -0.198 F 
HETATM    3  F2  UNL     1       0.724  -0.040  -1.433  1.00  0.00    -0.198 F 
ENDROOT
BRANCH   1   4
HETATM    4  C2  UNL     1       2.337  -0.482   0.152  1.00  0.00     0.213 C 
HETATM    5  N2  UNL     1       2.934  -0.331   1.459  1.00  0.00    -0.122 NA
HETATM    6  N1  UNL     1       4.137   0.239   0.967  1.00  0.00    -0.254 N 
HETATM    7  C12 UNL     1       3.400   0.543  -0.235  1.00  0.00     0.234 C 
BRANCH   6   8
HETATM    8  C1  UNL     1       5.421   0.385   1.506  1.00  0.00     0.368 C 
HETATM    9  O1  UNL     1       6.365   0.943   0.868  1.00  0.00    -0.282 OA
ENDBRANCH   6   8
BRANCH   7  10
HETATM   10  C13 UNL     1       4.083   0.190  -1.508  1.00  0.00     0.200 C 
HETATM   11  O2  UNL     1       3.492   0.432  -2.576  1.00  0.00    -0.646 OA
HETATM   12  O3  UNL     1       5.325  -0.384  -1.478  1.00  0.00    -0.646 OA
ENDBRANCH   7  10
ENDBRANCH   1   4
BRANCH   1  13
HETATM   13  C4  UNL     1      -0.125  -0.574   0.700  1.00  0.00     0.315 C 
HETATM   14  F3  UNL     1      -0.211  -1.886   0.270  1.00  0.00    -0.199 F 
HETATM   15  F4  UNL     1       0.276  -0.696   2.052  1.00  0.00    -0.199 F 
BRANCH  13  16
HETATM   16  C5  UNL     1      -1.402   0.171   0.728  1.00  0.00     0.097 C 
HETATM   17  C6  UNL     1      -2.491  -0.550   1.497  1.00  0.00     0.283 C 
HETATM   18  N3  UNL     1      -3.680  -0.709   0.720  1.00  0.00     0.089 N 
HETATM   19  C7  UNL     1      -4.256   0.581   0.322  1.00  0.00     0.272 C 
HETATM   20  C11 UNL     1      -3.450  -1.432  -0.517  1.00  0.00     0.272 C 
HETATM   21  C8  UNL     1      -3.183   1.511  -0.196  1.00  0.00     0.035 C 
HETATM   22  C9  UNL     1      -1.988   0.599  -0.569  1.00  0.00     0.001 C 
HETATM   23  C10 UNL     1      -2.606  -0.507  -1.381  1.00  0.00     0.035 C 
ENDBRANCH  13  16
ENDBRANCH   1  13
TORSDOF 5
