REMARK  5 active torsions:
REMARK  status: ('A' for Active; 'I' for Inactive)
REMARK    1  A    between atoms: N1_2  and  C2_4 
REMARK    2  A    between atoms: N3_8  and  C4_9 
REMARK    3  A    between atoms: C5_11  and  C6_12 
REMARK    4  A    between atoms: C6_12  and  N4_13 
REMARK       I    between atoms: N4_13  and  C7_15 
REMARK    5  A    between atoms: C7_15  and  C8_17 
ROOT
HETATM    1  C4  UNL     1      -0.852  -0.469   0.664  1.00  0.00     0.279 C 
HETATM    2  O1  UNL     1       0.281   0.355   0.546  1.00  0.00    -0.355 OA
HETATM    3  C5  UNL     1       1.220  -0.381   1.233  1.00  0.00     0.144 C 
HETATM    4  C9  UNL     1       1.130  -1.733   0.557  1.00  0.00     0.075 C 
HETATM    5  C10 UNL     1      -0.367  -1.878   0.371  1.00  0.00     0.223 C 
HETATM    6  F3  UNL     1      -0.705  -2.295  -0.891  1.00  0.00    -0.245 F 
ENDROOT
BRANCH   1   7
HETATM    7  N3  UNL     1      -1.909  -0.063  -0.217  1.00  0.00    -0.241 N 
HETATM    8  C3  UNL     1      -1.849   0.042  -1.551  1.00  0.00     0.221 A 
HETATM    9  N2  UNL     1      -3.040   0.452  -2.019  1.00  0.00    -0.185 N 
HETATM   10  C2  UNL     1      -3.841   0.601  -0.967  1.00  0.00     0.693 A 
ATOM     11  H2  UNL     1      -3.284   0.618  -2.995  1.00  0.00     0.185 HD
HETATM   12  N5  UNL     1      -3.140   0.285   0.119  1.00  0.00    -0.127 N 
ATOM     13  H5  UNL     1      -3.500   0.308   1.073  1.00  0.00     0.206 HD
BRANCH  10  14
HETATM   14  N1  UNL     1      -5.067   0.985  -1.050  1.00  0.00    -0.229 N 
HETATM   15  C1  UNL     1      -5.867   1.119   0.156  1.00  0.00     0.165 C 
ATOM     16  H1  UNL     1      -5.476   1.195  -1.960  1.00  0.00     0.177 HD
ENDBRANCH  10  14
ENDBRANCH   1   7
BRANCH   3  17
HETATM   17  C6  UNL     1       2.601   0.195   1.180  1.00  0.00     0.155 C 
BRANCH  17  18
HETATM   18  N4  UNL     1       3.134   0.315  -0.137  1.00  0.00    -0.352 N 
HETATM   19  C7  UNL     1       4.435   0.848  -0.322  1.00  0.00     0.306 C 
HETATM   20  O2  UNL     1       5.118   1.213   0.667  1.00  0.00    -0.265 OA
ATOM     21  H4  UNL     1       2.582   0.019  -0.942  1.00  0.00     0.162 HD
BRANCH  19  22
HETATM   22  C8  UNL     1       5.047   0.998  -1.673  1.00  0.00     0.400 C 
HETATM   23  F1  UNL     1       4.263   1.837  -2.462  1.00  0.00    -0.177 F 
HETATM   24  F2  UNL     1       6.286   1.600  -1.590  1.00  0.00    -0.177 F 
HETATM   25 CL1  UNL     1       5.228  -0.594  -2.458  1.00  0.00    -0.038 Cl
ENDBRANCH  19  22
ENDBRANCH  17  18
ENDBRANCH   3  17
TORSDOF 5
