REMARK  4 active torsions:
REMARK  status: ('A' for Active; 'I' for Inactive)
REMARK    1  A    between atoms: N2_4  and  C3_5 
REMARK    2  A    between atoms: C3_5  and  C4_6 
REMARK       I    between atoms: N5_19  and  C11_20 
REMARK    3  A    between atoms: C11_20  and  C12_22 
REMARK    4  A    between atoms: C12_22  and  C13_25 
ROOT
HETATM    1  N1  UNL     1       1.601   3.280   0.278  1.00  0.00    -0.193 NA
HETATM    2  C1  UNL     1       1.546   2.138   0.499  1.00  0.00     0.117 C 
HETATM    3  C2  UNL     1       1.506   0.683   0.778  1.00  0.00     0.434 C 
HETATM    4  N2  UNL     1       0.320   0.194   0.065  1.00  0.00     0.129 N 
HETATM    5  C9  UNL     1       0.753  -0.987  -0.634  1.00  0.00     0.296 C 
HETATM    6  C10 UNL     1       2.252  -1.027  -0.623  1.00  0.00     0.159 C 
HETATM    7  N5  UNL     1       2.655   0.107   0.160  1.00  0.00    -0.303 N 
HETATM    8  C11 UNL     1       3.993   0.561   0.290  1.00  0.00     0.300 C 
HETATM    9  O1  UNL     1       4.234   1.577   0.994  1.00  0.00    -0.266 OA
ENDROOT
BRANCH   4  10
HETATM   10  C3  UNL     1      -0.735  -0.029   1.009  1.00  0.00     0.309 C 
BRANCH  10  11
HETATM   11  C4  UNL     1      -2.086  -0.078   0.405  1.00  0.00     0.215 C 
HETATM   12  C5  UNL     1      -2.418  -1.105  -0.604  1.00  0.00     0.062 C 
HETATM   13  C6  UNL     1      -3.622  -0.546  -1.425  1.00  0.00     0.234 C 
HETATM   14  N3  UNL     1      -4.750  -0.562  -0.563  1.00  0.00    -0.073 N 
HETATM   15  C7  UNL     1      -4.958   0.687   0.139  1.00  0.00     0.259 C 
ATOM     16  H32 UNL     1      -5.590  -0.834  -1.073  1.00  0.00     0.277 HD
ATOM     17  H31 UNL     1      -4.691  -1.340   0.094  1.00  0.00     0.277 HD
HETATM   18  C8  UNL     1      -4.066   0.812   1.348  1.00  0.00     0.260 C 
HETATM   19  N4  UNL     1      -3.102  -0.218   1.470  1.00  0.00    -0.068 N 
ATOM     20  H42 UNL     1      -3.528  -1.145   1.475  1.00  0.00     0.277 HD
ATOM     21  H41 UNL     1      -2.683  -0.244   2.400  1.00  0.00     0.277 HD
ENDBRANCH  10  11
ENDBRANCH   4  10
BRANCH   8  22
HETATM   22  C12 UNL     1       5.097  -0.129  -0.378  1.00  0.00     0.379 C 
HETATM   23  F1  UNL     1       5.110  -1.460   0.044  1.00  0.00    -0.189 F 
HETATM   24  F2  UNL     1       4.907  -0.064  -1.744  1.00  0.00    -0.189 F 
BRANCH  22  25
HETATM   25  C13 UNL     1       6.446   0.483  -0.030  1.00  0.00     0.434 C 
HETATM   26  F3  UNL     1       6.473   1.812  -0.423  1.00  0.00    -0.207 F 
HETATM   27  F4  UNL     1       6.601   0.454   1.343  1.00  0.00    -0.207 F 
ENDBRANCH  22  25
ENDBRANCH   8  22
TORSDOF 4
