REMARK  2 active torsions:
REMARK  status: ('A' for Active; 'I' for Inactive)
REMARK    1  A    between atoms: C5_5  and  N1_6 
REMARK    2  A    between atoms: N1_6  and  C6_9 
ROOT
HETATM    1  N1  UNL     1       1.102   0.741   0.662  1.00  0.00    -0.054 N 
ATOM      2  H11 UNL     1       0.660   0.811   1.579  1.00  0.00     0.279 HD
ATOM      3  H12 UNL     1       1.351   1.726   0.569  1.00  0.00     0.279 HD
ENDROOT
BRANCH   1   4
HETATM    4  C5  UNL     1       0.188   0.261  -0.398  1.00  0.00     0.255 C 
HETATM    5  C4  UNL     1      -0.236  -1.185   0.038  1.00  0.00     0.071 C 
HETATM    6  C3  UNL     1      -1.726  -1.417  -0.144  1.00  0.00    -0.028 C 
HETATM    7  C2  UNL     1      -2.737  -0.585   0.439  1.00  0.00    -0.030 C 
HETATM    8  C1  UNL     1      -3.331   0.624  -0.292  1.00  0.00     0.038 C 
HETATM    9  C10 UNL     1      -2.223   1.670  -0.662  1.00  0.00     0.086 C 
HETATM   10  C9  UNL     1      -0.997   0.999  -0.539  1.00  0.00    -0.150 C 
ENDBRANCH   1   4
BRANCH   1  11
HETATM   11  C6  UNL     1       2.224  -0.130   0.640  1.00  0.00     0.238 C 
HETATM   12  C7  UNL     1       3.027  -0.111  -0.659  1.00  0.00     0.267 C 
HETATM   13  N2  UNL     1       4.210  -0.341   0.162  1.00  0.00    -0.071 N 
HETATM   14  C8  UNL     1       3.519   0.405   1.213  1.00  0.00     0.267 C 
ATOM     15  H22 UNL     1       4.571  -1.281   0.325  1.00  0.00     0.277 HD
ATOM     16  H21 UNL     1       5.141  -0.073  -0.158  1.00  0.00     0.277 HD
ENDBRANCH   1  11
TORSDOF 2
