REMARK  2 active torsions:
REMARK  status: ('A' for Active; 'I' for Inactive)
REMARK    1  A    between atoms: C2_2  and  N1_3 
REMARK       I    between atoms: N1_3  and  C3_5 
REMARK       I    between atoms: C3_5  and  N2_7 
REMARK    2  A    between atoms: N2_7  and  C4_9 
ROOT
HETATM    1  N1  UNL     1       2.831  -0.688  -0.824  1.00  0.00    -0.343 N 
ATOM      2  H1  UNL     1       2.750  -0.857  -1.827  1.00  0.00     0.164 HD
HETATM    3  C3  UNL     1       1.680  -0.428  -0.045  1.00  0.00     0.316 C 
HETATM    4  O1  UNL     1       1.760  -0.217   1.195  1.00  0.00    -0.247 OA
HETATM    5  N2  UNL     1       0.382  -0.393  -0.624  1.00  0.00    -0.339 N 
ATOM      6  H2  UNL     1       0.286  -0.560  -1.626  1.00  0.00     0.164 HD
ENDROOT
BRANCH   5   7
HETATM    7  C4  UNL     1      -0.808  -0.129   0.157  1.00  0.00     0.086 C 
HETATM    8  C5  UNL     1      -1.790  -1.231   0.071  1.00  0.00     0.025 C 
HETATM    9  C6  UNL     1      -3.198  -0.853  -0.206  1.00  0.00     0.002 C 
HETATM   10  C7  UNL     1      -3.632   0.494   0.191  1.00  0.00     0.000 C 
HETATM   11  C8  UNL     1      -2.566   1.413   0.685  1.00  0.00     0.002 C 
HETATM   12  C9  UNL     1      -1.377   1.221  -0.267  1.00  0.00     0.025 C 
ENDBRANCH   5   7
BRANCH   1  13
HETATM   13  C2  UNL     1       4.128  -0.711  -0.177  1.00  0.00     0.120 C 
HETATM   14  C1  UNL     1       4.343   0.658   0.441  1.00  0.00     0.026 C 
ENDBRANCH   1  13
TORSDOF 2
