REMARK  2 active torsions:
REMARK  status: ('A' for Active; 'I' for Inactive)
REMARK    1  A    between atoms: N1_2  and  N2_3 
REMARK       I    between atoms: N2_3  and  C2_5 
REMARK       I    between atoms: C2_5  and  N3_7 
REMARK    2  A    between atoms: N3_7  and  C3_9 
ROOT
HETATM    1  N2  UNL     1       2.896   0.476  -0.589  1.00  0.00    -0.256 N 
ATOM      2  H2  UNL     1       2.755   0.369  -1.593  1.00  0.00     0.187 HD
HETATM    3  C2  UNL     1       1.755   0.440   0.272  1.00  0.00     0.332 C 
HETATM    4  O1  UNL     1       2.001   0.583   1.489  1.00  0.00    -0.246 OA
HETATM    5  N3  UNL     1       0.448   0.253  -0.252  1.00  0.00    -0.337 N 
ATOM      6  H3  UNL     1       0.365   0.145  -1.263  1.00  0.00     0.164 HD
ENDROOT
BRANCH   5   7
HETATM    7  C3  UNL     1      -0.757   0.202   0.506  1.00  0.00     0.086 C 
HETATM    8  C4  UNL     1      -1.743   1.287   0.144  1.00  0.00     0.025 C 
HETATM    9  C5  UNL     1      -3.094   0.840   0.650  1.00  0.00     0.002 C 
HETATM   10  C6  UNL     1      -3.558  -0.262  -0.286  1.00  0.00     0.000 C 
HETATM   11  C7  UNL     1      -2.520  -1.352  -0.387  1.00  0.00     0.002 C 
HETATM   12  C8  UNL     1      -1.384  -1.167   0.579  1.00  0.00     0.025 C 
ENDBRANCH   5   7
BRANCH   1  13
HETATM   13  N1  UNL     1       4.196   0.652  -0.110  1.00  0.00    -0.142 NA
HETATM   14  C1  UNL     1       4.999  -0.443  -0.600  1.00  0.00     0.159 C 
ENDBRANCH   1  13
TORSDOF 2
