REMARK  5 active torsions:
REMARK  status: ('A' for Active; 'I' for Inactive)
REMARK    1  A    between atoms: N1_2  and  C2_4 
REMARK    2  A    between atoms: C2_4  and  N2_6 
REMARK    3  A    between atoms: N2_6  and  C3_8 
REMARK    4  A    between atoms: C3_8  and  C4_12 
REMARK    5  A    between atoms: C4_12  and  C5_13 
ROOT
HETATM    1  C3  UNL     1       0.075  -0.002   0.575  1.00  0.00     0.077 C 
HETATM    2  N3  UNL     1       0.633  -0.591   1.564  1.00  0.00    -0.389 N 
ATOM      3  H31 UNL     1       1.647  -0.697   1.571  1.00  0.00     0.157 HD
ATOM      4  H32 UNL     1       0.057  -0.946   2.328  1.00  0.00     0.157 HD
ENDROOT
BRANCH   1   5
HETATM    5  N2  UNL     1      -1.337   0.146   0.565  1.00  0.00    -0.323 N 
ATOM      6  H2  UNL     1      -1.749   0.911   1.099  1.00  0.00     0.169 HD
BRANCH   5   7
HETATM    7  C2  UNL     1      -2.199  -0.716  -0.150  1.00  0.00     0.172 C 
HETATM    8  S1  UNL     1      -1.560  -1.941  -1.006  1.00  0.00    -0.041 SA
BRANCH   7   9
HETATM    9  N1  UNL     1      -3.601  -0.554  -0.148  1.00  0.00    -0.371 N 
HETATM   10  C1  UNL     1      -4.185   0.550   0.624  1.00  0.00     0.148 C 
ATOM     11  H1  UNL     1      -4.198  -1.193  -0.674  1.00  0.00     0.161 HD
ENDBRANCH   7   9
ENDBRANCH   5   7
ENDBRANCH   1   5
BRANCH   1  12
HETATM   12  C4  UNL     1       0.902   0.508  -0.522  1.00  0.00     0.079 C 
BRANCH  12  13
HETATM   13  C5  UNL     1       2.370   0.266  -0.342  1.00  0.00    -0.016 C 
HETATM   14  C6  UNL     1       2.747  -1.169  -0.231  1.00  0.00     0.010 C 
HETATM   15  C7  UNL     1       2.954   1.012   0.823  1.00  0.00     0.010 C 
ENDBRANCH  12  13
ENDBRANCH   1  12
TORSDOF 5
