REMARK  3 active torsions:
REMARK  status: ('A' for Active; 'I' for Inactive)
REMARK    1  A    between atoms: C2_2  and  C4_5 
REMARK    2  A    between atoms: C4_5  and  N3_9 
REMARK    3  A    between atoms: N3_9  and  C5_11 
ROOT
HETATM    1  C1  UNL     1      -3.652  -0.776   0.768  1.00  0.00     0.033 C 
HETATM    2  C2  UNL     1      -2.993   0.537   0.335  1.00  0.00     0.155 C 
HETATM    3  C3  UNL     1      -3.932   1.293  -0.486  1.00  0.00     0.071 C 
HETATM    4  N1  UNL     1      -4.685   1.898  -1.161  1.00  0.00    -0.196 NA
ENDROOT
BRANCH   2   5
HETATM    5  C4  UNL     1      -1.789   0.155  -0.442  1.00  0.00     0.088 C 
HETATM    6  N2  UNL     1      -1.740   0.566  -1.682  1.00  0.00    -0.388 N 
ATOM      7  H22 UNL     1      -2.486   1.121  -2.101  1.00  0.00     0.157 HD
ATOM      8  H21 UNL     1      -0.912   0.303  -2.216  1.00  0.00     0.157 HD
BRANCH   5   9
HETATM    9  N3  UNL     1      -0.756  -0.613   0.138  1.00  0.00    -0.374 N 
ATOM     10  H3  UNL     1      -0.978  -1.317   0.842  1.00  0.00     0.161 HD
BRANCH   9  11
HETATM   11  C5  UNL     1       0.596  -0.405  -0.259  1.00  0.00     0.082 C 
HETATM   12  C6  UNL     1       0.956   1.053   0.057  1.00  0.00     0.025 C 
HETATM   13  C7  UNL     1       2.341   1.255  -0.556  1.00  0.00     0.002 C 
HETATM   14  C8  UNL     1       3.294   0.432   0.292  1.00  0.00     0.000 C 
HETATM   15  C9  UNL     1       2.964  -1.032   0.144  1.00  0.00     0.002 C 
HETATM   16  C10 UNL     1       1.530  -1.344   0.461  1.00  0.00     0.025 C 
ENDBRANCH   9  11
ENDBRANCH   5   9
ENDBRANCH   2   5
TORSDOF 3
