REMARK  7 active torsions:
REMARK  status: ('A' for Active; 'I' for Inactive)
REMARK    1  A    between atoms: O1_2  and  C2_3 
REMARK    2  A    between atoms: C4_5  and  C5_6 
REMARK    3  A    between atoms: C5_6  and  N1_7 
REMARK    4  A    between atoms: N1_7  and  C7_9 
REMARK    5  A    between atoms: C7_9  and  C8_10 
REMARK    6  A    between atoms: C8_10  and  C9_11 
REMARK    7  A    between atoms: N2_17  and  C14_18 
ROOT
HETATM    1  C9  UNL     1      -0.408  -0.343  -1.592  1.00  0.00     0.265 C 
HETATM    2  O2  UNL     1       0.329  -1.105  -2.479  1.00  0.00    -0.358 OA
HETATM    3  C10 UNL     1       1.377  -1.577  -1.694  1.00  0.00     0.211 C 
HETATM    4  C11 UNL     1       1.739  -0.319  -0.934  1.00  0.00     0.110 C 
HETATM    5  C12 UNL     1       2.453  -0.592   0.344  1.00  0.00     0.064 C 
HETATM    6  C13 UNL     1       3.592   0.439   0.443  1.00  0.00     0.153 C 
HETATM    7  N2  UNL     1       4.444   0.184  -0.654  1.00  0.00    -0.289 N 
HETATM    8  O3  UNL     1       3.883   0.047  -1.844  1.00  0.00    -0.279 OA
HETATM    9  C19 UNL     1       2.601   0.532  -1.834  1.00  0.00     0.241 C 
HETATM   10  O4  UNL     1       0.494   0.278  -0.747  1.00  0.00    -0.345 OA
ENDROOT
BRANCH   1  11
HETATM   11  C8  UNL     1      -1.333  -1.282  -0.831  1.00  0.00     0.105 C 
BRANCH  11  12
HETATM   12  C7  UNL     1      -2.167  -0.517   0.170  1.00  0.00     0.067 C 
BRANCH  12  13
HETATM   13  N1  UNL     1      -3.018  -1.396   0.867  1.00  0.00    -0.373 N 
HETATM   14  C6  UNL     1      -3.217  -1.167   2.249  1.00  0.00     0.154 C 
BRANCH  13  15
HETATM   15  C5  UNL     1      -4.066  -1.937   0.109  1.00  0.00     0.102 C 
BRANCH  15  16
HETATM   16  C4  UNL     1      -5.285  -1.136  -0.065  1.00  0.00     0.004 A 
HETATM   17  C3  UNL     1      -5.389   0.124   0.446  1.00  0.00     0.053 A 
HETATM   18  C2  UNL     1      -6.572   0.826   0.221  1.00  0.00     0.090 A 
HETATM   19  C22 UNL     1      -7.612   0.249  -0.508  1.00  0.00     0.069 A 
HETATM   20  C21 UNL     1      -7.472  -1.023  -1.008  1.00  0.00     0.051 A 
HETATM   21 CL2  UNL     1      -9.078   1.166  -0.766  1.00  0.00    -0.081 Cl
HETATM   22  C20 UNL     1      -6.318  -1.722  -0.794  1.00  0.00     0.047 A 
HETATM   23 CL1  UNL     1      -6.095  -3.359  -1.419  1.00  0.00    -0.083 Cl
BRANCH  18  24
HETATM   24  O1  UNL     1      -6.693   2.097   0.731  1.00  0.00    -0.354 OA
HETATM   25  C1  UNL     1      -5.645   2.678   1.464  1.00  0.00     0.210 C 
ENDBRANCH  18  24
ENDBRANCH  15  16
ENDBRANCH  13  15
ENDBRANCH  12  13
ENDBRANCH  11  12
ENDBRANCH   1  11
BRANCH   7  26
HETATM   26  C14 UNL     1       5.794   0.559  -0.581  1.00  0.00     0.108 C 
HETATM   27  C15 UNL     1       6.079   2.029  -0.425  1.00  0.00     0.027 C 
HETATM   28  C16 UNL     1       7.436   1.981   0.292  1.00  0.00     0.002 C 
HETATM   29  C17 UNL     1       7.134   0.917   1.345  1.00  0.00     0.002 C 
HETATM   30  C18 UNL     1       6.523  -0.168   0.519  1.00  0.00     0.027 C 
ENDBRANCH   7  26
TORSDOF 7
