REMARK  7 active torsions:
REMARK  status: ('A' for Active; 'I' for Inactive)
REMARK    1  A    between atoms: C2_2  and  C3_3 
REMARK    2  A    between atoms: C6_6  and  S1_7 
REMARK    3  A    between atoms: S1_7  and  C7_8 
REMARK    4  A    between atoms: C7_8  and  C8_9 
REMARK       I    between atoms: C8_9  and  N1_11 
REMARK    5  A    between atoms: C11_14  and  C12_15 
REMARK    6  A    between atoms: C12_15  and  C13_17 
REMARK    7  A    between atoms: C16_23  and  C17_24 
ROOT
HETATM    1  C3  UNL     1       5.547   0.363   0.170  1.00  0.00    -0.015 A 
HETATM    2  C4  UNL     1       4.234   0.165   0.496  1.00  0.00     0.031 A 
HETATM    3  C5  UNL     1       3.473  -0.533  -0.380  1.00  0.00     0.032 A 
HETATM    4  C6  UNL     1       2.104  -0.845  -0.239  1.00  0.00     0.084 A 
HETATM    5  N2  UNL     1       1.500  -1.542  -1.208  1.00  0.00    -0.339 N 
ATOM      6  H2  UNL     1       0.510  -1.754  -1.085  1.00  0.00     0.168 HD
HETATM    7  C16 UNL     1       2.087  -1.983  -2.322  1.00  0.00     0.096 A 
HETATM    8  N3  UNL     1       3.391  -1.692  -2.464  1.00  0.00    -0.339 N 
ATOM      9  H3  UNL     1       3.882  -2.008  -3.300  1.00  0.00     0.168 HD
HETATM   10  C18 UNL     1       4.080  -0.981  -1.515  1.00  0.00     0.088 A 
HETATM   11  S2  UNL     1       5.683  -0.425  -1.339  1.00  0.00    -0.076 SA
ENDROOT
BRANCH   4  12
HETATM   12  S1  UNL     1       1.167  -0.382   1.206  1.00  0.00    -0.102 SA
BRANCH  12  13
HETATM   13  C7  UNL     1       0.467   1.252   1.139  1.00  0.00     0.183 C 
BRANCH  13  14
HETATM   14  C8  UNL     1      -0.543   1.474   0.112  1.00  0.00     0.229 C 
HETATM   15  O1  UNL     1      -0.200   2.057  -0.938  1.00  0.00    -0.273 OA
HETATM   16  N1  UNL     1      -1.908   1.060   0.240  1.00  0.00    -0.351 N 
HETATM   17  C9  UNL     1      -2.283   0.339   1.433  1.00  0.00     0.126 C 
HETATM   18  C15 UNL     1      -2.817   1.398  -0.807  1.00  0.00     0.126 C 
HETATM   19  C10 UNL     1      -3.453  -0.586   1.103  1.00  0.00     0.032 C 
HETATM   20  C11 UNL     1      -4.584   0.313   0.610  1.00  0.00     0.059 C 
HETATM   21  C14 UNL     1      -4.201   0.891  -0.713  1.00  0.00     0.032 C 
BRANCH  20  22
HETATM   22  C12 UNL     1      -5.842  -0.439   0.544  1.00  0.00     0.144 C 
HETATM   23  O2  UNL     1      -6.803  -0.091   1.231  1.00  0.00    -0.296 OA
BRANCH  22  24
HETATM   24  C13 UNL     1      -6.032  -1.631  -0.326  1.00  0.00     0.193 C 
HETATM   25 CL1  UNL     1      -7.661  -2.318  -0.119  1.00  0.00    -0.123 Cl
ENDBRANCH  22  24
ENDBRANCH  20  22
ENDBRANCH  13  14
ENDBRANCH  12  13
ENDBRANCH   4  12
BRANCH   7  26
HETATM   26  C17 UNL     1       1.300  -2.748  -3.312  1.00  0.00     0.191 C 
HETATM   27 CL2  UNL     1       0.586  -1.648  -4.494  1.00  0.00    -0.122 Cl
ENDBRANCH   7  26
BRANCH   1  28
HETATM   28  C2  UNL     1       6.611   1.089   0.960  1.00  0.00     0.042 C 
HETATM   29  C1  UNL     1       6.007   1.555   2.239  1.00  0.00     0.010 C 
ENDBRANCH   1  28
TORSDOF 7
