REMARK  7 active torsions:
REMARK  status: ('A' for Active; 'I' for Inactive)
REMARK    1  A    between atoms: C2_5  and  C3_6 
REMARK    2  A    between atoms: C2_5  and  C9_13 
REMARK    3  A    between atoms: C9_13  and  C10_14 
REMARK    4  A    between atoms: C9_13  and  C17_23 
REMARK    5  A    between atoms: C10_14  and  C11_16 
REMARK    6  A    between atoms: C17_23  and  C18_25 
REMARK    7  A    between atoms: C21_28  and  N3_29 
ROOT
HETATM    1  N1  UNL     1      -3.482  -0.155  -2.748  1.00  0.00    -0.172 NA
HETATM    2  C1  UNL     1      -2.974   0.505  -1.940  1.00  0.00     0.182 C 
HETATM    3  N2  UNL     1      -2.399   1.300  -1.031  1.00  0.00    -0.295 N 
ATOM      4  H2  UNL     1      -2.926   2.165  -0.908  1.00  0.00     0.178 HD
HETATM    5  C2  UNL     1      -1.422   1.273  -0.313  1.00  0.00     0.048 C 
ENDROOT
BRANCH   5   6
HETATM    6  C3  UNL     1      -1.216   2.478   0.558  1.00  0.00    -0.011 A 
HETATM    7  C4  UNL     1      -2.113   3.533   0.492  1.00  0.00     0.016 A 
HETATM    8  C5  UNL     1      -1.951   4.646   1.278  1.00  0.00     0.043 A 
HETATM    9  C6  UNL     1      -0.889   4.724   2.145  1.00  0.00     0.116 A 
HETATM   10  F1  UNL     1      -0.759   5.844   2.912  1.00  0.00    -0.206 F 
HETATM   11  C7  UNL     1      -0.019   3.684   2.200  1.00  0.00     0.043 A 
HETATM   12  C8  UNL     1      -0.158   2.558   1.423  1.00  0.00     0.016 A 
ENDBRANCH   5   6
BRANCH   5  13
HETATM   13  C9  UNL     1      -0.382   0.253  -0.230  1.00  0.00     0.186 C 
BRANCH  13  14
HETATM   14  C10 UNL     1      -0.756  -1.072  -0.810  1.00  0.00     0.177 C 
HETATM   15  O1  UNL     1      -0.279  -1.465  -1.897  1.00  0.00    -0.291 OA
BRANCH  14  16
HETATM   16  C11 UNL     1      -1.707  -1.958  -0.112  1.00  0.00     0.011 A 
HETATM   17  C12 UNL     1      -2.259  -1.652   1.115  1.00  0.00     0.017 A 
HETATM   18  C13 UNL     1      -3.144  -2.523   1.714  1.00  0.00     0.025 A 
HETATM   19  C14 UNL     1      -3.514  -3.717   1.134  1.00  0.00     0.034 A 
HETATM   20 CL1  UNL     1      -4.625  -4.817   1.882  1.00  0.00    -0.084 Cl
HETATM   21  C15 UNL     1      -2.971  -4.035  -0.090  1.00  0.00     0.025 A 
HETATM   22  C16 UNL     1      -2.087  -3.155  -0.680  1.00  0.00     0.017 A 
ENDBRANCH  14  16
ENDBRANCH  13  14
BRANCH  13  23
HETATM   23  C17 UNL     1       0.851   0.747  -0.901  1.00  0.00     0.177 C 
HETATM   24  O2  UNL     1       0.764   1.873  -1.493  1.00  0.00    -0.291 OA
BRANCH  23  25
HETATM   25  C18 UNL     1       2.120   0.067  -0.940  1.00  0.00     0.011 A 
HETATM   26  C19 UNL     1       3.188   0.590  -1.667  1.00  0.00     0.017 A 
HETATM   27  C20 UNL     1       4.409  -0.026  -1.706  1.00  0.00     0.037 A 
HETATM   28  C21 UNL     1       4.588  -1.211  -0.998  1.00  0.00     0.102 A 
HETATM   29  C22 UNL     1       3.545  -1.743  -0.275  1.00  0.00     0.037 A 
HETATM   30  C23 UNL     1       2.307  -1.101  -0.247  1.00  0.00     0.017 A 
BRANCH  28  31
HETATM   31  N3  UNL     1       5.848  -1.869  -1.024  1.00  0.00    -0.116 N 
HETATM   32  O3  UNL     1       5.982  -2.935  -0.378  1.00  0.00    -0.532 OA
HETATM   33  O4  UNL     1       6.864  -1.318  -1.750  1.00  0.00    -0.532 OA
ENDBRANCH  28  31
ENDBRANCH  23  25
ENDBRANCH  13  23
ENDBRANCH   5  13
TORSDOF 7
