REMARK  8 active torsions:
REMARK  status: ('A' for Active; 'I' for Inactive)
REMARK    1  A    between atoms: S1_2  and  C1_4 
REMARK    2  A    between atoms: S1_2  and  N1_21 
REMARK    3  A    between atoms: C1_4  and  S2_5 
REMARK    4  A    between atoms: S2_5  and  C2_6 
REMARK    5  A    between atoms: C2_6  and  C3_7 
REMARK    6  A    between atoms: C2_6  and  C7_14 
REMARK    7  A    between atoms: C3_7  and  S3_8 
REMARK    8  A    between atoms: S3_8  and  C4_9 
ROOT
HETATM    1  C2  UNL     1       0.762   1.269  -0.579  1.00  0.00     0.000 C 
ENDROOT
BRANCH   1   2
HETATM    2  S2  UNL     1      -0.126   0.520  -1.932  1.00  0.00    -0.116 SA
BRANCH   2   3
HETATM    3  C1  UNL     1      -1.119  -0.948  -1.354  1.00  0.00     0.236 C 
BRANCH   3   4
HETATM    4  S1  UNL     1      -2.311  -0.458  -0.181  1.00  0.00     0.220 S 
HETATM    5  O1  UNL     1      -3.273   0.595  -0.659  1.00  0.00    -0.210 OA
HETATM    6  O2  UNL     1      -1.751   0.034   1.141  1.00  0.00    -0.210 OA
BRANCH   4   7
HETATM    7  N1  UNL     1      -3.273  -1.849   0.293  1.00  0.00    -0.204 NA
HETATM    8  C13 UNL     1      -4.007  -2.419  -0.784  1.00  0.00     0.145 C 
HETATM    9  C14 UNL     1      -5.254  -1.641  -0.339  1.00  0.00     0.198 C 
HETATM   10  F1  UNL     1      -6.387  -2.390  -0.192  1.00  0.00    -0.247 F 
HETATM   11  C15 UNL     1      -4.493  -1.423   0.950  1.00  0.00     0.145 C 
ENDBRANCH   4   7
ENDBRANCH   3   4
ENDBRANCH   2   3
ENDBRANCH   1   2
BRANCH   1  12
HETATM   12  C3  UNL     1       1.927   0.601  -0.003  1.00  0.00     0.121 C 
BRANCH  12  13
HETATM   13  S3  UNL     1       1.700  -1.062   0.649  1.00  0.00    -0.148 SA
BRANCH  13  14
HETATM   14  C4  UNL     1       3.361  -1.799   0.720  1.00  0.00     0.120 C 
HETATM   15  C5  UNL     1       3.327  -3.154   1.302  1.00  0.00     0.037 C 
HETATM   16  C6  UNL     1       4.743  -3.728   1.187  1.00  0.00     0.088 C 
HETATM   17  S4  UNL     1       5.683  -2.605   2.310  1.00  0.00    -0.096 SA
HETATM   18  S5  UNL     1       4.423  -0.887   1.918  1.00  0.00    -0.082 SA
ENDBRANCH  13  14
ENDBRANCH  12  13
ENDBRANCH   1  12
BRANCH   1  19
HETATM   19  C7  UNL     1       0.741   2.752  -0.534  1.00  0.00    -0.001 A 
HETATM   20  C8  UNL     1       0.443   3.410   0.657  1.00  0.00     0.014 A 
HETATM   21  C9  UNL     1       0.260   4.791   0.760  1.00  0.00     0.001 A 
HETATM   22  C10 UNL     1       0.397   5.512  -0.442  1.00  0.00     0.002 A 
HETATM   23  C11 UNL     1       0.694   4.862  -1.631  1.00  0.00     0.024 A 
HETATM   24  C12 UNL     1       0.865   3.510  -1.687  1.00  0.00     0.045 A 
HETATM   25 CL1  UNL     1       1.250   2.636  -3.185  1.00  0.00    -0.083 Cl
ENDBRANCH   1  19
TORSDOF 8
