REMARK  13 active torsions:
REMARK  status: ('A' for Active; 'I' for Inactive)
REMARK    1  A    between atoms: C3_3  and  C5_5 
REMARK    2  A    between atoms: C5_5  and  O2_7 
REMARK    3  A    between atoms: O2_7  and  C6_8 
REMARK    4  A    between atoms: C7_9  and  O3_10 
REMARK    5  A    between atoms: N1_21  and  O5_23 
REMARK    6  A    between atoms: C20_29  and  C21_30 
REMARK    7  A    between atoms: C21_30  and  C23_32 
REMARK    8  A    between atoms: C23_32  and  C24_33 
REMARK    9  A    between atoms: C24_33  and  C25_34 
REMARK   10  A    between atoms: C25_34  and  C26_35 
REMARK   11  A    between atoms: C26_35  and  C27_36 
REMARK   12  A    between atoms: C32_44  and  C34_46 
REMARK   13  A    between atoms: C34_46  and  O9_48 
ROOT
HETATM    1  C6  UNL     1       3.975   0.541   0.071  1.00  0.00     0.179 C 
HETATM    2  C7  UNL     1       3.262   1.596   0.918  1.00  0.00     0.149 C 
HETATM    3  C8  UNL     1       2.239   1.083   1.831  1.00  0.00     0.044 C 
HETATM    4  C9  UNL     1       1.633  -0.267   1.606  1.00  0.00    -0.032 C 
HETATM    5  C10 UNL     1       1.283  -0.752   3.043  1.00  0.00     0.016 C 
HETATM    6  C11 UNL     1       0.278  -0.258   0.939  1.00  0.00     0.009 C 
HETATM    7  C12 UNL     1      -0.497   0.844   1.578  1.00  0.00     0.084 C 
HETATM    8  C13 UNL     1      -1.961   0.506   1.534  1.00  0.00     0.137 C 
HETATM    9  O4  UNL     1      -2.441  -0.018   2.501  1.00  0.00    -0.297 OA
HETATM   10  C14 UNL     1      -2.870   0.786   0.345  1.00  0.00     0.108 C 
HETATM   11  C15 UNL     1      -1.911   0.836  -0.806  1.00  0.00     0.030 C 
HETATM   12  N1  UNL     1      -1.805   1.958  -1.422  1.00  0.00    -0.276 N 
ATOM     13  H1  UNL     1      -2.396   2.703  -1.054  1.00  0.00     0.193 HD
HETATM   14  C16 UNL     1      -1.110  -0.374  -1.165  1.00  0.00     0.004 C 
HETATM   15  C17 UNL     1      -0.982  -0.350  -2.676  1.00  0.00     0.022 C 
HETATM   16  C18 UNL     1      -1.892  -1.591  -0.824  1.00  0.00     0.016 C 
HETATM   17  C19 UNL     1      -3.411  -1.342  -0.827  1.00  0.00     0.007 C 
HETATM   18  C20 UNL     1      -3.809  -0.330   0.172  1.00  0.00     0.006 C 
HETATM   19  C28 UNL     1       0.266  -0.314  -0.546  1.00  0.00     0.038 C 
HETATM   20  C29 UNL     1       1.205  -1.329  -1.060  1.00  0.00     0.176 C 
HETATM   21  F1  UNL     1       0.619  -2.381  -1.779  1.00  0.00    -0.249 F 
HETATM   22  C30 UNL     1       1.978  -2.098  -0.018  1.00  0.00     0.044 C 
HETATM   23  C31 UNL     1       2.585  -1.291   1.074  1.00  0.00     0.017 C 
HETATM   24  C32 UNL     1       3.972  -0.757   0.742  1.00  0.00     0.078 C 
HETATM   25  C33 UNL     1       4.749  -0.604   2.065  1.00  0.00     0.029 C 
ENDROOT
BRANCH  18  26
HETATM   26  C21 UNL     1      -5.270   0.078  -0.106  1.00  0.00    -0.013 C 
HETATM   27  C22 UNL     1      -5.366   0.891  -1.361  1.00  0.00     0.010 C 
BRANCH  26  28
HETATM   28  C23 UNL     1      -5.812   0.811   1.057  1.00  0.00     0.005 C 
BRANCH  28  29
HETATM   29  C24 UNL     1      -7.170   1.322   1.056  1.00  0.00     0.001 C 
BRANCH  29  30
HETATM   30  C25 UNL     1      -8.377   0.504   0.981  1.00  0.00     0.010 C 
BRANCH  30  31
HETATM   31  C26 UNL     1      -8.644  -0.318  -0.230  1.00  0.00     0.113 C 
BRANCH  31  32
HETATM   32  C27 UNL     1      -9.968  -1.038  -0.092  1.00  0.00     0.172 C 
HETATM   33  O6  UNL     1     -10.124  -1.783   0.896  1.00  0.00    -0.648 OA
HETATM   34  O7  UNL     1     -10.994  -0.897  -1.013  1.00  0.00    -0.648 OA
ENDBRANCH  31  32
ENDBRANCH  30  31
ENDBRANCH  29  30
ENDBRANCH  28  29
ENDBRANCH  26  28
ENDBRANCH  18  26
BRANCH  12  35
HETATM   35  O5  UNL     1      -1.049   2.309  -2.464  1.00  0.00    -0.290 OA
ATOM     36  H5  UNL     1      -0.971   3.139  -2.920  1.00  0.00     0.244 HD
ENDBRANCH  12  35
BRANCH   2  37
HETATM   37  O3  UNL     1       2.784   2.614   0.053  1.00  0.00    -0.393 OA
ATOM     38  H3  UNL     1       2.341   3.269   0.579  1.00  0.00     0.210 HD
ENDBRANCH   2  37
BRANCH  24  39
HETATM   39  C34 UNL     1       4.684  -1.785  -0.033  1.00  0.00     0.270 C 
HETATM   40  O8  UNL     1       5.187  -1.625  -1.160  1.00  0.00    -0.264 OA
BRANCH  39  41
HETATM   41  O9  UNL     1       4.855  -3.096   0.479  1.00  0.00    -0.326 OA
HETATM   42  C35 UNL     1       5.536  -4.096  -0.252  1.00  0.00     0.213 C 
ENDBRANCH  39  41
ENDBRANCH  24  39
BRANCH   1  43
HETATM   43  O2  UNL     1       5.319   0.939  -0.158  1.00  0.00    -0.308 OA
BRANCH  43  44
HETATM   44  C5  UNL     1       5.750   1.410  -1.386  1.00  0.00     0.289 C 
HETATM   45  O1  UNL     1       4.871   1.470  -2.300  1.00  0.00    -0.260 OA
BRANCH  44  46
HETATM   46  C3  UNL     1       7.113   1.799  -1.589  1.00  0.00     0.009 C 
HETATM   47  C2  UNL     1       8.070   1.765  -0.695  1.00  0.00    -0.018 C 
HETATM   48  C1  UNL     1       7.807   1.292   0.677  1.00  0.00     0.036 C 
HETATM   49  C4  UNL     1       7.494   2.297  -2.950  1.00  0.00     0.054 C 
ENDBRANCH  44  46
ENDBRANCH  43  44
ENDBRANCH   1  43
TORSDOF 13
