REMARK  13 active torsions:
REMARK  status: ('A' for Active; 'I' for Inactive)
REMARK    1  A    between atoms: N2_3  and  C2_4 
REMARK    2  A    between atoms: N2_3  and  C9_11 
REMARK    3  A    between atoms: C2_4  and  C3_5 
REMARK    4  A    between atoms: C14_16  and  C15_17 
REMARK    5  A    between atoms: C15_17  and  O1_18 
REMARK    6  A    between atoms: O1_18  and  C16_19 
REMARK    7  A    between atoms: C19_22  and  S1_23 
REMARK    8  A    between atoms: S1_23  and  N3_26 
REMARK    9  A    between atoms: C20_29  and  C21_30 
REMARK   10  A    between atoms: C20_29  and  C27_37 
REMARK   11  A    between atoms: C30_40  and  C31_41 
REMARK   12  A    between atoms: C31_41  and  O5_42 
REMARK   13  A    between atoms: N5_44  and  O6_46 
ROOT
HETATM    1  N1  UNL     1       5.577   1.184   4.497  1.00  0.00    -0.172 NA
HETATM    2  C1  UNL     1       5.961   0.893   3.445  1.00  0.00     0.185 C 
HETATM    3  N2  UNL     1       6.411   0.546   2.145  1.00  0.00    -0.280 N 
ENDROOT
BRANCH   3   4
HETATM    4  C2  UNL     1       7.015   1.570   1.332  1.00  0.00     0.179 C 
BRANCH   4   5
HETATM    5  C3  UNL     1       7.685   0.979   0.160  1.00  0.00    -0.039 A 
HETATM    6  C4  UNL     1       9.019   0.635   0.305  1.00  0.00     0.009 A 
HETATM    7  C5  UNL     1       9.696   0.086  -0.730  1.00  0.00     0.001 A 
HETATM    8  C6  UNL     1       9.130  -0.169  -1.976  1.00  0.00     0.000 A 
HETATM    9  C7  UNL     1       7.796   0.180  -2.106  1.00  0.00     0.001 A 
HETATM   10  C8  UNL     1       7.084   0.742  -1.068  1.00  0.00     0.009 A 
ENDBRANCH   4   5
ENDBRANCH   3   4
BRANCH   3  11
HETATM   11  C9  UNL     1       6.218  -0.776   1.644  1.00  0.00     0.053 A 
HETATM   12  C10 UNL     1       7.214  -1.716   1.787  1.00  0.00     0.031 A 
HETATM   13  C11 UNL     1       7.084  -2.988   1.245  1.00  0.00     0.002 A 
HETATM   14  C12 UNL     1       5.918  -3.254   0.566  1.00  0.00     0.001 A 
HETATM   15  C13 UNL     1       4.919  -2.323   0.420  1.00  0.00     0.011 A 
HETATM   16  C14 UNL     1       5.059  -1.067   0.963  1.00  0.00    -0.007 A 
BRANCH  16  17
HETATM   17  C15 UNL     1       3.903  -0.097   0.873  1.00  0.00     0.216 C 
BRANCH  17  18
HETATM   18  O1  UNL     1       2.923  -0.680   0.102  1.00  0.00    -0.347 OA
BRANCH  18  19
HETATM   19  C16 UNL     1       1.665  -0.207  -0.213  1.00  0.00     0.069 A 
HETATM   20  C17 UNL     1       0.832  -0.965  -1.056  1.00  0.00     0.038 A 
HETATM   21  C18 UNL     1      -0.433  -0.538  -1.391  1.00  0.00     0.027 A 
HETATM   22  C19 UNL     1      -0.941   0.648  -0.918  1.00  0.00     0.076 A 
HETATM   23  C32 UNL     1      -0.132   1.398  -0.094  1.00  0.00     0.027 A 
HETATM   24  C33 UNL     1       1.146   0.976   0.249  1.00  0.00     0.038 A 
BRANCH  22  25
HETATM   25  S1  UNL     1      -2.570   1.181  -1.329  1.00  0.00     0.260 S 
HETATM   26  O2  UNL     1      -2.740   0.854  -2.804  1.00  0.00    -0.204 OA
HETATM   27  O3  UNL     1      -2.617   2.663  -1.222  1.00  0.00    -0.204 OA
BRANCH  25  28
HETATM   28  N3  UNL     1      -3.743   0.360  -0.471  1.00  0.00    -0.078 NA
HETATM   29  N4  UNL     1      -3.766   0.447   0.896  1.00  0.00     0.012 NA
HETATM   30  O4  UNL     1      -4.997   0.062   1.305  1.00  0.00    -0.251 OA
HETATM   31  C20 UNL     1      -5.744  -0.325   0.198  1.00  0.00     0.142 C 
HETATM   32  C30 UNL     1      -5.134   0.637  -0.851  1.00  0.00     0.213 C 
BRANCH  31  33
HETATM   33  C21 UNL     1      -7.174  -0.025   0.418  1.00  0.00    -0.019 A 
HETATM   34  C22 UNL     1      -7.648  -0.076   1.709  1.00  0.00     0.013 A 
HETATM   35  C23 UNL     1      -8.974   0.194   1.967  1.00  0.00     0.043 A 
HETATM   36  C24 UNL     1      -9.850   0.518   0.953  1.00  0.00     0.116 A 
HETATM   37  F1  UNL     1     -11.157   0.786   1.185  1.00  0.00    -0.206 F 
HETATM   38  C25 UNL     1      -9.394   0.571  -0.337  1.00  0.00     0.043 A 
HETATM   39  C26 UNL     1      -8.064   0.298  -0.580  1.00  0.00     0.013 A 
ENDBRANCH  31  33
BRANCH  31  40
HETATM   40  C27 UNL     1      -5.486  -1.751  -0.151  1.00  0.00     0.029 A 
HETATM   41  C28 UNL     1      -6.166  -2.450  -1.262  1.00  0.00     0.009 A 
HETATM   42  C29 UNL     1      -4.689  -2.124  -1.361  1.00  0.00     0.009 A 
ENDBRANCH  31  40
BRANCH  32  43
HETATM   43  C31 UNL     1      -5.547   1.986  -0.425  1.00  0.00     0.159 C 
HETATM   44  N5  UNL     1      -5.946   2.859  -1.279  1.00  0.00    -0.249 N 
ATOM     45  H5  UNL     1      -5.972   2.597  -2.264  1.00  0.00     0.196 HD
BRANCH  43  46
HETATM   46  O5  UNL     1      -5.520   2.360   0.910  1.00  0.00    -0.347 OA
ATOM     47  H5  UNL     1      -5.786   3.230   1.185  1.00  0.00     0.219 HD
ENDBRANCH  43  46
BRANCH  44  48
HETATM   48  O6  UNL     1      -6.337   4.119  -0.933  1.00  0.00    -0.288 OA
ATOM     49  H6  UNL     1      -6.632   4.765  -1.564  1.00  0.00     0.244 HD
ENDBRANCH  44  48
ENDBRANCH  32  43
ENDBRANCH  25  28
ENDBRANCH  22  25
ENDBRANCH  18  19
ENDBRANCH  17  18
ENDBRANCH  16  17
ENDBRANCH   3  11
TORSDOF 13
