REMARK  14 active torsions:
REMARK  status: ('A' for Active; 'I' for Inactive)
REMARK    1  A    between atoms: C2_2  and  C3_3 
REMARK    2  A    between atoms: C7_7  and  C8_8 
REMARK    3  A    between atoms: C8_8  and  C9_9 
REMARK    4  A    between atoms: C9_9  and  O1_10 
REMARK    5  A    between atoms: C9_9  and  C11_12 
REMARK    6  A    between atoms: C11_12  and  C12_13 
REMARK    7  A    between atoms: C12_13  and  O2_14 
REMARK    8  A    between atoms: O2_14  and  C13_15 
REMARK    9  A    between atoms: C13_15  and  O4_17 
REMARK   10  A    between atoms: O4_17  and  C14_18 
REMARK   11  A    between atoms: C14_18  and  C16_20 
REMARK   12  A    between atoms: C24_30  and  O6_31 
REMARK   13  A    between atoms: C31_40  and  O8_42 
REMARK   14  A    between atoms: C34_45  and  O9_46 
ROOT
HETATM    1  C11 UNL     1       0.549  -1.401   0.274  1.00  0.00     0.036 C 
HETATM    2  C18 UNL     1       1.041  -2.010  -1.063  1.00  0.00     0.128 C 
HETATM    3 CL1  UNL     1       0.816  -0.958  -2.474  1.00  0.00    -0.119 Cl
HETATM    4  C19 UNL     1       2.365  -2.632  -1.036  1.00  0.00    -0.025 C 
HETATM    5  C20 UNL     1       3.326  -1.996  -1.681  1.00  0.00     0.019 C 
HETATM    6  C21 UNL     1       2.794  -3.917  -0.439  1.00  0.00     0.176 A 
HETATM    7  O5  UNL     1       1.749  -4.772  -0.323  1.00  0.00    -0.355 OA
HETATM    8  C22 UNL     1       1.993  -4.225   0.844  1.00  0.00     0.178 A 
HETATM    9  C23 UNL     1       2.111  -3.014   1.609  1.00  0.00     0.060 C 
HETATM   10  C24 UNL     1       3.587  -2.936   2.021  1.00  0.00     0.161 C 
HETATM   11  C25 UNL     1       4.431  -4.004   1.358  1.00  0.00     0.011 C 
HETATM   12  C26 UNL     1       5.342  -4.692   2.008  1.00  0.00     0.025 C 
HETATM   13  C27 UNL     1       4.165  -4.199  -0.062  1.00  0.00     0.199 C 
HETATM   14  O7  UNL     1       5.033  -4.569  -0.846  1.00  0.00    -0.289 OA
HETATM   15  C28 UNL     1       1.419  -1.729   1.418  1.00  0.00    -0.025 C 
HETATM   16  C29 UNL     1       2.447  -0.602   1.697  1.00  0.00     0.016 C 
HETATM   17  C30 UNL     1       0.555  -1.492   2.712  1.00  0.00     0.016 C 
ENDROOT
BRANCH   1  18
HETATM   18  C9  UNL     1      -0.896  -1.815   0.366  1.00  0.00     0.137 C 
BRANCH  18  19
HETATM   19  C8  UNL     1      -1.937  -1.210   1.201  1.00  0.00     0.060 C 
BRANCH  19  20
HETATM   20  C7  UNL     1      -2.312   0.202   1.060  1.00  0.00    -0.018 C 
HETATM   21  C6  UNL     1      -3.499   0.650   0.641  1.00  0.00    -0.049 C 
HETATM   22  C5  UNL     1      -3.656   2.154   0.572  1.00  0.00     0.052 C 
HETATM   23  C31 UNL     1      -4.671  -0.130   0.259  1.00  0.00     0.080 C 
HETATM   24  C3  UNL     1      -4.234   2.572  -0.758  1.00  0.00     0.003 C 
HETATM   25  C4  UNL     1      -3.209   2.430  -1.873  1.00  0.00     0.022 C 
HETATM   26  C34 UNL     1      -5.453   1.755  -1.114  1.00  0.00     0.133 C 
HETATM   27  C33 UNL     1      -5.818   0.883   0.064  1.00  0.00     0.075 C 
HETATM   28  C32 UNL     1      -4.586  -0.895  -1.016  1.00  0.00     0.051 C 
BRANCH  24  29
HETATM   29  C2  UNL     1      -4.607   4.004  -0.673  1.00  0.00    -0.025 C 
HETATM   30  C1  UNL     1      -5.380   4.471   0.266  1.00  0.00     0.008 C 
ENDBRANCH  24  29
BRANCH  26  31
HETATM   31  O9  UNL     1      -6.504   2.619  -1.450  1.00  0.00    -0.394 OA
ATOM     32  H9  UNL     1      -7.271   2.105  -1.674  1.00  0.00     0.210 HD
ENDBRANCH  26  31
BRANCH  23  33
HETATM   33  O8  UNL     1      -5.138  -0.959   1.316  1.00  0.00    -0.386 OA
ATOM     34  H8  UNL     1      -5.901  -1.467   1.067  1.00  0.00     0.211 HD
ENDBRANCH  23  33
ENDBRANCH  19  20
ENDBRANCH  18  19
BRANCH  18  35
HETATM   35  O1  UNL     1      -0.950  -3.194   0.810  1.00  0.00    -0.389 OA
HETATM   36  C10 UNL     1      -1.745  -3.901  -0.019  1.00  0.00     0.202 C 
ENDBRANCH  18  35
ENDBRANCH   1  18
BRANCH   1  37
HETATM   37  C12 UNL     1       0.574   0.073  -0.097  1.00  0.00     0.196 C 
BRANCH  37  38
HETATM   38  O2  UNL     1       1.845   0.627  -0.357  1.00  0.00    -0.297 OA
BRANCH  38  39
HETATM   39  C13 UNL     1       1.981   1.934  -0.698  1.00  0.00     0.406 C 
HETATM   40  O3  UNL     1       1.035   2.739  -0.814  1.00  0.00    -0.229 OA
BRANCH  39  41
HETATM   41  O4  UNL     1       3.271   2.397  -0.931  1.00  0.00    -0.293 OA
BRANCH  41  42
HETATM   42  C14 UNL     1       3.626   3.692  -1.289  1.00  0.00     0.129 C 
HETATM   43  C15 UNL     1       4.484   4.378  -0.243  1.00  0.00     0.040 C 
BRANCH  42  44
HETATM   44  C16 UNL     1       4.330   3.766  -2.641  1.00  0.00     0.028 C 
HETATM   45  C17 UNL     1       4.656   5.230  -2.900  1.00  0.00     0.007 C 
ENDBRANCH  42  44
ENDBRANCH  41  42
ENDBRANCH  39  41
ENDBRANCH  38  39
ENDBRANCH  37  38
ENDBRANCH   1  37
BRANCH  10  46
HETATM   46  O6  UNL     1       3.774  -3.204   3.403  1.00  0.00    -0.390 OA
ATOM     47  H6  UNL     1       4.688  -3.156   3.658  1.00  0.00     0.210 HD
ENDBRANCH  10  46
TORSDOF 14
