REMARK  14 active torsions:
REMARK  status: ('A' for Active; 'I' for Inactive)
REMARK    1  A    between atoms: C2_2  and  O2_4 
REMARK    2  A    between atoms: O2_4  and  C3_5 
REMARK    3  A    between atoms: C3_5  and  C4_6 
REMARK    4  A    between atoms: C4_6  and  O3_7 
REMARK    5  A    between atoms: C4_6  and  O4_9 
REMARK    6  A    between atoms: C4_6  and  C7_13 
REMARK    7  A    between atoms: O4_9  and  C5_10 
REMARK    8  A    between atoms: C18_26  and  C19_27 
REMARK    9  A    between atoms: C19_27  and  C21_29 
REMARK   10  A    between atoms: C21_29  and  C22_30 
REMARK   11  A    between atoms: C22_30  and  C23_31 
REMARK   12  A    between atoms: C23_31  and  C24_33 
REMARK   13  A    between atoms: C30_39  and  O8_40 
REMARK   14  A    between atoms: C34_45  and  O9_46 
ROOT
HETATM    1  C7  UNL     1      -4.846   0.304  -0.774  1.00  0.00     0.064 C 
HETATM    2  C8  UNL     1      -5.210  -1.161  -0.682  1.00  0.00     0.188 C 
HETATM    3  O6  UNL     1      -4.327  -1.978  -1.372  1.00  0.00    -0.356 OA
HETATM    4  C9  UNL     1      -3.303  -1.361  -2.001  1.00  0.00     0.290 C 
HETATM    5  O7  UNL     1      -3.573  -0.252  -2.745  1.00  0.00    -0.356 OA
HETATM    6  C10 UNL     1      -4.456   0.632  -2.192  1.00  0.00     0.188 C 
HETATM    7  C11 UNL     1      -2.285  -0.969  -0.942  1.00  0.00    -0.022 C 
HETATM    8  C12 UNL     1      -2.169  -2.077  -0.222  1.00  0.00    -0.018 C 
HETATM    9  C13 UNL     1      -1.179  -1.943   0.921  1.00  0.00     0.033 C 
HETATM   10  C14 UNL     1       0.018  -1.317   0.212  1.00  0.00     0.005 C 
HETATM   11  C15 UNL     1       1.290  -1.833   0.679  1.00  0.00    -0.001 C 
HETATM   12  C16 UNL     1       1.733  -1.649   2.072  1.00  0.00     0.006 C 
HETATM   13  C17 UNL     1       3.208  -1.315   1.989  1.00  0.00     0.006 C 
HETATM   14  C18 UNL     1       3.624  -1.742   0.572  1.00  0.00    -0.002 C 
HETATM   15  C27 UNL     1       2.425  -1.400  -0.253  1.00  0.00    -0.034 C 
HETATM   16  C28 UNL     1       2.322  -2.277  -1.488  1.00  0.00     0.016 C 
HETATM   17  C29 UNL     1       2.284   0.021  -0.666  1.00  0.00     0.042 C 
HETATM   18  C30 UNL     1       0.927   0.470  -1.069  1.00  0.00     0.128 C 
HETATM   19  C31 UNL     1      -0.192   0.140  -0.049  1.00  0.00    -0.004 C 
HETATM   20  C32 UNL     1       0.164   1.057   1.077  1.00  0.00     0.019 C 
HETATM   21  C33 UNL     1      -1.531   0.309  -0.645  1.00  0.00     0.059 C 
HETATM   22  C34 UNL     1      -2.544   1.234  -0.108  1.00  0.00     0.128 C 
HETATM   23  C35 UNL     1      -3.883   0.681   0.266  1.00  0.00     0.052 C 
ENDROOT
BRANCH   1  24
HETATM   24  C4  UNL     1      -6.164   1.044  -0.580  1.00  0.00     0.204 C 
BRANCH  24  25
HETATM   25  C3  UNL     1      -6.848   0.803   0.708  1.00  0.00     0.248 C 
BRANCH  25  26
HETATM   26  O2  UNL     1      -7.210  -0.533   0.973  1.00  0.00    -0.316 OA
BRANCH  26  27
HETATM   27  C2  UNL     1      -7.847  -0.966   2.095  1.00  0.00     0.254 C 
HETATM   28  C1  UNL     1      -8.151  -2.429   2.199  1.00  0.00     0.126 C 
HETATM   29  O1  UNL     1      -8.149  -0.142   2.982  1.00  0.00    -0.266 OA
ENDBRANCH  26  27
ENDBRANCH  25  26
ENDBRANCH  24  25
BRANCH  24  30
HETATM   30  O3  UNL     1      -7.047   0.593  -1.604  1.00  0.00    -0.362 OA
ATOM     31  H3  UNL     1      -6.607   0.748  -2.432  1.00  0.00     0.213 HD
ENDBRANCH  24  30
BRANCH  24  32
HETATM   32  O4  UNL     1      -5.993   2.417  -0.842  1.00  0.00    -0.280 OA
BRANCH  32  33
HETATM   33  C5  UNL     1      -7.017   3.308  -1.001  1.00  0.00     0.257 C 
HETATM   34  C6  UNL     1      -6.777   4.764  -1.269  1.00  0.00     0.126 C 
HETATM   35  O5  UNL     1      -8.220   2.956  -0.931  1.00  0.00    -0.266 OA
ENDBRANCH  32  33
ENDBRANCH  24  32
ENDBRANCH   1  24
BRANCH  22  36
HETATM   36  O9  UNL     1      -2.184   1.986   1.020  1.00  0.00    -0.395 OA
ATOM     37  H9  UNL     1      -2.837   2.583   1.366  1.00  0.00     0.210 HD
ENDBRANCH  22  36
BRANCH  18  38
HETATM   38  O8  UNL     1       0.923   1.852  -1.172  1.00  0.00    -0.395 OA
ATOM     39  H8  UNL     1       0.055   2.139  -1.430  1.00  0.00     0.210 HD
ENDBRANCH  18  38
BRANCH  14  40
HETATM   40  C19 UNL     1       4.914  -1.128   0.186  1.00  0.00    -0.014 C 
HETATM   41  C20 UNL     1       5.378  -1.552  -1.152  1.00  0.00     0.010 C 
BRANCH  40  42
HETATM   42  C21 UNL     1       5.977  -1.243   1.257  1.00  0.00     0.006 C 
BRANCH  42  43
HETATM   43  C22 UNL     1       7.274  -0.621   0.858  1.00  0.00     0.021 C 
BRANCH  43  44
HETATM   44  C23 UNL     1       7.148   0.858   0.561  1.00  0.00     0.085 C 
HETATM   45 CL1  UNL     1       6.572   1.757   1.970  1.00  0.00    -0.125 Cl
BRANCH  44  46
HETATM   46  C24 UNL     1       8.460   1.447   0.094  1.00  0.00    -0.004 C 
HETATM   47  C25 UNL     1       8.230   2.924  -0.176  1.00  0.00     0.011 C 
HETATM   48  C26 UNL     1       9.573   1.238   1.090  1.00  0.00     0.011 C 
ENDBRANCH  44  46
ENDBRANCH  43  44
ENDBRANCH  42  43
ENDBRANCH  40  42
ENDBRANCH  14  40
TORSDOF 14
