REMARK  14 active torsions:
REMARK  status: ('A' for Active; 'I' for Inactive)
REMARK    1  A    between atoms: C2_2  and  C3_3 
REMARK    2  A    between atoms: C3_3  and  C5_5 
REMARK    3  A    between atoms: C5_5  and  C6_7 
REMARK    4  A    between atoms: C6_7  and  C7_8 
REMARK    5  A    between atoms: C7_8  and  O2_9 
REMARK    6  A    between atoms: C7_8  and  C8_11 
REMARK    7  A    between atoms: C8_11  and  C9_12 
REMARK    8  A    between atoms: C9_12  and  C10_13 
REMARK    9  A    between atoms: C10_13  and  O3_14 
REMARK   10  A    between atoms: C16_22  and  C17_24 
REMARK   11  A    between atoms: C24_34  and  O8_35 
REMARK   12  A    between atoms: O8_35  and  C25_36 
REMARK   13  A    between atoms: C25_36  and  C26_38 
REMARK   14  A    between atoms: C32_44  and  O10_46 
ROOT
HETATM    1  C10 UNL     1       0.735  -0.130   0.468  1.00  0.00     0.172 C 
HETATM    2  O4  UNL     1       0.577  -0.860  -0.718  1.00  0.00    -0.340 OA
HETATM    3  C11 UNL     1      -0.752  -1.102  -0.509  1.00  0.00     0.106 C 
HETATM    4  C12 UNL     1      -0.882  -2.603  -0.262  1.00  0.00     0.042 C 
HETATM    5  C13 UNL     1      -2.001  -3.013   0.610  1.00  0.00     0.010 C 
HETATM    6  C14 UNL     1      -2.727  -4.181  -0.087  1.00  0.00     0.023 C 
HETATM    7  C15 UNL     1      -3.067  -5.272   0.902  1.00  0.00     0.013 C 
HETATM    8  C16 UNL     1      -3.875  -3.697  -0.898  1.00  0.00     0.187 C 
HETATM    9 CL1  UNL     1      -5.349  -3.975   0.117  1.00  0.00    -0.099 Cl
HETATM   10  C19 UNL     1      -3.908  -2.286  -1.233  1.00  0.00     0.291 C 
HETATM   11  O6  UNL     1      -5.101  -1.920  -1.506  1.00  0.00    -0.263 OA
HETATM   12  O7  UNL     1      -2.995  -1.301  -1.318  1.00  0.00    -0.307 OA
HETATM   13  C20 UNL     1      -1.720  -0.890  -1.630  1.00  0.00     0.190 C 
HETATM   14  C21 UNL     1      -1.788   0.466  -2.166  1.00  0.00     0.013 C 
HETATM   15  C22 UNL     1      -1.781   1.680  -1.680  1.00  0.00    -0.053 C 
HETATM   16  C23 UNL     1      -1.876   2.770  -2.676  1.00  0.00     0.046 C 
HETATM   17  C24 UNL     1      -1.690   2.083  -0.276  1.00  0.00     0.195 C 
HETATM   18  C32 UNL     1      -1.581   1.000   0.707  1.00  0.00     0.096 C 
HETATM   19  C33 UNL     1      -1.319   1.589   2.129  1.00  0.00     0.049 C 
HETATM   20  C34 UNL     1      -0.739  -0.164   0.593  1.00  0.00     0.122 C 
ENDROOT
BRANCH   1  21
HETATM   21  C9  UNL     1       1.527   1.088   0.285  1.00  0.00     0.071 C 
BRANCH  21  22
HETATM   22  C8  UNL     1       2.972   0.985  -0.078  1.00  0.00     0.037 C 
BRANCH  22  23
HETATM   23  C7  UNL     1       3.861   0.277   0.894  1.00  0.00     0.125 C 
BRANCH  23  24
HETATM   24  C6  UNL     1       5.295   0.321   0.323  1.00  0.00     0.110 C 
BRANCH  24  25
HETATM   25  C5  UNL     1       6.204  -0.424   1.232  1.00  0.00     0.133 C 
HETATM   26  O1  UNL     1       5.718  -0.913   2.237  1.00  0.00    -0.297 OA
BRANCH  25  27
HETATM   27  C3  UNL     1       7.641  -0.599   0.984  1.00  0.00     0.051 C 
HETATM   28  C4  UNL     1       8.424   0.688   0.954  1.00  0.00     0.018 C 
BRANCH  27  29
HETATM   29  C2  UNL     1       7.921  -1.332  -0.311  1.00  0.00     0.007 C 
HETATM   30  C1  UNL     1       9.409  -1.597  -0.372  1.00  0.00     0.006 C 
ENDBRANCH  27  29
ENDBRANCH  25  27
ENDBRANCH  24  25
ENDBRANCH  23  24
BRANCH  23  31
HETATM   31  O2  UNL     1       3.913   0.877   2.144  1.00  0.00    -0.395 OA
ATOM     32  H2  UNL     1       3.031   0.850   2.495  1.00  0.00     0.210 HD
ENDBRANCH  23  31
ENDBRANCH  22  23
ENDBRANCH  21  22
ENDBRANCH   1  21
BRANCH   1  33
HETATM   33  O3  UNL     1       1.353  -0.835   1.529  1.00  0.00    -0.365 OA
ATOM     34  H3  UNL     1       0.839  -1.625   1.648  1.00  0.00     0.213 HD
ENDBRANCH   1  33
BRANCH  18  35
HETATM   35  O10 UNL     1      -2.929   0.548   0.879  1.00  0.00    -0.387 OA
ATOM     36  H10 UNL     1      -2.858  -0.153   1.516  1.00  0.00     0.210 HD
ENDBRANCH  18  35
BRANCH  17  37
HETATM   37  O8  UNL     1      -2.842   2.919   0.071  1.00  0.00    -0.304 OA
BRANCH  37  38
HETATM   38  C25 UNL     1      -2.764   4.250   0.335  1.00  0.00     0.294 C 
HETATM   39  O9  UNL     1      -1.649   4.815   0.283  1.00  0.00    -0.259 OA
BRANCH  38  40
HETATM   40  C26 UNL     1      -3.987   4.998   0.677  1.00  0.00     0.039 A 
HETATM   41  C27 UNL     1      -5.214   4.376   0.731  1.00  0.00     0.017 A 
HETATM   42  C28 UNL     1      -6.390   5.018   1.043  1.00  0.00     0.001 A 
HETATM   43  C29 UNL     1      -6.314   6.370   1.316  1.00  0.00     0.000 A 
HETATM   44  C30 UNL     1      -5.102   7.036   1.273  1.00  0.00     0.001 A 
HETATM   45  C31 UNL     1      -3.936   6.346   0.952  1.00  0.00     0.017 A 
ENDBRANCH  38  40
ENDBRANCH  37  38
ENDBRANCH  17  37
BRANCH   8  46
HETATM   46  C17 UNL     1      -4.111  -4.576  -2.105  1.00  0.00     0.157 C 
HETATM   47  C18 UNL     1      -4.443  -6.020  -1.974  1.00  0.00     0.093 C 
HETATM   48  O5  UNL     1      -4.032  -4.101  -3.208  1.00  0.00    -0.296 OA
ENDBRANCH   8  46
TORSDOF 14
