REMARK  6 active torsions:
REMARK  status: ('A' for Active; 'I' for Inactive)
REMARK       I    between atoms: C3_3  and  N1_5 
REMARK    1  A    between atoms: C13_16  and  C14_17 
REMARK    2  A    between atoms: C18_23  and  C19_24 
REMARK    3  A    between atoms: C19_24  and  O6_26 
REMARK    4  A    between atoms: O6_26  and  C20_27 
REMARK    5  A    between atoms: C20_27  and  C21_28 
REMARK    6  A    between atoms: C21_28  and  C22_29 
ROOT
HETATM    1  C1  UNL     1      -0.754  -5.283   0.974  1.00  0.00     0.108 C 
HETATM    2  C2  UNL     1      -0.744  -4.063   1.123  1.00  0.00    -0.088 C 
HETATM    3  C3  UNL     1      -0.707  -2.656   1.312  1.00  0.00     0.286 C 
HETATM    4  O1  UNL     1       0.133  -2.254   2.177  1.00  0.00    -0.259 OA
HETATM    5  N1  UNL     1      -1.555  -1.761   0.579  1.00  0.00    -0.331 N 
HETATM    6  C4  UNL     1      -2.412  -2.443  -0.320  1.00  0.00     0.132 C 
HETATM    7  C5  UNL     1      -3.818  -2.015  -0.484  1.00  0.00     0.008 C 
HETATM    8  C6  UNL     1      -4.590  -3.142  -1.152  1.00  0.00     0.012 C 
HETATM    9  C7  UNL     1      -4.037  -0.809  -1.332  1.00  0.00     0.044 C 
HETATM   10  C8  UNL     1      -3.412  -0.833  -2.683  1.00  0.00     0.175 C 
HETATM   11  O2  UNL     1      -2.280  -0.244  -2.087  1.00  0.00    -0.384 OA
HETATM   12  C9  UNL     1      -3.013   0.274  -1.093  1.00  0.00     0.134 C 
HETATM   13  C10 UNL     1      -2.635   0.374   0.310  1.00  0.00     0.044 C 
HETATM   14  C11 UNL     1      -2.642   1.833   0.762  1.00  0.00     0.010 C 
HETATM   15  C12 UNL     1      -1.302   2.414   0.942  1.00  0.00     0.006 C 
HETATM   16  C13 UNL     1      -0.275   1.731   0.070  1.00  0.00     0.010 C 
HETATM   17  C18 UNL     1      -0.146   0.314   0.573  1.00  0.00     0.118 C 
HETATM   18  C25 UNL     1      -1.436  -0.359   0.840  1.00  0.00     0.051 C 
HETATM   19  C26 UNL     1      -1.667  -0.300   2.393  1.00  0.00     0.040 C 
ENDROOT
BRANCH  17  20
HETATM   20  C19 UNL     1       0.897  -0.362  -0.168  1.00  0.00     0.265 C 
HETATM   21  O5  UNL     1       0.643  -1.257  -1.010  1.00  0.00    -0.265 OA
BRANCH  20  22
HETATM   22  O6  UNL     1       2.263  -0.120  -0.053  1.00  0.00    -0.321 OA
BRANCH  22  23
HETATM   23  C20 UNL     1       3.247  -0.784  -0.777  1.00  0.00     0.186 C 
BRANCH  23  24
HETATM   24  C21 UNL     1       4.591  -0.226  -0.355  1.00  0.00     0.111 C 
BRANCH  24  25
HETATM   25  C22 UNL     1       5.706  -0.883  -1.085  1.00  0.00     0.125 A 
HETATM   26  N2  UNL     1       6.998  -0.597  -0.920  1.00  0.00    -0.348 N 
HETATM   27  C23 UNL     1       7.704  -1.400  -1.755  1.00  0.00     0.114 A 
ATOM     28  H2  UNL     1       7.385   0.099  -0.282  1.00  0.00     0.167 HD
HETATM   29  C24 UNL     1       6.786  -2.168  -2.417  1.00  0.00     0.161 A 
HETATM   30  O7  UNL     1       5.608  -1.815  -1.975  1.00  0.00    -0.308 OA
ENDBRANCH  24  25
ENDBRANCH  23  24
ENDBRANCH  22  23
ENDBRANCH  20  22
ENDBRANCH  17  20
BRANCH  16  31
HETATM   31  C14 UNL     1       0.974   2.550   0.192  1.00  0.00     0.038 C 
HETATM   32  C15 UNL     1       1.494   2.721   1.595  1.00  0.00     0.177 C 
HETATM   33  O3  UNL     1       2.558   3.653   1.478  1.00  0.00    -0.367 OA
HETATM   34  C16 UNL     1       1.962   4.909   1.385  1.00  0.00     0.337 C 
HETATM   35  O4  UNL     1       0.716   4.844   0.752  1.00  0.00    -0.367 OA
HETATM   36  C17 UNL     1       0.711   3.968  -0.310  1.00  0.00     0.177 C 
ENDBRANCH  16  31
TORSDOF 6
