REMARK  8 active torsions:
REMARK  status: ('A' for Active; 'I' for Inactive)
REMARK    1  A    between atoms: C2_2  and  N1_3 
REMARK       I    between atoms: N1_3  and  C3_4 
REMARK    2  A    between atoms: N1_3  and  C18_31 
REMARK    3  A    between atoms: C3_4  and  O2_6 
REMARK    4  A    between atoms: O2_6  and  C4_7 
REMARK    5  A    between atoms: C4_7  and  C5_8 
REMARK    6  A    between atoms: N2_13  and  C9_14 
REMARK    7  A    between atoms: C10_17  and  N4_18 
REMARK    8  A    between atoms: N4_18  and  C11_20 
ROOT
HETATM    1  C5  UNL     1      -0.066   0.484  -1.244  1.00  0.00     0.030 C 
HETATM    2  C6  UNL     1      -0.115   0.239  -2.692  1.00  0.00     0.017 C 
HETATM    3  C7  UNL     1       0.601  -1.027  -3.119  1.00  0.00     0.104 C 
HETATM    4  C8  UNL     1       1.567  -1.463  -2.073  1.00  0.00     0.238 C 
HETATM    5  O3  UNL     1       1.913  -2.677  -2.001  1.00  0.00    -0.273 OA
HETATM    6  N2  UNL     1       2.121  -0.555  -1.142  1.00  0.00    -0.150 N 
HETATM    7  C17 UNL     1       1.392   0.625  -0.767  1.00  0.00     0.157 C 
ENDROOT
BRANCH   1   8
HETATM    8  C4  UNL     1      -0.822  -0.358  -0.293  1.00  0.00     0.186 C 
BRANCH   8   9
HETATM    9  O2  UNL     1      -2.159  -0.430  -0.350  1.00  0.00    -0.303 OA
BRANCH   9  10
HETATM   10  C3  UNL     1      -3.131  -0.916  -1.133  1.00  0.00     0.363 C 
HETATM   11  N1  UNL     1      -4.543  -0.746  -0.836  1.00  0.00    -0.321 N 
HETATM   12  O1  UNL     1      -2.802  -1.544  -2.166  1.00  0.00    -0.238 OA
BRANCH  11  13
HETATM   13  C2  UNL     1      -5.477  -1.315  -1.760  1.00  0.00     0.124 C 
HETATM   14  C1  UNL     1      -5.859  -2.748  -1.427  1.00  0.00     0.026 C 
ENDBRANCH  11  13
BRANCH  11  15
HETATM   15  C18 UNL     1      -4.927  -0.019   0.359  1.00  0.00     0.120 C 
HETATM   16  C19 UNL     1      -5.715  -0.817   1.341  1.00  0.00     0.054 C 
HETATM   17  C20 UNL     1      -7.193  -0.647   1.253  1.00  0.00     0.173 C 
HETATM   18  O4  UNL     1      -7.576   0.475   1.973  1.00  0.00    -0.361 OA
HETATM   19  C21 UNL     1      -7.304   1.623   1.266  1.00  0.00     0.260 C 
HETATM   20  C22 UNL     1      -6.178   2.433   1.855  1.00  0.00     0.063 C 
HETATM   21  O5  UNL     1      -6.936   1.281  -0.016  1.00  0.00    -0.354 OA
HETATM   22  C23 UNL     1      -5.153   2.444   0.740  1.00  0.00     0.039 C 
HETATM   23  C24 UNL     1      -5.579   1.251  -0.092  1.00  0.00     0.147 C 
ENDBRANCH  11  15
ENDBRANCH   9  10
ENDBRANCH   8   9
ENDBRANCH   1   8
BRANCH   6  24
HETATM   24  C9  UNL     1       3.402  -0.753  -0.543  1.00  0.00     0.702 A 
HETATM   25  N3  UNL     1       4.387   0.153  -0.676  1.00  0.00    -0.022 N 
HETATM   26  C10 UNL     1       5.600  -0.037  -0.106  1.00  0.00     0.693 A 
ATOM     27  H3  UNL     1       4.217   1.001  -1.217  1.00  0.00     0.203 HD
HETATM   28  N5  UNL     1       5.771  -1.175   0.597  1.00  0.00    -0.187 N 
HETATM   29  C16 UNL     1       4.806  -2.099   0.747  1.00  0.00     0.215 A 
ATOM     30  H5  UNL     1       6.676  -1.343   1.036  1.00  0.00     0.185 HD
HETATM   31  N6  UNL     1       3.606  -1.874   0.163  1.00  0.00    -0.186 N 
ATOM     32  H6  UNL     1       2.856  -2.558   0.260  1.00  0.00     0.185 HD
BRANCH  26  33
HETATM   33  N4  UNL     1       6.550   0.831  -0.229  1.00  0.00    -0.221 N 
ATOM     34  H4  UNL     1       6.404   1.687  -0.764  1.00  0.00     0.178 HD
BRANCH  33  35
HETATM   35  C11 UNL     1       7.810   0.570   0.398  1.00  0.00     0.099 C 
HETATM   36  C12 UNL     1       7.771   0.788   1.908  1.00  0.00     0.026 C 
HETATM   37  C13 UNL     1       9.270   0.749   2.230  1.00  0.00     0.002 C 
HETATM   38  C14 UNL     1       9.940   1.411   1.033  1.00  0.00     0.002 C 
HETATM   39  C15 UNL     1       8.870   1.586  -0.009  1.00  0.00     0.026 C 
ENDBRANCH  33  35
ENDBRANCH  26  33
ENDBRANCH   6  24
TORSDOF 8
