REMARK  6 active torsions:
REMARK  status: ('A' for Active; 'I' for Inactive)
REMARK    1  A    between atoms: O1_2  and  C2_3 
REMARK    2  A    between atoms: N1_5  and  C4_6 
REMARK    3  A    between atoms: C5_9  and  C6_10 
REMARK       I    between atoms: C6_10  and  N3_12 
REMARK    4  A    between atoms: C14_20  and  O3_21 
REMARK    5  A    between atoms: C18_28  and  N5_29 
REMARK       I    between atoms: N5_29  and  C20_31 
REMARK       I    between atoms: C20_31  and  N6_33 
REMARK    6  A    between atoms: N6_33  and  C21_35 
ROOT
HETATM    1  C4  UNL     1       0.901  -1.546  -0.270  1.00  0.00     0.165 A 
HETATM    2  N2  UNL     1      -0.011  -0.733   0.220  1.00  0.00    -0.317 N 
ATOM      3  H2  UNL     1       0.270   0.122   0.700  1.00  0.00     0.169 HD
HETATM    4  C5  UNL     1      -1.270  -1.025   0.090  1.00  0.00     0.183 A 
HETATM    5  N4  UNL     1      -1.574  -2.164  -0.548  1.00  0.00    -0.305 N 
ATOM      6  H4  UNL     1      -2.494  -2.558  -0.744  1.00  0.00     0.176 HD
HETATM    7  S1  UNL     1      -0.060  -2.782  -0.945  1.00  0.00     0.024 SA
ENDROOT
BRANCH   1   8
HETATM    8  N1  UNL     1       2.342  -1.409  -0.228  1.00  0.00    -0.356 N 
HETATM    9  C3  UNL     1       3.150  -2.152   0.713  1.00  0.00     0.159 C 
HETATM   10  C2  UNL     1       4.585  -1.977   0.236  1.00  0.00     0.163 C 
HETATM   11  C18 UNL     1       4.510  -0.594  -0.367  1.00  0.00     0.137 C 
HETATM   12  C17 UNL     1       3.159  -0.558  -1.053  1.00  0.00     0.153 C 
BRANCH  10  13
HETATM   13  O1  UNL     1       5.023  -2.964  -0.588  1.00  0.00    -0.387 OA
HETATM   14  C1  UNL     1       6.107  -3.675  -0.112  1.00  0.00     0.202 C 
ENDBRANCH  10  13
BRANCH  11  15
HETATM   15  N5  UNL     1       5.574  -0.228  -1.222  1.00  0.00    -0.330 N 
HETATM   16  C19 UNL     1       5.843  -0.969  -2.481  1.00  0.00     0.155 C 
HETATM   17  C20 UNL     1       6.441   0.844  -0.933  1.00  0.00     0.318 C 
HETATM   18  O4  UNL     1       7.356   1.161  -1.797  1.00  0.00    -0.247 OA
HETATM   19  N6  UNL     1       6.387   1.595   0.234  1.00  0.00    -0.339 N 
ATOM     20  H6  UNL     1       5.688   1.381   0.945  1.00  0.00     0.164 HD
BRANCH  19  21
HETATM   21  C21 UNL     1       7.337   2.699   0.447  1.00  0.00     0.078 C 
HETATM   22  C22 UNL     1       6.614   3.923   0.902  1.00  0.00     0.032 C 
HETATM   23  C23 UNL     1       8.469   2.262   1.336  1.00  0.00     0.032 C 
ENDBRANCH  19  21
ENDBRANCH  11  15
ENDBRANCH   1   8
BRANCH   4  24
HETATM   24  C6  UNL     1      -2.325  -0.129   0.626  1.00  0.00     0.288 C 
HETATM   25  O2  UNL     1      -1.981   0.951   1.233  1.00  0.00    -0.264 OA
HETATM   26  N3  UNL     1      -3.700  -0.443   0.480  1.00  0.00    -0.345 N 
HETATM   27  C7  UNL     1      -4.262  -1.581  -0.157  1.00  0.00     0.127 C 
HETATM   28  C16 UNL     1      -4.784   0.392   0.990  1.00  0.00     0.138 C 
HETATM   29  C8  UNL     1      -5.793  -1.466  -0.092  1.00  0.00     0.033 C 
HETATM   30  C9  UNL     1      -5.933   0.037   0.083  1.00  0.00     0.004 C 
HETATM   31  C10 UNL     1      -5.806   0.762  -1.206  1.00  0.00     0.014 C 
HETATM   32  C14 UNL     1      -7.235   0.416   0.793  1.00  0.00     0.131 C 
HETATM   33  C11 UNL     1      -7.139   1.106  -1.816  1.00  0.00     0.001 C 
HETATM   34  C12 UNL     1      -8.244   0.143  -1.479  1.00  0.00     0.002 C 
HETATM   35  C13 UNL     1      -8.428  -0.060  -0.000  1.00  0.00     0.033 C 
BRANCH  32  36
HETATM   36  O3  UNL     1      -7.198   1.766   0.980  1.00  0.00    -0.390 OA
HETATM   37  C15 UNL     1      -7.085   2.252   2.242  1.00  0.00     0.202 C 
ENDBRANCH  32  36
ENDBRANCH   4  24
TORSDOF 6
