REMARK  8 active torsions:
REMARK  status: ('A' for Active; 'I' for Inactive)
REMARK    1  A    between atoms: C1_2  and  C2_3 
REMARK       I    between atoms: C1_2  and  N1_22 
REMARK    2  A    between atoms: C2_3  and  O2_4 
REMARK    3  A    between atoms: O2_4  and  C3_5 
REMARK    4  A    between atoms: C3_5  and  C4_7 
REMARK    5  A    between atoms: C4_7  and  S1_8 
REMARK    6  A    between atoms: S1_8  and  C5_10 
REMARK    7  A    between atoms: N1_22  and  C15_24 
REMARK    8  A    between atoms: N3_29  and  C18_30 
ROOT
HETATM    1  O2  UNL     1       1.024   1.233  -1.724  1.00  0.00    -0.311 OA
ENDROOT
BRANCH   1   2
HETATM    2  C2  UNL     1       2.185   1.619  -2.391  1.00  0.00     0.281 C 
BRANCH   2   3
HETATM    3  C1  UNL     1       3.223   0.577  -2.554  1.00  0.00     0.247 C 
HETATM    4  O1  UNL     1       4.299   1.029  -3.114  1.00  0.00    -0.271 OA
HETATM    5  N1  UNL     1       3.215  -0.743  -2.218  1.00  0.00    -0.310 N 
ATOM      6  H1  UNL     1       2.499  -1.236  -2.752  1.00  0.00     0.170 HD
BRANCH   5   7
HETATM    7  C15 UNL     1       3.800  -1.528  -1.472  1.00  0.00     0.128 A 
HETATM    8  C16 UNL     1       3.497  -2.895  -1.402  1.00  0.00     0.069 A 
HETATM    9  C17 UNL     1       4.311  -3.470  -0.483  1.00  0.00     0.111 A 
HETATM   10  N2  UNL     1       5.086  -2.509  -0.002  1.00  0.00    -0.306 N 
HETATM   11  N3  UNL     1       4.783  -1.337  -0.593  1.00  0.00    -0.247 N 
ATOM     12  H2  UNL     1       5.805  -2.637   0.710  1.00  0.00     0.186 HD
BRANCH  11  13
HETATM   13  C18 UNL     1       5.477  -0.125  -0.243  1.00  0.00     0.245 C 
HETATM   14  C19 UNL     1       5.833  -0.216   1.245  1.00  0.00     0.056 C 
HETATM   15  C20 UNL     1       6.237   1.200   1.647  1.00  0.00     0.006 C 
HETATM   16  C21 UNL     1       7.263   1.652   0.621  1.00  0.00     0.026 C 
HETATM   17  C22 UNL     1       7.699   0.488  -0.230  1.00  0.00     0.170 C 
HETATM   18  O7  UNL     1       6.675  -0.053  -0.968  1.00  0.00    -0.365 OA
ENDBRANCH  11  13
ENDBRANCH   5   7
ENDBRANCH   2   3
ENDBRANCH   1   2
BRANCH   1  19
HETATM   19  C3  UNL     1       0.967   0.888  -0.416  1.00  0.00     0.270 C 
HETATM   20  O3  UNL     1       1.983   0.902   0.320  1.00  0.00    -0.264 OA
BRANCH  19  21
HETATM   21  C4  UNL     1      -0.289   0.461   0.280  1.00  0.00     0.220 C 
BRANCH  21  22
HETATM   22  S1  UNL     1      -1.666   0.467  -0.819  1.00  0.00     0.038 S 
HETATM   23  O4  UNL     1      -1.924   2.002  -1.453  1.00  0.00    -0.257 OA
BRANCH  22  24
HETATM   24  C5  UNL     1      -3.146   0.006   0.049  1.00  0.00     0.179 C 
HETATM   25  C6  UNL     1      -3.434   0.957   1.179  1.00  0.00     0.028 C 
HETATM   26  C7  UNL     1      -4.350   2.067   0.914  1.00  0.00     0.002 C 
HETATM   27  C8  UNL     1      -5.349   1.975  -0.159  1.00  0.00     0.000 C 
HETATM   28  C9  UNL     1      -6.435   0.992  -0.084  1.00  0.00     0.000 C 
HETATM   29  C10 UNL     1      -6.695   0.310   1.202  1.00  0.00     0.000 C 
HETATM   30  C11 UNL     1      -6.491  -1.160   1.261  1.00  0.00     0.002 C 
HETATM   31  C12 UNL     1      -6.559  -1.918  -0.014  1.00  0.00     0.027 C 
HETATM   32  C13 UNL     1      -5.176  -2.283  -0.567  1.00  0.00     0.178 C 
HETATM   33  O5  UNL     1      -4.183  -2.233   0.408  1.00  0.00    -0.321 OA
HETATM   34  C14 UNL     1      -3.114  -1.396   0.520  1.00  0.00     0.275 C 
HETATM   35  O6  UNL     1      -2.052  -1.807   1.039  1.00  0.00    -0.264 OA
ENDBRANCH  22  24
ENDBRANCH  21  22
ENDBRANCH  19  21
ENDBRANCH   1  19
TORSDOF 8
