REMARK  6 active torsions:
REMARK  status: ('A' for Active; 'I' for Inactive)
REMARK    1  A    between atoms: C2_2  and  C3_3 
REMARK    2  A    between atoms: C8_17  and  N2_18 
REMARK    3  A    between atoms: N2_18  and  C9_20 
REMARK    4  A    between atoms: C9_20  and  C10_21 
REMARK    5  A    between atoms: C10_21  and  N3_22 
REMARK    6  A    between atoms: C14_28  and  C15_29 
ROOT
HETATM    1  C3  UNL     1       3.366  -0.462   0.514  1.00  0.00     0.147 C 
HETATM    2  O1  UNL     1       4.352   0.510   0.535  1.00  0.00    -0.356 OA
HETATM    3  C4  UNL     1       5.206   0.685  -0.455  1.00  0.00     0.311 A 
HETATM    4  C5  UNL     1       4.666   1.380  -1.664  1.00  0.00     0.056 A 
HETATM    5  N1  UNL     1       5.015   0.557  -2.571  1.00  0.00    -0.285 N 
ATOM      6  H1  UNL     1       4.887   0.561  -3.583  1.00  0.00     0.178 HD
HETATM    7  S1  UNL     1       5.771  -0.556  -1.516  1.00  0.00     0.263 S 
HETATM    8  O2  UNL     1       7.272  -0.615  -1.691  1.00  0.00    -0.203 OA
HETATM    9  O3  UNL     1       5.195  -1.913  -1.452  1.00  0.00    -0.203 OA
HETATM   10  C6  UNL     1       3.935   2.679  -1.694  1.00  0.00     0.197 C 
HETATM   11  S2  UNL     1       2.342   2.347  -0.967  1.00  0.00     0.151 S 
HETATM   12  O4  UNL     1       1.568   3.658  -1.050  1.00  0.00    -0.227 OA
HETATM   13  O5  UNL     1       1.650   1.410  -1.908  1.00  0.00    -0.227 OA
HETATM   14  C7  UNL     1       2.423   1.790   0.688  1.00  0.00     0.168 C 
HETATM   15  C8  UNL     1       2.079   0.281   0.825  1.00  0.00     0.123 C 
ENDROOT
BRANCH  15  16
HETATM   16  N2  UNL     1       0.983   0.081   0.009  1.00  0.00    -0.393 N 
ATOM     17  H2  UNL     1       0.678   0.891  -0.531  1.00  0.00     0.159 HD
BRANCH  16  18
HETATM   18  C9  UNL     1       0.247  -1.071  -0.170  1.00  0.00     0.077 C 
BRANCH  18  19
HETATM   19  C10 UNL     1      -0.649  -1.552   0.930  1.00  0.00     0.186 C 
BRANCH  19  20
HETATM   20  N3  UNL     1      -1.690  -0.659   1.332  1.00  0.00    -0.318 N 
HETATM   21  N4  UNL     1      -1.584   0.044   2.573  1.00  0.00    -0.311 N 
HETATM   22  C11 UNL     1      -2.146   1.193   2.515  1.00  0.00     0.002 C 
ATOM     23  H4  UNL     1      -1.118  -0.325   3.402  1.00  0.00     0.186 HD
HETATM   24  C12 UNL     1      -2.194   2.151   3.654  1.00  0.00     0.065 C 
HETATM   25  C13 UNL     1      -2.724   1.340   1.138  1.00  0.00     0.081 C 
HETATM   26  C14 UNL     1      -2.921  -0.160   0.811  1.00  0.00     0.112 C 
BRANCH  26  27
HETATM   27  C15 UNL     1      -3.210  -0.297  -0.622  1.00  0.00     0.010 C 
HETATM   28  C16 UNL     1      -3.346  -1.734  -1.085  1.00  0.00     0.007 C 
HETATM   29  C17 UNL     1      -4.602  -1.990  -1.876  1.00  0.00     0.000 C 
HETATM   30  C18 UNL     1      -4.843  -0.999  -2.968  1.00  0.00     0.000 C 
HETATM   31  C19 UNL     1      -4.871   0.378  -2.368  1.00  0.00     0.000 C 
HETATM   32  C20 UNL     1      -4.575   0.359  -0.876  1.00  0.00     0.007 C 
ENDBRANCH  26  27
ENDBRANCH  19  20
ENDBRANCH  18  19
ENDBRANCH  16  18
ENDBRANCH  15  16
BRANCH   1  33
HETATM   33  C2  UNL     1       3.796  -1.402   1.643  1.00  0.00     0.029 C 
HETATM   34  C1  UNL     1       2.923  -2.588   1.847  1.00  0.00     0.007 C 
ENDBRANCH   1  33
TORSDOF 6
