REMARK  5 active torsions:
REMARK  status: ('A' for Active; 'I' for Inactive)
REMARK    1  A    between atoms: N1_2  and  C3_4 
REMARK    2  A    between atoms: N2_7  and  C6_8 
REMARK    3  A    between atoms: N3_12  and  C10_13 
REMARK    4  A    between atoms: C12_15  and  N4_16 
REMARK    5  A    between atoms: N4_16  and  C13_18 
ROOT
HETATM    1  C6  UNL     1       2.634   0.494   0.799  1.00  0.00     0.255 C 
HETATM    2  C7  UNL     1       2.231  -0.548   1.898  1.00  0.00     0.072 C 
HETATM    3  C8  UNL     1       0.941  -1.185   1.363  1.00  0.00     0.206 C 
HETATM    4  C9  UNL     1      -0.351  -0.603   1.807  1.00  0.00     0.157 C 
HETATM    5  N3  UNL     1      -1.118   0.080   0.751  1.00  0.00    -0.365 N 
HETATM    6  C18 UNL     1      -0.866   0.875  -0.403  1.00  0.00     0.126 C 
HETATM    7  C19 UNL     1       0.561   1.392  -0.622  1.00  0.00     0.055 C 
HETATM    8  C20 UNL     1       1.321   0.692   0.334  1.00  0.00     0.221 C 
HETATM    9  N7  UNL     1       1.031  -0.726  -0.007  1.00  0.00    -0.063 N 
ATOM     10  H71 UNL     1       0.238  -0.912  -0.621  1.00  0.00     0.278 HD
ATOM     11  H72 UNL     1       1.684  -1.207  -0.625  1.00  0.00     0.278 HD
ENDROOT
BRANCH   5  12
HETATM   12  C10 UNL     1      -2.527  -0.091   0.906  1.00  0.00     0.110 A 
HETATM   13  C11 UNL     1      -3.465   0.327   0.021  1.00  0.00     0.096 A 
HETATM   14  C12 UNL     1      -4.829   0.110   0.277  1.00  0.00     0.108 A 
HETATM   15  N5  UNL     1      -5.183  -0.510   1.397  1.00  0.00    -0.304 N 
HETATM   16  C17 UNL     1      -4.251  -0.929   2.284  1.00  0.00     0.268 A 
ATOM     17  H5  UNL     1      -6.171  -0.673   1.591  1.00  0.00     0.171 HD
HETATM   18  F1  UNL     1      -4.635  -1.559   3.418  1.00  0.00    -0.165 F 
HETATM   19  N6  UNL     1      -2.957  -0.710   2.016  1.00  0.00    -0.304 N 
ATOM     20  H6  UNL     1      -2.262  -1.030   2.691  1.00  0.00     0.171 HD
BRANCH  14  21
HETATM   21  N4  UNL     1      -5.632   0.542  -0.622  1.00  0.00    -0.368 N 
ATOM     22  H4  UNL     1      -5.199   0.996  -1.426  1.00  0.00     0.161 HD
BRANCH  21  23
HETATM   23  C13 UNL     1      -7.052   0.468  -0.641  1.00  0.00     0.021 C 
HETATM   24  C14 UNL     1      -7.568  -0.938  -0.624  1.00  0.00     0.037 C 
HETATM   25  C15 UNL     1      -7.636   1.245   0.514  1.00  0.00     0.037 C 
HETATM   26  C16 UNL     1      -7.573   1.117  -1.925  1.00  0.00     0.037 C 
ENDBRANCH  21  23
ENDBRANCH  14  21
ENDBRANCH   5  12
BRANCH   1  27
HETATM   27  N2  UNL     1       3.614  -0.135   0.006  1.00  0.00     0.097 N 
HETATM   28  C5  UNL     1       3.991   0.596  -1.187  1.00  0.00     0.275 C 
HETATM   29  C4  UNL     1       4.915  -0.463  -1.809  1.00  0.00     0.068 C 
HETATM   30  C3  UNL     1       5.722  -0.847  -0.575  1.00  0.00     0.252 C 
HETATM   31  C21 UNL     1       4.892  -0.339   0.615  1.00  0.00     0.308 C 
BRANCH  30  32
HETATM   32  N1  UNL     1       6.965  -0.114  -0.610  1.00  0.00     0.086 N 
HETATM   33  C1  UNL     1       7.754  -0.460   0.540  1.00  0.00     0.310 C 
HETATM   34  C2  UNL     1       7.680  -0.293  -1.842  1.00  0.00     0.310 C 
ENDBRANCH  30  32
ENDBRANCH   1  27
TORSDOF 5
