REMARK  5 active torsions:
REMARK  status: ('A' for Active; 'I' for Inactive)
REMARK    1  A    between atoms: C7_8  and  O1_9 
REMARK    2  A    between atoms: C9_13  and  C10_14 
REMARK    3  A    between atoms: C9_13  and  C12_16 
REMARK    4  A    between atoms: C12_16  and  O3_17 
REMARK    5  A    between atoms: C17_24  and  O5_25 
ROOT
HETATM    1  C1  UNL     1       2.731  -0.820   2.897  1.00  0.00     0.015 C 
HETATM    2  C2  UNL     1       2.553  -1.037   1.623  1.00  0.00    -0.083 C 
HETATM    3  C3  UNL     1       3.767  -1.180   0.801  1.00  0.00     0.049 C 
HETATM    4  C4  UNL     1       4.047  -0.194  -0.245  1.00  0.00     0.062 C 
HETATM    5 BR1  UNL     1       5.840  -0.471  -0.908  1.00  0.00    -0.091 Br
HETATM    6  C5  UNL     1       3.043  -0.209  -1.412  1.00  0.00     0.024 C 
HETATM    7  C6  UNL     1       1.862   0.445  -0.859  1.00  0.00     0.026 C 
HETATM    8  C7  UNL     1       0.805   0.947  -1.882  1.00  0.00     0.154 C 
HETATM    9  C8  UNL     1      -0.470   0.501  -1.333  1.00  0.00     0.192 C 
HETATM   10  O2  UNL     1      -1.671   0.976  -1.318  1.00  0.00    -0.342 OA
HETATM   11  C9  UNL     1      -2.480   0.052  -0.619  1.00  0.00     0.186 C 
HETATM   12  O4  UNL     1      -1.868  -0.683   0.370  1.00  0.00    -0.345 OA
HETATM   13  C13 UNL     1      -0.955  -0.026   1.107  1.00  0.00     0.163 C 
HETATM   14  C14 UNL     1       0.027  -0.736   1.963  1.00  0.00     0.044 C 
HETATM   15  C15 UNL     1       1.210  -1.134   1.130  1.00  0.00     0.024 C 
HETATM   16  C16 UNL     1       1.049  -0.500  -0.116  1.00  0.00     0.040 C 
HETATM   17  C17 UNL     1      -0.041   0.554   0.145  1.00  0.00     0.119 C 
ENDROOT
BRANCH  11  18
HETATM   18  C10 UNL     1      -3.662   0.863  -0.078  1.00  0.00     0.066 C 
HETATM   19  C11 UNL     1      -4.629   0.034   0.698  1.00  0.00     0.010 C 
ENDBRANCH  11  18
BRANCH  11  20
HETATM   20  C12 UNL     1      -3.050  -0.935  -1.614  1.00  0.00     0.232 C 
BRANCH  20  21
HETATM   21  O3  UNL     1      -3.865  -1.882  -0.966  1.00  0.00    -0.396 OA
ATOM     22  H3  UNL     1      -4.223  -2.502  -1.591  1.00  0.00     0.209 HD
ENDBRANCH  20  21
ENDBRANCH  11  20
BRANCH   8  23
HETATM   23  O1  UNL     1       1.115   0.248  -3.072  1.00  0.00    -0.392 OA
ATOM     24  H1  UNL     1       0.469   0.555  -3.697  1.00  0.00     0.210 HD
ENDBRANCH   8  23
BRANCH  17  25
HETATM   25  O5  UNL     1       0.442   1.735   0.530  1.00  0.00    -0.379 OA
HETATM   26  C18 UNL     1      -0.341   2.830   0.439  1.00  0.00     0.202 C 
ENDBRANCH  17  25
TORSDOF 5
