REMARK  4 active torsions:
REMARK  status: ('A' for Active; 'I' for Inactive)
REMARK    1  A    between atoms: C7_8  and  C8_9 
REMARK       I    between atoms: C8_9  and  N1_11 
REMARK    2  A    between atoms: N1_11  and  C9_13 
REMARK    3  A    between atoms: C9_13  and  C11_16 
REMARK    4  A    between atoms: C15_20  and  C16_21 
ROOT
HETATM    1  C9  UNL     1       2.863  -1.484   1.089  1.00  0.00     0.196 C 
HETATM    2  C10 UNL     1       3.540  -0.961   2.291  1.00  0.00     0.085 C 
HETATM    3  N2  UNL     1       4.073  -0.557   3.243  1.00  0.00    -0.195 NA
ENDROOT
BRANCH   1   4
HETATM    4  N1  UNL     1       1.693  -0.695   0.790  1.00  0.00    -0.343 N 
HETATM    5  C8  UNL     1       0.418  -1.317   0.826  1.00  0.00     0.225 C 
HETATM    6  O2  UNL     1       0.284  -2.547   1.113  1.00  0.00    -0.273 OA
ATOM      7  H1  UNL     1       1.781   0.294   0.556  1.00  0.00     0.163 HD
BRANCH   5   8
HETATM    8  C7  UNL     1      -0.761  -0.508   0.521  1.00  0.00     0.102 C 
HETATM    9  C6  UNL     1      -0.761   0.102  -0.847  1.00  0.00     0.182 C 
HETATM   10  O1  UNL     1      -2.003  -0.081  -1.488  1.00  0.00    -0.385 OA
HETATM   11  C5  UNL     1      -3.006   0.484  -0.701  1.00  0.00     0.126 C 
HETATM   12  C4  UNL     1      -4.303   0.437  -1.457  1.00  0.00     0.042 C 
HETATM   13  C19 UNL     1      -3.169  -0.227   0.608  1.00  0.00     0.017 C 
HETATM   14  C2  UNL     1      -5.359   1.100  -0.567  1.00  0.00    -0.029 C 
HETATM   15  C1  UNL     1      -4.856   2.475  -0.164  1.00  0.00     0.016 C 
HETATM   16  C3  UNL     1      -6.634   1.234  -1.361  1.00  0.00     0.016 C 
HETATM   17  C21 UNL     1      -5.549   0.273   0.666  1.00  0.00     0.090 C 
HETATM   18  C20 UNL     1      -4.531  -0.840   0.793  1.00  0.00     0.028 C 
HETATM   19 CL1  UNL     1      -7.211  -0.354   0.718  1.00  0.00    -0.124 Cl
HETATM   20  C18 UNL     1      -2.059  -1.256   0.711  1.00  0.00     0.023 C 
ENDBRANCH   5   8
ENDBRANCH   1   4
BRANCH   1  21
HETATM   21  C11 UNL     1       3.841  -1.451  -0.092  1.00  0.00     0.028 C 
HETATM   22  C12 UNL     1       5.040  -2.322   0.344  1.00  0.00     0.008 C 
HETATM   23  C13 UNL     1       6.281  -1.488  -0.048  1.00  0.00     0.006 C 
HETATM   24  C14 UNL     1       5.672  -0.698  -1.138  1.00  0.00     0.004 A 
HETATM   25  C15 UNL     1       5.125   0.591  -1.246  1.00  0.00     0.084 A 
HETATM   26  C17 UNL     1       4.518  -0.143  -0.205  1.00  0.00     0.010 A 
BRANCH  25  27
HETATM   27  C16 UNL     1       6.016   1.747  -0.920  1.00  0.00     0.236 C 
HETATM   28  N3  UNL     1       6.012   2.960  -1.626  1.00  0.00    -0.062 NA
HETATM   29  O3  UNL     1       6.840   1.651   0.053  1.00  0.00    -0.276 OA
ENDBRANCH  25  27
ENDBRANCH   1  21
TORSDOF 4
