REMARK  3 active torsions:
REMARK  status: ('A' for Active; 'I' for Inactive)
REMARK    1  A    between atoms: C4_7  and  C5_8 
REMARK    2  A    between atoms: C6_9  and  C7_10 
REMARK    3  A    between atoms: N1_12  and  C9_13 
ROOT
HETATM    1  O1  UNL     1       4.757   0.376   2.899  1.00  0.00    -0.217 OA
HETATM    2  S1  UNL     1       4.813  -0.444   1.653  1.00  0.00     0.210 S 
HETATM    3  O2  UNL     1       5.163  -1.860   2.085  1.00  0.00    -0.217 OA
HETATM    4  C1  UNL     1       3.227  -0.514   0.901  1.00  0.00     0.072 A 
HETATM    5  C2  UNL     1       2.200  -0.309   1.767  1.00  0.00     0.026 A 
HETATM    6  C3  UNL     1       0.863  -0.319   1.379  1.00  0.00     0.022 A 
HETATM    7  C4  UNL     1       0.573  -0.548   0.055  1.00  0.00     0.018 A 
HETATM    8  C15 UNL     1       1.601  -0.757  -0.832  1.00  0.00     0.031 A 
HETATM    9  C16 UNL     1       2.947  -0.744  -0.429  1.00  0.00    -0.011 A 
HETATM   10  C17 UNL     1       3.853  -0.999  -1.578  1.00  0.00     0.216 C 
HETATM   11  O3  UNL     1       4.878  -0.030  -1.710  1.00  0.00    -0.345 OA
HETATM   12  C18 UNL     1       5.924   0.280  -0.856  1.00  0.00     0.091 A 
HETATM   13  C19 UNL     1       6.997   0.781  -1.563  1.00  0.00     0.038 A 
HETATM   14  C20 UNL     1       8.161   1.160  -0.917  1.00  0.00     0.003 A 
HETATM   15  C21 UNL     1       8.235   1.032   0.435  1.00  0.00     0.002 A 
HETATM   16  C22 UNL     1       7.152   0.526   1.140  1.00  0.00     0.027 A 
HETATM   17  C23 UNL     1       5.991   0.146   0.513  1.00  0.00     0.097 A 
ENDROOT
BRANCH   7  18
HETATM   18  C5  UNL     1      -0.813  -0.559  -0.352  1.00  0.00    -0.060 C 
HETATM   19  C6  UNL     1      -1.973  -0.551  -0.682  1.00  0.00    -0.041 C 
BRANCH  19  20
HETATM   20  C7  UNL     1      -3.358  -0.519  -1.062  1.00  0.00     0.117 A 
HETATM   21  C8  UNL     1      -4.388  -0.094  -0.250  1.00  0.00     0.154 A 
HETATM   22  N1  UNL     1      -5.526  -0.212  -0.955  1.00  0.00    -0.248 N 
HETATM   23  N2  UNL     1      -5.245  -0.693  -2.171  1.00  0.00    -0.014 NA
HETATM   24  N3  UNL     1      -3.935  -0.875  -2.225  1.00  0.00    -0.275 N 
ATOM     25  H3  UNL     1      -3.432  -1.235  -3.036  1.00  0.00     0.185 HD
BRANCH  22  26
HETATM   26  C9  UNL     1      -6.831   0.124  -0.478  1.00  0.00     0.054 A 
HETATM   27  C10 UNL     1      -7.042   1.098   0.466  1.00  0.00     0.031 A 
HETATM   28  C11 UNL     1      -8.296   1.440   0.941  1.00  0.00     0.002 A 
HETATM   29  C12 UNL     1      -9.382   0.771   0.443  1.00  0.00     0.000 A 
HETATM   30  C13 UNL     1      -9.213  -0.214  -0.507  1.00  0.00     0.002 A 
HETATM   31  C14 UNL     1      -7.951  -0.537  -0.965  1.00  0.00     0.031 A 
ENDBRANCH  22  26
ENDBRANCH  19  20
ENDBRANCH   7  18
TORSDOF 3
