REMARK  3 active torsions:
REMARK  status: ('A' for Active; 'I' for Inactive)
REMARK    1  A    between atoms: N1_1  and  C1_4 
REMARK    2  A    between atoms: C6_14  and  C7_15 
REMARK    3  A    between atoms: C7_15  and  N5_16 
ROOT
HETATM    1  C1  UNL     1       0.611  -1.427  -0.084  1.00  0.00     0.124 A 
HETATM    2  N2  UNL     1      -0.699  -1.627  -0.044  1.00  0.00    -0.260 N 
ATOM      3  H2  UNL     1      -1.078  -2.573  -0.085  1.00  0.00     0.191 HD
HETATM    4  N3  UNL     1      -1.508  -0.588   0.049  1.00  0.00    -0.149 N 
HETATM    5  C2  UNL     1      -2.870  -0.566   0.104  1.00  0.00     0.283 A 
HETATM    6  O1  UNL     1      -3.615  -1.569   0.075  1.00  0.00    -0.265 OA
HETATM    7  C3  UNL     1      -3.319   0.730   0.198  1.00  0.00     0.097 A 
HETATM    8  C4  UNL     1      -2.164   1.506   0.198  1.00  0.00     0.123 A 
HETATM    9  N4  UNL     1      -1.111   0.671   0.107  1.00  0.00    -0.254 N 
HETATM   10  C5  UNL     1       0.227   0.881   0.067  1.00  0.00     0.130 A 
HETATM   11  C6  UNL     1       1.123  -0.155  -0.030  1.00  0.00     0.029 A 
ENDROOT
BRANCH  11  12
HETATM   12  C7  UNL     1       2.568   0.138  -0.070  1.00  0.00     0.273 C 
BRANCH  12  13
HETATM   13  N5  UNL     1       2.798   1.556   0.004  1.00  0.00    -0.075 N 
ATOM     14  H53 UNL     1       2.289   2.061  -0.721  1.00  0.00     0.274 HD
ATOM     15  H52 UNL     1       2.350   1.970   0.821  1.00  0.00     0.274 HD
ATOM     16  H51 UNL     1       3.797   1.759  -0.024  1.00  0.00     0.274 HD
ENDBRANCH  12  13
ENDBRANCH  11  12
BRANCH   1  17
HETATM   17  N1  UNL     1       1.460  -2.395  -0.175  1.00  0.00    -0.384 N 
ATOM     18  H12 UNL     1       1.079  -3.340  -0.215  1.00  0.00     0.157 HD
ATOM     19  H11 UNL     1       2.468  -2.241  -0.206  1.00  0.00     0.157 HD
ENDBRANCH   1  17
TORSDOF 3
