REMARK  2 active torsions:
REMARK  status: ('A' for Active; 'I' for Inactive)
REMARK       I    between atoms: C1_2  and  N1_3 
REMARK    1  A    between atoms: C1_2  and  C3_12 
REMARK    2  A    between atoms: N1_3  and  C2_5 
ROOT
HETATM    1  O1  UNL     1      -0.261  -1.903   0.707  1.00  0.00    -0.263 OA
HETATM    2  C1  UNL     1       0.185  -1.029  -0.066  1.00  0.00     0.305 C 
HETATM    3  N1  UNL     1      -0.631  -0.521  -1.101  1.00  0.00    -0.151 N 
ATOM      4  H1  UNL     1      -0.243  -0.473  -2.043  1.00  0.00     0.188 HD
ENDROOT
BRANCH   2   5
HETATM    5  C3  UNL     1       1.549  -0.566   0.138  1.00  0.00     0.191 A 
HETATM    6  N6  UNL     1       2.421  -0.965   1.078  1.00  0.00    -0.332 N 
HETATM    7  C4  UNL     1       3.555  -0.267   0.885  1.00  0.00     0.199 A 
ATOM      8  H6  UNL     1       2.255  -1.665   1.801  1.00  0.00     0.168 HD
HETATM    9  N7  UNL     1       3.409   0.566  -0.164  1.00  0.00    -0.294 N 
HETATM   10  N8  UNL     1       2.179   0.377  -0.614  1.00  0.00    -0.280 N 
ATOM     11  H7  UNL     1       4.106   1.212  -0.536  1.00  0.00     0.187 HD
ATOM     12  H8  UNL     1       1.764   0.866  -1.407  1.00  0.00     0.188 HD
ENDBRANCH   2   5
BRANCH   3  13
HETATM   13  C2  UNL     1      -1.827  -0.120  -0.919  1.00  0.00     0.710 A 
HETATM   14  N2  UNL     1      -2.635   0.369  -1.873  1.00  0.00    -0.117 N 
HETATM   15  N3  UNL     1      -3.772   0.662  -1.265  1.00  0.00     0.006 NA
ATOM     16  H2  UNL     1      -2.417   0.490  -2.862  1.00  0.00     0.202 HD
HETATM   17  N4  UNL     1      -3.692   0.371   0.033  1.00  0.00     0.006 NA
HETATM   18  N5  UNL     1      -2.470  -0.122   0.258  1.00  0.00    -0.117 N 
ATOM     19  H5  UNL     1      -2.098  -0.439   1.153  1.00  0.00     0.202 HD
ENDBRANCH   3  13
TORSDOF 2
