REMARK  17 active torsions:
REMARK  status: ('A' for Active; 'I' for Inactive)
REMARK    1  A    between atoms: N1_2  and  C2_3 
REMARK       I    between atoms: N1_2  and  C4_9 
REMARK    2  A    between atoms: C2_3  and  C3_4 
REMARK    3  A    between atoms: C3_4  and  N2_5 
REMARK       I    between atoms: C4_9  and  N3_11 
REMARK    4  A    between atoms: N3_11  and  C5_13 
REMARK    5  A    between atoms: C8_21  and  N6_22 
REMARK    6  A    between atoms: N8_28  and  C10_29 
REMARK    7  A    between atoms: C10_29  and  O3_30 
REMARK    8  A    between atoms: C10_29  and  C13_39 
REMARK    9  A    between atoms: O3_30  and  C11_31 
REMARK   10  A    between atoms: C11_31  and  N10_35 
REMARK   11  A    between atoms: C13_39  and  N12_40 
REMARK   12  A    between atoms: C13_39  and  C14_44 
REMARK   13  A    between atoms: C14_44  and  C15_45 
REMARK   14  A    between atoms: C15_45  and  C16_46 
REMARK   15  A    between atoms: C16_46  and  N13_47 
REMARK   16  A    between atoms: N13_47  and  N14_49 
REMARK   17  A    between atoms: N14_49  and  N15_50 
ROOT
HETATM    1  N10 UNL     1      -0.833  -3.363   0.984  1.00  0.00    -0.259 N 
ATOM      2  H10 UNL     1      -0.624  -3.540   0.001  1.00  0.00     0.181 HD
HETATM    3  C12 UNL     1      -0.713  -4.401   1.943  1.00  0.00     0.185 C 
HETATM    4  N11 UNL     1      -0.616  -5.241   2.730  1.00  0.00    -0.172 NA
ENDROOT
BRANCH   1   5
HETATM    5  C11 UNL     1      -1.247  -2.078   1.411  1.00  0.00     0.228 C 
HETATM    6  N9  UNL     1      -2.243  -1.947   2.266  1.00  0.00    -0.365 N 
ATOM      7  H92 UNL     1      -2.541  -1.021   2.574  1.00  0.00     0.159 HD
ATOM      8  H91 UNL     1      -2.633  -2.847   2.545  1.00  0.00     0.159 HD
BRANCH   5   9
HETATM    9  O3  UNL     1      -0.726  -0.876   1.039  1.00  0.00    -0.292 OA
BRANCH   9  10
HETATM   10  C10 UNL     1      -1.359   0.214   0.440  1.00  0.00     0.287 C 
BRANCH  10  11
HETATM   11  N8  UNL     1      -0.283   1.235   0.342  1.00  0.00    -0.135 N 
HETATM   12  C5  UNL     1       0.948   0.924  -0.081  1.00  0.00     0.693 A 
HETATM   13  N4  UNL     1       1.683   2.056  -0.059  1.00  0.00    -0.182 N 
HETATM   14  C6  UNL     1       0.913   3.061   0.375  1.00  0.00     0.163 A 
ATOM     15  H4  UNL     1       2.664   2.133  -0.329  1.00  0.00     0.184 HD
HETATM   16  C7  UNL     1       1.113   4.402   0.598  1.00  0.00     0.290 A 
HETATM   17  C9  UNL     1      -0.336   2.530   0.629  1.00  0.00     0.174 A 
HETATM   18  O2  UNL     1       2.236   4.921   0.379  1.00  0.00    -0.265 OA
HETATM   19  N5  UNL     1       0.124   5.187   1.050  1.00  0.00    -0.154 N 
HETATM   20  C8  UNL     1      -1.088   4.623   1.286  1.00  0.00     0.680 A 
ATOM     21  H5  UNL     1       0.279   6.182   1.212  1.00  0.00     0.187 HD
HETATM   22  N7  UNL     1      -1.326   3.309   1.080  1.00  0.00    -0.173 N 
ATOM     23  H7  UNL     1      -2.249   2.916   1.266  1.00  0.00     0.186 HD
BRANCH  12  24
HETATM   24  N3  UNL     1       1.417  -0.211  -0.453  1.00  0.00    -0.141 N 
HETATM   25  C4  UNL     1       2.765  -0.382  -0.880  1.00  0.00     0.336 C 
HETATM   26  N1  UNL     1       3.548  -1.338  -0.179  1.00  0.00    -0.336 N 
HETATM   27  O1  UNL     1       3.255   0.273  -1.829  1.00  0.00    -0.246 OA
HETATM   28  C1  UNL     1       3.000  -2.123   0.918  1.00  0.00     0.154 C 
ATOM     29  H3  UNL     1       0.800  -1.023  -0.442  1.00  0.00     0.189 HD
BRANCH  26  30
HETATM   30  C2  UNL     1       4.928  -1.516  -0.573  1.00  0.00     0.154 C 
BRANCH  30  31
HETATM   31  C3  UNL     1       5.889  -0.647   0.175  1.00  0.00     0.249 C 
BRANCH  31  32
HETATM   32  N2  UNL     1       5.578   0.730  -0.029  1.00  0.00    -0.078 N 
ATOM     33  H23 UNL     1       5.543   0.968  -1.020  1.00  0.00     0.274 HD
ATOM     34  H22 UNL     1       4.609   0.940   0.212  1.00  0.00     0.274 HD
ATOM     35  H21 UNL     1       6.233   1.322   0.481  1.00  0.00     0.274 HD
ENDBRANCH  31  32
ENDBRANCH  30  31
ENDBRANCH  26  30
ENDBRANCH  12  24
BRANCH  20  36
HETATM   36  N6  UNL     1      -2.018   5.411   1.722  1.00  0.00    -0.234 N 
ATOM     37  H62 UNL     1      -1.838   6.403   1.878  1.00  0.00     0.174 HD
ATOM     38  H61 UNL     1      -2.929   4.987   1.899  1.00  0.00     0.174 HD
ENDBRANCH  20  36
ENDBRANCH  10  11
BRANCH  10  39
HETATM   39  C13 UNL     1      -1.784   0.031  -0.980  1.00  0.00     0.233 C 
BRANCH  39  40
HETATM   40  N12 UNL     1      -2.366   1.315  -1.482  1.00  0.00    -0.071 N 
ATOM     41 3H12 UNL     1      -3.124   1.656  -0.890  1.00  0.00     0.274 HD
ATOM     42 2H12 UNL     1      -1.729   2.103  -1.365  1.00  0.00     0.274 HD
ATOM     43 1H12 UNL     1      -2.656   1.190  -2.452  1.00  0.00     0.274 HD
ENDBRANCH  39  40
BRANCH  39  44
HETATM   44  C14 UNL     1      -2.814  -0.975  -1.299  1.00  0.00     0.039 C 
BRANCH  44  45
HETATM   45  C15 UNL     1      -4.163  -0.815  -0.710  1.00  0.00     0.024 C 
BRANCH  45  46
HETATM   46  C16 UNL     1      -5.010  -1.998  -1.208  1.00  0.00     0.155 C 
BRANCH  46  47
HETATM   47  N13 UNL     1      -5.097  -2.004  -2.653  1.00  0.00    -0.253 N 
ATOM     48  H13 UNL     1      -5.244  -1.145  -3.184  1.00  0.00     0.196 HD
BRANCH  47  49
HETATM   49  N14 UNL     1      -4.985  -3.100  -3.212  1.00  0.00    -0.249 NA
BRANCH  49  50
HETATM   50  N15 UNL     1      -4.753  -4.007  -3.993  1.00  0.00    -0.261 N 
ATOM     51 2H15 UNL     1      -4.369  -3.375  -4.696  1.00  0.00     0.193 HD
ATOM     52 1H15 UNL     1      -4.661  -4.912  -4.455  1.00  0.00     0.193 HD
ENDBRANCH  49  50
ENDBRANCH  47  49
ENDBRANCH  46  47
ENDBRANCH  45  46
ENDBRANCH  44  45
ENDBRANCH  39  44
ENDBRANCH  10  39
ENDBRANCH   9  10
ENDBRANCH   5   9
ENDBRANCH   1   5
TORSDOF 17
