REMARK  13 active torsions:
REMARK  status: ('A' for Active; 'I' for Inactive)
REMARK    1  A    between atoms: N1_1  and  C1_4 
REMARK    2  A    between atoms: N3_8  and  N4_10 
REMARK    3  A    between atoms: N4_10  and  C3_12 
REMARK    4  A    between atoms: C3_12  and  N5_14 
REMARK    5  A    between atoms: N5_14  and  C4_16 
REMARK    6  A    between atoms: C4_16  and  C5_17 
REMARK    7  A    between atoms: C5_17  and  O1_18 
REMARK    8  A    between atoms: O1_18  and  S2_19 
REMARK    9  A    between atoms: S2_19  and  N6_20 
REMARK   10  A    between atoms: C7_26  and  N7_27 
REMARK   11  A    between atoms: N7_27  and  N8_29 
REMARK   12  A    between atoms: C8_31  and  C9_32 
REMARK   13  A    between atoms: C9_32  and  C10_33 
ROOT
HETATM    1  C1  UNL     1       0.891  -4.280   0.069  1.00  0.00     0.679 A 
HETATM    2  N2  UNL     1       0.314  -3.256  -0.585  1.00  0.00    -0.174 N 
ATOM      3  H2  UNL     1      -0.527  -3.436  -1.134  1.00  0.00     0.186 HD
HETATM    4  C2  UNL     1       0.802  -2.006  -0.543  1.00  0.00     0.153 A 
HETATM    5  N3  UNL     1       0.236  -1.011  -1.179  1.00  0.00    -0.282 N 
ATOM      6  H3  UNL     1       0.621  -0.067  -1.135  1.00  0.00     0.188 HD
HETATM    7  C6  UNL     1       1.938  -1.818   0.213  1.00  0.00     0.100 A 
HETATM    8  C7  UNL     1       2.492  -0.542   0.297  1.00  0.00     0.138 A 
HETATM    9  N9  UNL     1       3.593  -0.399   1.039  1.00  0.00    -0.337 N 
ATOM     10  H9  UNL     1       4.019   0.525   1.117  1.00  0.00     0.168 HD
HETATM   11  C12 UNL     1       4.159  -1.433   1.687  1.00  0.00     0.183 A 
HETATM   12  N10 UNL     1       3.624  -2.656   1.604  1.00  0.00    -0.337 N 
ATOM     13  H10 UNL     1       4.061  -3.433   2.099  1.00  0.00     0.168 HD
HETATM   14  C13 UNL     1       2.523  -2.870   0.879  1.00  0.00     0.139 A 
HETATM   15  N11 UNL     1       1.998  -4.112   0.808  1.00  0.00    -0.176 N 
ATOM     16  H11 UNL     1       2.428  -4.896   1.299  1.00  0.00     0.186 HD
ENDROOT
BRANCH   5  17
HETATM   17  N4  UNL     1      -0.911  -1.291  -1.917  1.00  0.00    -0.275 N 
ATOM     18  H4  UNL     1      -0.853  -1.546  -2.903  1.00  0.00     0.189 HD
BRANCH  17  19
HETATM   19  C3  UNL     1      -2.187  -1.209  -1.243  1.00  0.00     0.186 C 
HETATM   20  S1  UNL     1      -3.544  -1.594  -2.086  1.00  0.00    -0.040 SA
BRANCH  19  21
HETATM   21  N5  UNL     1      -2.207  -0.854   0.109  1.00  0.00    -0.364 N 
ATOM     22  H5  UNL     1      -1.315  -0.687   0.575  1.00  0.00     0.162 HD
BRANCH  21  23
HETATM   23  C4  UNL     1      -3.400  -0.712   0.873  1.00  0.00     0.149 C 
BRANCH  23  24
HETATM   24  C5  UNL     1      -4.230   0.495   0.625  1.00  0.00     0.211 C 
BRANCH  24  25
HETATM   25  O1  UNL     1      -4.722   0.677  -0.640  1.00  0.00    -0.258 OA
BRANCH  25  26
HETATM   26  S2  UNL     1      -5.629   2.064  -0.783  1.00  0.00     0.355 S 
HETATM   27  O2  UNL     1      -5.027   3.038  -1.754  1.00  0.00    -0.176 OA
HETATM   28  O3  UNL     1      -7.023   1.734  -1.284  1.00  0.00    -0.176 OA
BRANCH  26  29
HETATM   29  N6  UNL     1      -5.715   2.842   0.743  1.00  0.00    -0.306 N 
ATOM     30  H62 UNL     1      -5.274   2.496   1.595  1.00  0.00     0.171 HD
ATOM     31  H61 UNL     1      -6.271   3.693   0.655  1.00  0.00     0.171 HD
ENDBRANCH  26  29
ENDBRANCH  25  26
ENDBRANCH  24  25
ENDBRANCH  23  24
ENDBRANCH  21  23
ENDBRANCH  19  21
ENDBRANCH  17  19
ENDBRANCH   5  17
BRANCH   1  32
HETATM   32  N1  UNL     1       0.365  -5.463  -0.018  1.00  0.00    -0.234 N 
ATOM     33  H12 UNL     1      -0.477  -5.591  -0.580  1.00  0.00     0.174 HD
ATOM     34  H11 UNL     1       0.803  -6.240   0.478  1.00  0.00     0.174 HD
ENDBRANCH   1  32
BRANCH   8  35
HETATM   35  N7  UNL     1       1.924   0.393  -0.332  1.00  0.00    -0.285 N 
ATOM     36  H7  UNL     1       1.093   0.117  -0.855  1.00  0.00     0.188 HD
BRANCH  35  37
HETATM   37  N8  UNL     1       2.248   1.718  -0.422  1.00  0.00    -0.314 N 
HETATM   38  C8  UNL     1       3.115   2.284  -1.153  1.00  0.00     0.085 C 
ATOM     39  H8  UNL     1       1.716   2.340   0.186  1.00  0.00     0.185 HD
BRANCH  38  40
HETATM   40  C9  UNL     1       3.245   3.768  -1.034  1.00  0.00     0.092 C 
BRANCH  40  41
HETATM   41  C10 UNL     1       4.460   4.176  -0.280  1.00  0.00    -0.006 A 
HETATM   42  C11 UNL     1       4.990   4.795   0.747  1.00  0.00     0.065 A 
HETATM   43  S3  UNL     1       6.269   4.075  -0.275  1.00  0.00    -0.105 SA
ENDBRANCH  40  41
ENDBRANCH  38  40
ENDBRANCH  35  37
ENDBRANCH   8  35
TORSDOF 13
