REMARK  13 active torsions:
REMARK  status: ('A' for Active; 'I' for Inactive)
REMARK    1  A    between atoms: N1_2  and  S1_4 
REMARK    2  A    between atoms: S1_4  and  C2_7 
REMARK    3  A    between atoms: C5_18  and  N6_19 
REMARK    4  A    between atoms: N6_19  and  C6_21 
REMARK    5  A    between atoms: C6_21  and  C7_22 
REMARK    6  A    between atoms: C7_22  and  N7_23 
REMARK    7  A    between atoms: N7_23  and  C8_25 
REMARK    8  A    between atoms: C8_25  and  C9_30 
REMARK    9  A    between atoms: N8_26  and  O3_28 
REMARK   10  A    between atoms: C12_35  and  C13_36 
REMARK   11  A    between atoms: C13_36  and  O4_37 
REMARK   12  A    between atoms: C13_36  and  C14_39 
REMARK   13  A    between atoms: C14_39  and  O5_41 
ROOT
HETATM    1  C6  UNL     1      -1.450  -0.463   0.274  1.00  0.00     0.141 C 
ENDROOT
BRANCH   1   2
HETATM    2  N6  UNL     1      -2.844  -0.100   0.383  1.00  0.00    -0.374 N 
ATOM      3  H6  UNL     1      -3.167   0.823   0.091  1.00  0.00     0.161 HD
BRANCH   2   4
HETATM    4  C5  UNL     1      -3.679  -0.977   0.862  1.00  0.00     0.119 A 
HETATM    5  N5  UNL     1      -3.260  -2.195   1.248  1.00  0.00    -0.338 N 
HETATM    6  C4  UNL     1      -4.177  -3.054   1.722  1.00  0.00     0.183 A 
ATOM      7  H5  UNL     1      -2.277  -2.458   1.183  1.00  0.00     0.168 HD
HETATM    8  N4  UNL     1      -5.479  -2.719   1.813  1.00  0.00    -0.337 N 
HETATM    9  C3  UNL     1      -5.921  -1.516   1.436  1.00  0.00     0.138 A 
ATOM     10  H4  UNL     1      -6.144  -3.401   2.179  1.00  0.00     0.168 HD
HETATM   11  N3  UNL     1      -7.109  -0.896   1.397  1.00  0.00    -0.283 N 
HETATM   12  C17 UNL     1      -5.004  -0.587   0.937  1.00  0.00     0.095 A 
HETATM   13  N2  UNL     1      -6.989   0.305   0.925  1.00  0.00    -0.286 N 
ATOM     14  H3  UNL     1      -7.989  -1.314   1.698  1.00  0.00     0.188 HD
HETATM   15  C2  UNL     1      -5.685   0.572   0.613  1.00  0.00     0.181 A 
ATOM     16  H2  UNL     1      -7.761   0.961   0.803  1.00  0.00     0.188 HD
BRANCH  15  17
HETATM   17  S1  UNL     1      -5.034   2.033  -0.057  1.00  0.00     0.276 S 
HETATM   18  O1  UNL     1      -6.137   3.096   0.164  1.00  0.00    -0.199 OA
HETATM   19  O2  UNL     1      -3.868   2.599   0.635  1.00  0.00    -0.199 OA
BRANCH  17  20
HETATM   20  N1  UNL     1      -4.903   1.974  -1.779  1.00  0.00    -0.319 N 
HETATM   21  C1  UNL     1      -6.246   1.803  -2.301  1.00  0.00     0.159 C 
ATOM     22  H1  UNL     1      -4.044   2.046  -2.325  1.00  0.00     0.171 HD
ENDBRANCH  17  20
ENDBRANCH  15  17
ENDBRANCH   2   4
ENDBRANCH   1   2
BRANCH   1  23
HETATM   23  C7  UNL     1      -0.749  -0.461   1.609  1.00  0.00     0.141 C 
BRANCH  23  24
HETATM   24  N7  UNL     1       0.631  -0.825   1.461  1.00  0.00    -0.373 N 
ATOM     25  H7  UNL     1       0.964  -1.712   1.838  1.00  0.00     0.161 HD
BRANCH  24  26
HETATM   26  C8  UNL     1       1.547   0.051   0.786  1.00  0.00     0.132 C 
HETATM   27  N8  UNL     1       1.475   1.320   0.984  1.00  0.00    -0.253 N 
ATOM     28  H8  UNL     1       0.766   1.683   1.621  1.00  0.00     0.196 HD
BRANCH  27  29
HETATM   29  O3  UNL     1       2.319   2.193   0.367  1.00  0.00    -0.288 OA
ATOM     30  H3  UNL     1       2.266   3.130   0.513  1.00  0.00     0.244 HD
ENDBRANCH  27  29
BRANCH  26  31
HETATM   31  C9  UNL     1       2.550  -0.510  -0.103  1.00  0.00     0.025 A 
HETATM   32  C10 UNL     1       2.158  -1.526  -0.977  1.00  0.00     0.102 A 
HETATM   33  N9  UNL     1       3.089  -2.047  -1.785  1.00  0.00    -0.374 N 
HETATM   34  C11 UNL     1       4.364  -1.648  -1.797  1.00  0.00     0.097 A 
ATOM     35  H9  UNL     1       2.810  -2.789  -2.427  1.00  0.00     0.164 HD
HETATM   36  C12 UNL     1       4.808  -0.634  -0.940  1.00  0.00    -0.011 A 
HETATM   37  C16 UNL     1       3.882  -0.081  -0.103  1.00  0.00     0.027 A 
BRANCH  36  38
HETATM   38  C13 UNL     1       6.205  -0.241  -1.017  1.00  0.00     0.180 C 
BRANCH  38  39
HETATM   39  O4  UNL     1       6.471  -0.021  -2.400  1.00  0.00    -0.388 OA
ATOM     40  H4  UNL     1       7.384   0.236  -2.450  1.00  0.00     0.210 HD
ENDBRANCH  38  39
BRANCH  38  41
HETATM   41  C14 UNL     1       6.604   1.016  -0.326  1.00  0.00     0.147 C 
HETATM   42  C15 UNL     1       8.104   1.206  -0.590  1.00  0.00     0.042 C 
BRANCH  41  43
HETATM   43  O5  UNL     1       6.473   0.991   1.057  1.00  0.00    -0.393 OA
ATOM     44  H5  UNL     1       6.728   1.793   1.498  1.00  0.00     0.210 HD
ENDBRANCH  41  43
ENDBRANCH  38  41
ENDBRANCH  36  38
ENDBRANCH  26  31
ENDBRANCH  24  26
ENDBRANCH  23  24
ENDBRANCH   1  23
TORSDOF 13
