REMARK  10 active torsions:
REMARK  status: ('A' for Active; 'I' for Inactive)
REMARK    1  A    between atoms: C2_2  and  C3_3 
REMARK    2  A    between atoms: C3_3  and  C4_4 
REMARK    3  A    between atoms: C4_4  and  N1_5 
REMARK    4  A    between atoms: N1_5  and  C5_7 
REMARK    5  A    between atoms: C5_7  and  C7_11 
REMARK    6  A    between atoms: N6_15  and  C8_16 
REMARK    7  A    between atoms: C9_17  and  C10_18 
REMARK    8  A    between atoms: C11_19  and  C12_20 
REMARK    9  A    between atoms: C15_24  and  O1_25 
REMARK       I    between atoms: N9_30  and  C18_32 
REMARK   10  A    between atoms: C18_32  and  C19_34 
ROOT
HETATM    1  C12 UNL     1       2.955   0.026  -0.399  1.00  0.00     0.017 A 
HETATM    2  C13 UNL     1       3.056   0.528   0.858  1.00  0.00     0.107 A 
HETATM    3  C14 UNL     1       1.892   0.953   1.614  1.00  0.00     0.104 C 
HETATM    4  N7  UNL     1       0.978   1.321   2.194  1.00  0.00    -0.191 NA
HETATM    5  C15 UNL     1       4.267   0.831   1.498  1.00  0.00     0.165 A 
HETATM    6  N8  UNL     1       5.405   0.611   0.808  1.00  0.00    -0.320 N 
ATOM      7  H8  UNL     1       6.298   0.824   1.253  1.00  0.00     0.169 HD
HETATM    8  C17 UNL     1       5.406   0.124  -0.438  1.00  0.00     0.135 A 
HETATM    9  N9  UNL     1       6.524  -0.078  -1.091  1.00  0.00    -0.302 N 
ATOM     10  H9  UNL     1       6.468  -0.451  -2.039  1.00  0.00     0.171 HD
HETATM   11  C18 UNL     1       7.784   0.189  -0.562  1.00  0.00     0.323 C 
HETATM   12  O2  UNL     1       8.209  -0.470   0.412  1.00  0.00    -0.260 OA
HETATM   13  C20 UNL     1       4.210  -0.167  -1.042  1.00  0.00     0.102 A 
HETATM   14  N10 UNL     1       4.183  -0.685  -2.358  1.00  0.00    -0.097 NA
ENDROOT
BRANCH   1  15
HETATM   15  C11 UNL     1       1.796  -0.460  -1.066  1.00  0.00     0.015 C 
HETATM   16  C10 UNL     1       0.699  -1.065  -0.815  1.00  0.00     0.002 C 
BRANCH  16  17
HETATM   17  C9  UNL     1       0.083  -1.588   0.354  1.00  0.00     0.019 C 
HETATM   18  C8  UNL     1      -1.114  -2.172   0.280  1.00  0.00     0.110 C 
BRANCH  18  19
HETATM   19  N6  UNL     1      -1.847  -2.321  -0.899  1.00  0.00    -0.260 N 
HETATM   20  C7  UNL     1      -3.030  -1.655  -1.420  1.00  0.00     0.281 C 
HETATM   21  N3  UNL     1      -3.637  -2.724  -2.182  1.00  0.00    -0.093 NA
HETATM   22  N4  UNL     1      -2.835  -3.864  -2.021  1.00  0.00    -0.015 NA
HETATM   23  N5  UNL     1      -1.551  -3.257  -1.918  1.00  0.00    -0.009 NA
BRANCH  20  24
HETATM   24  C5  UNL     1      -3.872  -1.077  -0.387  1.00  0.00     0.115 C 
HETATM   25  N2  UNL     1      -5.038  -1.461  -0.135  1.00  0.00    -0.381 N 
HETATM   26  C6  UNL     1      -5.886  -2.447  -0.661  1.00  0.00     0.147 C 
ATOM     27  H2  UNL     1      -5.469  -0.937   0.627  1.00  0.00     0.160 HD
BRANCH  24  28
HETATM   28  N1  UNL     1      -3.347  -0.003   0.405  1.00  0.00    -0.377 N 
ATOM     29  H1  UNL     1      -2.438   0.383   0.149  1.00  0.00     0.160 HD
BRANCH  28  30
HETATM   30  C4  UNL     1      -4.030   0.564   1.544  1.00  0.00     0.121 C 
BRANCH  30  31
HETATM   31  C3  UNL     1      -5.271   1.334   1.174  1.00  0.00     0.019 C 
BRANCH  31  32
HETATM   32  C2  UNL     1      -4.957   2.492   0.245  1.00  0.00    -0.003 C 
HETATM   33  C1  UNL     1      -6.201   3.246  -0.111  1.00  0.00     0.005 C 
ENDBRANCH  31  32
ENDBRANCH  30  31
ENDBRANCH  28  30
ENDBRANCH  24  28
ENDBRANCH  20  24
ENDBRANCH  18  19
ENDBRANCH  16  17
ENDBRANCH   1  15
BRANCH   5  34
HETATM   34  O1  UNL     1       4.312   1.338   2.794  1.00  0.00    -0.340 OA
HETATM   35  C16 UNL     1       4.403   2.757   2.903  1.00  0.00     0.211 C 
ENDBRANCH   5  34
BRANCH  11  36
HETATM   36  C19 UNL     1       8.618   1.230  -1.134  1.00  0.00     0.270 C 
HETATM   37  O3  UNL     1       8.211   1.912  -2.122  1.00  0.00    -0.640 OA
HETATM   38  O4  UNL     1       9.883   1.536  -0.646  1.00  0.00    -0.640 OA
ENDBRANCH  11  36
TORSDOF 10
