REMARK  12 active torsions:
REMARK  status: ('A' for Active; 'I' for Inactive)
REMARK    1  A    between atoms: C2_2  and  O1_3 
REMARK    2  A    between atoms: C2_2  and  C3_5 
REMARK    3  A    between atoms: C3_5  and  N1_6 
REMARK    4  A    between atoms: N1_6  and  C4_8 
REMARK    5  A    between atoms: N5_19  and  C8_20 
REMARK    6  A    between atoms: C8_20  and  C9_21 
REMARK    7  A    between atoms: N7_25  and  C12_26 
REMARK    8  A    between atoms: C12_26  and  C13_27 
REMARK    9  A    between atoms: C13_27  and  C14_28 
REMARK   10  A    between atoms: C14_28  and  S1_29 
REMARK   11  A    between atoms: S1_29  and  C15_32 
REMARK   12  A    between atoms: C15_32  and  O4_35 
ROOT
HETATM    1  C4  UNL     1       4.673  -0.330   0.337  1.00  0.00     0.681 A 
HETATM    2  N2  UNL     1       4.818  -1.437   1.064  1.00  0.00    -0.175 N 
ATOM      3  H2  UNL     1       5.543  -1.457   1.781  1.00  0.00     0.186 HD
HETATM    4  C5  UNL     1       4.047  -2.535   0.893  1.00  0.00     0.145 A 
HETATM    5  N3  UNL     1       4.251  -3.554   1.631  1.00  0.00    -0.383 N 
ATOM      6  H31 UNL     1       3.670  -4.382   1.502  1.00  0.00     0.157 HD
ATOM      7  H32 UNL     1       4.976  -3.573   2.348  1.00  0.00     0.157 HD
HETATM    8  C6  UNL     1       3.067  -2.509  -0.076  1.00  0.00     0.123 A 
HETATM    9  N4  UNL     1       2.145  -3.393  -0.507  1.00  0.00    -0.346 N 
ATOM     10  H4  UNL     1       2.002  -4.337  -0.147  1.00  0.00     0.167 HD
HETATM   11  C7  UNL     1       1.440  -2.801  -1.507  1.00  0.00     0.185 A 
HETATM   12  N5  UNL     1       1.889  -1.561  -1.725  1.00  0.00    -0.323 N 
HETATM   13  C19 UNL     1       2.893  -1.372  -0.847  1.00  0.00     0.155 A 
HETATM   14  N8  UNL     1       3.701  -0.331  -0.609  1.00  0.00    -0.174 N 
ATOM     15  H8  UNL     1       3.578   0.511  -1.172  1.00  0.00     0.186 HD
ENDROOT
BRANCH  12  16
HETATM   16  C8  UNL     1       1.434  -0.575  -2.690  1.00  0.00     0.171 C 
BRANCH  16  17
HETATM   17  C9  UNL     1       0.359   0.291  -2.137  1.00  0.00    -0.021 A 
HETATM   18  C10 UNL     1       0.505   1.482  -1.464  1.00  0.00     0.055 A 
HETATM   19  C11 UNL     1      -0.773   1.908  -1.152  1.00  0.00     0.118 A 
HETATM   20  N6  UNL     1      -1.144   3.096  -0.452  1.00  0.00    -0.083 NA
HETATM   21  N7  UNL     1      -1.677   1.024  -1.610  1.00  0.00    -0.345 N 
HETATM   22  C18 UNL     1      -0.994   0.038  -2.210  1.00  0.00     0.101 A 
BRANCH  21  23
HETATM   23  C12 UNL     1      -3.116   1.124  -1.476  1.00  0.00     0.130 C 
BRANCH  23  24
HETATM   24  C13 UNL     1      -3.526   0.441  -0.180  1.00  0.00     0.035 C 
BRANCH  24  25
HETATM   25  C14 UNL     1      -5.033   0.522   0.001  1.00  0.00     0.145 C 
BRANCH  25  26
HETATM   26  S1  UNL     1      -5.391  -0.312   1.552  1.00  0.00     0.176 S 
HETATM   27  O2  UNL     1      -4.671   0.313   2.691  1.00  0.00    -0.225 OA
HETATM   28  O3  UNL     1      -4.981  -1.744   1.405  1.00  0.00    -0.225 OA
BRANCH  26  29
HETATM   29  C15 UNL     1      -7.172  -0.210   1.756  1.00  0.00     0.153 C 
HETATM   30  C16 UNL     1      -7.768  -0.925   0.540  1.00  0.00     0.063 C 
HETATM   31  C17 UNL     1      -7.532   1.252   1.712  1.00  0.00     0.063 C 
BRANCH  29  32
HETATM   32  O4  UNL     1      -7.524  -0.816   2.942  1.00  0.00    -0.375 OA
ATOM     33  H4  UNL     1      -8.466  -0.762   3.050  1.00  0.00     0.211 HD
ENDBRANCH  29  32
ENDBRANCH  26  29
ENDBRANCH  25  26
ENDBRANCH  24  25
ENDBRANCH  23  24
ENDBRANCH  21  23
ENDBRANCH  16  17
ENDBRANCH  12  16
BRANCH   1  34
HETATM   34  N1  UNL     1       5.354   0.749   0.430  1.00  0.00    -0.224 N 
ATOM     35  H1  UNL     1       5.138   1.528  -0.192  1.00  0.00     0.177 HD
BRANCH  34  36
HETATM   36  C3  UNL     1       6.418   0.893   1.391  1.00  0.00     0.169 C 
BRANCH  36  37
HETATM   37  C2  UNL     1       7.672   0.286   0.780  1.00  0.00     0.132 C 
HETATM   38  C1  UNL     1       7.935   1.052  -0.501  1.00  0.00     0.041 C 
BRANCH  37  39
HETATM   39  O1  UNL     1       8.714   0.406   1.677  1.00  0.00    -0.394 OA
ATOM     40  H1  UNL     1       8.549  -0.074   2.480  1.00  0.00     0.210 HD
ENDBRANCH  37  39
ENDBRANCH  36  37
ENDBRANCH  34  36
ENDBRANCH   1  34
TORSDOF 12
