REMARK  11 active torsions:
REMARK  status: ('A' for Active; 'I' for Inactive)
REMARK    1  A    between atoms: O1_2  and  C2_3 
REMARK    2  A    between atoms: C3_6  and  N2_7 
REMARK    3  A    between atoms: N4_13  and  C5_15 
REMARK    4  A    between atoms: C5_15  and  C6_16 
REMARK    5  A    between atoms: C5_15  and  C10_24 
REMARK    6  A    between atoms: C6_16  and  C7_17 
REMARK    7  A    between atoms: C10_24  and  C11_26 
REMARK    8  A    between atoms: C12_27  and  S1_28 
REMARK    9  A    between atoms: S1_28  and  C13_31 
REMARK   10  A    between atoms: C15_35  and  N8_36 
REMARK   11  A    between atoms: C17_42  and  O5_43 
ROOT
HETATM    1  C5  UNL     1      -1.029  -0.356   1.498  1.00  0.00     0.163 C 
ENDROOT
BRANCH   1   2
HETATM    2  N4  UNL     1      -1.489   0.202   0.308  1.00  0.00    -0.361 N 
HETATM    3  C4  UNL     1      -2.403   0.909  -0.104  1.00  0.00     0.155 A 
HETATM    4  N3  UNL     1      -2.431   1.202  -1.441  1.00  0.00    -0.174 N 
HETATM    5  C17 UNL     1      -3.405   1.433   0.660  1.00  0.00     0.162 A 
HETATM    6  C3  UNL     1      -3.398   1.968  -1.971  1.00  0.00     0.679 A 
ATOM      7  H3  UNL     1      -1.701   0.830  -2.048  1.00  0.00     0.186 HD
HETATM    8  N1  UNL     1      -4.387   2.487  -1.221  1.00  0.00    -0.168 N 
HETATM    9  C2  UNL     1      -4.411   2.233   0.093  1.00  0.00     0.194 A 
ATOM     10  H1  UNL     1      -5.109   3.067  -1.648  1.00  0.00     0.186 HD
ATOM     11  H4  UNL     1      -0.873  -0.059  -0.462  1.00  0.00     0.162 HD
BRANCH   6  12
HETATM   12  N2  UNL     1      -3.345   2.198  -3.261  1.00  0.00    -0.234 N 
ATOM     13  H22 UNL     1      -4.080   2.780  -3.664  1.00  0.00     0.174 HD
ATOM     14  H21 UNL     1      -2.595   1.805  -3.830  1.00  0.00     0.174 HD
ENDBRANCH   6  12
BRANCH   9  15
HETATM   15  O1  UNL     1      -5.385   2.727   0.916  1.00  0.00    -0.338 OA
HETATM   16  C1  UNL     1      -6.450   3.534   0.514  1.00  0.00     0.211 C 
ENDBRANCH   9  15
BRANCH   5  17
HETATM   17  O5  UNL     1      -3.448   1.184   2.014  1.00  0.00    -0.354 OA
ATOM     18  H5  UNL     1      -2.768   0.643   2.397  1.00  0.00     0.218 HD
ENDBRANCH   5  17
ENDBRANCH   1   2
BRANCH   1  19
HETATM   19  C6  UNL     1      -1.604  -1.706   1.844  1.00  0.00     0.091 C 
BRANCH  19  20
HETATM   20  C7  UNL     1      -1.319  -2.730   0.829  1.00  0.00     0.028 A 
HETATM   21  C8  UNL     1      -2.130  -3.002  -0.251  1.00  0.00     0.114 A 
HETATM   22  N5  UNL     1      -1.565  -4.001  -0.978  1.00  0.00    -0.360 N 
HETATM   23  C9  UNL     1      -0.423  -4.350  -0.369  1.00  0.00     0.180 A 
ATOM     24  H5  UNL     1      -1.942  -4.411  -1.833  1.00  0.00     0.166 HD
HETATM   25  N6  UNL     1      -0.286  -3.578   0.718  1.00  0.00    -0.354 N 
ATOM     26  H6  UNL     1       0.496  -3.628   1.371  1.00  0.00     0.166 HD
ENDBRANCH  19  20
ENDBRANCH   1  19
BRANCH   1  27
HETATM   27  C10 UNL     1       0.482  -0.420   1.469  1.00  0.00     0.172 C 
HETATM   28  O2  UNL     1       1.125  -0.883   2.419  1.00  0.00    -0.291 OA
BRANCH  27  29
HETATM   29  C11 UNL     1       1.142   0.078   0.295  1.00  0.00     0.064 C 
HETATM   30  C12 UNL     1       2.441   0.109   0.079  1.00  0.00     0.118 C 
BRANCH  30  31
HETATM   31  S1  UNL     1       3.672  -0.447   1.162  1.00  0.00     0.199 S 
HETATM   32  O3  UNL     1       3.575  -1.907   1.497  1.00  0.00    -0.218 OA
HETATM   33  O4  UNL     1       3.665   0.337   2.449  1.00  0.00    -0.218 OA
BRANCH  31  34
HETATM   34  C13 UNL     1       5.238  -0.253   0.361  1.00  0.00     0.095 A 
HETATM   35  C14 UNL     1       5.975   0.894   0.495  1.00  0.00     0.131 A 
HETATM   36  N7  UNL     1       7.155   0.958  -0.152  1.00  0.00    -0.201 N 
HETATM   37  C15 UNL     1       7.593  -0.058  -0.898  1.00  0.00     0.675 A 
ATOM     38  H7  UNL     1       7.725   1.800  -0.070  1.00  0.00     0.183 HD
HETATM   39  N9  UNL     1       6.882  -1.182  -1.036  1.00  0.00    -0.201 N 
HETATM   40  C16 UNL     1       5.700  -1.282  -0.405  1.00  0.00     0.131 A 
ATOM     41  H9  UNL     1       7.231  -1.950  -1.610  1.00  0.00     0.183 HD
BRANCH  37  42
HETATM   42  N8  UNL     1       8.736   0.023  -1.515  1.00  0.00    -0.234 N 
ATOM     43  H82 UNL     1       9.278   0.880  -1.410  1.00  0.00     0.174 HD
ATOM     44  H81 UNL     1       9.071  -0.754  -2.085  1.00  0.00     0.174 HD
ENDBRANCH  37  42
ENDBRANCH  31  34
ENDBRANCH  30  31
ENDBRANCH  27  29
ENDBRANCH   1  27
TORSDOF 11
