REMARK  2 active torsions:
REMARK  status: ('A' for Active; 'I' for Inactive)
REMARK    1  A    between atoms: C2_2  and  C3_3 
REMARK    2  A    between atoms: C3_3  and  N1_4 
ROOT
HETATM    1  N1  UNL     1      -0.360  -0.471   0.186  1.00  0.00    -0.189 N 
HETATM    2  C4  UNL     1      -1.027  -1.434  -0.466  1.00  0.00     0.127 A 
HETATM    3  C5  UNL     1      -2.270  -0.961  -0.811  1.00  0.00     0.124 A 
HETATM    4  N2  UNL     1      -2.336   0.301  -0.355  1.00  0.00    -0.201 N 
ATOM      5  H2  UNL     1      -3.133   0.930  -0.452  1.00  0.00     0.183 HD
HETATM    6  C6  UNL     1      -1.176   0.592   0.248  1.00  0.00     0.677 A 
HETATM    7  N3  UNL     1      -0.868   1.721   0.812  1.00  0.00    -0.234 N 
ATOM      8  H31 UNL     1      -1.488   2.529   0.859  1.00  0.00     0.174 HD
ATOM      9  H32 UNL     1       0.015   1.943   1.271  1.00  0.00     0.174 HD
ENDROOT
BRANCH   1  10
HETATM   10  C3  UNL     1       1.009  -0.562   0.732  1.00  0.00     0.173 C 
BRANCH  10  11
HETATM   11  C2  UNL     1       1.999  -0.135  -0.272  1.00  0.00    -0.016 C 
HETATM   12  C1  UNL     1       2.792   0.887  -0.017  1.00  0.00     0.008 C 
ENDBRANCH  10  11
ENDBRANCH   1  10
TORSDOF 2
