REMARK  3 active torsions:
REMARK  status: ('A' for Active; 'I' for Inactive)
REMARK    1  A    between atoms: C2_2  and  N1_3 
REMARK    2  A    between atoms: C2_2  and  C3_7 
REMARK    3  A    between atoms: C3_7  and  C4_8 
ROOT
HETATM    1  C4  UNL     1       0.936  -0.457  -0.254  1.00  0.00     0.029 A 
HETATM    2  C5  UNL     1       1.994   0.368  -0.569  1.00  0.00     0.045 A 
HETATM    3  C6  UNL     1       2.939   0.168   0.443  1.00  0.00     0.109 A 
HETATM    4  N2  UNL     1       2.457  -0.727   1.302  1.00  0.00    -0.312 N 
ATOM      5  H2  UNL     1       2.933  -1.064   2.138  1.00  0.00     0.186 HD
HETATM    6  N3  UNL     1       1.270  -1.103   0.896  1.00  0.00    -0.305 N 
ATOM      7  H3  UNL     1       0.680  -1.784   1.374  1.00  0.00     0.186 HD
ENDROOT
BRANCH   1   8
HETATM    8  C3  UNL     1      -0.325  -0.606  -1.031  1.00  0.00     0.090 C 
BRANCH   8   9
HETATM    9  C2  UNL     1      -1.296   0.422  -0.481  1.00  0.00     0.185 C 
HETATM   10  C1  UNL     1      -1.548   0.180   0.970  1.00  0.00     0.040 C 
BRANCH   9  11
HETATM   11  N1  UNL     1      -2.557   0.396  -1.195  1.00  0.00    -0.075 N 
ATOM     12  H13 UNL     1      -3.077  -0.466  -1.031  1.00  0.00     0.274 HD
ATOM     13  H12 UNL     1      -3.236   1.050  -0.806  1.00  0.00     0.274 HD
ATOM     14  H11 UNL     1      -2.385   0.561  -2.187  1.00  0.00     0.274 HD
ENDBRANCH   9  11
ENDBRANCH   8   9
ENDBRANCH   1   8
TORSDOF 3
