REMARK  2 active torsions:
REMARK  status: ('A' for Active; 'I' for Inactive)
REMARK    1  A    between atoms: N1_2  and  C2_5 
REMARK    2  A    between atoms: C2_5  and  C3_6 
ROOT
HETATM    1  C3  UNL     1      -0.547   0.203   0.066  1.00  0.00    -0.030 A 
HETATM    2  C4  UNL     1      -1.309   1.299  -0.285  1.00  0.00     0.026 A 
HETATM    3  C5  UNL     1      -2.679   1.225  -0.317  1.00  0.00     0.088 A 
HETATM    4  N2  UNL     1      -3.294   0.082  -0.006  1.00  0.00    -0.375 N 
ATOM      5  H2  UNL     1      -4.313   0.035  -0.032  1.00  0.00     0.164 HD
HETATM    6  C6  UNL     1      -2.586  -1.013   0.342  1.00  0.00     0.088 A 
HETATM    7  C7  UNL     1      -1.217  -0.961   0.381  1.00  0.00     0.026 A 
ENDROOT
BRANCH   1   8
HETATM    8  C2  UNL     1       0.912   0.357   0.078  1.00  0.00     0.270 C 
BRANCH   8   9
HETATM    9  N1  UNL     1       1.624  -0.825   0.452  1.00  0.00    -0.075 N 
HETATM   10  C1  UNL     1       3.041  -0.507   0.414  1.00  0.00     0.267 C 
ATOM     11  H12 UNL     1       1.382  -1.634  -0.120  1.00  0.00     0.277 HD
ATOM     12  H11 UNL     1       1.324  -1.203   1.351  1.00  0.00     0.277 HD
ENDBRANCH   8   9
ENDBRANCH   1   8
TORSDOF 2
