REMARK  4 active torsions:
REMARK  status: ('A' for Active; 'I' for Inactive)
REMARK    1  A    between atoms: C2_2  and  C3_3 
REMARK    2  A    between atoms: C3_3  and  N1_4 
REMARK    3  A    between atoms: C3_3  and  C4_8 
REMARK    4  A    between atoms: C4_8  and  N2_9 
ROOT
HETATM    1  C4  UNL     1      -0.681  -0.427  -0.213  1.00  0.00     0.155 A 
HETATM    2  C5  UNL     1      -1.069   0.519  -1.254  1.00  0.00     0.043 A 
HETATM    3  C6  UNL     1      -1.524   0.812   0.128  1.00  0.00     0.043 A 
ENDROOT
BRANCH   1   4
HETATM    4  C3  UNL     1       0.668  -0.424   0.443  1.00  0.00     0.241 C 
BRANCH   4   5
HETATM    5  C2  UNL     1       1.370   0.863   0.342  1.00  0.00    -0.002 C 
HETATM    6  C1  UNL     1       2.192   1.061  -0.681  1.00  0.00     0.009 C 
ENDBRANCH   4   5
BRANCH   4   7
HETATM    7  N1  UNL     1       0.447  -0.737   1.863  1.00  0.00    -0.069 N 
ATOM      8  H13 UNL     1       1.312  -0.722   2.404  1.00  0.00     0.275 HD
ATOM      9  H12 UNL     1      -0.041   0.012   2.355  1.00  0.00     0.275 HD
ATOM     10  H11 UNL     1      -0.040  -1.630   1.933  1.00  0.00     0.275 HD
ENDBRANCH   4   7
ENDBRANCH   1   4
BRANCH   1  11
HETATM   11  N2  UNL     1      -1.383  -1.697  -0.119  1.00  0.00    -0.068 N 
ATOM     12  H23 UNL     1      -0.805  -2.453  -0.486  1.00  0.00     0.275 HD
ATOM     13  H22 UNL     1      -1.458  -1.993   0.854  1.00  0.00     0.275 HD
ATOM     14  H21 UNL     1      -2.300  -1.699  -0.565  1.00  0.00     0.275 HD
ENDBRANCH   1  11
TORSDOF 4
