REMARK  5 active torsions:
REMARK  status: ('A' for Active; 'I' for Inactive)
REMARK    1  A    between atoms: C17_19  and  C18_20 
REMARK    2  A    between atoms: C18_20  and  O3_21 
REMARK    3  A    between atoms: C18_20  and  C19_23 
REMARK    4  A    between atoms: C19_23  and  O4_24 
REMARK    5  A    between atoms: N1_30  and  O5_31 
ROOT
HETATM    1  C1  UNL     1      -2.199  -1.082   3.242  1.00  0.00     0.019 C 
HETATM    2  C2  UNL     1      -2.011  -0.353   2.170  1.00  0.00    -0.060 C 
HETATM    3  C3  UNL     1      -2.781   0.986   2.157  1.00  0.00     0.038 C 
HETATM    4  C4  UNL     1      -3.652   0.995   0.872  1.00  0.00     0.006 C 
HETATM    5  C5  UNL     1      -3.097   1.533  -0.350  1.00  0.00     0.016 C 
HETATM    6  C6  UNL     1      -2.421   0.687  -1.410  1.00  0.00     0.003 C 
HETATM    7  C7  UNL     1      -2.748   1.525  -2.689  1.00  0.00     0.022 C 
HETATM    8  C8  UNL     1      -3.038  -0.656  -1.722  1.00  0.00    -0.019 C 
HETATM    9  C9  UNL     1      -2.412  -1.936  -1.554  1.00  0.00    -0.026 C 
HETATM   10  C10 UNL     1      -1.458  -2.424  -0.512  1.00  0.00     0.072 C 
HETATM   11  C11 UNL     1      -0.564  -1.334   0.066  1.00  0.00     0.117 C 
HETATM   12  O1  UNL     1      -0.489  -0.758  -1.226  1.00  0.00    -0.363 OA
HETATM   13  C12 UNL     1      -0.984   0.562  -1.333  1.00  0.00     0.171 C 
HETATM   14  C13 UNL     1      -0.031   1.141  -0.353  1.00  0.00     0.111 C 
HETATM   15  C14 UNL     1       0.353   2.544  -0.260  1.00  0.00     0.046 C 
HETATM   16  C15 UNL     1       1.885   2.402   0.031  1.00  0.00     0.040 C 
HETATM   17  C16 UNL     1       2.250   1.274  -0.771  1.00  0.00     0.155 C 
HETATM   18  O2  UNL     1       1.095   0.772  -1.075  1.00  0.00    -0.366 OA
HETATM   19  C17 UNL     1       2.944   0.007  -0.401  1.00  0.00    -0.013 C 
HETATM   20  C20 UNL     1       2.025  -1.159  -0.121  1.00  0.00    -0.032 C 
HETATM   21  C21 UNL     1       2.523  -2.239  -0.668  1.00  0.00     0.021 C 
HETATM   22  C22 UNL     1       0.736  -1.448   0.598  1.00  0.00     0.098 C 
HETATM   23  C23 UNL     1       0.877  -2.741   1.417  1.00  0.00     0.044 C 
HETATM   24  N1  UNL     1       0.744  -0.296   1.533  1.00  0.00    -0.171 NA
HETATM   25  C24 UNL     1      -0.329   0.546   0.963  1.00  0.00     0.157 C 
HETATM   26  C25 UNL     1      -1.309  -0.486   0.964  1.00  0.00    -0.015 C 
ENDROOT
BRANCH  19  27
HETATM   27  C18 UNL     1       4.095   0.124   0.519  1.00  0.00     0.173 C 
BRANCH  27  28
HETATM   28  O3  UNL     1       4.675  -1.113   0.806  1.00  0.00    -0.389 OA
ATOM     29  H3  UNL     1       5.415  -1.038   1.397  1.00  0.00     0.210 HD
ENDBRANCH  27  28
BRANCH  27  30
HETATM   30  C19 UNL     1       5.189   0.897  -0.232  1.00  0.00     0.200 C 
BRANCH  30  31
HETATM   31  O4  UNL     1       5.573   0.262  -1.385  1.00  0.00    -0.398 OA
ATOM     32  H4  UNL     1       6.250   0.740  -1.850  1.00  0.00     0.209 HD
ENDBRANCH  30  31
ENDBRANCH  27  30
ENDBRANCH  19  27
BRANCH  24  33
HETATM   33  O5  UNL     1       0.667  -0.605   2.794  1.00  0.00    -0.311 OA
ATOM     34  H5  UNL     1       0.672   0.133   3.393  1.00  0.00     0.237 HD
ENDBRANCH  24  33
TORSDOF 5
