REMARK  4 active torsions:
REMARK  status: ('A' for Active; 'I' for Inactive)
REMARK    1  A    between atoms: O1_2  and  C2_3 
REMARK    2  A    between atoms: C2_3  and  C3_5 
REMARK    3  A    between atoms: C13_15  and  C14_16 
REMARK       I    between atoms: C14_16  and  N1_18 
REMARK    4  A    between atoms: N1_18  and  C15_20 
ROOT
HETATM    1  C15 UNL     1       2.971  -0.274   1.290  1.00  0.00     0.179 C 
HETATM    2  C16 UNL     1       2.415  -0.488   2.735  1.00  0.00     0.095 C 
HETATM    3  N2  UNL     1       1.980  -0.618   3.792  1.00  0.00    -0.194 NA
HETATM    4  C17 UNL     1       3.749  -1.603   1.122  1.00  0.00     0.231 C 
HETATM    5  C18 UNL     1       4.304  -1.821  -0.184  1.00  0.00     0.041 C 
HETATM    6  C19 UNL     1       5.450  -1.054  -0.700  1.00  0.00    -0.012 C 
HETATM    7  C20 UNL     1       6.420  -0.618   0.386  1.00  0.00     0.011 C 
HETATM    8  C21 UNL     1       5.370   0.512   0.597  1.00  0.00     0.021 C 
HETATM    9  C22 UNL     1       5.322   0.414  -0.878  1.00  0.00     0.011 C 
HETATM   10  C23 UNL     1       4.301   0.252   1.474  1.00  0.00     0.235 C 
HETATM   11  N3  UNL     1       4.459  -1.063   2.196  1.00  0.00    -0.059 N 
ATOM     12  H31 UNL     1       5.372  -1.421   2.478  1.00  0.00     0.278 HD
ATOM     13  H32 UNL     1       4.160  -1.190   3.163  1.00  0.00     0.278 HD
ENDROOT
BRANCH   1  14
HETATM   14  N1  UNL     1       1.925  -0.013   0.489  1.00  0.00    -0.334 N 
HETATM   15  C14 UNL     1       1.367   0.315  -0.726  1.00  0.00     0.241 C 
HETATM   16  O3  UNL     1       1.910   0.596  -1.784  1.00  0.00    -0.271 OA
ATOM     17  H1  UNL     1       1.119  -0.108   1.107  1.00  0.00     0.164 HD
BRANCH  15  18
HETATM   18  C13 UNL     1      -0.197   0.357  -0.817  1.00  0.00     0.170 C 
HETATM   19  C12 UNL     1      -0.666  -0.937  -0.215  1.00  0.00     0.034 C 
HETATM   20  C11 UNL     1      -1.198  -1.915  -1.280  1.00  0.00     0.002 C 
HETATM   21  C10 UNL     1      -2.221  -2.857  -0.702  1.00  0.00     0.000 C 
HETATM   22  C9  UNL     1      -3.518  -2.599  -1.455  1.00  0.00     0.000 C 
HETATM   23  C8  UNL     1      -4.654  -2.489  -0.474  1.00  0.00     0.000 C 
HETATM   24  C7  UNL     1      -4.518  -1.293   0.448  1.00  0.00     0.000 C 
HETATM   25  C6  UNL     1      -4.692  -0.013  -0.305  1.00  0.00     0.000 C 
HETATM   26  C5  UNL     1      -3.723   1.077   0.171  1.00  0.00     0.002 C 
HETATM   27  C4  UNL     1      -2.995   1.646  -0.998  1.00  0.00     0.035 C 
HETATM   28  C3  UNL     1      -1.706   2.319  -0.730  1.00  0.00     0.177 C 
HETATM   29  N4  UNL     1      -0.628   1.557  -0.237  1.00  0.00    -0.397 N 
ATOM     30  H4  UNL     1      -0.134   1.898   0.588  1.00  0.00     0.154 HD
BRANCH  28  31
HETATM   31  C2  UNL     1      -1.927   3.514   0.176  1.00  0.00     0.281 C 
HETATM   32  O2  UNL     1      -1.008   3.856   0.961  1.00  0.00    -0.263 OA
BRANCH  31  33
HETATM   33  O1  UNL     1      -3.089   4.251   0.190  1.00  0.00    -0.325 OA
HETATM   34  C1  UNL     1      -3.263   5.357   1.081  1.00  0.00     0.213 C 
ENDBRANCH  31  33
ENDBRANCH  28  31
ENDBRANCH  15  18
ENDBRANCH   1  14
TORSDOF 4
