REMARK  5 active torsions:
REMARK  status: ('A' for Active; 'I' for Inactive)
REMARK    1  A    between atoms: C3_3  and  C4_4 
REMARK    2  A    between atoms: C5_5  and  C6_6 
REMARK    3  A    between atoms: C10_10  and  O1_11 
REMARK    4  A    between atoms: C13_16  and  N1_17 
REMARK    5  A    between atoms: C26_32  and  O3_33 
ROOT
HETATM    1  C6  UNL     1       2.657   0.364  -0.807  1.00  0.00     0.066 C 
HETATM    2  C7  UNL     1       2.200   0.895  -1.938  1.00  0.00     0.022 C 
HETATM    3  C8  UNL     1       0.789   0.723  -2.330  1.00  0.00     0.009 C 
HETATM    4  C9  UNL     1       0.573   0.999  -3.802  1.00  0.00     0.023 C 
HETATM    5  C10 UNL     1       0.559  -0.788  -2.055  1.00  0.00     0.161 C 
HETATM    6  C11 UNL     1       0.376  -0.626  -0.543  1.00  0.00     0.172 C 
HETATM    7  O2  UNL     1       1.688  -0.313  -0.095  1.00  0.00    -0.343 OA
HETATM    8  C12 UNL     1      -0.660   0.335  -0.377  1.00  0.00     0.041 C 
HETATM    9  C13 UNL     1      -1.975  -0.221  -0.129  1.00  0.00     0.187 C 
HETATM   10  N2  UNL     1      -1.819  -0.619   1.345  1.00  0.00    -0.394 N 
ATOM     11  H2  UNL     1      -1.823  -1.592   1.650  1.00  0.00     0.155 HD
HETATM   12  C19 UNL     1      -1.672   0.433   2.233  1.00  0.00     0.108 C 
HETATM   13  C20 UNL     1      -2.930   1.240   2.311  1.00  0.00     0.027 C 
HETATM   14  C21 UNL     1      -2.805   2.525   1.551  1.00  0.00     0.003 C 
HETATM   15  C22 UNL     1      -1.971   2.441   0.316  1.00  0.00     0.013 C 
HETATM   16  C23 UNL     1      -0.690   1.593   0.459  1.00  0.00     0.002 C 
HETATM   17  C24 UNL     1       0.277   2.217  -0.436  1.00  0.00     0.020 C 
HETATM   18  C25 UNL     1      -0.270   1.289  -1.461  1.00  0.00     0.017 C 
HETATM   19  C26 UNL     1      -0.521   1.399   1.887  1.00  0.00     0.150 C 
ENDROOT
BRANCH   9  20
HETATM   20  N1  UNL     1      -2.525  -1.383  -0.642  1.00  0.00    -0.387 N 
HETATM   21  C14 UNL     1      -2.196  -2.693  -0.265  1.00  0.00     0.124 C 
HETATM   22  C15 UNL     1      -3.542  -3.378  -0.558  1.00  0.00     0.007 C 
HETATM   23  C16 UNL     1      -3.912  -2.718  -1.874  1.00  0.00     0.031 C 
HETATM   24  C18 UNL     1      -4.508  -2.399   0.067  1.00  0.00     0.031 C 
HETATM   25  C17 UNL     1      -3.890  -1.455  -0.990  1.00  0.00     0.082 C 
ENDBRANCH   9  20
BRANCH   5  26
HETATM   26  O1  UNL     1      -0.339  -1.328  -2.829  1.00  0.00    -0.392 OA
ATOM     27  H1  UNL     1      -0.480  -2.252  -2.661  1.00  0.00     0.210 HD
ENDBRANCH   5  26
BRANCH  19  28
HETATM   28  O3  UNL     1       0.671   0.971   2.369  1.00  0.00    -0.393 OA
ATOM     29  H3  UNL     1       1.380   1.566   2.156  1.00  0.00     0.210 HD
ENDBRANCH  19  28
BRANCH   1  30
HETATM   30  C5  UNL     1       4.043   0.506  -0.394  1.00  0.00     0.036 C 
HETATM   31  C4  UNL     1       4.412  -0.053   0.739  1.00  0.00     0.002 C 
BRANCH  31  32
HETATM   32  C3  UNL     1       5.774   0.024   1.249  1.00  0.00    -0.004 C 
HETATM   33  C2  UNL     1       6.151  -0.526   2.373  1.00  0.00    -0.031 C 
HETATM   34  C1  UNL     1       7.575  -0.380   2.794  1.00  0.00     0.036 C 
ENDBRANCH  31  32
ENDBRANCH   1  30
TORSDOF 5
