REMARK  5 active torsions:
REMARK  status: ('A' for Active; 'I' for Inactive)
REMARK       I    between atoms: C1_2  and  N1_3 
REMARK    1  A    between atoms: C1_2  and  C18_25 
REMARK    2  A    between atoms: N1_3  and  N2_5 
REMARK       I    between atoms: N2_5  and  C2_7 
REMARK    3  A    between atoms: C2_7  and  C3_9 
REMARK    4  A    between atoms: C21_28  and  C22_29 
REMARK    5  A    between atoms: C22_29  and  O3_30 
ROOT
HETATM    1  C3  UNL     1      -0.170   0.990  -0.943  1.00  0.00     0.084 C 
HETATM    2  C4  UNL     1      -0.689   2.400  -0.823  1.00  0.00     0.015 C 
HETATM    3  C5  UNL     1      -2.218   2.307  -0.836  1.00  0.00     0.006 C 
HETATM    4  C6  UNL     1      -2.469   0.889  -1.139  1.00  0.00    -0.005 C 
HETATM    5  C7  UNL     1      -1.336   0.195  -0.383  1.00  0.00     0.003 C 
HETATM    6  C8  UNL     1      -1.469   0.393   1.083  1.00  0.00     0.007 C 
HETATM    7  C9  UNL     1      -2.817   0.432   1.659  1.00  0.00     0.011 C 
HETATM    8  C10 UNL     1      -3.996   0.356   0.778  1.00  0.00    -0.028 C 
HETATM    9  C11 UNL     1      -4.935   1.557   0.988  1.00  0.00     0.083 C 
HETATM   10  S1  UNL     1      -6.653   1.035   1.182  1.00  0.00    -0.168 SA
HETATM   11  C12 UNL     1      -6.935  -0.270  -0.076  1.00  0.00     0.078 C 
HETATM   12  C13 UNL     1      -5.812  -1.264   0.109  1.00  0.00    -0.004 C 
HETATM   13  C14 UNL     1      -5.171  -1.647  -1.197  1.00  0.00     0.006 C 
HETATM   14  C15 UNL     1      -3.741  -1.160  -1.143  1.00  0.00     0.006 C 
HETATM   15  C16 UNL     1      -3.732   0.290  -0.688  1.00  0.00    -0.001 C 
HETATM   16  C17 UNL     1      -4.825  -0.862   1.159  1.00  0.00     0.016 C 
ENDROOT
BRANCH   1  17
HETATM   17  C2  UNL     1       1.094   0.770  -0.247  1.00  0.00     0.240 C 
HETATM   18  N2  UNL     1       1.694  -0.511  -0.270  1.00  0.00    -0.267 N 
ATOM     19  H2  UNL     1       1.222  -1.259  -0.777  1.00  0.00     0.190 HD
HETATM   20  O2  UNL     1       1.650   1.712   0.370  1.00  0.00    -0.271 OA
BRANCH  18  21
HETATM   21  N1  UNL     1       2.916  -0.803   0.376  1.00  0.00    -0.265 N 
HETATM   22  C1  UNL     1       4.107  -0.164  -0.008  1.00  0.00     0.265 C 
HETATM   23  O1  UNL     1       4.126   0.678  -0.926  1.00  0.00    -0.269 OA
ATOM     24  H1  UNL     1       2.934  -1.488   1.132  1.00  0.00     0.190 HD
BRANCH  22  25
HETATM   25  C18 UNL     1       5.388  -0.481   0.678  1.00  0.00     0.215 C 
HETATM   26  C19 UNL     1       5.797  -1.913   0.448  1.00  0.00     0.044 C 
HETATM   27  C20 UNL     1       7.308  -1.862   0.458  1.00  0.00     0.037 C 
HETATM   28  C21 UNL     1       7.555  -0.392   0.684  1.00  0.00     0.146 C 
HETATM   29  O4  UNL     1       6.444   0.246   0.147  1.00  0.00    -0.369 OA
BRANCH  28  30
HETATM   30  C22 UNL     1       8.837   0.066   0.023  1.00  0.00     0.196 C 
BRANCH  30  31
HETATM   31  O3  UNL     1       8.975   1.435   0.214  1.00  0.00    -0.398 OA
ATOM     32  H3  UNL     1       9.780   1.723  -0.201  1.00  0.00     0.209 HD
ENDBRANCH  30  31
ENDBRANCH  28  30
ENDBRANCH  22  25
ENDBRANCH  18  21
ENDBRANCH   1  17
TORSDOF 5
