REMARK  6 active torsions:
REMARK  status: ('A' for Active; 'I' for Inactive)
REMARK    1  A    between atoms: C4_4  and  N1_5 
REMARK    2  A    between atoms: N2_10  and  C6_11 
REMARK    3  A    between atoms: C6_11  and  C7_12 
REMARK    4  A    between atoms: N3_15  and  C10_16 
REMARK    5  A    between atoms: C21_27  and  O1_28 
REMARK    6  A    between atoms: C22_30  and  O2_31 
ROOT
HETATM    1  C7  UNL     1      -2.478   0.491   0.691  1.00  0.00     0.017 C 
HETATM    2  C8  UNL     1      -1.742   1.863   0.485  1.00  0.00     0.036 C 
HETATM    3  C9  UNL     1      -0.284   1.653   0.542  1.00  0.00     0.273 C 
HETATM    4  N3  UNL     1       0.193   0.348   0.274  1.00  0.00     0.095 N 
HETATM    5  C23 UNL     1      -0.628  -0.556  -0.422  1.00  0.00     0.273 C 
HETATM    6  C24 UNL     1      -2.079  -0.165  -0.615  1.00  0.00     0.036 C 
ENDROOT
BRANCH   4   7
HETATM    7  C10 UNL     1       1.511   0.312  -0.324  1.00  0.00     0.254 C 
HETATM    8  C11 UNL     1       2.018  -1.098  -0.186  1.00  0.00     0.039 C 
HETATM    9  C12 UNL     1       3.183  -1.417  -1.077  1.00  0.00     0.007 C 
HETATM   10  C13 UNL     1       4.245  -0.434  -1.213  1.00  0.00    -0.003 C 
HETATM   11  C14 UNL     1       5.529  -1.158  -1.648  1.00  0.00     0.006 C 
HETATM   12  C19 UNL     1       4.721   0.314  -0.032  1.00  0.00    -0.005 C 
HETATM   13  C15 UNL     1       6.357  -1.322  -0.418  1.00  0.00     0.010 C 
HETATM   14  C16 UNL     1       5.758  -0.491   0.685  1.00  0.00    -0.038 C 
HETATM   15  C17 UNL     1       6.811   0.340   1.369  1.00  0.00     0.015 C 
HETATM   16  C18 UNL     1       5.224  -1.423   1.727  1.00  0.00     0.015 C 
HETATM   17  C20 UNL     1       5.485   1.517  -0.624  1.00  0.00     0.019 C 
HETATM   18  C21 UNL     1       3.668   0.833   0.878  1.00  0.00     0.158 C 
HETATM   19  C22 UNL     1       2.446   1.351   0.184  1.00  0.00     0.181 C 
BRANCH  18  20
HETATM   20  O1  UNL     1       4.225   1.931   1.578  1.00  0.00    -0.392 OA
ATOM     21  H1  UNL     1       3.552   2.263   2.160  1.00  0.00     0.210 HD
ENDBRANCH  18  20
BRANCH  19  22
HETATM   22  O2  UNL     1       2.777   2.252  -0.852  1.00  0.00    -0.391 OA
ATOM     23  H2  UNL     1       3.374   2.916  -0.528  1.00  0.00     0.210 HD
ENDBRANCH  19  22
ENDBRANCH   4   7
BRANCH   1  24
HETATM   24  C6  UNL     1      -3.924   0.715   0.775  1.00  0.00     0.277 C 
BRANCH  24  25
HETATM   25  N2  UNL     1      -4.849  -0.292   1.003  1.00  0.00     0.091 N 
HETATM   26  C5  UNL     1      -5.152  -1.313   0.096  1.00  0.00     0.305 C 
HETATM   27  C4  UNL     1      -5.780  -0.828  -1.197  1.00  0.00     0.212 C 
HETATM   28  C3  UNL     1      -6.722   0.325  -0.943  1.00  0.00     0.040 C 
HETATM   29  C2  UNL     1      -7.145   0.432   0.483  1.00  0.00     0.012 C 
HETATM   30  C1  UNL     1      -8.302  -0.524   0.710  1.00  0.00     0.012 C 
HETATM   31  C25 UNL     1      -6.085   0.326   1.510  1.00  0.00     0.276 C 
BRANCH  27  32
HETATM   32  N1  UNL     1      -6.465  -1.961  -1.787  1.00  0.00    -0.073 N 
ATOM     33  H13 UNL     1      -7.262  -2.250  -1.220  1.00  0.00     0.274 HD
ATOM     34  H12 UNL     1      -6.963  -1.693  -2.636  1.00  0.00     0.274 HD
ATOM     35  H11 UNL     1      -5.829  -2.740  -1.959  1.00  0.00     0.274 HD
ENDBRANCH  27  32
ENDBRANCH  24  25
ENDBRANCH   1  24
TORSDOF 6
