REMARK  5 active torsions:
REMARK  status: ('A' for Active; 'I' for Inactive)
REMARK    1  A    between atoms: C3_3  and  O1_4 
REMARK    2  A    between atoms: C16_19  and  C17_20 
REMARK    3  A    between atoms: C19_22  and  O3_23 
REMARK    4  A    between atoms: C23_28  and  O4_29 
REMARK    5  A    between atoms: C23_28  and  C24_31 
ROOT
HETATM    1  C1  UNL     1       3.454  -1.627   1.294  1.00  0.00     0.016 C 
HETATM    2  C2  UNL     1       3.799  -0.236   0.835  1.00  0.00     0.051 C 
HETATM    3  C3  UNL     1       2.676   0.743   0.861  1.00  0.00     0.069 C 
HETATM    4  C4  UNL     1       1.468   0.307   1.649  1.00  0.00     0.044 C 
HETATM    5  C5  UNL     1       0.582  -0.674   0.966  1.00  0.00    -0.002 A 
HETATM    6  C6  UNL     1       0.540  -0.704  -0.463  1.00  0.00    -0.001 A 
HETATM    7  C7  UNL     1       1.442   0.148  -1.251  1.00  0.00    -0.001 C 
HETATM    8  C8  UNL     1       2.528  -0.692  -1.931  1.00  0.00     0.014 C 
HETATM    9  C9  UNL     1       3.795  -0.022  -1.686  1.00  0.00     0.031 C 
HETATM   10  C10 UNL     1       3.346   1.440  -1.468  1.00  0.00    -0.009 C 
HETATM   11  C11 UNL     1       2.858   2.073  -2.712  1.00  0.00     0.018 C 
HETATM   12  C12 UNL     1       4.604   1.976  -0.906  1.00  0.00     0.178 C 
HETATM   13  O2  UNL     1       5.377   0.920  -0.423  1.00  0.00    -0.379 OA
HETATM   14  C13 UNL     1       4.551  -0.235  -0.452  1.00  0.00     0.068 C 
HETATM   15  C14 UNL     1       5.474  -1.416  -0.562  1.00  0.00     0.047 C 
HETATM   16  C15 UNL     1       2.221   1.193  -0.497  1.00  0.00     0.036 C 
HETATM   17  C16 UNL     1      -0.657  -0.139   0.209  1.00  0.00    -0.000 A 
ENDROOT
BRANCH  17  18
HETATM   18  C17 UNL     1      -1.887  -0.927   0.459  1.00  0.00     0.005 C 
HETATM   19  C18 UNL     1      -2.331  -0.989   1.902  1.00  0.00     0.074 C 
HETATM   20  C19 UNL     1      -3.851  -1.173   1.851  1.00  0.00     0.165 C 
HETATM   21  C20 UNL     1      -4.087  -2.362   0.912  1.00  0.00     0.069 C 
HETATM   22  O5  UNL     1      -4.507  -0.044   1.386  1.00  0.00    -0.319 OA
HETATM   23  C21 UNL     1      -3.902  -1.823  -0.485  1.00  0.00     0.015 C 
HETATM   24  C22 UNL     1      -3.093  -0.520  -0.409  1.00  0.00     0.053 C 
HETATM   25  C23 UNL     1      -3.850   0.537   0.293  1.00  0.00     0.172 C 
BRANCH  20  26
HETATM   26  O3  UNL     1      -4.278  -1.460   3.122  1.00  0.00    -0.365 OA
ATOM     27  H3  UNL     1      -5.221  -1.574   3.090  1.00  0.00     0.213 HD
ENDBRANCH  20  26
BRANCH  25  28
HETATM   28  O4  UNL     1      -2.938   1.437   0.915  1.00  0.00    -0.364 OA
ATOM     29  H4  UNL     1      -3.425   2.117   1.366  1.00  0.00     0.213 HD
ENDBRANCH  25  28
BRANCH  25  30
HETATM   30  C24 UNL     1      -4.792   1.379  -0.447  1.00  0.00     0.040 C 
HETATM   31  C25 UNL     1      -4.236   2.190  -1.579  1.00  0.00     0.015 C 
HETATM   32  C26 UNL     1      -6.007   0.635  -0.958  1.00  0.00     0.015 C 
ENDBRANCH  25  30
ENDBRANCH  17  18
BRANCH   3  33
HETATM   33  O1  UNL     1       3.077   1.938   1.524  1.00  0.00    -0.389 OA
ATOM     34  H1  UNL     1       2.361   2.562   1.541  1.00  0.00     0.210 HD
ENDBRANCH   3  33
TORSDOF 5
