REMARK  7 active torsions:
REMARK  status: ('A' for Active; 'I' for Inactive)
REMARK    1  A    between atoms: O1_2  and  C2_3 
REMARK    2  A    between atoms: C5_11  and  N3_12 
REMARK    3  A    between atoms: N3_12  and  C6_14 
REMARK    4  A    between atoms: C6_14  and  C7_15 
REMARK    5  A    between atoms: C6_14  and  C8_18 
REMARK       I    between atoms: C8_18  and  N5_20 
REMARK    6  A    between atoms: N5_20  and  N6_22 
REMARK    7  A    between atoms: C10_30  and  N9_31 
ROOT
HETATM    1  C2  UNL     1      -4.379  -0.420   0.495  1.00  0.00     0.187 A 
HETATM    2  N1  UNL     1      -3.469   0.195  -0.291  1.00  0.00    -0.326 N 
ATOM      3  H1  UNL     1      -3.778   0.751  -1.089  1.00  0.00     0.168 HD
HETATM    4  C3  UNL     1      -2.141   0.075  -0.021  1.00  0.00     0.148 A 
HETATM    5  C4  UNL     1      -1.179   0.676  -0.784  1.00  0.00     0.290 A 
HETATM    6  O2  UNL     1      -1.550   1.369  -1.778  1.00  0.00    -0.265 OA
HETATM    7  N2  UNL     1       0.149   0.581  -0.549  1.00  0.00    -0.154 N 
ATOM      8  H2  UNL     1       0.826   1.051  -1.151  1.00  0.00     0.187 HD
HETATM    9  C5  UNL     1       0.548  -0.153   0.503  1.00  0.00     0.683 A 
HETATM   10  N7  UNL     1      -0.395  -0.761   1.278  1.00  0.00    -0.174 N 
ATOM     11  H7  UNL     1      -0.079  -1.314   2.075  1.00  0.00     0.186 HD
HETATM   12  C9  UNL     1      -1.710  -0.673   1.053  1.00  0.00     0.155 A 
HETATM   13  N8  UNL     1      -2.608  -1.290   1.843  1.00  0.00    -0.323 N 
ATOM     14  H8  UNL     1      -2.296  -1.845   2.640  1.00  0.00     0.169 HD
HETATM   15  C10 UNL     1      -3.942  -1.167   1.568  1.00  0.00     0.152 A 
ENDROOT
BRANCH   9  16
HETATM   16  N3  UNL     1       1.794  -0.274   0.769  1.00  0.00    -0.204 N 
ATOM     17  H3  UNL     1       2.074  -0.835   1.574  1.00  0.00     0.179 HD
BRANCH  16  18
HETATM   18  C6  UNL     1       2.823   0.360  -0.035  1.00  0.00     0.282 C 
BRANCH  18  19
HETATM   19  C7  UNL     1       3.025  -0.409  -1.308  1.00  0.00     0.263 C 
HETATM   20  N4  UNL     1       3.936  -0.030  -2.320  1.00  0.00    -0.060 NA
HETATM   21  O3  UNL     1       2.330  -1.461  -1.472  1.00  0.00    -0.274 OA
ENDBRANCH  18  19
BRANCH  18  22
HETATM   22  C8  UNL     1       4.124   0.358   0.673  1.00  0.00     0.267 C 
HETATM   23  O4  UNL     1       4.232  -0.279   1.749  1.00  0.00    -0.269 OA
HETATM   24  N5  UNL     1       5.214   1.063   0.139  1.00  0.00    -0.274 N 
ATOM     25  H5  UNL     1       5.086   1.571  -0.736  1.00  0.00     0.189 HD
BRANCH  24  26
HETATM   26  N6  UNL     1       6.465   1.099   0.754  1.00  0.00    -0.343 N 
ATOM     27  H62 UNL     1       6.576   0.586   1.629  1.00  0.00     0.176 HD
ATOM     28  H61 UNL     1       7.257   1.611   0.366  1.00  0.00     0.176 HD
ENDBRANCH  24  26
ENDBRANCH  18  22
ENDBRANCH  16  18
ENDBRANCH   9  16
BRANCH  15  29
HETATM   29  N9  UNL     1      -4.806  -1.753   2.318  1.00  0.00    -0.382 N 
ATOM     30  H92 UNL     1      -5.801  -1.661   2.113  1.00  0.00     0.157 HD
ATOM     31  H91 UNL     1      -4.483  -2.306   3.112  1.00  0.00     0.157 HD
ENDBRANCH  15  29
BRANCH   1  32
HETATM   32  O1  UNL     1      -5.732  -0.323   0.255  1.00  0.00    -0.338 OA
HETATM   33  C1  UNL     1      -6.309   0.397  -0.792  1.00  0.00     0.211 C 
ENDBRANCH   1  32
TORSDOF 7
