REMARK  6 active torsions:
REMARK  status: ('A' for Active; 'I' for Inactive)
REMARK    1  A    between atoms: C3_8  and  N3_9 
REMARK       I    between atoms: N3_9  and  C4_11 
REMARK    2  A    between atoms: C4_11  and  C5_13 
REMARK    3  A    between atoms: C5_13  and  N4_14 
REMARK    4  A    between atoms: C5_13  and  C6_18 
REMARK    5  A    between atoms: N8_27  and  C9_28 
REMARK    6  A    between atoms: C9_28  and  C10_29 
ROOT
HETATM    1  N1  UNL     1      -1.706  -3.738  -0.755  1.00  0.00    -0.381 N 
ATOM      2  H11 UNL     1      -2.567  -4.281  -0.690  1.00  0.00     0.157 HD
ATOM      3  H12 UNL     1      -0.865  -4.201  -1.099  1.00  0.00     0.157 HD
HETATM    4  C1  UNL     1      -1.642  -2.482  -0.416  1.00  0.00     0.169 A 
HETATM    5  N2  UNL     1      -0.508  -1.766  -0.502  1.00  0.00    -0.332 N 
ATOM      6  H2  UNL     1       0.352  -2.197  -0.842  1.00  0.00     0.168 HD
HETATM    7  C2  UNL     1      -0.524  -0.455  -0.128  1.00  0.00     0.123 A 
HETATM    8  C3  UNL     1       0.636   0.307  -0.207  1.00  0.00     0.140 A 
HETATM    9  N6  UNL     1       0.658   1.602   0.153  1.00  0.00    -0.337 N 
ATOM     10  H6  UNL     1       1.513   2.154   0.092  1.00  0.00     0.168 HD
HETATM   11  C7  UNL     1      -0.493   2.142   0.597  1.00  0.00     0.183 A 
HETATM   12  N7  UNL     1      -1.631   1.435   0.687  1.00  0.00    -0.336 N 
ATOM     13  H7  UNL     1      -2.478   1.887   1.030  1.00  0.00     0.168 HD
HETATM   14  C8  UNL     1      -1.669   0.125   0.327  1.00  0.00     0.142 A 
HETATM   15  N8  UNL     1      -2.820  -0.567   0.424  1.00  0.00    -0.287 N 
HETATM   16  C11 UNL     1      -2.779  -1.857   0.049  1.00  0.00     0.293 A 
HETATM   17  O4  UNL     1      -3.835  -2.521   0.130  1.00  0.00    -0.264 OA
ENDROOT
BRANCH   8  18
HETATM   18  N3  UNL     1       1.693  -0.297  -0.646  1.00  0.00    -0.309 N 
HETATM   19  C4  UNL     1       2.894   0.442  -0.742  1.00  0.00     0.263 C 
HETATM   20  O1  UNL     1       3.036   1.277  -1.670  1.00  0.00    -0.270 OA
ATOM     21  H3  UNL     1       1.660  -1.280  -0.916  1.00  0.00     0.170 HD
BRANCH  19  22
HETATM   22  C5  UNL     1       4.007   0.264   0.226  1.00  0.00     0.363 C 
BRANCH  22  23
HETATM   23  N4  UNL     1       3.687  -0.732   1.231  1.00  0.00    -0.058 N 
ATOM     24  H43 UNL     1       2.811  -0.514   1.706  1.00  0.00     0.275 HD
ATOM     25  H42 UNL     1       3.419  -1.619   0.804  1.00  0.00     0.275 HD
ATOM     26  H41 UNL     1       4.451  -0.854   1.896  1.00  0.00     0.275 HD
ENDBRANCH  22  23
BRANCH  22  27
HETATM   27  C6  UNL     1       5.270  -0.139  -0.447  1.00  0.00     0.271 C 
HETATM   28  N5  UNL     1       5.854   0.634  -1.488  1.00  0.00    -0.060 NA
HETATM   29  O2  UNL     1       5.888  -1.195  -0.123  1.00  0.00    -0.274 OA
ENDBRANCH  22  27
ENDBRANCH  19  22
ENDBRANCH   8  18
BRANCH  15  30
HETATM   30  C9  UNL     1      -3.979   0.106   0.908  1.00  0.00     0.233 C 
BRANCH  30  31
HETATM   31  C10 UNL     1      -4.796   0.747  -0.109  1.00  0.00     0.249 C 
HETATM   32  N9  UNL     1      -5.969   1.443   0.265  1.00  0.00    -0.061 NA
HETATM   33  O3  UNL     1      -4.481   0.696  -1.316  1.00  0.00    -0.275 OA
ENDBRANCH  30  31
ENDBRANCH  15  30
TORSDOF 6
