REMARK  5 active torsions:
REMARK  status: ('A' for Active; 'I' for Inactive)
REMARK    1  A    between atoms: C2_2  and  C4_4 
REMARK    2  A    between atoms: N1_14  and  C12_15 
REMARK    3  A    between atoms: C12_15  and  O1_16 
REMARK    4  A    between atoms: C12_15  and  C13_18 
REMARK    5  A    between atoms: C13_18  and  O2_21 
ROOT
HETATM    1  C4  UNL     1      -0.034   0.777   0.702  1.00  0.00     0.025 C 
HETATM    2  C5  UNL     1      -0.111   1.010  -0.745  1.00  0.00     0.053 A 
HETATM    3  C6  UNL     1      -1.653   0.969  -1.041  1.00  0.00     0.033 A 
HETATM    4  C7  UNL     1      -1.977  -0.403  -1.251  1.00  0.00    -0.076 C 
HETATM    5  C8  UNL     1      -2.237  -0.811  -2.487  1.00  0.00     0.015 C 
HETATM    6  C9  UNL     1      -2.117  -1.489  -0.251  1.00  0.00     0.058 C 
HETATM    7  C10 UNL     1      -3.552  -1.813  -0.063  1.00  0.00     0.098 C 
HETATM    8  S1  UNL     1      -4.280  -0.522   1.022  1.00  0.00    -0.095 SA
HETATM    9  S2  UNL     1      -2.421  -0.247   2.102  1.00  0.00    -0.071 SA
HETATM   10  C11 UNL     1      -1.439  -1.329   1.043  1.00  0.00     0.173 C 
HETATM   11  N1  UNL     1      -0.120  -0.662   0.889  1.00  0.00    -0.316 N 
HETATM   12  C16 UNL     1      -0.771   1.932  -1.593  1.00  0.00    -0.030 A 
HETATM   13  C17 UNL     1      -0.991   3.391  -1.207  1.00  0.00     0.016 C 
HETATM   14  C18 UNL     1      -0.455   1.860  -3.089  1.00  0.00     0.016 C 
ENDROOT
BRANCH  11  15
HETATM   15  C12 UNL     1       0.940  -1.546   0.858  1.00  0.00     0.153 C 
BRANCH  15  16
HETATM   16  O1  UNL     1       0.552  -2.786   1.172  1.00  0.00    -0.347 OA
ATOM     17  H1  UNL     1       1.281  -3.394   1.151  1.00  0.00     0.219 HD
ENDBRANCH  15  16
BRANCH  15  18
HETATM   18  C13 UNL     1       2.356  -1.520   0.579  1.00  0.00     0.115 C 
HETATM   19  C14 UNL     1       2.803  -2.683  -0.308  1.00  0.00     0.054 C 
HETATM   20  C15 UNL     1       3.126  -1.786   1.902  1.00  0.00     0.054 C 
BRANCH  18  21
HETATM   21  O2  UNL     1       2.939  -0.409   0.054  1.00  0.00    -0.382 OA
ATOM     22  H2  UNL     1       3.871  -0.392  -0.130  1.00  0.00     0.211 HD
ENDBRANCH  18  21
ENDBRANCH  15  18
ENDBRANCH  11  15
BRANCH   1  23
HETATM   23  C2  UNL     1       0.887   1.523   1.529  1.00  0.00    -0.048 C 
HETATM   24  C1  UNL     1       1.646   2.497   1.122  1.00  0.00     0.020 C 
HETATM   25  C3  UNL     1       0.964   1.214   3.005  1.00  0.00     0.049 C 
ENDBRANCH   1  23
TORSDOF 5
