REMARK  3 active torsions:
REMARK  status: ('A' for Active; 'I' for Inactive)
REMARK    1  A    between atoms: C3_3  and  O1_4 
REMARK    2  A    between atoms: O1_4  and  C4_5 
REMARK    3  A    between atoms: C11_12  and  O2_13 
ROOT
HETATM    1  C1  UNL     1       8.133   0.115   0.820  1.00  0.00     0.014 C 
HETATM    2  C2  UNL     1       7.050  -0.167   0.408  1.00  0.00    -0.091 C 
HETATM    3  C3  UNL     1       5.730  -0.523  -0.099  1.00  0.00     0.263 C 
ENDROOT
BRANCH   3   4
HETATM    4  O1  UNL     1       4.713  -0.247   0.810  1.00  0.00    -0.350 OA
BRANCH   4   5
HETATM    5  C4  UNL     1       3.517  -0.611   0.252  1.00  0.00     0.261 C 
HETATM    6  C5  UNL     1       2.811  -1.618   1.123  1.00  0.00     0.061 C 
HETATM    7  C6  UNL     1       1.361  -1.792   0.828  1.00  0.00     0.017 C 
HETATM    8  C7  UNL     1       0.737  -0.469   0.449  1.00  0.00    -0.010 C 
HETATM    9  C8  UNL     1       0.870   0.416   1.686  1.00  0.00     0.018 C 
HETATM   10  C9  UNL     1       1.594   0.187  -0.614  1.00  0.00     0.136 C 
HETATM   11  C21 UNL     1      -0.667  -0.594  -0.035  1.00  0.00    -0.027 C 
HETATM   12  C10 UNL     1       1.001   1.400  -1.201  1.00  0.00     0.065 C 
HETATM   13  O4  UNL     1       2.767   0.574   0.087  1.00  0.00    -0.355 OA
HETATM   14  C11 UNL     1      -0.494   1.326  -1.473  1.00  0.00     0.126 C 
HETATM   15  C12 UNL     1      -1.192   0.833  -0.240  1.00  0.00     0.039 C 
HETATM   16  C13 UNL     1      -2.650   0.964  -0.187  1.00  0.00     0.027 C 
HETATM   17  C14 UNL     1      -3.254   1.946  -1.171  1.00  0.00     0.024 C 
HETATM   18  C15 UNL     1      -3.089   1.437   1.159  1.00  0.00     0.136 C 
HETATM   19  C18 UNL     1      -3.455  -0.298  -0.325  1.00  0.00     0.002 C 
HETATM   20  O3  UNL     1      -2.373   2.063   1.918  1.00  0.00    -0.297 OA
HETATM   21  C16 UNL     1      -4.479   1.041   1.410  1.00  0.00     0.079 C 
HETATM   22  C17 UNL     1      -4.773   0.014   0.365  1.00  0.00     0.013 C 
HETATM   23  C19 UNL     1      -2.883  -1.509   0.308  1.00  0.00     0.006 C 
HETATM   24  C20 UNL     1      -1.555  -1.280   0.982  1.00  0.00     0.011 C 
HETATM   25  C22 UNL     1      -0.691  -1.405  -1.282  1.00  0.00     0.016 C 
BRANCH  14  26
HETATM   26  O2  UNL     1      -0.837   2.664  -1.789  1.00  0.00    -0.395 OA
ATOM     27  H2  UNL     1      -1.771   2.618  -1.959  1.00  0.00     0.210 HD
ENDBRANCH  14  26
ENDBRANCH   4   5
ENDBRANCH   3   4
TORSDOF 3
