REMARK  3 active torsions:
REMARK  status: ('A' for Active; 'I' for Inactive)
REMARK    1  A    between atoms: C9_10  and  C10_11 
REMARK    2  A    between atoms: C10_11  and  C11_12 
REMARK    3  A    between atoms: C18_20  and  O3_22 
ROOT
HETATM    1  C1  UNL     1      -4.902  -1.852   1.901  1.00  0.00     0.010 C 
HETATM    2  C2  UNL     1      -4.368  -1.219   0.647  1.00  0.00    -0.011 C 
HETATM    3  C3  UNL     1      -4.896   0.155   0.396  1.00  0.00     0.014 C 
HETATM    4  C4  UNL     1      -3.888   0.720  -0.587  1.00  0.00     0.045 C 
HETATM    5  C5  UNL     1      -4.114   0.090  -1.945  1.00  0.00     0.176 C 
HETATM    6  O1  UNL     1      -3.013  -0.749  -1.657  1.00  0.00    -0.378 OA
HETATM    7  C6  UNL     1      -2.652  -0.109  -0.493  1.00  0.00     0.074 C 
HETATM    8  C7  UNL     1      -1.336   0.587  -0.511  1.00  0.00     0.021 C 
HETATM    9  C8  UNL     1      -1.501   2.049  -0.915  1.00  0.00     0.013 C 
HETATM   10  C9  UNL     1      -0.602   0.459   0.796  1.00  0.00    -0.006 C 
HETATM   11  C20 UNL     1      -1.543   0.804   1.910  1.00  0.00     0.005 C 
HETATM   12  C21 UNL     1      -2.573  -0.278   2.010  1.00  0.00     0.008 C 
HETATM   13  C22 UNL     1      -2.868  -0.973   0.723  1.00  0.00     0.025 C 
ENDROOT
BRANCH  10  14
HETATM   14  C10 UNL     1       0.695   1.189   0.839  1.00  0.00     0.037 C 
BRANCH  14  15
HETATM   15  C11 UNL     1       1.628   0.687  -0.213  1.00  0.00     0.127 C 
HETATM   16  O2  UNL     1       1.930  -0.658  -0.090  1.00  0.00    -0.372 OA
HETATM   17  C12 UNL     1       3.195  -0.939  -0.595  1.00  0.00     0.088 C 
HETATM   18  C13 UNL     1       3.290  -2.429  -0.902  1.00  0.00     0.049 C 
HETATM   19  C14 UNL     1       3.435  -0.217  -1.904  1.00  0.00     0.041 C 
HETATM   20  C18 UNL     1       4.193  -0.542   0.471  1.00  0.00     0.085 C 
HETATM   21  C15 UNL     1       3.557   1.269  -1.574  1.00  0.00     0.010 C 
HETATM   22  C16 UNL     1       2.959   1.445  -0.193  1.00  0.00     0.018 C 
HETATM   23  C17 UNL     1       3.844   0.877   0.885  1.00  0.00     0.047 C 
HETATM   24  C19 UNL     1       5.615  -0.679   0.034  1.00  0.00     0.049 C 
BRANCH  20  25
HETATM   25  O3  UNL     1       3.955  -1.402   1.563  1.00  0.00    -0.387 OA
ATOM     26  H3  UNL     1       4.582  -1.153   2.232  1.00  0.00     0.210 HD
ENDBRANCH  20  25
ENDBRANCH  14  15
ENDBRANCH  10  14
TORSDOF 3
