REMARK  5 active torsions:
REMARK  status: ('A' for Active; 'I' for Inactive)
REMARK    1  A    between atoms: C5_6  and  O1_7 
REMARK    2  A    between atoms: N1_9  and  C6_10 
REMARK    3  A    between atoms: C9_13  and  O2_14 
REMARK    4  A    between atoms: C10_16  and  C11_17 
REMARK    5  A    between atoms: C11_17  and  C12_18 
ROOT
HETATM    1  C1  UNL     1      -0.209  -3.453   1.059  1.00  0.00     0.027 C 
HETATM    2  C2  UNL     1      -0.816  -2.568   0.331  1.00  0.00    -0.017 C 
HETATM    3  S1  UNL     1      -2.042  -2.922  -0.932  1.00  0.00    -0.090 SA
HETATM    4  C3  UNL     1      -2.890  -1.359  -0.762  1.00  0.00     0.067 A 
HETATM    5  C4  UNL     1      -2.041  -0.531  -0.076  1.00  0.00     0.024 A 
HETATM    6  C5  UNL     1      -2.749   0.671   0.046  1.00  0.00     0.153 A 
HETATM    7  N1  UNL     1      -3.961   0.559  -0.543  1.00  0.00    -0.302 N 
HETATM    8  C9  UNL     1      -4.052  -0.710  -1.049  1.00  0.00     0.162 A 
HETATM    9  C10 UNL     1      -0.742  -1.104   0.285  1.00  0.00     0.067 C 
ENDROOT
BRANCH   9  10
HETATM   10  C11 UNL     1       0.348  -0.657  -0.695  1.00  0.00     0.042 C 
BRANCH  10  11
HETATM   11  C12 UNL     1       1.632  -1.194  -0.240  1.00  0.00    -0.023 C 
HETATM   12  C13 UNL     1       2.672  -0.436   0.106  1.00  0.00    -0.084 C 
HETATM   13  C14 UNL     1       3.914  -1.118   0.550  1.00  0.00     0.034 C 
HETATM   14  C19 UNL     1       2.439   1.023  -0.002  1.00  0.00     0.034 C 
HETATM   15  C15 UNL     1       5.130  -0.675  -0.232  1.00  0.00     0.004 C 
HETATM   16  C16 UNL     1       4.843   0.499  -1.135  1.00  0.00     0.000 C 
HETATM   17  C17 UNL     1       4.809   1.764  -0.321  1.00  0.00     0.000 C 
HETATM   18  C18 UNL     1       3.589   1.827   0.553  1.00  0.00     0.004 C 
ENDBRANCH  10  11
ENDBRANCH   9  10
BRANCH   6  19
HETATM   19  O1  UNL     1      -2.278   1.815   0.678  1.00  0.00    -0.345 OA
ATOM     20  H1  UNL     1      -2.758   2.630   0.761  1.00  0.00     0.219 HD
ENDBRANCH   6  19
BRANCH   8  21
HETATM   21  O2  UNL     1      -5.189  -1.134  -1.718  1.00  0.00    -0.345 OA
ATOM     22  H2  UNL     1      -6.000  -0.681  -1.918  1.00  0.00     0.219 HD
ENDBRANCH   8  21
BRANCH   7  23
HETATM   23  C6  UNL     1      -4.926   1.611  -0.594  1.00  0.00     0.094 A 
HETATM   24  C7  UNL     1      -6.371   1.391  -0.435  1.00  0.00     0.028 A 
HETATM   25  C8  UNL     1      -5.634   1.856   0.759  1.00  0.00     0.028 A 
ENDBRANCH   7  23
TORSDOF 5
