REMARK  4 active torsions:
REMARK  status: ('A' for Active; 'I' for Inactive)
REMARK    1  A    between atoms: C2_2  and  C3_3 
REMARK    2  A    between atoms: C3_3  and  C4_4 
REMARK    3  A    between atoms: C10_13  and  C11_14 
REMARK    4  A    between atoms: C13_17  and  O2_18 
ROOT
HETATM    1  C4  UNL     1       2.325  -0.552   0.343  1.00  0.00    -0.009 C 
HETATM    2  N1  UNL     1       1.867  -0.089   1.624  1.00  0.00    -0.354 N 
ATOM      3  H1  UNL     1       2.705   0.138   2.159  1.00  0.00     0.166 HD
HETATM    4  C5  UNL     1       0.894   0.160   2.377  1.00  0.00     0.102 C 
HETATM    5  N2  UNL     1       1.314   0.653   3.649  1.00  0.00    -0.087 NA
HETATM    6  C6  UNL     1      -0.567   0.059   2.243  1.00  0.00     0.016 C 
HETATM    7  C7  UNL     1      -1.143  -0.414   3.571  1.00  0.00     0.023 C 
HETATM    8  C8  UNL     1      -1.162   1.401   1.883  1.00  0.00     0.018 C 
HETATM    9  C9  UNL     1      -2.170   1.371   0.795  1.00  0.00     0.016 C 
HETATM   10  C10 UNL     1      -1.947   0.189  -0.182  1.00  0.00    -0.007 C 
HETATM   11  C15 UNL     1      -2.323  -0.982   0.708  1.00  0.00     0.021 C 
HETATM   12  C16 UNL     1      -0.888  -0.915   1.177  1.00  0.00     0.007 C 
HETATM   13  C17 UNL     1      -0.554  -0.189  -0.113  1.00  0.00     0.004 C 
HETATM   14  C18 UNL     1       0.184  -1.110  -0.960  1.00  0.00     0.016 C 
HETATM   15  C19 UNL     1       1.474  -1.522  -0.351  1.00  0.00     0.027 C 
HETATM   16  C20 UNL     1       2.240  -2.425  -1.323  1.00  0.00     0.016 C 
ENDROOT
BRANCH  10  17
HETATM   17  C11 UNL     1      -2.665   0.353  -1.437  1.00  0.00    -0.022 A 
HETATM   18  C12 UNL     1      -2.217   0.576  -2.723  1.00  0.00     0.152 A 
HETATM   19  O1  UNL     1      -3.248   0.685  -3.526  1.00  0.00    -0.300 OA
HETATM   20  C13 UNL     1      -4.368   0.546  -2.869  1.00  0.00     0.183 A 
HETATM   21  C14 UNL     1      -4.038   0.336  -1.552  1.00  0.00     0.073 A 
BRANCH  20  22
HETATM   22  O2  UNL     1      -5.677   0.599  -3.410  1.00  0.00    -0.341 OA
ATOM     23  H2  UNL     1      -6.492   0.498  -2.932  1.00  0.00     0.220 HD
ENDBRANCH  20  22
ENDBRANCH  10  17
BRANCH   1  24
HETATM   24  C3  UNL     1       3.019   0.540  -0.360  1.00  0.00     0.052 C 
BRANCH  24  25
HETATM   25  C2  UNL     1       3.575   0.268  -1.710  1.00  0.00     0.001 C 
HETATM   26  C1  UNL     1       4.265   1.563  -2.163  1.00  0.00     0.005 C 
ENDBRANCH  24  25
ENDBRANCH   1  24
TORSDOF 4
