REMARK  6 active torsions:
REMARK  status: ('A' for Active; 'I' for Inactive)
REMARK    1  A    between atoms: C2_2  and  C3_3 
REMARK    2  A    between atoms: C3_3  and  C4_4 
REMARK    3  A    between atoms: C9_10  and  O2_11 
REMARK    4  A    between atoms: C10_13  and  C11_14 
REMARK    5  A    between atoms: C11_14  and  C13_16 
REMARK    6  A    between atoms: C18_22  and  O3_23 
ROOT
HETATM    1  C13 UNL     1       3.906  -0.545  -0.998  1.00  0.00     0.029 C 
HETATM    2  C14 UNL     1       5.217  -0.846  -1.012  1.00  0.00     0.019 C 
HETATM    3  C15 UNL     1       6.230   0.158  -0.609  1.00  0.00     0.060 C 
HETATM    4  C16 UNL     1       5.581  -2.165  -1.426  1.00  0.00     0.094 C 
HETATM    5  N1  UNL     1       5.869  -3.236  -1.734  1.00  0.00    -0.192 NA
ENDROOT
BRANCH   1   6
HETATM    6  C11 UNL     1       3.544   0.847  -0.557  1.00  0.00    -0.031 C 
HETATM    7  C12 UNL     1       3.274   1.883  -0.229  1.00  0.00     0.024 C 
BRANCH   6   8
HETATM    8  C10 UNL     1       1.844   0.391  -0.653  1.00  0.00     0.010 A 
HETATM    9  C9  UNL     1       1.376  -0.031   0.507  1.00  0.00     0.091 A 
HETATM   10  C8  UNL     1       0.018  -0.440   0.422  1.00  0.00     0.053 A 
HETATM   11  C7  UNL     1      -0.686  -0.959   1.551  1.00  0.00     0.163 C 
HETATM   12  C19 UNL     1      -0.664  -0.366  -0.796  1.00  0.00    -0.008 A 
HETATM   13  C6  UNL     1      -2.161  -0.675   1.682  1.00  0.00     0.093 C 
HETATM   14  O1  UNL     1      -0.087  -1.643   2.418  1.00  0.00    -0.292 OA
HETATM   15  C4  UNL     1      -2.858  -0.475   0.407  1.00  0.00    -0.030 C 
HETATM   16  C5  UNL     1      -4.145  -1.330   0.413  1.00  0.00     0.016 C 
HETATM   17  C20 UNL     1      -2.093  -0.823  -0.855  1.00  0.00     0.052 C 
HETATM   18  C18 UNL     1      -0.069   0.091  -1.927  1.00  0.00     0.073 A 
HETATM   19  C17 UNL     1       1.313   0.504  -1.833  1.00  0.00     0.052 A 
BRANCH   9  20
HETATM   20  O2  UNL     1       2.035  -0.098   1.686  1.00  0.00    -0.359 OA
ATOM     21  H2  UNL     1       2.943   0.175   1.743  1.00  0.00     0.217 HD
ENDBRANCH   9  20
BRANCH  15  22
HETATM   22  C3  UNL     1      -3.317   0.972   0.292  1.00  0.00     0.036 C 
BRANCH  22  23
HETATM   23  C2  UNL     1      -4.192   1.371   1.403  1.00  0.00    -0.036 C 
HETATM   24  C1  UNL     1      -5.458   1.784   1.144  1.00  0.00     0.007 C 
ENDBRANCH  22  23
ENDBRANCH  15  22
BRANCH  18  25
HETATM   25  O3  UNL     1      -0.642   0.200  -3.154  1.00  0.00    -0.360 OA
ATOM     26  H3  UNL     1      -1.550  -0.071  -3.216  1.00  0.00     0.217 HD
ENDBRANCH  18  25
ENDBRANCH   6   8
ENDBRANCH   1   6
TORSDOF 6
