REMARK  4 active torsions:
REMARK  status: ('A' for Active; 'I' for Inactive)
REMARK    1  A    between atoms: C4_4  and  C5_5 
REMARK    2  A    between atoms: C5_5  and  C6_6 
REMARK    3  A    between atoms: C7_7  and  O1_8 
REMARK    4  A    between atoms: C8_10  and  C9_11 
ROOT
HETATM    1  C6  UNL     1       1.016   0.058   0.778  1.00  0.00     0.013 A 
HETATM    2  C7  UNL     1       0.862   1.454   0.876  1.00  0.00     0.081 A 
HETATM    3  C8  UNL     1      -0.362   2.070   0.617  1.00  0.00    -0.020 A 
HETATM    4  C12 UNL     1      -1.446   1.306   0.260  1.00  0.00     0.021 A 
HETATM    5  C13 UNL     1      -1.322  -0.066   0.157  1.00  0.00    -0.013 A 
HETATM    6  C14 UNL     1      -0.105  -0.653   0.415  1.00  0.00     0.094 A 
HETATM    7  O2  UNL     1       0.047  -2.051   0.316  1.00  0.00    -0.296 OA
HETATM    8  C15 UNL     1      -1.097  -2.765  -0.055  1.00  0.00     0.137 C 
HETATM    9  N1  UNL     1      -1.360  -3.949   0.363  1.00  0.00    -0.382 N 
ATOM     10  H11 UNL     1      -2.194  -4.470   0.092  1.00  0.00     0.158 HD
ATOM     11  H12 UNL     1      -0.720  -4.421   1.002  1.00  0.00     0.158 HD
HETATM   12  C16 UNL     1      -2.042  -2.069  -0.998  1.00  0.00     0.179 C 
HETATM   13  C17 UNL     1      -3.106  -2.944  -1.410  1.00  0.00     0.073 C 
HETATM   14  N2  UNL     1      -3.963  -3.638  -1.753  1.00  0.00    -0.196 NA
HETATM   15  C18 UNL     1      -2.535  -0.845  -0.225  1.00  0.00     0.006 C 
HETATM   16  C19 UNL     1      -3.272  -1.363   0.996  1.00  0.00     0.022 C 
HETATM   17  C20 UNL     1      -3.488  -0.010  -1.011  1.00  0.00     0.022 C 
ENDROOT
BRANCH   1  18
HETATM   18  C5  UNL     1       2.342  -0.470   1.056  1.00  0.00     0.072 C 
BRANCH  18  19
HETATM   19  C4  UNL     1       2.772  -1.712   0.443  1.00  0.00    -0.020 C 
HETATM   20  C2  UNL     1       3.823  -1.769  -0.373  1.00  0.00    -0.091 C 
HETATM   21  C1  UNL     1       4.631  -0.543  -0.710  1.00  0.00     0.042 C 
HETATM   22  C3  UNL     1       4.257  -3.059  -0.991  1.00  0.00     0.042 C 
ENDBRANCH  18  19
ENDBRANCH   1  18
BRANCH   3  23
HETATM   23  C9  UNL     1      -0.508   3.548   0.712  1.00  0.00     0.013 C 
HETATM   24  C10 UNL     1      -1.972   3.949   0.684  1.00  0.00     0.015 C 
HETATM   25  C11 UNL     1       0.196   4.139  -0.509  1.00  0.00     0.015 C 
ENDBRANCH   3  23
BRANCH   2  26
HETATM   26  O1  UNL     1       1.874   2.316   1.231  1.00  0.00    -0.359 OA
ATOM     27  H1  UNL     1       1.770   3.258   1.297  1.00  0.00     0.217 HD
ENDBRANCH   2  26
TORSDOF 4
