REMARK  3 active torsions:
REMARK  status: ('A' for Active; 'I' for Inactive)
REMARK    1  A    between atoms: O1_1  and  C1_3 
REMARK    2  A    between atoms: C1_3  and  C2_4 
REMARK    3  A    between atoms: C6_8  and  O2_9 
ROOT
HETATM    1  C2  UNL     1      -1.140  -0.103  -0.020  1.00  0.00    -0.019 C 
HETATM    2  C3  UNL     1      -0.635  -1.161   0.850  1.00  0.00     0.012 C 
HETATM    3  C4  UNL     1       0.607  -1.871   0.546  1.00  0.00     0.004 C 
HETATM    4  C5  UNL     1       1.746  -1.228  -0.079  1.00  0.00     0.038 C 
HETATM    5  C6  UNL     1       1.680   0.225  -0.431  1.00  0.00     0.058 C 
HETATM    6  C7  UNL     1       1.424   1.157   0.685  1.00  0.00     0.038 C 
HETATM    7  C8  UNL     1       0.179   1.990   0.460  1.00  0.00     0.004 C 
HETATM    8  C9  UNL     1      -1.090   1.259   0.655  1.00  0.00     0.012 C 
HETATM    9  C10 UNL     1       0.771   0.355  -1.613  1.00  0.00     0.038 C 
HETATM   10  C11 UNL     1      -0.627  -0.063  -1.423  1.00  0.00     0.014 C 
ENDROOT
BRANCH   1  11
HETATM   11  C1  UNL     1      -2.662  -0.300  -0.236  1.00  0.00     0.173 C 
BRANCH  11  12
HETATM   12  O1  UNL     1      -3.341  -0.252   0.963  1.00  0.00    -0.400 OA
ATOM     13  H1  UNL     1      -4.274  -0.373   0.831  1.00  0.00     0.209 HD
ENDBRANCH  11  12
ENDBRANCH   1  11
BRANCH   5  14
HETATM   14  O2  UNL     1       2.977   0.537  -0.932  1.00  0.00    -0.390 OA
ATOM     15  H2  UNL     1       2.935   1.459  -1.155  1.00  0.00     0.210 HD
ENDBRANCH   5  14
TORSDOF 3
