REMARK  1 active torsions:
REMARK  status: ('A' for Active; 'I' for Inactive)
REMARK    1  A    between atoms: C2_2  and  C3_3 
ROOT
HETATM    1  C3  UNL     1      -1.924  -0.116  -0.681  1.00  0.00     0.094 C 
HETATM    2  C4  UNL     1      -2.034  -1.551  -0.318  1.00  0.00     0.138 C 
HETATM    3  N1  UNL     1      -1.151  -2.017   0.691  1.00  0.00    -0.417 N 
ATOM      4  H1  UNL     1      -1.184  -2.977   1.034  1.00  0.00     0.153 HD
HETATM    5  C5  UNL     1      -0.215  -1.067   1.199  1.00  0.00     0.144 C 
HETATM    6  C6  UNL     1       0.351  -0.197   0.122  1.00  0.00     0.041 C 
HETATM    7  C7  UNL     1       1.175   0.927   0.729  1.00  0.00     0.032 C 
HETATM    8  C8  UNL     1       2.379   1.254  -0.127  1.00  0.00     0.002 C 
HETATM    9  C9  UNL     1       3.404   0.135  -0.094  1.00  0.00     0.000 C 
HETATM   10  C10 UNL     1       2.653  -1.190   0.001  1.00  0.00     0.002 C 
HETATM   11  C11 UNL     1       1.340  -1.036  -0.698  1.00  0.00     0.032 C 
HETATM   12  N2  UNL     1      -0.592   0.357  -0.761  1.00  0.00    -0.405 N 
ATOM     13  H2  UNL     1      -0.326   1.074  -1.436  1.00  0.00     0.154 HD
ENDROOT
BRANCH   1  14
HETATM   14  C2  UNL     1      -2.825   0.733   0.208  1.00  0.00     0.022 C 
HETATM   15  C1  UNL     1      -2.710   2.197  -0.166  1.00  0.00     0.007 C 
ENDBRANCH   1  14
TORSDOF 1
