REMARK  3 active torsions:
REMARK  status: ('A' for Active; 'I' for Inactive)
REMARK    1  A    between atoms: C2_2  and  C4_4 
REMARK    2  A    between atoms: C9_9  and  O1_10 
REMARK    3  A    between atoms: C10_12  and  N1_14 
ROOT
HETATM    1  C4  UNL     1      -0.706   0.191   0.467  1.00  0.00     0.027 C 
HETATM    2  C5  UNL     1      -0.019  -0.561   1.588  1.00  0.00     0.008 C 
HETATM    3  C6  UNL     1       1.269  -1.232   1.104  1.00  0.00     0.007 C 
HETATM    4  C7  UNL     1       2.154  -0.094   0.664  1.00  0.00     0.013 C 
HETATM    5  C8  UNL     1       3.525  -0.634   0.376  1.00  0.00     0.012 C 
HETATM    6  C9  UNL     1       1.572   0.713  -0.438  1.00  0.00     0.157 C 
HETATM    7  C10 UNL     1       0.125   0.399  -0.749  1.00  0.00     0.149 C 
HETATM    8  C11 UNL     1      -0.375   1.668  -1.453  1.00  0.00     0.049 C 
ENDROOT
BRANCH   7   9
HETATM    9  N1  UNL     1       0.120  -0.707  -1.670  1.00  0.00    -0.068 N 
ATOM     10  H13 UNL     1       0.395  -1.567  -1.195  1.00  0.00     0.275 HD
ATOM     11  H12 UNL     1      -0.836  -0.949  -1.930  1.00  0.00     0.275 HD
ATOM     12  H11 UNL     1       0.690  -0.564  -2.504  1.00  0.00     0.275 HD
ENDBRANCH   7   9
BRANCH   1  13
HETATM   13  C2  UNL     1      -2.035  -0.420   0.264  1.00  0.00    -0.016 C 
HETATM   14  C1  UNL     1      -2.829  -0.295   1.551  1.00  0.00     0.010 C 
HETATM   15  C3  UNL     1      -2.892   0.157  -0.800  1.00  0.00     0.010 C 
ENDBRANCH   1  13
BRANCH   6  16
HETATM   16  O1  UNL     1       2.327   0.473  -1.596  1.00  0.00    -0.393 OA
ATOM     17  H1  UNL     1       1.955   0.989  -2.301  1.00  0.00     0.210 HD
ENDBRANCH   6  16
TORSDOF 3
