REMARK  2 active torsions:
REMARK  status: ('A' for Active; 'I' for Inactive)
REMARK    1  A    between atoms: N1_2  and  C2_5 
REMARK    2  A    between atoms: C9_12  and  N2_13 
ROOT
HETATM    1  C2  UNL     1       1.019   0.124   0.454  1.00  0.00     0.128 C 
HETATM    2  C3  UNL     1       1.039   1.393  -0.317  1.00  0.00     0.039 C 
HETATM    3  C4  UNL     1      -0.133   1.712  -1.150  1.00  0.00     0.007 C 
HETATM    4  C5  UNL     1      -1.440   1.143  -0.729  1.00  0.00    -0.012 C 
HETATM    5  C6  UNL     1      -1.734   1.267   0.732  1.00  0.00     0.009 C 
HETATM    6  C7  UNL     1      -1.244   0.120   1.563  1.00  0.00    -0.009 C 
HETATM    7  C8  UNL     1      -1.536  -1.229   0.976  1.00  0.00     0.043 C 
HETATM    8  C9  UNL     1      -0.895  -1.271  -0.396  1.00  0.00     0.127 C 
HETATM    9  C10 UNL     1      -1.617  -0.265  -1.253  1.00  0.00     0.043 C 
HETATM   10  C11 UNL     1       0.582  -1.069  -0.346  1.00  0.00     0.077 C 
HETATM   11  C12 UNL     1       0.230   0.280   1.749  1.00  0.00     0.043 C 
ENDROOT
BRANCH   1  12
HETATM   12  N1  UNL     1       2.380  -0.120   0.926  1.00  0.00    -0.070 N 
HETATM   13  C1  UNL     1       3.308  -0.428  -0.099  1.00  0.00     0.267 C 
ATOM     14  H12 UNL     1       2.384  -0.848   1.640  1.00  0.00     0.277 HD
ATOM     15  H11 UNL     1       2.711   0.670   1.480  1.00  0.00     0.277 HD
ENDBRANCH   1  12
BRANCH   8  16
HETATM   16  N2  UNL     1      -1.177  -2.582  -0.964  1.00  0.00    -0.070 N 
ATOM     17  H23 UNL     1      -0.881  -3.350  -0.362  1.00  0.00     0.275 HD
ATOM     18  H22 UNL     1      -2.172  -2.804  -0.981  1.00  0.00     0.275 HD
ATOM     19  H21 UNL     1      -0.745  -2.610  -1.888  1.00  0.00     0.275 HD
ENDBRANCH   8  16
TORSDOF 2
