REMARK  2 active torsions:
REMARK  status: ('A' for Active; 'I' for Inactive)
REMARK    1  A    between atoms: C5_5  and  C6_6 
REMARK    2  A    between atoms: C6_6  and  O1_7 
ROOT
HETATM    1  C6  UNL     1      -0.816  -0.067   0.116  1.00  0.00     0.064 C 
HETATM    2  C7  UNL     1      -1.811  -0.954  -0.574  1.00  0.00     0.066 C 
HETATM    3  C8  UNL     1      -3.165  -0.948   0.060  1.00  0.00     0.235 C 
HETATM    4  N1  UNL     1      -3.599   0.354   0.495  1.00  0.00    -0.075 N 
ATOM      5  H11 UNL     1      -3.641   0.401   1.513  1.00  0.00     0.277 HD
ATOM      6  H12 UNL     1      -4.585   0.499   0.280  1.00  0.00     0.277 HD
HETATM    7  C9  UNL     1      -2.795   1.427  -0.036  1.00  0.00     0.235 C 
HETATM    8  C10 UNL     1      -1.357   1.314   0.412  1.00  0.00     0.066 C 
ENDROOT
BRANCH   1   9
HETATM    9  C5  UNL     1       0.418   0.100  -0.729  1.00  0.00     0.020 C 
HETATM   10  C4  UNL     1       1.095  -1.213  -1.034  1.00  0.00     0.008 C 
HETATM   11  C3  UNL     1       2.568  -1.009  -0.708  1.00  0.00     0.005 C 
HETATM   12  C2  UNL     1       2.461  -0.007   0.441  1.00  0.00    -0.018 C 
HETATM   13  C1  UNL     1       3.799   0.624   0.737  1.00  0.00     0.010 C 
HETATM   14  C11 UNL     1       1.458   0.963  -0.087  1.00  0.00     0.012 C 
ENDBRANCH   1   9
BRANCH   1  15
HETATM   15  O1  UNL     1      -0.522  -0.663   1.350  1.00  0.00    -0.389 OA
ATOM     16  H1  UNL     1      -1.301  -0.768   1.883  1.00  0.00     0.210 HD
ENDBRANCH   1  15
TORSDOF 2
