REMARK  4 active torsions:
REMARK  status: ('A' for Active; 'I' for Inactive)
REMARK    1  A    between atoms: C2_2  and  C3_3 
REMARK    2  A    between atoms: N1_11  and  C11_13 
REMARK    3  A    between atoms: C11_13  and  C12_14 
REMARK    4  A    between atoms: C12_14  and  N2_15 
ROOT
HETATM    1  C3  UNL     1      -4.566   0.372   0.470  1.00  0.00     0.187 C 
HETATM    2  C4  UNL     1      -4.588   0.010  -1.015  1.00  0.00     0.036 C 
HETATM    3  C5  UNL     1      -3.181   0.406  -1.405  1.00  0.00     0.053 C 
HETATM    4  C6  UNL     1      -2.382  -0.092  -0.210  1.00  0.00     0.180 C 
HETATM    5  C7  UNL     1      -1.718  -1.363  -0.537  1.00  0.00     0.061 C 
HETATM    6  C8  UNL     1      -0.250  -1.346  -0.460  1.00  0.00     0.042 C 
HETATM    7  C9  UNL     1       0.239  -1.920   0.854  1.00  0.00     0.017 C 
HETATM    8  C10 UNL     1       0.266   0.028  -0.693  1.00  0.00     0.052 C 
HETATM    9  N1  UNL     1       1.234   0.495  -1.290  1.00  0.00    -0.365 N 
ATOM     10  H1  UNL     1       1.318   1.511  -1.267  1.00  0.00     0.165 HD
HETATM   11  S1  UNL     1      -1.004   1.032   0.159  1.00  0.00    -0.077 SA
HETATM   12  N3  UNL     1      -3.293  -0.144   0.910  1.00  0.00    -0.052 N 
ATOM     13  H31 UNL     1      -3.364  -1.076   1.319  1.00  0.00     0.279 HD
ATOM     14  H32 UNL     1      -2.934   0.339   1.734  1.00  0.00     0.279 HD
ENDROOT
BRANCH   9  15
HETATM   15  C11 UNL     1       2.229  -0.173  -1.992  1.00  0.00     0.091 C 
BRANCH  15  16
HETATM   16  C12 UNL     1       3.594  -0.220  -1.419  1.00  0.00     0.317 C 
BRANCH  16  17
HETATM   17  N2  UNL     1       4.280   1.002  -1.175  1.00  0.00     0.097 N 
HETATM   18  C13 UNL     1       5.691   0.662  -0.880  1.00  0.00     0.299 C 
HETATM   19  C14 UNL     1       5.864   0.060   0.473  1.00  0.00     0.198 C 
HETATM   20  O1  UNL     1       5.548   1.084   1.401  1.00  0.00    -0.388 OA
HETATM   21  C15 UNL     1       4.178   1.296   1.265  1.00  0.00     0.198 C 
HETATM   22  C16 UNL     1       3.775   1.812  -0.091  1.00  0.00     0.299 C 
ENDBRANCH  16  17
ENDBRANCH  15  16
ENDBRANCH   9  15
BRANCH   1  23
HETATM   23  C2  UNL     1      -5.681  -0.324   1.217  1.00  0.00     0.028 C 
HETATM   24  C1  UNL     1      -5.607   0.067   2.666  1.00  0.00     0.007 C 
ENDBRANCH   1  23
TORSDOF 4
