REMARK  5 active torsions:
REMARK  status: ('A' for Active; 'I' for Inactive)
REMARK    1  A    between atoms: C1_2  and  C2_3 
REMARK       I    between atoms: C1_2  and  N1_18 
REMARK    2  A    between atoms: C2_3  and  O2_4 
REMARK    3  A    between atoms: O2_4  and  C3_5 
REMARK    4  A    between atoms: C3_5  and  C4_7 
REMARK    5  A    between atoms: N1_18  and  C14_20 
ROOT
HETATM    1  C3  UNL     1      -0.628   0.940   1.068  1.00  0.00     0.270 C 
HETATM    2  O3  UNL     1      -0.420   1.901   0.308  1.00  0.00    -0.264 OA
ENDROOT
BRANCH   1   3
HETATM    3  O2  UNL     1      -0.033   0.880   2.302  1.00  0.00    -0.311 OA
BRANCH   3   4
HETATM    4  C2  UNL     1       0.826   1.850   2.790  1.00  0.00     0.281 C 
BRANCH   4   5
HETATM    5  C1  UNL     1       2.056   1.956   2.007  1.00  0.00     0.242 C 
HETATM    6  O1  UNL     1       2.842   2.928   2.299  1.00  0.00    -0.271 OA
HETATM    7  N1  UNL     1       2.439   1.095   0.982  1.00  0.00    -0.355 N 
ATOM      8  H1  UNL     1       1.838   0.310   0.729  1.00  0.00     0.162 HD
BRANCH   7   9
HETATM    9  C14 UNL     1       3.690   1.306   0.268  1.00  0.00     0.084 C 
HETATM   10  C15 UNL     1       4.569   0.075   0.335  1.00  0.00     0.025 C 
HETATM   11  C16 UNL     1       5.579   0.389  -0.774  1.00  0.00     0.002 C 
HETATM   12  C17 UNL     1       4.642   0.806  -1.891  1.00  0.00     0.002 C 
HETATM   13  C18 UNL     1       3.440   1.433  -1.224  1.00  0.00     0.025 C 
ENDBRANCH   7   9
ENDBRANCH   4   5
ENDBRANCH   3   4
ENDBRANCH   1   3
BRANCH   1  14
HETATM   14  C4  UNL     1      -1.518  -0.154   0.656  1.00  0.00     0.074 C 
HETATM   15  C5  UNL     1      -2.679  -0.305   1.584  1.00  0.00     0.027 C 
HETATM   16  C6  UNL     1      -3.677  -1.304   1.073  1.00  0.00    -0.011 C 
HETATM   17  C7  UNL     1      -4.755  -0.691   0.243  1.00  0.00     0.031 C 
HETATM   18  C12 UNL     1      -3.049  -2.521   0.455  1.00  0.00     0.009 C 
HETATM   19  C8  UNL     1      -4.327   0.137  -0.899  1.00  0.00     0.168 C 
HETATM   20  O4  UNL     1      -3.132   0.744  -0.834  1.00  0.00    -0.385 OA
HETATM   21  C9  UNL     1      -1.997   0.033  -0.792  1.00  0.00     0.140 C 
HETATM   22  C10 UNL     1      -1.964  -1.290  -1.443  1.00  0.00     0.038 C 
HETATM   23  C11 UNL     1      -1.796  -2.263  -0.302  1.00  0.00    -0.010 C 
HETATM   24  C13 UNL     1      -0.807  -1.493   0.585  1.00  0.00     0.027 C 
ENDBRANCH   1  14
TORSDOF 5
