REMARK  3 active torsions:
REMARK  status: ('A' for Active; 'I' for Inactive)
REMARK    1  A    between atoms: C1_2  and  C2_3 
REMARK       I    between atoms: C1_2  and  N2_15 
REMARK    2  A    between atoms: C2_3  and  C3_4 
REMARK    3  A    between atoms: N2_15  and  C13_17 
ROOT
HETATM    1  C2  UNL     1       0.424  -0.204  -0.177  1.00  0.00     0.147 C 
ENDROOT
BRANCH   1   2
HETATM    2  C1  UNL     1       1.855   0.079   0.208  1.00  0.00     0.222 C 
HETATM    3  O1  UNL     1       2.083   1.081   0.910  1.00  0.00    -0.273 OA
HETATM    4  N2  UNL     1       2.933  -0.745  -0.197  1.00  0.00    -0.353 N 
ATOM      5  H2  UNL     1       2.720  -1.561  -0.771  1.00  0.00     0.163 HD
BRANCH   4   6
HETATM    6  C13 UNL     1       4.300  -0.508   0.147  1.00  0.00     0.117 C 
HETATM    7  C14 UNL     1       5.191  -0.271  -1.052  1.00  0.00     0.194 C 
HETATM    8  O2  UNL     1       6.236   0.586  -0.821  1.00  0.00    -0.379 OA
HETATM    9  C15 UNL     1       6.826   0.484   0.418  1.00  0.00     0.241 C 
HETATM   10  S1  UNL     1       6.702  -1.237   1.044  1.00  0.00    -0.141 SA
HETATM   11  C16 UNL     1       4.916  -1.647   0.931  1.00  0.00     0.103 C 
ENDBRANCH   4   6
ENDBRANCH   1   2
BRANCH   1  12
HETATM   12  C3  UNL     1      -0.447   0.864   0.414  1.00  0.00     0.068 C 
HETATM   13  N1  UNL     1      -1.797   0.868   0.223  1.00  0.00    -0.384 N 
HETATM   14  C4  UNL     1      -2.436   2.036   0.836  1.00  0.00     0.123 C 
HETATM   15  C8  UNL     1      -2.686  -0.088  -0.163  1.00  0.00     0.031 C 
HETATM   16  C5  UNL     1      -3.332   2.742  -0.156  1.00  0.00     0.020 C 
HETATM   17  C6  UNL     1      -3.247   1.979  -1.482  1.00  0.00     0.004 C 
HETATM   18  C7  UNL     1      -3.686   0.562  -1.164  1.00  0.00     0.031 C 
HETATM   19  C9  UNL     1      -2.400  -1.411  -0.660  1.00  0.00     0.031 C 
HETATM   20  C12 UNL     1      -3.586  -0.347   1.084  1.00  0.00     0.031 C 
HETATM   21  C10 UNL     1      -2.630  -2.378   0.522  1.00  0.00     0.002 C 
HETATM   22  C11 UNL     1      -3.975  -1.797   0.988  1.00  0.00     0.002 C 
ENDBRANCH   1  12
TORSDOF 3
