REMARK  6 active torsions:
REMARK  status: ('A' for Active; 'I' for Inactive)
REMARK    1  A    between atoms: C2_2  and  C4_4 
REMARK    2  A    between atoms: C4_4  and  C5_5 
REMARK    3  A    between atoms: C5_5  and  O1_6 
REMARK    4  A    between atoms: N1_10  and  C8_11 
REMARK    5  A    between atoms: C8_11  and  N2_13 
REMARK    6  A    between atoms: N2_13  and  C9_15 
ROOT
HETATM    1  C5  UNL     1       2.318  -0.709   0.250  1.00  0.00     0.064 C 
HETATM    2  C6  UNL     1       1.431  -1.620  -0.623  1.00  0.00     0.058 C 
HETATM    3  C7  UNL     1       0.459  -0.746  -1.333  1.00  0.00     0.128 C 
HETATM    4  N1  UNL     1      -0.428  -0.153  -0.372  1.00  0.00    -0.358 N 
HETATM    5  C13 UNL     1       0.172   0.468   0.785  1.00  0.00     0.128 C 
HETATM    6  C14 UNL     1       1.693   0.606   0.539  1.00  0.00     0.058 C 
ENDROOT
BRANCH   4   7
HETATM    7  C8  UNL     1      -1.818  -0.184  -0.565  1.00  0.00     0.170 C 
HETATM    8  S1  UNL     1      -2.403  -0.914  -1.920  1.00  0.00    -0.041 SA
BRANCH   7   9
HETATM    9  N2  UNL     1      -2.755   0.379   0.338  1.00  0.00    -0.359 N 
ATOM     10  H2  UNL     1      -2.422   0.841   1.185  1.00  0.00     0.162 HD
BRANCH   9  11
HETATM   11  C9  UNL     1      -4.160   0.309   0.079  1.00  0.00     0.021 C 
HETATM   12  C10 UNL     1      -4.561   0.951  -1.217  1.00  0.00     0.037 C 
HETATM   13  C11 UNL     1      -4.962   0.995   1.176  1.00  0.00     0.037 C 
HETATM   14  C12 UNL     1      -4.581  -1.139   0.050  1.00  0.00     0.037 C 
ENDBRANCH   9  11
ENDBRANCH   7   9
ENDBRANCH   4   7
BRANCH   1  15
HETATM   15  C4  UNL     1       3.613  -0.558  -0.512  1.00  0.00     0.070 C 
BRANCH  15  16
HETATM   16  C2  UNL     1       4.683   0.124   0.255  1.00  0.00    -0.090 C 
HETATM   17  C1  UNL     1       5.811  -0.560   0.505  1.00  0.00     0.014 C 
HETATM   18  C3  UNL     1       4.608   1.512   0.760  1.00  0.00     0.042 C 
ENDBRANCH  15  16
ENDBRANCH   1  15
BRANCH   1  19
HETATM   19  O1  UNL     1       2.635  -1.456   1.397  1.00  0.00    -0.389 OA
ATOM     20  H1  UNL     1       1.820  -1.551   1.876  1.00  0.00     0.210 HD
ENDBRANCH   1  19
TORSDOF 6
