REMARK  3 active torsions:
REMARK  status: ('A' for Active; 'I' for Inactive)
REMARK       I    between atoms: C2_5  and  N3_6 
REMARK       I    between atoms: C2_5  and  N4_13 
REMARK    1  A    between atoms: N3_6  and  C3_8 
REMARK    2  A    between atoms: C3_8  and  C4_10 
REMARK    3  A    between atoms: N4_13  and  C7_15 
ROOT
HETATM    1  N1  UNL     1       2.739  -3.156   2.531  1.00  0.00    -0.171 NA
HETATM    2  C1  UNL     1       1.986  -2.334   2.160  1.00  0.00     0.196 C 
HETATM    3  N2  UNL     1       1.101  -1.341   1.734  1.00  0.00    -0.126 N 
ATOM      4  H2  UNL     1       0.237  -1.198   2.257  1.00  0.00     0.197 HD
HETATM    5  C2  UNL     1       1.329  -0.610   0.722  1.00  0.00     0.688 C 
HETATM    6  N3  UNL     1       2.518  -0.769  -0.040  1.00  0.00    -0.185 N 
ATOM      7  H3  UNL     1       2.641  -1.639  -0.558  1.00  0.00     0.185 HD
HETATM    8  N4  UNL     1       0.408   0.384   0.324  1.00  0.00    -0.221 N 
ATOM      9  H4  UNL     1       0.779   1.272  -0.014  1.00  0.00     0.178 HD
ENDROOT
BRANCH   6  10
HETATM   10  C3  UNL     1       3.531   0.193  -0.124  1.00  0.00     0.098 C 
HETATM   11  S1  UNL     1       3.420   1.613   0.670  1.00  0.00    -0.064 SA
BRANCH  10  12
HETATM   12  C4  UNL     1       4.745  -0.047  -0.943  1.00  0.00     0.048 A 
HETATM   13  C5  UNL     1       5.805   1.011  -1.005  1.00  0.00     0.012 A 
HETATM   14  C6  UNL     1       6.064  -0.229  -0.276  1.00  0.00     0.012 A 
ENDBRANCH  10  12
ENDBRANCH   6  10
BRANCH   8  15
HETATM   15  C7  UNL     1      -1.025   0.221   0.366  1.00  0.00     0.099 C 
HETATM   16  C8  UNL     1      -1.655   1.476  -0.129  1.00  0.00     0.026 C 
HETATM   17  C9  UNL     1      -2.971   1.801   0.530  1.00  0.00     0.002 C 
HETATM   18  C10 UNL     1      -4.078   1.441  -0.437  1.00  0.00     0.000 C 
HETATM   19  C11 UNL     1      -4.582   0.047  -0.264  1.00  0.00     0.000 C 
HETATM   20  C12 UNL     1      -3.780  -0.968  -1.024  1.00  0.00     0.000 C 
HETATM   21  C13 UNL     1      -2.678  -1.588  -0.174  1.00  0.00     0.002 C 
HETATM   22  C14 UNL     1      -1.352  -0.985  -0.486  1.00  0.00     0.026 C 
ENDBRANCH   8  15
TORSDOF 3
