REMARK  3 active torsions:
REMARK  status: ('A' for Active; 'I' for Inactive)
REMARK    1  A    between atoms: C4_4  and  O1_5 
REMARK    2  A    between atoms: C4_4  and  C5_7 
REMARK    3  A    between atoms: C5_7  and  C6_8 
REMARK       I    between atoms: C6_8  and  N1_10 
ROOT
HETATM    1  C1  UNL     1      -3.897  -0.146   1.758  1.00  0.00     0.011 C 
HETATM    2  C2  UNL     1      -3.180  -0.423   0.422  1.00  0.00    -0.008 C 
HETATM    3  C3  UNL     1      -1.882  -1.109   0.659  1.00  0.00     0.043 C 
HETATM    4  C4  UNL     1      -0.800  -0.736  -0.310  1.00  0.00     0.066 C 
HETATM    5  C12 UNL     1      -0.645   0.749  -0.316  1.00  0.00     0.039 C 
HETATM    6  C13 UNL     1      -1.890   1.397  -0.797  1.00  0.00     0.012 C 
HETATM    7  C14 UNL     1      -3.178   0.745  -0.484  1.00  0.00    -0.044 C 
HETATM    8  C15 UNL     1      -3.887   0.391  -1.802  1.00  0.00     0.015 C 
HETATM    9  C16 UNL     1      -4.071   1.848   0.133  1.00  0.00     0.015 C 
ENDROOT
BRANCH   4  10
HETATM   10  O1  UNL     1      -1.079  -1.225  -1.560  1.00  0.00    -0.389 OA
ATOM     11  H1  UNL     1      -0.394  -0.989  -2.174  1.00  0.00     0.210 HD
ENDBRANCH   4  10
BRANCH   4  12
HETATM   12  C5  UNL     1       0.507  -1.381   0.187  1.00  0.00     0.140 C 
BRANCH  12  13
HETATM   13  C6  UNL     1       1.627  -1.048  -0.739  1.00  0.00     0.222 C 
HETATM   14  O2  UNL     1       1.398  -1.312  -1.965  1.00  0.00    -0.273 OA
HETATM   15  N1  UNL     1       2.844  -0.482  -0.278  1.00  0.00    -0.352 N 
HETATM   16  C7  UNL     1       2.963  -0.220   1.138  1.00  0.00     0.125 C 
HETATM   17  C11 UNL     1       3.874  -0.194  -1.245  1.00  0.00     0.125 C 
HETATM   18  C8  UNL     1       4.325   0.262   1.536  1.00  0.00     0.020 C 
HETATM   19  C9  UNL     1       5.423  -0.403   0.733  1.00  0.00     0.003 C 
HETATM   20  C10 UNL     1       5.239  -0.022  -0.703  1.00  0.00     0.020 C 
ENDBRANCH  12  13
ENDBRANCH   4  12
TORSDOF 3
