REMARK  2 active torsions:
REMARK  status: ('A' for Active; 'I' for Inactive)
REMARK    1  A    between atoms: C2_2  and  N1_4 
REMARK       I    between atoms: N1_4  and  C4_6 
REMARK       I    between atoms: C4_6  and  N2_8 
REMARK    2  A    between atoms: N2_8  and  C5_10 
ROOT
HETATM    1  C5  UNL     1       0.545  -1.188   0.827  1.00  0.00     0.086 C 
HETATM    2  C6  UNL     1       0.044  -1.014   2.242  1.00  0.00     0.025 C 
HETATM    3  C7  UNL     1      -1.071  -0.017   2.339  1.00  0.00     0.003 C 
HETATM    4  C8  UNL     1      -2.213  -0.550   1.490  1.00  0.00     0.010 C 
HETATM    5  C9  UNL     1      -1.795  -0.631   0.046  1.00  0.00    -0.035 C 
HETATM    6  C10 UNL     1      -1.810   0.778  -0.510  1.00  0.00     0.040 C 
HETATM    7  C11 UNL     1      -3.038   1.043  -1.359  1.00  0.00     0.272 C 
HETATM    8  N3  UNL     1      -4.225   0.601  -0.693  1.00  0.00     0.084 N 
HETATM    9  C12 UNL     1      -5.372   1.050  -1.459  1.00  0.00     0.309 C 
HETATM   10  C13 UNL     1      -4.228  -0.828  -0.547  1.00  0.00     0.272 C 
HETATM   11  C14 UNL     1      -2.883  -1.453  -0.664  1.00  0.00     0.040 C 
HETATM   12  C15 UNL     1      -0.513  -1.344  -0.196  1.00  0.00     0.034 C 
ENDROOT
BRANCH   1  13
HETATM   13  N2  UNL     1       1.503  -0.152   0.497  1.00  0.00    -0.338 N 
HETATM   14  C4  UNL     1       2.882  -0.407   0.279  1.00  0.00     0.316 C 
HETATM   15  N1  UNL     1       3.786   0.640  -0.043  1.00  0.00    -0.339 N 
HETATM   16  O1  UNL     1       3.265  -1.600   0.385  1.00  0.00    -0.247 OA
ATOM     17  H1  UNL     1       3.413   1.587  -0.115  1.00  0.00     0.164 HD
ATOM     18  H2  UNL     1       1.169   0.809   0.417  1.00  0.00     0.164 HD
BRANCH  15  19
HETATM   19  C2  UNL     1       5.183   0.454  -0.272  1.00  0.00     0.078 C 
HETATM   20  C1  UNL     1       5.608   0.794  -1.691  1.00  0.00     0.032 C 
HETATM   21  C3  UNL     1       6.060   1.206   0.708  1.00  0.00     0.032 C 
ENDBRANCH  15  19
ENDBRANCH   1  13
TORSDOF 2
