REMARK  5 active torsions:
REMARK  status: ('A' for Active; 'I' for Inactive)
REMARK    1  A    between atoms: C6_8  and  C7_9 
REMARK    2  A    between atoms: C10_12  and  O3_13 
REMARK    3  A    between atoms: C11_16  and  C12_17 
REMARK    4  A    between atoms: C24_32  and  O8_33 
REMARK    5  A    between atoms: C25_35  and  O9_36 
ROOT
HETATM    1  C12 UNL     1      -0.280   0.605  -0.582  1.00  0.00     0.088 C 
HETATM    2  C13 UNL     1      -0.185   1.463  -1.783  1.00  0.00     0.130 C 
HETATM    3  C14 UNL     1       0.564   0.979  -2.995  1.00  0.00     0.040 C 
HETATM    4  O5  UNL     1      -1.458   1.975  -2.205  1.00  0.00    -0.350 OA
HETATM    5  C15 UNL     1      -2.323   0.945  -1.855  1.00  0.00     0.325 C 
HETATM    6  O6  UNL     1      -1.725  -0.133  -2.444  1.00  0.00    -0.354 OA
HETATM    7  C16 UNL     1      -1.488  -1.355  -1.734  1.00  0.00     0.187 C 
HETATM    8  C17 UNL     1      -2.303  -1.133  -0.627  1.00  0.00     0.032 C 
HETATM    9  C18 UNL     1      -3.577  -1.273  -1.367  1.00  0.00     0.025 C 
HETATM   10  C19 UNL     1      -2.781  -1.797   0.575  1.00  0.00    -0.013 C 
HETATM   11  C20 UNL     1      -3.568  -1.096   1.446  1.00  0.00     0.007 C 
HETATM   12  C21 UNL     1      -4.046   0.350   1.348  1.00  0.00     0.075 C 
HETATM   13  C22 UNL     1      -5.561   0.273   1.540  1.00  0.00     0.050 C 
HETATM   14  C23 UNL     1      -3.634   1.156   2.554  1.00  0.00     0.050 C 
HETATM   15  O7  UNL     1      -3.778   0.888   0.137  1.00  0.00    -0.334 OA
HETATM   16  C24 UNL     1      -2.563   1.043  -0.374  1.00  0.00     0.247 C 
HETATM   17  C25 UNL     1      -1.530  -0.011  -0.062  1.00  0.00     0.140 C 
ENDROOT
BRANCH   1  18
HETATM   18  C11 UNL     1       1.044   0.081  -0.124  1.00  0.00     0.173 C 
HETATM   19  C6  UNL     1       2.038   1.010   0.470  1.00  0.00     0.214 C 
HETATM   20  O2  UNL     1       2.966   0.121   1.094  1.00  0.00    -0.318 OA
HETATM   21  C5  UNL     1       2.388  -1.124   1.060  1.00  0.00     0.283 C 
HETATM   22  C4  UNL     1       2.937  -2.070   0.041  1.00  0.00     0.105 C 
HETATM   23  O1  UNL     1       2.577  -1.800   2.269  1.00  0.00    -0.328 OA
HETATM   24  O10 UNL     1       1.051  -0.923   0.776  1.00  0.00    -0.324 OA
HETATM   25  C3  UNL     1       4.155  -2.637   0.751  1.00  0.00     0.040 C 
HETATM   26  C2  UNL     1       3.933  -2.166   2.163  1.00  0.00     0.123 C 
HETATM   27  C1  UNL     1       4.308  -3.227   3.160  1.00  0.00     0.040 C 
BRANCH  19  28
HETATM   28  C7  UNL     1       2.844   1.857  -0.391  1.00  0.00     0.087 A 
HETATM   29  C8  UNL     1       3.859   1.479  -1.221  1.00  0.00     0.040 A 
HETATM   30  C9  UNL     1       4.328   2.618  -1.830  1.00  0.00     0.066 A 
HETATM   31  C10 UNL     1       3.568   3.658  -1.338  1.00  0.00     0.183 A 
HETATM   32  O4  UNL     1       2.723   3.155  -0.507  1.00  0.00    -0.290 OA
BRANCH  31  33
HETATM   33  O3  UNL     1       3.680   4.995  -1.667  1.00  0.00    -0.341 OA
ATOM     34  H3  UNL     1       3.156   5.712  -1.328  1.00  0.00     0.220 HD
ENDBRANCH  31  33
ENDBRANCH  19  28
ENDBRANCH   1  18
BRANCH  17  35
HETATM   35  O9  UNL     1      -1.193  -0.150   1.283  1.00  0.00    -0.382 OA
ATOM     36  H9  UNL     1      -1.991  -0.543   1.615  1.00  0.00     0.210 HD
ENDBRANCH  17  35
BRANCH  16  37
HETATM   37  O8  UNL     1      -2.126   2.328   0.042  1.00  0.00    -0.359 OA
ATOM     38  H8  UNL     1      -2.278   2.390   0.978  1.00  0.00     0.213 HD
ENDBRANCH  16  37
TORSDOF 5
