REMARK  8 active torsions:
REMARK  status: ('A' for Active; 'I' for Inactive)
REMARK    1  A    between atoms: C2_2  and  O2_4 
REMARK    2  A    between atoms: O2_4  and  C3_5 
REMARK    3  A    between atoms: C5_7  and  C7_9 
REMARK    4  A    between atoms: C12_16  and  C13_17 
REMARK    5  A    between atoms: C13_17  and  O5_20 
REMARK    6  A    between atoms: C16_22  and  C21_28 
REMARK    7  A    between atoms: C21_28  and  O7_29 
REMARK    8  A    between atoms: C22_33  and  O8_34 
ROOT
HETATM    1  C7  UNL     1      -0.137  -1.766  -0.324  1.00  0.00     0.103 A 
HETATM    2  C8  UNL     1      -0.894  -2.181  -1.487  1.00  0.00     0.043 C 
HETATM    3  C9  UNL     1      -1.813  -3.345  -1.041  1.00  0.00     0.022 C 
HETATM    4  C10 UNL     1      -2.685  -2.806   0.060  1.00  0.00     0.117 C 
HETATM    5  C11 UNL     1      -3.175  -1.495  -0.857  1.00  0.00     0.272 C 
HETATM    6  O3  UNL     1      -3.843  -1.849  -1.677  1.00  0.00    -0.264 OA
HETATM    7  O4  UNL     1      -2.692  -0.237  -0.465  1.00  0.00    -0.279 OA
HETATM    8  C12 UNL     1      -2.303   0.660   0.507  1.00  0.00     0.097 C 
HETATM    9  C16 UNL     1      -1.019   0.665   1.265  1.00  0.00     0.002 C 
HETATM   10  C17 UNL     1      -1.293  -0.148   2.633  1.00  0.00     0.068 C 
HETATM   11  C18 UNL     1      -2.401  -1.070   1.938  1.00  0.00    -0.016 C 
HETATM   12  C19 UNL     1      -1.966  -1.905   0.998  1.00  0.00    -0.038 C 
HETATM   13  C20 UNL     1      -0.480  -2.331   0.981  1.00  0.00     0.188 A 
HETATM   14  O6  UNL     1       0.264  -2.994   0.183  1.00  0.00    -0.363 OA
ENDROOT
BRANCH   8  15
HETATM   15  C13 UNL     1      -2.782   2.026  -0.021  1.00  0.00     0.100 C 
HETATM   16  C14 UNL     1      -2.439   2.274  -1.468  1.00  0.00     0.053 C 
HETATM   17  C15 UNL     1      -2.467   3.203   0.779  1.00  0.00     0.053 C 
BRANCH  15  18
HETATM   18  O5  UNL     1      -4.221   1.969  -0.077  1.00  0.00    -0.384 OA
ATOM     19  H5  UNL     1      -4.516   2.811  -0.403  1.00  0.00     0.211 HD
ENDBRANCH  15  18
ENDBRANCH   8  15
BRANCH   9  20
HETATM   20  C21 UNL     1       0.274   0.494   0.641  1.00  0.00     0.153 C 
HETATM   21  C5  UNL     1       0.809  -0.560  -0.183  1.00  0.00     0.038 C 
HETATM   22  C4  UNL     1       2.117  -1.201  -0.008  1.00  0.00     0.052 C 
HETATM   23  C6  UNL     1       0.845  -0.078  -1.654  1.00  0.00     0.023 C 
HETATM   24  C3  UNL     1       3.431  -0.576  -0.008  1.00  0.00     0.172 C 
HETATM   25  C22 UNL     1       4.058  -0.773   1.418  1.00  0.00     0.220 C 
HETATM   26  S2  UNL     1       2.613  -0.584   2.537  1.00  0.00    -0.060 SA
HETATM   27  S1  UNL     1       1.577   1.091   1.777  1.00  0.00    -0.051 SA
BRANCH  24  28
HETATM   28  O2  UNL     1       3.531   0.784  -0.247  1.00  0.00    -0.313 OA
BRANCH  28  29
HETATM   29  C2  UNL     1       4.422   1.361  -1.128  1.00  0.00     0.255 C 
HETATM   30  C1  UNL     1       4.441   2.838  -1.307  1.00  0.00     0.126 C 
HETATM   31  O1  UNL     1       5.194   0.589  -1.752  1.00  0.00    -0.266 OA
ENDBRANCH  28  29
ENDBRANCH  24  28
BRANCH  25  32
HETATM   32  O8  UNL     1       4.601  -2.017   1.439  1.00  0.00    -0.382 OA
ATOM     33  H8  UNL     1       4.980  -2.136   2.302  1.00  0.00     0.211 HD
ENDBRANCH  25  32
BRANCH  20  34
HETATM   34  O7  UNL     1       0.218   1.662  -0.244  1.00  0.00    -0.373 OA
ATOM     35  H7  UNL     1      -0.135   2.357   0.299  1.00  0.00     0.212 HD
ENDBRANCH  20  34
ENDBRANCH   9  20
TORSDOF 8
