REMARK  4 active torsions:
REMARK  status: ('A' for Active; 'I' for Inactive)
REMARK    1  A    between atoms: O1_2  and  C2_3 
REMARK    2  A    between atoms: C6_7  and  O2_8 
REMARK    3  A    between atoms: C9_12  and  O3_13 
REMARK    4  A    between atoms: C11_16  and  O4_17 
ROOT
HETATM    1  C2  UNL     1      -1.756  -2.173   0.167  1.00  0.00     0.116 A 
HETATM    2  C3  UNL     1      -0.535  -1.557   0.184  1.00  0.00     0.054 A 
HETATM    3  C4  UNL     1      -0.369  -0.260  -0.246  1.00  0.00    -0.022 A 
HETATM    4  C5  UNL     1      -1.518   0.374  -0.694  1.00  0.00     0.022 A 
HETATM    5  C6  UNL     1      -1.447   1.679  -1.125  1.00  0.00     0.095 A 
HETATM    6  C7  UNL     1      -2.529   2.413  -1.576  1.00  0.00     0.093 A 
HETATM    7  C8  UNL     1      -3.747   1.790  -1.590  1.00  0.00     0.093 A 
HETATM    8  C9  UNL     1      -3.870   0.465  -1.163  1.00  0.00     0.097 A 
HETATM    9  C10 UNL     1      -2.764  -0.240  -0.716  1.00  0.00     0.048 A 
HETATM   10  C11 UNL     1      -2.931  -1.535  -0.288  1.00  0.00     0.114 A 
HETATM   11  C12 UNL     1      -4.674   2.795  -2.108  1.00  0.00     0.305 A 
HETATM   12  O5  UNL     1      -5.898   2.609  -2.274  1.00  0.00    -0.259 OA
HETATM   13  O6  UNL     1      -4.013   3.981  -2.390  1.00  0.00    -0.237 OA
HETATM   14  C13 UNL     1      -2.682   3.774  -2.070  1.00  0.00     0.305 A 
HETATM   15  O7  UNL     1      -1.754   4.601  -2.180  1.00  0.00    -0.259 OA
HETATM   16  C14 UNL     1       1.038   0.137  -0.126  1.00  0.00     0.040 C 
HETATM   17  C15 UNL     1       1.342   0.792   1.173  1.00  0.00     0.027 C 
HETATM   18  C16 UNL     1       2.797   1.217   1.232  1.00  0.00     0.016 C 
HETATM   19  C17 UNL     1       3.007   1.776   2.644  1.00  0.00     0.023 C 
HETATM   20  C18 UNL     1       3.107   2.366   0.296  1.00  0.00     0.023 C 
HETATM   21  C19 UNL     1       3.629   0.035   0.958  1.00  0.00     0.160 C 
HETATM   22  O8  UNL     1       4.815   0.107   1.252  1.00  0.00    -0.295 OA
HETATM   23  C20 UNL     1       3.134  -1.203   0.367  1.00  0.00     0.172 A 
HETATM   24  C21 UNL     1       4.166  -1.890  -0.520  1.00  0.00     0.221 A 
HETATM   25  O9  UNL     1       4.792  -1.766  -1.597  1.00  0.00    -0.287 OA
HETATM   26  C22 UNL     1       3.741  -2.486   0.721  1.00  0.00     0.221 A 
HETATM   27  O10 UNL     1       3.828  -3.439   1.537  1.00  0.00    -0.287 OA
HETATM   28  C23 UNL     1       1.746  -1.229  -0.119  1.00  0.00     0.059 C 
HETATM   29  C24 UNL     1       1.731  -1.751  -1.559  1.00  0.00     0.027 C 
HETATM   30  C25 UNL     1       0.789  -2.031   0.627  1.00  0.00     0.174 C 
HETATM   31  O11 UNL     1       1.016  -2.927   1.461  1.00  0.00    -0.291 OA
ENDROOT
BRANCH   1  32
HETATM   32  O1  UNL     1      -1.907  -3.498   0.610  1.00  0.00    -0.352 OA
HETATM   33  C1  UNL     1      -2.200  -3.644   1.993  1.00  0.00     0.210 C 
ENDBRANCH   1  32
BRANCH   5  34
HETATM   34  O2  UNL     1      -0.222   2.285  -1.103  1.00  0.00    -0.359 OA
ATOM     35  H2  UNL     1      -0.173   3.186  -1.401  1.00  0.00     0.217 HD
ENDBRANCH   5  34
BRANCH  10  36
HETATM   36  O4  UNL     1      -4.093  -2.205  -0.276  1.00  0.00    -0.357 OA
ATOM     37  H4  UNL     1      -4.883  -1.776  -0.582  1.00  0.00     0.217 HD
ENDBRANCH  10  36
BRANCH   8  38
HETATM   38  O3  UNL     1      -5.132  -0.053  -1.222  1.00  0.00    -0.359 OA
ATOM     39  H3  UNL     1      -5.216  -0.954  -0.932  1.00  0.00     0.217 HD
ENDBRANCH   8  38
TORSDOF 4
