REMARK  5 active torsions:
REMARK  status: ('A' for Active; 'I' for Inactive)
REMARK    1  A    between atoms: C4_5  and  O1_6 
REMARK    2  A    between atoms: C7_10  and  C8_11 
REMARK    3  A    between atoms: C19_25  and  O5_26 
REMARK    4  A    between atoms: C20_28  and  O6_29 
REMARK    5  A    between atoms: O6_29  and  C21_30 
ROOT
HETATM    1  C8  UNL     1      -0.819   0.751   0.529  1.00  0.00     0.038 C 
HETATM    2  C9  UNL     1      -0.710   1.543   1.944  1.00  0.00     0.025 C 
HETATM    3  C10 UNL     1      -1.499  -0.465   1.117  1.00  0.00     0.037 C 
HETATM    4  C11 UNL     1      -2.564  -0.208   2.134  1.00  0.00     0.025 C 
HETATM    5  C12 UNL     1      -1.653  -1.694   0.248  1.00  0.00     0.013 A 
HETATM    6  C13 UNL     1      -1.527  -3.080   0.599  1.00  0.00     0.018 A 
HETATM    7  C14 UNL     1      -0.273  -2.330   0.111  1.00  0.00    -0.012 A 
HETATM    8  C15 UNL     1       0.211  -3.011  -1.147  1.00  0.00     0.017 C 
HETATM    9  C16 UNL     1       0.412  -1.338   0.855  1.00  0.00     0.153 C 
HETATM   10  C17 UNL     1       1.708  -1.722   1.381  1.00  0.00     0.281 C 
HETATM   11  O2  UNL     1       2.207  -2.842   1.214  1.00  0.00    -0.264 OA
HETATM   12  O3  UNL     1       2.156  -0.657   2.020  1.00  0.00    -0.285 OA
HETATM   13  C18 UNL     1       1.566   0.524   1.406  1.00  0.00     0.310 C 
HETATM   14  O4  UNL     1       2.752   1.147   1.067  1.00  0.00    -0.323 OA
HETATM   15  C19 UNL     1       3.375   0.535   0.040  1.00  0.00     0.316 C 
HETATM   16  C20 UNL     1       2.445  -0.028  -1.008  1.00  0.00     0.325 C 
HETATM   17  O8  UNL     1       1.130  -0.029  -0.797  1.00  0.00    -0.337 OA
HETATM   18  C23 UNL     1       0.546   0.158   0.422  1.00  0.00     0.151 C 
HETATM   19  C24 UNL     1      -0.471  -1.142   2.020  1.00  0.00     0.159 C 
HETATM   20  O9  UNL     1       0.065  -0.830   3.142  1.00  0.00    -0.296 OA
ENDROOT
BRANCH   1  21
HETATM   21  C7  UNL     1      -1.407   1.814  -0.149  1.00  0.00    -0.021 C 
HETATM   22  C2  UNL     1      -0.784   3.136  -0.196  1.00  0.00     0.003 C 
HETATM   23  C1  UNL     1       0.454   3.312  -0.391  1.00  0.00     0.032 C 
HETATM   24  S1  UNL     1      -1.520   4.773  -0.251  1.00  0.00    -0.100 SA
HETATM   25  C3  UNL     1      -3.073   4.336  -0.984  1.00  0.00     0.087 C 
HETATM   26  C4  UNL     1      -3.375   3.063  -1.000  1.00  0.00     0.078 C 
HETATM   27  C5  UNL     1      -2.666   1.860  -0.606  1.00  0.00    -0.020 C 
HETATM   28  C6  UNL     1      -3.369   0.667  -0.921  1.00  0.00     0.052 C 
BRANCH  26  29
HETATM   29  O1  UNL     1      -4.688   2.896  -1.587  1.00  0.00    -0.360 OA
ATOM     30  H1  UNL     1      -4.907   1.972  -1.599  1.00  0.00     0.217 HD
ENDBRANCH  26  29
ENDBRANCH   1  21
BRANCH  16  31
HETATM   31  O6  UNL     1       3.130  -1.105  -1.538  1.00  0.00    -0.285 OA
BRANCH  31  32
HETATM   32  C21 UNL     1       3.745  -1.222  -2.752  1.00  0.00     0.257 C 
HETATM   33  C22 UNL     1       4.442  -2.435  -3.190  1.00  0.00     0.126 C 
HETATM   34  O7  UNL     1       3.690  -0.214  -3.511  1.00  0.00    -0.266 OA
ENDBRANCH  31  32
ENDBRANCH  16  31
BRANCH  15  35
HETATM   35  O5  UNL     1       4.333  -0.372   0.494  1.00  0.00    -0.367 OA
ATOM     36  H5  UNL     1       4.772  -0.803  -0.230  1.00  0.00     0.212 HD
ENDBRANCH  15  35
TORSDOF 5
