REMARK  2 active torsions:
REMARK  status: ('A' for Active; 'I' for Inactive)
REMARK    1  A    between atoms: C7_9  and  C8_10 
REMARK       I    between atoms: C8_10  and  N2_12 
REMARK    2  A    between atoms: N2_12  and  C9_14 
ROOT
HETATM    1  C1  UNL     1      -4.600   0.439  -1.575  1.00  0.00     0.314 C 
HETATM    2  N1  UNL     1      -3.328   0.140  -1.013  1.00  0.00     0.117 N 
HETATM    3  C2  UNL     1      -2.815   1.152  -0.132  1.00  0.00     0.228 C 
HETATM    4  C3  UNL     1      -3.468   1.112   1.232  1.00  0.00     0.036 C 
HETATM    5  C4  UNL     1      -3.436  -0.278   1.827  1.00  0.00     0.007 C 
HETATM    6  C5  UNL     1      -3.986  -1.284   0.853  1.00  0.00     0.064 C 
HETATM    7  C6  UNL     1      -3.207  -1.168  -0.443  1.00  0.00     0.359 C 
HETATM    8  O1  UNL     1      -1.883  -1.411  -0.158  1.00  0.00    -0.342 OA
HETATM    9  C7  UNL     1      -1.024  -0.428  -0.596  1.00  0.00     0.218 C 
HETATM   10  C15 UNL     1      -1.312   0.931  -0.022  1.00  0.00     0.077 C 
ENDROOT
BRANCH   9  11
HETATM   11  C8  UNL     1       0.359  -0.809  -0.157  1.00  0.00     0.247 C 
HETATM   12  O2  UNL     1       0.585  -1.856   0.488  1.00  0.00    -0.271 OA
HETATM   13  N2  UNL     1       1.421   0.075  -0.505  1.00  0.00    -0.354 N 
ATOM     14  H2  UNL     1       1.230   0.927  -1.032  1.00  0.00     0.162 HD
BRANCH  13  15
HETATM   15  C9  UNL     1       2.769  -0.248  -0.105  1.00  0.00     0.084 C 
HETATM   16  C10 UNL     1       3.278   0.829   0.840  1.00  0.00     0.025 C 
HETATM   17  C11 UNL     1       4.773   0.843   0.949  1.00  0.00     0.002 C 
HETATM   18  C12 UNL     1       5.295  -0.496   0.490  1.00  0.00     0.000 C 
HETATM   19  C13 UNL     1       5.072  -0.596  -1.019  1.00  0.00     0.002 C 
HETATM   20  C14 UNL     1       3.617  -0.358  -1.337  1.00  0.00     0.025 C 
ENDBRANCH  13  15
ENDBRANCH   9  11
TORSDOF 2
