REMARK  2 active torsions:
REMARK  status: ('A' for Active; 'I' for Inactive)
REMARK    1  A    between atoms: N1_4  and  C4_5 
REMARK    2  A    between atoms: N2_8  and  C7_9 
ROOT
HETATM    1  C4  UNL     1       0.990   1.105   0.002  1.00  0.00     0.226 C 
HETATM    2  C5  UNL     1       0.070   1.143   1.186  1.00  0.00     0.066 C 
HETATM    3  C6  UNL     1      -1.384   1.149   0.826  1.00  0.00     0.275 C 
HETATM    4  N2  UNL     1      -1.681   0.581  -0.455  1.00  0.00     0.095 N 
HETATM    5  C11 UNL     1      -0.773  -0.476  -0.836  1.00  0.00     0.275 C 
HETATM    6  C12 UNL     1       0.570   0.151  -1.074  1.00  0.00     0.066 C 
ENDROOT
BRANCH   4   7
HETATM    7  C7  UNL     1      -3.008   0.066  -0.596  1.00  0.00     0.250 C 
HETATM    8  C8  UNL     1      -3.303  -1.139   0.248  1.00  0.00     0.065 C 
HETATM    9  C9  UNL     1      -4.817  -1.159   0.221  1.00  0.00     0.234 C 
HETATM   10  N3  UNL     1      -5.255   0.175  -0.089  1.00  0.00    -0.073 N 
HETATM   11  C10 UNL     1      -4.089   1.020  -0.178  1.00  0.00     0.268 C 
ATOM     12  H32 UNL     1      -5.835   0.214  -0.927  1.00  0.00     0.277 HD
ATOM     13  H31 UNL     1      -5.947   0.526   0.573  1.00  0.00     0.277 HD
ENDBRANCH   4   7
BRANCH   1  14
HETATM   14  N1  UNL     1       2.330   0.718   0.412  1.00  0.00     0.093 N 
HETATM   15  C3  UNL     1       2.380  -0.557   1.048  1.00  0.00     0.273 C 
HETATM   16  C2  UNL     1       3.401  -1.509   0.532  1.00  0.00     0.030 C 
HETATM   17  C1  UNL     1       4.709  -0.904   0.146  1.00  0.00     0.003 C 
HETATM   18  C14 UNL     1       4.634   0.526  -0.288  1.00  0.00     0.030 C 
HETATM   19  C13 UNL     1       3.234   0.890  -0.684  1.00  0.00     0.273 C 
ENDBRANCH   1  14
TORSDOF 2
