REMARK  3 active torsions:
REMARK  status: ('A' for Active; 'I' for Inactive)
REMARK    1  A    between atoms: C2_2  and  N1_4 
REMARK    2  A    between atoms: N1_4  and  C5_6 
REMARK    3  A    between atoms: C8_9  and  O1_10 
ROOT
HETATM    1  C5  UNL     1      -0.451   0.029   0.299  1.00  0.00     0.112 C 
HETATM    2  C6  UNL     1      -0.047   1.247  -0.514  1.00  0.00     0.032 C 
HETATM    3  C7  UNL     1       1.434   1.167  -0.870  1.00  0.00     0.073 C 
HETATM    4  C8  UNL     1       2.145   0.757   0.391  1.00  0.00     0.259 C 
HETATM    5  C9  UNL     1       3.635   0.934   0.302  1.00  0.00     0.073 C 
HETATM    6  C10 UNL     1       4.157  -0.440  -0.007  1.00  0.00     0.035 C 
HETATM    7  C11 UNL     1       2.898  -1.268  -0.204  1.00  0.00     0.277 C 
HETATM    8  N2  UNL     1       1.877  -0.633   0.626  1.00  0.00     0.129 N 
HETATM    9  C12 UNL     1       0.567  -1.068   0.240  1.00  0.00     0.245 C 
HETATM   10  C13 UNL     1       0.144  -2.125   1.254  1.00  0.00     0.045 C 
ENDROOT
BRANCH   1  11
HETATM   11  N1  UNL     1      -1.788  -0.394   0.068  1.00  0.00    -0.407 N 
HETATM   12  C4  UNL     1      -2.044  -1.168  -1.086  1.00  0.00     0.144 C 
BRANCH  11  13
HETATM   13  C2  UNL     1      -2.805   0.514   0.452  1.00  0.00     0.071 C 
HETATM   14  C1  UNL     1      -4.108  -0.196   0.803  1.00  0.00     0.031 C 
HETATM   15  C3  UNL     1      -3.132   1.595  -0.525  1.00  0.00     0.031 C 
ENDBRANCH  11  13
ENDBRANCH   1  11
BRANCH   4  16
HETATM   16  O1  UNL     1       1.733   1.513   1.500  1.00  0.00    -0.363 OA
ATOM     17  H1  UNL     1       2.182   1.254   2.296  1.00  0.00     0.212 HD
ENDBRANCH   4  16
TORSDOF 3
