REMARK  3 active torsions:
REMARK  status: ('A' for Active; 'I' for Inactive)
REMARK    1  A    between atoms: C7_7  and  C8_8 
REMARK    2  A    between atoms: C7_7  and  N1_11 
REMARK    3  A    between atoms: C8_8  and  O1_9 
ROOT
HETATM    1  C1  UNL     1      -2.281   2.679  -0.329  1.00  0.00     0.010 C 
HETATM    2  C2  UNL     1      -2.134   1.559   0.689  1.00  0.00    -0.015 C 
HETATM    3  C3  UNL     1      -2.819   0.295   0.303  1.00  0.00     0.015 C 
HETATM    4  C4  UNL     1      -1.738  -0.771   0.092  1.00  0.00    -0.009 C 
HETATM    5  C5  UNL     1      -1.664  -0.927  -1.399  1.00  0.00     0.018 C 
HETATM    6  C6  UNL     1      -2.324  -2.064   0.611  1.00  0.00     0.018 C 
HETATM    7  C7  UNL     1      -0.553  -0.266   0.801  1.00  0.00     0.188 C 
HETATM    8  C14 UNL     1      -0.654   1.234   0.742  1.00  0.00     0.049 C 
ENDROOT
BRANCH   7   9
HETATM    9  C8  UNL     1      -0.816  -0.643   2.280  1.00  0.00     0.206 C 
BRANCH   9  10
HETATM   10  O1  UNL     1      -2.049  -0.208   2.721  1.00  0.00    -0.398 OA
ATOM     11  H1  UNL     1      -2.210  -0.439   3.628  1.00  0.00     0.209 HD
ENDBRANCH   9  10
ENDBRANCH   7   9
BRANCH   7  12
HETATM   12  N1  UNL     1       0.730  -0.758   0.532  1.00  0.00     0.104 N 
HETATM   13  C9  UNL     1       1.296  -0.664  -0.766  1.00  0.00     0.303 C 
HETATM   14  C10 UNL     1       2.738  -1.211  -0.720  1.00  0.00     0.302 C 
HETATM   15  N2  UNL     1       3.618  -0.328  -0.025  1.00  0.00     0.087 N 
HETATM   16  C11 UNL     1       4.574   0.321  -0.905  1.00  0.00     0.310 C 
HETATM   17  C12 UNL     1       2.807   0.615   0.663  1.00  0.00     0.302 C 
HETATM   18  C13 UNL     1       1.706  -0.146   1.412  1.00  0.00     0.303 C 
ENDBRANCH   7  12
TORSDOF 3
