REMARK  4 active torsions:
REMARK  status: ('A' for Active; 'I' for Inactive)
REMARK    1  A    between atoms: C2_2  and  N1_3 
REMARK    2  A    between atoms: N2_7  and  C6_8 
REMARK    3  A    between atoms: C6_8  and  N3_10 
REMARK    4  A    between atoms: N3_10  and  C7_12 
ROOT
HETATM    1  C6  UNL     1      -0.670   0.574   0.098  1.00  0.00     0.175 C 
HETATM    2  S1  UNL     1      -0.746   1.167   1.624  1.00  0.00    -0.041 SA
ENDROOT
BRANCH   1   3
HETATM    3  N2  UNL     1       0.631   0.316  -0.448  1.00  0.00    -0.320 N 
HETATM    4  C5  UNL     1       0.668  -0.204  -1.804  1.00  0.00     0.134 C 
HETATM    5  C4  UNL     1       2.088  -0.290  -2.286  1.00  0.00     0.040 C 
HETATM    6  C3  UNL     1       2.900  -0.925  -1.170  1.00  0.00     0.125 C 
HETATM    7  N1  UNL     1       2.990  -0.007  -0.094  1.00  0.00    -0.377 N 
HETATM    8  C11 UNL     1       1.784   0.577   0.346  1.00  0.00     0.183 C 
BRANCH   7   9
HETATM    9  C2  UNL     1       3.919  -0.379   0.933  1.00  0.00     0.119 C 
HETATM   10  C1  UNL     1       4.016   0.580   2.061  1.00  0.00     0.026 C 
ENDBRANCH   7   9
ENDBRANCH   1   3
BRANCH   1  11
HETATM   11  N3  UNL     1      -1.853   0.349  -0.605  1.00  0.00    -0.360 N 
ATOM     12  H3  UNL     1      -1.808  -0.015  -1.557  1.00  0.00     0.162 HD
BRANCH  11  13
HETATM   13  C7  UNL     1      -3.136   0.621  -0.013  1.00  0.00     0.109 C 
HETATM   14  C8  UNL     1      -3.456  -0.183   1.201  1.00  0.00     0.053 C 
HETATM   15  C9  UNL     1      -4.905  -0.507   1.050  1.00  0.00     0.169 C 
HETATM   16  O1  UNL     1      -5.364  -0.007  -0.134  1.00  0.00    -0.389 OA
HETATM   17  C10 UNL     1      -4.271   0.244  -0.948  1.00  0.00     0.192 C 
ENDBRANCH  11  13
ENDBRANCH   1  11
TORSDOF 4
