REMARK  13 active torsions:
REMARK  status: ('A' for Active; 'I' for Inactive)
REMARK    1  A    between atoms: C2_2  and  O2_4 
REMARK    2  A    between atoms: O2_4  and  C3_5 
REMARK    3  A    between atoms: C7_9  and  C8_10 
REMARK    4  A    between atoms: C8_10  and  C9_11 
REMARK    5  A    between atoms: C9_11  and  C10_12 
REMARK    6  A    between atoms: C10_12  and  C11_13 
REMARK    7  A    between atoms: C11_13  and  C13_15 
REMARK    8  A    between atoms: C11_13  and  C21_23 
REMARK    9  A    between atoms: C13_15  and  C14_16 
REMARK   10  A    between atoms: C14_16  and  C15_17 
REMARK   11  A    between atoms: C22_26  and  C23_27 
REMARK   12  A    between atoms: C23_27  and  C24_28 
REMARK   13  A    between atoms: C25_30  and  O5_32 
ROOT
HETATM    1  C3  UNL     1       4.574  -0.107  -0.556  1.00  0.00     0.170 C 
HETATM    2  C4  UNL     1       4.383   0.220   0.867  1.00  0.00     0.044 C 
HETATM    3  C5  UNL     1       3.001   0.222   1.427  1.00  0.00     0.013 C 
HETATM    4  C6  UNL     1       3.029  -0.665   2.663  1.00  0.00     0.015 C 
HETATM    5  C7  UNL     1       1.901  -0.048   0.478  1.00  0.00    -0.070 C 
HETATM    6  C22 UNL     1       2.178  -0.866  -0.719  1.00  0.00    -0.035 C 
HETATM    7  C25 UNL     1       3.406  -0.343  -1.414  1.00  0.00     0.105 C 
HETATM    8  C26 UNL     1       3.772  -1.176  -2.624  1.00  0.00     0.053 C 
ENDROOT
BRANCH   5   9
HETATM    9  C8  UNL     1       0.550  -0.405   1.127  1.00  0.00     0.035 C 
BRANCH   9  10
HETATM   10  C9  UNL     1       0.058   0.714   1.993  1.00  0.00     0.006 C 
BRANCH  10  11
HETATM   11  C10 UNL     1      -1.166   0.598   2.752  1.00  0.00     0.018 C 
BRANCH  11  12
HETATM   12  C11 UNL     1      -2.510   0.391   2.120  1.00  0.00     0.035 C 
HETATM   13  C12 UNL     1      -2.521  -0.908   1.377  1.00  0.00     0.025 C 
BRANCH  12  14
HETATM   14  C13 UNL     1      -2.969   1.594   1.373  1.00  0.00     0.018 C 
BRANCH  14  15
HETATM   15  C14 UNL     1      -4.258   1.612   0.686  1.00  0.00     0.006 C 
BRANCH  15  16
HETATM   16  C15 UNL     1      -4.532   0.709  -0.454  1.00  0.00    -0.014 C 
HETATM   17  C16 UNL     1      -3.574   0.971  -1.628  1.00  0.00     0.004 C 
HETATM   18  C17 UNL     1      -3.804  -0.130  -2.619  1.00  0.00     0.000 C 
HETATM   19  C18 UNL     1      -5.239  -0.578  -2.637  1.00  0.00     0.000 C 
HETATM   20  C19 UNL     1      -6.119   0.615  -2.398  1.00  0.00     0.000 C 
HETATM   21  C20 UNL     1      -5.906   1.145  -1.019  1.00  0.00     0.004 C 
ENDBRANCH  15  16
ENDBRANCH  14  15
ENDBRANCH  12  14
BRANCH  12  22
HETATM   22  C21 UNL     1      -3.429   0.210   3.325  1.00  0.00     0.239 C 
HETATM   23  N1  UNL     1      -3.282  -0.919   4.149  1.00  0.00    -0.061 NA
HETATM   24  O3  UNL     1      -4.282   1.061   3.553  1.00  0.00    -0.276 OA
ENDBRANCH  12  22
ENDBRANCH  11  12
ENDBRANCH  10  11
ENDBRANCH   9  10
ENDBRANCH   5   9
BRANCH   6  25
HETATM   25  C23 UNL     1       2.033  -2.331  -0.658  1.00  0.00     0.106 C 
BRANCH  25  26
HETATM   26  C24 UNL     1       2.807  -3.119   0.261  1.00  0.00     0.235 C 
HETATM   27  O4  UNL     1       3.947  -3.512   0.098  1.00  0.00    -0.307 OA
ENDBRANCH  25  26
ENDBRANCH   6  25
BRANCH   7  28
HETATM   28  O5  UNL     1       3.033   0.920  -1.954  1.00  0.00    -0.383 OA
ATOM     29  H5  UNL     1       2.277   0.767  -2.509  1.00  0.00     0.211 HD
ENDBRANCH   7  28
BRANCH   1  30
HETATM   30  O2  UNL     1       5.363   0.894  -1.228  1.00  0.00    -0.313 OA
BRANCH  30  31
HETATM   31  C2  UNL     1       6.588   0.678  -1.780  1.00  0.00     0.255 C 
HETATM   32  C1  UNL     1       7.271   1.828  -2.440  1.00  0.00     0.126 C 
HETATM   33  O1  UNL     1       7.088  -0.471  -1.710  1.00  0.00    -0.266 OA
ENDBRANCH  30  31
ENDBRANCH   1  30
TORSDOF 13
