REMARK  12 active torsions:
REMARK  status: ('A' for Active; 'I' for Inactive)
REMARK    1  A    between atoms: C2_2  and  C3_3 
REMARK    2  A    between atoms: C3_3  and  O1_4 
REMARK    3  A    between atoms: C3_3  and  C4_6 
REMARK    4  A    between atoms: C4_6  and  C7_9 
REMARK    5  A    between atoms: C11_13  and  C12_14 
REMARK    6  A    between atoms: C13_15  and  C14_16 
REMARK    7  A    between atoms: C14_16  and  C15_17 
REMARK    8  A    between atoms: C15_17  and  O2_18 
REMARK    9  A    between atoms: O2_18  and  C16_19 
REMARK   10  A    between atoms: C16_19  and  C17_21 
REMARK   11  A    between atoms: C18_22  and  C19_23 
REMARK   12  A    between atoms: C20_26  and  N1_27 
ROOT
HETATM    1  C7  UNL     1      -1.381  -0.379  -0.535  1.00  0.00    -0.042 C 
HETATM    2  C8  UNL     1      -1.720   1.061  -0.284  1.00  0.00     0.042 C 
HETATM    3  C9  UNL     1      -0.401   1.459   0.406  1.00  0.00     0.045 C 
HETATM    4  C10 UNL     1      -0.150   0.333   1.339  1.00  0.00    -0.031 C 
HETATM    5  C11 UNL     1       0.583   0.459   2.402  1.00  0.00     0.009 C 
HETATM    6  C20 UNL     1      -0.879  -0.860   0.744  1.00  0.00     0.039 C 
ENDROOT
BRANCH   5   7
HETATM    7  C12 UNL     1       1.310   1.571   2.962  1.00  0.00     0.000 C 
HETATM    8  C13 UNL     1       1.801   2.804   2.469  1.00  0.00    -0.002 C 
BRANCH   8   9
HETATM    9  C14 UNL     1       2.947   3.037   1.583  1.00  0.00    -0.000 C 
BRANCH   9  10
HETATM   10  C15 UNL     1       3.113   2.471   0.246  1.00  0.00     0.206 C 
BRANCH  10  11
HETATM   11  O2  UNL     1       4.224   2.979  -0.366  1.00  0.00    -0.314 OA
BRANCH  11  12
HETATM   12  C16 UNL     1       5.526   3.019  -0.102  1.00  0.00     0.283 C 
HETATM   13  O3  UNL     1       6.002   2.484   0.959  1.00  0.00    -0.260 OA
BRANCH  12  14
HETATM   14  C17 UNL     1       6.498   3.685  -0.993  1.00  0.00     0.089 C 
HETATM   15  C18 UNL     1       7.759   3.870  -0.885  1.00  0.00     0.090 C 
BRANCH  15  16
HETATM   16  C19 UNL     1       8.421   4.596  -2.042  1.00  0.00     0.198 C 
HETATM   17  O4  UNL     1       9.623   4.824  -1.999  1.00  0.00    -0.645 OA
HETATM   18  O5  UNL     1       7.642   4.983  -3.131  1.00  0.00    -0.645 OA
ENDBRANCH  15  16
ENDBRANCH  12  14
ENDBRANCH  11  12
ENDBRANCH  10  11
ENDBRANCH   9  10
ENDBRANCH   8   9
ENDBRANCH   5   7
BRANCH   6  19
HETATM   19  N1  UNL     1      -1.584  -1.642   1.628  1.00  0.00    -0.380 N 
HETATM   20  C21 UNL     1      -2.717  -1.321   2.342  1.00  0.00     0.123 C 
HETATM   21  C22 UNL     1      -3.805  -2.409   2.219  1.00  0.00     0.020 C 
HETATM   22  C23 UNL     1      -3.334  -3.709   2.871  1.00  0.00     0.002 C 
HETATM   23  C24 UNL     1      -2.568  -4.516   1.859  1.00  0.00     0.002 C 
HETATM   24  C25 UNL     1      -1.147  -4.086   1.799  1.00  0.00     0.020 C 
HETATM   25  C26 UNL     1      -0.847  -2.700   2.247  1.00  0.00     0.123 C 
ENDBRANCH   6  19
BRANCH   1  26
HETATM   26  C4  UNL     1      -2.216  -1.059  -1.482  1.00  0.00     0.004 C 
HETATM   27  C5  UNL     1      -2.061  -2.517  -1.647  1.00  0.00     0.022 C 
HETATM   28  C6  UNL     1      -3.723  -0.702  -1.306  1.00  0.00     0.022 C 
BRANCH  26  29
HETATM   29  C3  UNL     1      -2.004  -0.443  -2.891  1.00  0.00     0.130 C 
BRANCH  29  30
HETATM   30  C2  UNL     1      -2.983  -0.927  -3.894  1.00  0.00     0.028 C 
HETATM   31  C1  UNL     1      -2.593  -0.279  -5.231  1.00  0.00     0.007 C 
ENDBRANCH  29  30
BRANCH  29  32
HETATM   32  O1  UNL     1      -0.685  -0.809  -3.235  1.00  0.00    -0.395 OA
ATOM     33  H1  UNL     1      -0.058  -0.499  -2.592  1.00  0.00     0.210 HD
ENDBRANCH  29  32
ENDBRANCH  26  29
ENDBRANCH   1  26
TORSDOF 12
