REMARK  14 active torsions:
REMARK  status: ('A' for Active; 'I' for Inactive)
REMARK    1  A    between atoms: C2_2  and  C3_3 
REMARK    2  A    between atoms: C4_4  and  C5_5 
REMARK    3  A    between atoms: C7_7  and  O1_8 
REMARK    4  A    between atoms: O1_8  and  C8_9 
REMARK    5  A    between atoms: C8_9  and  C9_11 
REMARK    6  A    between atoms: C9_11  and  O3_12 
REMARK    7  A    between atoms: C9_11  and  C10_14 
REMARK    8  A    between atoms: C10_14  and  C11_15 
REMARK    9  A    between atoms: C11_15  and  C12_16 
REMARK   10  A    between atoms: C14_18  and  C15_19 
REMARK   11  A    between atoms: C15_19  and  C17_21 
REMARK   12  A    between atoms: C19_25  and  C20_26 
REMARK   13  A    between atoms: C20_26  and  C21_27 
REMARK   14  A    between atoms: C26_32  and  O6_33 
ROOT
HETATM    1  C5  UNL     1      -1.384  -2.405  -2.634  1.00  0.00     0.017 C 
HETATM    2  C6  UNL     1      -2.188  -1.147  -2.867  1.00  0.00     0.042 C 
HETATM    3  C7  UNL     1      -1.437  -0.499  -1.749  1.00  0.00     0.137 C 
HETATM    4  C14 UNL     1      -0.482  -1.668  -1.717  1.00  0.00     0.029 C 
ENDROOT
BRANCH   4   5
HETATM    5  C15 UNL     1       0.877  -1.412  -2.332  1.00  0.00     0.021 C 
HETATM    6  C16 UNL     1       0.838  -0.603  -3.586  1.00  0.00     0.013 C 
BRANCH   5   7
HETATM    7  C17 UNL     1       1.852  -0.871  -1.310  1.00  0.00     0.164 C 
HETATM    8  O4  UNL     1       1.384   0.345  -0.772  1.00  0.00    -0.313 OA
HETATM    9  C18 UNL     1       2.220   1.271  -0.202  1.00  0.00     0.263 C 
HETATM   10  O5  UNL     1       1.875   1.847   0.852  1.00  0.00    -0.265 OA
HETATM   11  C19 UNL     1       3.499   1.577  -0.825  1.00  0.00     0.091 C 
HETATM   12  C25 UNL     1       3.689   0.709  -2.022  1.00  0.00     0.049 C 
HETATM   13  C26 UNL     1       3.234  -0.715  -1.827  1.00  0.00     0.148 C 
BRANCH  11  14
HETATM   14  C20 UNL     1       4.680   1.578   0.108  1.00  0.00     0.042 C 
BRANCH  14  15
HETATM   15  C21 UNL     1       4.572   2.552   1.198  1.00  0.00    -0.024 C 
HETATM   16  C22 UNL     1       4.606   2.134   2.459  1.00  0.00    -0.091 C 
HETATM   17  C23 UNL     1       4.753   0.682   2.755  1.00  0.00     0.042 C 
HETATM   18  C24 UNL     1       4.503   3.066   3.615  1.00  0.00     0.042 C 
ENDBRANCH  14  15
ENDBRANCH  11  14
BRANCH  13  19
HETATM   19  O6  UNL     1       4.184  -1.324  -0.969  1.00  0.00    -0.393 OA
ATOM     20  H6  UNL     1       5.069  -1.224  -1.300  1.00  0.00     0.210 HD
ENDBRANCH  13  19
ENDBRANCH   5   7
ENDBRANCH   4   5
BRANCH   1  21
HETATM   21  C4  UNL     1      -2.138  -3.560  -2.141  1.00  0.00    -0.026 C 
HETATM   22  C3  UNL     1      -2.117  -4.058  -0.918  1.00  0.00    -0.031 C 
BRANCH  22  23
HETATM   23  C2  UNL     1      -2.930  -5.236  -0.546  1.00  0.00     0.022 C 
HETATM   24  C1  UNL     1      -2.008  -6.318  -0.084  1.00  0.00     0.009 C 
ENDBRANCH  22  23
ENDBRANCH   1  21
BRANCH   3  25
HETATM   25  O1  UNL     1      -2.163  -0.280  -0.560  1.00  0.00    -0.314 OA
BRANCH  25  26
HETATM   26  C8  UNL     1      -2.291   0.969   0.039  1.00  0.00     0.288 C 
HETATM   27  O2  UNL     1      -1.704   1.908  -0.562  1.00  0.00    -0.262 OA
BRANCH  26  28
HETATM   28  C9  UNL     1      -3.052   1.194   1.282  1.00  0.00     0.217 C 
BRANCH  28  29
HETATM   29  O3  UNL     1      -3.567  -0.063   1.673  1.00  0.00    -0.386 OA
ATOM     30  H3  UNL     1      -4.057   0.082   2.474  1.00  0.00     0.210 HD
ENDBRANCH  28  29
BRANCH  28  31
HETATM   31  C10 UNL     1      -4.262   2.075   1.058  1.00  0.00     0.042 C 
BRANCH  31  32
HETATM   32  C11 UNL     1      -5.038   2.309   2.311  1.00  0.00     0.003 C 
BRANCH  32  33
HETATM   33  C12 UNL     1      -4.237   2.982   3.392  1.00  0.00    -0.004 C 
HETATM   34  C13 UNL     1      -3.728   4.339   2.944  1.00  0.00     0.005 C 
ENDBRANCH  32  33
ENDBRANCH  31  32
ENDBRANCH  28  31
ENDBRANCH  26  28
ENDBRANCH  25  26
ENDBRANCH   3  25
TORSDOF 14
