REMARK  13 active torsions:
REMARK  status: ('A' for Active; 'I' for Inactive)
REMARK    1  A    between atoms: C2_2  and  C3_3 
REMARK    2  A    between atoms: C3_3  and  N1_4 
REMARK    3  A    between atoms: C7_14  and  C8_15 
REMARK    4  A    between atoms: C8_15  and  C9_16 
REMARK    5  A    between atoms: C9_16  and  C10_17 
REMARK       I    between atoms: C10_17  and  N5_19 
REMARK    6  A    between atoms: N5_19  and  C11_21 
REMARK    7  A    between atoms: C11_21  and  C12_22 
REMARK    8  A    between atoms: C11_21  and  C16_30 
REMARK    9  A    between atoms: C12_22  and  C13_23 
REMARK   10  A    between atoms: C13_23  and  C14_24 
REMARK   11  A    between atoms: C14_24  and  C15_25 
REMARK   12  A    between atoms: C15_25  and  N6_26 
REMARK   13  A    between atoms: C16_30  and  C17_31 
ROOT
HETATM    1  C8  UNL     1       1.676  -0.444   0.867  1.00  0.00     0.052 C 
ENDROOT
BRANCH   1   2
HETATM    2  C7  UNL     1       2.884  -0.963   0.200  1.00  0.00     0.003 A 
HETATM    3  C6  UNL     1       3.143  -2.301  -0.052  1.00  0.00     0.125 A 
HETATM    4  N3  UNL     1       4.334  -2.346  -0.670  1.00  0.00    -0.330 N 
HETATM    5  N4  UNL     1       2.302  -3.414   0.283  1.00  0.00    -0.082 NA
HETATM    6  C5  UNL     1       4.859  -1.118  -0.830  1.00  0.00     0.127 A 
ATOM      7  H3  UNL     1       4.786  -3.206  -0.980  1.00  0.00     0.168 HD
HETATM    8  N2  UNL     1       6.003  -0.642  -1.377  1.00  0.00    -0.293 N 
HETATM    9  C18 UNL     1       3.950  -0.239  -0.284  1.00  0.00     0.086 A 
HETATM   10  C4  UNL     1       6.309   0.662  -1.418  1.00  0.00     0.331 A 
ATOM     11  H2  UNL     1       6.664  -1.308  -1.777  1.00  0.00     0.172 HD
HETATM   12  N1  UNL     1       5.432   1.535  -0.889  1.00  0.00    -0.266 N 
HETATM   13  O1  UNL     1       7.402   1.064  -1.945  1.00  0.00    -0.246 OA
HETATM   14  C19 UNL     1       4.280   1.116  -0.333  1.00  0.00     0.266 A 
HETATM   15  O4  UNL     1       3.421   1.883   0.175  1.00  0.00    -0.267 OA
BRANCH  12  16
HETATM   16  C3  UNL     1       5.722   2.934  -0.923  1.00  0.00     0.137 C 
BRANCH  16  17
HETATM   17  C2  UNL     1       6.498   3.474   0.220  1.00  0.00     0.016 C 
HETATM   18  C1  UNL     1       5.880   3.323   1.567  1.00  0.00     0.006 C 
ENDBRANCH  16  17
ENDBRANCH  12  16
ENDBRANCH   1   2
BRANCH   1  19
HETATM   19  C9  UNL     1       0.513  -0.477  -0.111  1.00  0.00     0.107 C 
BRANCH  19  20
HETATM   20  C10 UNL     1      -0.729   0.032   0.503  1.00  0.00     0.218 C 
HETATM   21  O2  UNL     1      -0.704   0.420   1.691  1.00  0.00    -0.274 OA
HETATM   22  N5  UNL     1      -1.939   0.093  -0.214  1.00  0.00    -0.356 N 
ATOM     23  H5  UNL     1      -1.962  -0.222  -1.184  1.00  0.00     0.162 HD
BRANCH  22  24
HETATM   24  C11 UNL     1      -3.199   0.614   0.423  1.00  0.00     0.092 C 
BRANCH  24  25
HETATM   25  C12 UNL     1      -4.144  -0.551   0.432  1.00  0.00     0.026 C 
BRANCH  25  26
HETATM   26  C13 UNL     1      -5.497  -0.405   0.967  1.00  0.00     0.004 C 
BRANCH  26  27
HETATM   27  C14 UNL     1      -6.207  -1.787   0.936  1.00  0.00     0.027 C 
BRANCH  27  28
HETATM   28  C15 UNL     1      -6.306  -2.331  -0.459  1.00  0.00     0.229 C 
BRANCH  28  29
HETATM   29  N6  UNL     1      -6.996  -3.613  -0.349  1.00  0.00    -0.079 N 
ATOM     30  H63 UNL     1      -6.553  -4.257   0.307  1.00  0.00     0.274 HD
ATOM     31  H62 UNL     1      -7.896  -3.550   0.126  1.00  0.00     0.274 HD
ATOM     32  H61 UNL     1      -7.063  -3.983  -1.297  1.00  0.00     0.274 HD
ENDBRANCH  28  29
ENDBRANCH  27  28
ENDBRANCH  26  27
ENDBRANCH  25  26
ENDBRANCH  24  25
BRANCH  24  33
HETATM   33  C16 UNL     1      -3.580   1.760  -0.436  1.00  0.00     0.124 C 
BRANCH  33  34
HETATM   34  C17 UNL     1      -4.727   2.570  -0.011  1.00  0.00     0.233 C 
HETATM   35  N7  UNL     1      -5.455   3.364  -0.977  1.00  0.00    -0.062 NA
HETATM   36  O3  UNL     1      -5.124   2.615   1.176  1.00  0.00    -0.277 OA
ENDBRANCH  33  34
ENDBRANCH  24  33
ENDBRANCH  22  24
ENDBRANCH  19  20
ENDBRANCH   1  19
TORSDOF 13
