REMARK  15 active torsions:
REMARK  status: ('A' for Active; 'I' for Inactive)
REMARK    1  A    between atoms: C3_3  and  C4_4 
REMARK    2  A    between atoms: C4_4  and  N1_5 
REMARK    3  A    between atoms: N1_5  and  C5_8 
REMARK    4  A    between atoms: C5_8  and  C6_9 
REMARK    5  A    between atoms: C6_9  and  C7_10 
REMARK    6  A    between atoms: C7_10  and  N2_11 
REMARK    7  A    between atoms: N2_11  and  C8_14 
REMARK    8  A    between atoms: C8_14  and  C9_15 
REMARK    9  A    between atoms: C9_15  and  C10_16 
REMARK   10  A    between atoms: C10_16  and  N3_17 
REMARK   11  A    between atoms: N3_17  and  C11_19 
REMARK   12  A    between atoms: C12_22  and  N5_23 
REMARK   13  A    between atoms: N5_23  and  C13_25 
REMARK   14  A    between atoms: C13_25  and  C14_26 
REMARK   15  A    between atoms: C14_26  and  O1_27 
ROOT
HETATM    1  C1  UNL     1      -7.658  -0.390   3.161  1.00  0.00     0.013 C 
HETATM    2  C2  UNL     1      -7.324   0.002   2.068  1.00  0.00    -0.106 C 
HETATM    3  C3  UNL     1      -6.897   0.502   0.736  1.00  0.00     0.046 C 
HETATM    4  C18 UNL     1      -7.897   0.006  -0.248  1.00  0.00     0.024 C 
HETATM    5  C19 UNL     1      -8.920   1.109  -0.309  1.00  0.00     0.002 C 
HETATM    6  C20 UNL     1      -8.139   2.399  -0.121  1.00  0.00     0.002 C 
HETATM    7  C21 UNL     1      -6.945   1.991   0.737  1.00  0.00     0.024 C 
ENDROOT
BRANCH   3   8
HETATM    8  C4  UNL     1      -5.514  -0.075   0.514  1.00  0.00     0.254 C 
BRANCH   8   9
HETATM    9  N1  UNL     1      -4.948   0.310  -0.740  1.00  0.00    -0.073 N 
ATOM     10  H12 UNL     1      -5.560   0.086  -1.525  1.00  0.00     0.277 HD
ATOM     11  H11 UNL     1      -4.924   1.323  -0.858  1.00  0.00     0.277 HD
BRANCH   9  12
HETATM   12  C5  UNL     1      -3.639  -0.288  -0.879  1.00  0.00     0.234 C 
BRANCH  12  13
HETATM   13  C6  UNL     1      -2.631   0.290   0.094  1.00  0.00     0.055 C 
BRANCH  13  14
HETATM   14  C7  UNL     1      -1.267  -0.385  -0.111  1.00  0.00     0.233 C 
BRANCH  14  15
HETATM   15  N2  UNL     1      -0.795  -0.172  -1.443  1.00  0.00    -0.075 N 
ATOM     16  H22 UNL     1      -1.480  -0.467  -2.139  1.00  0.00     0.277 HD
ATOM     17  H21 UNL     1      -0.757   0.820  -1.677  1.00  0.00     0.277 HD
BRANCH  15  18
HETATM   18  C8  UNL     1       0.461  -0.809  -1.635  1.00  0.00     0.234 C 
BRANCH  18  19
HETATM   19  C9  UNL     1       1.596  -0.191  -0.855  1.00  0.00     0.047 C 
BRANCH  19  20
HETATM   20  C10 UNL     1       2.905  -0.945  -1.133  1.00  0.00     0.123 C 
BRANCH  20  21
HETATM   21  N3  UNL     1       3.987  -0.376  -0.405  1.00  0.00    -0.374 N 
ATOM     22  H3  UNL     1       3.766   0.451   0.150  1.00  0.00     0.161 HD
BRANCH  21  23
HETATM   23  C11 UNL     1       5.196  -0.771  -0.361  1.00  0.00     0.147 A 
HETATM   24  N4  UNL     1       6.095  -0.080   0.406  1.00  0.00    -0.174 N 
HETATM   25  C12 UNL     1       7.388  -0.411   0.521  1.00  0.00     0.685 A 
ATOM     26  H4  UNL     1       5.761   0.735   0.920  1.00  0.00     0.186 HD
HETATM   27  N6  UNL     1       7.762  -1.533  -0.211  1.00  0.00    -0.174 N 
HETATM   28  C15 UNL     1       6.914  -2.227  -0.965  1.00  0.00     0.152 A 
ATOM     29  H6  UNL     1       8.734  -1.839  -0.167  1.00  0.00     0.186 HD
HETATM   30  N7  UNL     1       7.064  -3.337  -1.751  1.00  0.00    -0.336 N 
HETATM   31  C17 UNL     1       5.590  -1.878  -1.076  1.00  0.00     0.123 A 
HETATM   32  C16 UNL     1       5.874  -3.624  -2.298  1.00  0.00     0.182 A 
ATOM     33  H7  UNL     1       7.930  -3.856  -1.896  1.00  0.00     0.168 HD
HETATM   34  N8  UNL     1       4.954  -2.736  -1.894  1.00  0.00    -0.346 N 
ATOM     35  H8  UNL     1       3.968  -2.715  -2.155  1.00  0.00     0.167 HD
BRANCH  25  36
HETATM   36  N5  UNL     1       8.263   0.162   1.193  1.00  0.00    -0.203 N 
ATOM     37  H5  UNL     1       9.147  -0.332   1.071  1.00  0.00     0.183 HD
BRANCH  36  38
HETATM   38  C13 UNL     1       8.460   1.211   2.031  1.00  0.00     0.105 C 
BRANCH  38  39
HETATM   39  C14 UNL     1       7.307   2.083   2.475  1.00  0.00     0.209 C 
BRANCH  39  40
HETATM   40  O1  UNL     1       7.801   3.096   3.349  1.00  0.00    -0.396 OA
ATOM     41  H1  UNL     1       7.077   3.644   3.628  1.00  0.00     0.209 HD
ENDBRANCH  39  40
ENDBRANCH  38  39
ENDBRANCH  36  38
ENDBRANCH  25  36
ENDBRANCH  21  23
ENDBRANCH  20  21
ENDBRANCH  19  20
ENDBRANCH  18  19
ENDBRANCH  15  18
ENDBRANCH  14  15
ENDBRANCH  13  14
ENDBRANCH  12  13
ENDBRANCH   9  12
ENDBRANCH   8   9
ENDBRANCH   3   8
TORSDOF 15
