REMARK  15 active torsions:
REMARK  status: ('A' for Active; 'I' for Inactive)
REMARK    1  A    between atoms: N1_1  and  C1_5 
REMARK    2  A    between atoms: C1_5  and  C2_6 
REMARK    3  A    between atoms: C2_6  and  C3_7 
REMARK    4  A    between atoms: C3_7  and  C4_8 
REMARK    5  A    between atoms: C8_15  and  C9_16 
REMARK    6  A    between atoms: C10_19  and  C11_20 
REMARK    7  A    between atoms: C11_20  and  O4_21 
REMARK    8  A    between atoms: C12_23  and  C13_24 
REMARK    9  A    between atoms: C13_24  and  C14_25 
REMARK   10  A    between atoms: C14_25  and  C15_26 
REMARK   11  A    between atoms: C15_26  and  C16_27 
REMARK   12  A    between atoms: C16_27  and  C17_28 
REMARK   13  A    between atoms: C17_28  and  C18_29 
REMARK   14  A    between atoms: C18_29  and  C19_30 
REMARK   15  A    between atoms: C19_30  and  O5_31 
ROOT
HETATM    1  C4  UNL     1      -2.963   0.418   0.188  1.00  0.00     0.177 C 
HETATM    2  N2  UNL     1      -4.134  -0.456   0.282  1.00  0.00    -0.345 N 
ATOM      3  H2  UNL     1      -5.031  -0.071   0.578  1.00  0.00     0.163 HD
HETATM    4  C5  UNL     1      -4.025  -1.887  -0.048  1.00  0.00     0.238 C 
HETATM    5  O1  UNL     1      -5.027  -2.552  -0.375  1.00  0.00    -0.269 OA
HETATM    6  C6  UNL     1      -2.675  -2.359   0.061  1.00  0.00     0.048 C 
HETATM    7  C7  UNL     1      -1.944  -3.520  -0.262  1.00  0.00     0.048 C 
HETATM    8  C8  UNL     1      -0.495  -3.071  -0.567  1.00  0.00     0.098 C 
HETATM    9  C10 UNL     1       0.236  -2.234   0.381  1.00  0.00     0.046 C 
HETATM   10  C12 UNL     1       0.168  -0.741   0.222  1.00  0.00     0.091 C 
HETATM   11  N3  UNL     1      -0.562   0.022   1.186  1.00  0.00    -0.354 N 
ATOM     12  H3  UNL     1      -0.007   0.441   1.933  1.00  0.00     0.162 HD
HETATM   13  C20 UNL     1      -1.962   0.273   1.239  1.00  0.00     0.240 C 
HETATM   14  O6  UNL     1      -2.471   0.399   2.416  1.00  0.00    -0.271 OA
ENDROOT
BRANCH  10  15
HETATM   15  C13 UNL     1       1.552  -0.063   0.115  1.00  0.00     0.029 C 
BRANCH  15  16
HETATM   16  C14 UNL     1       2.346  -0.483  -1.049  1.00  0.00     0.029 C 
BRANCH  16  17
HETATM   17  C15 UNL     1       3.687   0.125  -1.183  1.00  0.00    -0.031 C 
BRANCH  17  18
HETATM   18  C16 UNL     1       3.893   1.551  -1.387  1.00  0.00    -0.031 C 
BRANCH  18  19
HETATM   19  C17 UNL     1       3.474   2.556  -0.386  1.00  0.00     0.029 C 
BRANCH  19  20
HETATM   20  C18 UNL     1       4.086   2.403   0.980  1.00  0.00     0.030 C 
BRANCH  20  21
HETATM   21  C19 UNL     1       5.605   2.516   0.867  1.00  0.00     0.164 C 
BRANCH  21  22
HETATM   22  O5  UNL     1       6.166   2.372   2.143  1.00  0.00    -0.401 OA
ATOM     23  H5  UNL     1       7.111   2.442   2.073  1.00  0.00     0.209 HD
ENDBRANCH  21  22
ENDBRANCH  20  21
ENDBRANCH  19  20
ENDBRANCH  18  19
ENDBRANCH  17  18
ENDBRANCH  16  17
ENDBRANCH  15  16
ENDBRANCH  10  15
BRANCH   9  24
HETATM   24  C11 UNL     1       0.314  -2.654   1.822  1.00  0.00     0.171 C 
BRANCH  24  25
HETATM   25  O4  UNL     1       0.896  -3.861   2.085  1.00  0.00    -0.400 OA
ATOM     26  H4  UNL     1       0.945  -4.126   2.996  1.00  0.00     0.209 HD
ENDBRANCH  24  25
ENDBRANCH   9  24
BRANCH   8  27
HETATM   27  C9  UNL     1       0.197  -4.253  -1.102  1.00  0.00     0.177 C 
HETATM   28  O2  UNL     1       1.247  -4.674  -0.580  1.00  0.00    -0.648 OA
HETATM   29  O3  UNL     1      -0.280  -4.950  -2.204  1.00  0.00    -0.648 OA
ENDBRANCH   8  27
BRANCH   1  30
HETATM   30  C3  UNL     1      -3.496   1.852   0.312  1.00  0.00     0.036 C 
BRANCH  30  31
HETATM   31  C2  UNL     1      -4.474   2.182  -0.777  1.00  0.00     0.030 C 
BRANCH  31  32
HETATM   32  C1  UNL     1      -4.928   3.609  -0.552  1.00  0.00     0.230 C 
BRANCH  32  33
HETATM   33  N1  UNL     1      -3.776   4.473  -0.614  1.00  0.00    -0.079 N 
ATOM     34  H13 UNL     1      -3.040   4.190   0.033  1.00  0.00     0.274 HD
ATOM     35  H12 UNL     1      -3.250   4.362  -1.481  1.00  0.00     0.274 HD
ATOM     36  H11 UNL     1      -4.082   5.434  -0.462  1.00  0.00     0.274 HD
ENDBRANCH  32  33
ENDBRANCH  31  32
ENDBRANCH  30  31
ENDBRANCH   1  30
TORSDOF 15
