REMARK  14 active torsions:
REMARK  status: ('A' for Active; 'I' for Inactive)
REMARK    1  A    between atoms: C2_2  and  N1_3 
REMARK    2  A    between atoms: N1_3  and  C3_4 
REMARK    3  A    between atoms: N1_3  and  C5_6 
REMARK    4  A    between atoms: C5_6  and  C6_7 
REMARK    5  A    between atoms: C6_7  and  C7_8 
REMARK    6  A    between atoms: C7_8  and  N2_9 
REMARK    7  A    between atoms: C9_14  and  N4_15 
REMARK    8  A    between atoms: C10_20  and  N6_21 
REMARK    9  A    between atoms: N6_21  and  C11_23 
REMARK   10  A    between atoms: C11_23  and  C12_24 
REMARK   11  A    between atoms: C12_24  and  C13_25 
REMARK   12  A    between atoms: C13_25  and  C14_26 
REMARK   13  A    between atoms: C14_26  and  N8_30 
REMARK   14  A    between atoms: N8_30  and  C16_32 
ROOT
HETATM    1  N2  UNL     1      -3.567  -0.538  -0.121  1.00  0.00    -0.225 N 
ATOM      2  H2  UNL     1      -4.345  -0.576  -0.780  1.00  0.00     0.177 HD
HETATM    3  C8  UNL     1      -2.448  -0.828  -0.662  1.00  0.00     0.707 A 
HETATM    4  N3  UNL     1      -2.431  -1.137  -2.001  1.00  0.00    -0.022 N 
ATOM      5  H3  UNL     1      -3.303  -1.125  -2.531  1.00  0.00     0.203 HD
HETATM    6  C9  UNL     1      -1.299  -1.450  -2.614  1.00  0.00     0.705 A 
HETATM    7  N5  UNL     1      -0.120  -1.479  -1.938  1.00  0.00    -0.021 N 
ATOM      8  H5  UNL     1       0.741  -1.724  -2.427  1.00  0.00     0.203 HD
HETATM    9  C10 UNL     1      -0.085  -1.186  -0.630  1.00  0.00     0.710 A 
HETATM   10  N11 UNL     1      -1.288  -0.859  -0.021  1.00  0.00    -0.021 N 
ATOM     11  H11 UNL     1      -1.279  -0.630   0.973  1.00  0.00     0.203 HD
ENDROOT
BRANCH   9  12
HETATM   12  N6  UNL     1       0.922  -1.215   0.064  1.00  0.00    -0.204 N 
ATOM     13  H6  UNL     1       0.609  -0.938   0.995  1.00  0.00     0.183 HD
BRANCH  12  14
HETATM   14  C11 UNL     1       2.266  -1.440   0.194  1.00  0.00     0.079 C 
BRANCH  14  15
HETATM   15  C12 UNL     1       3.206  -1.079  -0.915  1.00  0.00     0.052 C 
BRANCH  15  16
HETATM   16  C13 UNL     1       4.645  -1.443  -0.666  1.00  0.00     0.081 C 
BRANCH  16  17
HETATM   17  C14 UNL     1       5.329  -0.917   0.474  1.00  0.00     0.078 C 
HETATM   18  N7  UNL     1       5.728  -1.686   1.439  1.00  0.00    -0.384 N 
HETATM   19  C15 UNL     1       5.512  -3.095   1.423  1.00  0.00     0.147 C 
ATOM     20  H7  UNL     1       6.212  -1.270   2.235  1.00  0.00     0.160 HD
BRANCH  17  21
HETATM   21  N8  UNL     1       5.633   0.491   0.619  1.00  0.00    -0.330 N 
ATOM     22  H8  UNL     1       4.939   1.209   0.824  1.00  0.00     0.168 HD
BRANCH  21  23
HETATM   23  C16 UNL     1       7.089   0.761   0.431  1.00  0.00     0.145 A 
HETATM   24  N9  UNL     1       7.182   2.292   0.751  1.00  0.00    -0.282 N 
HETATM   25  N10 UNL     1       8.437   2.243   0.529  1.00  0.00    -0.296 N 
ATOM     26  H9  UNL     1       6.520   3.019   1.022  1.00  0.00     0.189 HD
HETATM   27  C17 UNL     1       9.519   3.248   0.590  1.00  0.00     0.177 C 
HETATM   28  C18 UNL     1       8.300   0.987   0.275  1.00  0.00     0.069 A 
HETATM   29  C19 UNL     1       9.388  -0.073  -0.097  1.00  0.00     0.074 C 
ENDBRANCH  21  23
ENDBRANCH  17  21
ENDBRANCH  16  17
ENDBRANCH  15  16
ENDBRANCH  14  15
ENDBRANCH  12  14
ENDBRANCH   9  12
BRANCH   6  30
HETATM   30  N4  UNL     1      -1.274  -1.737  -3.893  1.00  0.00    -0.234 N 
ATOM     31  H42 UNL     1      -2.159  -1.715  -4.400  1.00  0.00     0.174 HD
ATOM     32  H41 UNL     1      -0.402  -1.978  -4.365  1.00  0.00     0.174 HD
ENDBRANCH   6  30
BRANCH   1  33
HETATM   33  C7  UNL     1      -3.971  -0.179   1.175  1.00  0.00     0.139 C 
BRANCH  33  34
HETATM   34  C6  UNL     1      -4.971   0.989   1.113  1.00  0.00     0.040 C 
BRANCH  34  35
HETATM   35  C5  UNL     1      -6.192   0.563   0.318  1.00  0.00     0.123 C 
BRANCH  35  36
HETATM   36  N1  UNL     1      -7.184   1.591   0.163  1.00  0.00    -0.394 N 
BRANCH  36  37
HETATM   37  C2  UNL     1      -7.867   2.010   1.323  1.00  0.00     0.053 C 
HETATM   38  C1  UNL     1      -8.785   1.016   1.980  1.00  0.00     0.054 C 
ENDBRANCH  36  37
BRANCH  36  39
HETATM   39  C3  UNL     1      -7.981   1.383  -1.026  1.00  0.00     0.117 C 
HETATM   40  C4  UNL     1      -8.897   0.221  -0.957  1.00  0.00     0.026 C 
ENDBRANCH  36  39
ENDBRANCH  35  36
ENDBRANCH  34  35
ENDBRANCH  33  34
ENDBRANCH   1  33
TORSDOF 14
