REMARK  15 active torsions:
REMARK  status: ('A' for Active; 'I' for Inactive)
REMARK    1  A    between atoms: N1_1  and  C1_5 
REMARK    2  A    between atoms: C1_5  and  C2_6 
REMARK    3  A    between atoms: C1_5  and  C7_11 
REMARK    4  A    between atoms: C7_11  and  O1_12 
REMARK    5  A    between atoms: C7_11  and  C8_14 
REMARK    6  A    between atoms: C8_14  and  O2_15 
REMARK    7  A    between atoms: C8_14  and  C9_17 
REMARK    8  A    between atoms: C9_17  and  C10_18 
REMARK    9  A    between atoms: C10_18  and  C11_19 
REMARK   10  A    between atoms: C11_19  and  C12_20 
REMARK   11  A    between atoms: C13_21  and  C14_22 
REMARK   12  A    between atoms: C14_22  and  C15_23 
REMARK   13  A    between atoms: C15_23  and  C16_24 
REMARK   14  A    between atoms: C16_24  and  C17_25 
REMARK   15  A    between atoms: C18_29  and  C19_30 
ROOT
HETATM    1  C10 UNL     1       0.650   1.697   0.470  1.00  0.00     0.128 C 
HETATM    2  O5  UNL     1      -0.069   2.740   1.140  1.00  0.00    -0.356 OA
HETATM    3  C18 UNL     1      -0.102   3.800   0.280  1.00  0.00     0.230 C 
HETATM    4  C20 UNL     1       1.159   3.775  -0.548  1.00  0.00     0.124 C 
HETATM    5  C21 UNL     1       1.812   2.536  -0.039  1.00  0.00     0.164 C 
HETATM    6  O8  UNL     1       2.984   2.339  -0.067  1.00  0.00    -0.295 OA
ENDROOT
BRANCH   1   7
HETATM    7  C9  UNL     1      -0.130   1.136  -0.616  1.00  0.00     0.080 C 
BRANCH   7   8
HETATM    8  C8  UNL     1      -1.392   0.413  -0.559  1.00  0.00     0.152 C 
BRANCH   8   9
HETATM    9  C7  UNL     1      -1.580  -0.854   0.155  1.00  0.00     0.177 C 
BRANCH   9  10
HETATM   10  C1  UNL     1      -2.755  -1.695  -0.342  1.00  0.00     0.218 C 
BRANCH  10  11
HETATM   11  N1  UNL     1      -2.427  -3.044   0.236  1.00  0.00    -0.072 N 
ATOM     12  H13 UNL     1      -2.415  -3.060   1.256  1.00  0.00     0.274 HD
ATOM     13  H12 UNL     1      -3.169  -3.733   0.113  1.00  0.00     0.274 HD
ATOM     14  H11 UNL     1      -1.540  -3.317  -0.188  1.00  0.00     0.274 HD
ENDBRANCH  10  11
BRANCH  10  15
HETATM   15  C2  UNL     1      -4.070  -1.290   0.287  1.00  0.00     0.018 C 
HETATM   16  C3  UNL     1      -5.140  -2.331  -0.032  1.00  0.00     0.007 C 
HETATM   17  C4  UNL     1      -6.083  -1.618  -0.970  1.00  0.00     0.000 C 
HETATM   18  C5  UNL     1      -6.139  -0.251  -0.283  1.00  0.00     0.000 C 
HETATM   19  C6  UNL     1      -4.623   0.018  -0.193  1.00  0.00     0.007 C 
ENDBRANCH  10  15
ENDBRANCH   9  10
BRANCH   9  20
HETATM   20  O1  UNL     1      -1.669  -0.858   1.529  1.00  0.00    -0.391 OA
ATOM     21  H1  UNL     1      -0.938  -0.335   1.838  1.00  0.00     0.210 HD
ENDBRANCH   9  20
ENDBRANCH   8   9
BRANCH   8  22
HETATM   22  O2  UNL     1      -1.567   0.001  -1.971  1.00  0.00    -0.393 OA
ATOM     23  H2  UNL     1      -1.445   0.822  -2.434  1.00  0.00     0.210 HD
ENDBRANCH   8  22
ENDBRANCH   7   8
ENDBRANCH   1   7
BRANCH   1  24
HETATM   24  C11 UNL     1       1.196   0.748   1.467  1.00  0.00     0.073 C 
BRANCH  24  25
HETATM   25  C12 UNL     1       2.082  -0.276   0.803  1.00  0.00    -0.027 C 
HETATM   26  C13 UNL     1       3.351  -0.427   1.128  1.00  0.00    -0.030 C 
BRANCH  26  27
HETATM   27  C14 UNL     1       4.181  -1.455   0.441  1.00  0.00     0.027 C 
BRANCH  27  28
HETATM   28  C15 UNL     1       5.351  -0.830  -0.269  1.00  0.00     0.014 C 
BRANCH  28  29
HETATM   29  C16 UNL     1       6.210  -1.826  -0.974  1.00  0.00     0.113 C 
BRANCH  29  30
HETATM   30  C17 UNL     1       6.809  -2.851  -0.099  1.00  0.00     0.172 C 
HETATM   31  O3  UNL     1       6.153  -3.853   0.256  1.00  0.00    -0.648 OA
HETATM   32  O4  UNL     1       8.109  -2.714   0.340  1.00  0.00    -0.648 OA
ENDBRANCH  29  30
ENDBRANCH  28  29
ENDBRANCH  27  28
ENDBRANCH  26  27
ENDBRANCH  24  25
ENDBRANCH   1  24
BRANCH   3  33
HETATM   33  C19 UNL     1      -0.235   5.091   1.004  1.00  0.00     0.203 C 
HETATM   34  O6  UNL     1      -0.284   6.206   0.430  1.00  0.00    -0.646 OA
HETATM   35  O7  UNL     1      -0.309   5.082   2.390  1.00  0.00    -0.646 OA
ENDBRANCH   3  33
TORSDOF 15
