REMARK  16 active torsions:
REMARK  status: ('A' for Active; 'I' for Inactive)
REMARK    1  A    between atoms: C2_2  and  C3_3 
REMARK    2  A    between atoms: C3_3  and  C4_4 
REMARK    3  A    between atoms: C4_4  and  C5_5 
REMARK    4  A    between atoms: C5_5  and  C6_6 
REMARK    5  A    between atoms: C6_6  and  C7_7 
REMARK    6  A    between atoms: C7_7  and  C8_8 
REMARK    7  A    between atoms: C8_8  and  C9_9 
REMARK    8  A    between atoms: C9_9  and  C10_10 
REMARK    9  A    between atoms: C10_10  and  N1_11 
REMARK   10  A    between atoms: N1_11  and  C11_13 
REMARK   11  A    between atoms: C12_16  and  N3_17 
REMARK   12  A    between atoms: N3_17  and  C13_19 
REMARK   13  A    between atoms: C13_19  and  C14_20 
REMARK   14  A    between atoms: C14_20  and  N4_21 
REMARK   15  A    between atoms: C19_29  and  N6_30 
REMARK   16  A    between atoms: N6_30  and  N7_32 
REMARK       I    between atoms: N7_32  and  C20_34 
ROOT
HETATM    1  C11 UNL     1      -0.188  -1.531   0.481  1.00  0.00     0.707 A 
HETATM    2  N2  UNL     1      -0.834  -0.653  -0.335  1.00  0.00    -0.022 N 
ATOM      3  H2  UNL     1      -0.325   0.112  -0.777  1.00  0.00     0.203 HD
HETATM    4  C12 UNL     1      -2.159  -0.809  -0.552  1.00  0.00     0.707 A 
HETATM    5  N5  UNL     1      -2.840  -1.818   0.026  1.00  0.00    -0.020 N 
ATOM      6  H5  UNL     1      -3.839  -1.920  -0.150  1.00  0.00     0.203 HD
HETATM    7  C19 UNL     1      -2.214  -2.690   0.832  1.00  0.00     0.726 A 
HETATM    8  N10 UNL     1      -0.899  -2.513   1.032  1.00  0.00    -0.020 N 
ATOM      9  H10 UNL     1      -0.415  -3.170   1.643  1.00  0.00     0.203 HD
ENDROOT
BRANCH   1  10
HETATM   10  N1  UNL     1       1.075  -1.329   0.649  1.00  0.00    -0.225 N 
ATOM     11  H1  UNL     1       1.551  -0.552   0.191  1.00  0.00     0.177 HD
BRANCH  10  12
HETATM   12  C10 UNL     1       1.792  -2.245   1.511  1.00  0.00     0.138 C 
BRANCH  12  13
HETATM   13  C9  UNL     1       3.307  -2.104   1.298  1.00  0.00     0.020 C 
BRANCH  13  14
HETATM   14  C8  UNL     1       3.613  -2.425  -0.149  1.00  0.00     0.002 C 
BRANCH  14  15
HETATM   15  C7  UNL     1       5.053  -2.328  -0.482  1.00  0.00     0.000 C 
BRANCH  15  16
HETATM   16  C6  UNL     1       5.670  -0.980  -0.271  1.00  0.00     0.000 C 
BRANCH  16  17
HETATM   17  C5  UNL     1       5.065   0.114  -1.063  1.00  0.00     0.000 C 
BRANCH  17  18
HETATM   18  C4  UNL     1       5.759   1.427  -0.791  1.00  0.00     0.000 C 
BRANCH  18  19
HETATM   19  C3  UNL     1       5.699   1.870   0.638  1.00  0.00    -0.000 C 
BRANCH  19  20
HETATM   20  C2  UNL     1       6.437   3.193   0.725  1.00  0.00    -0.005 C 
HETATM   21  C1  UNL     1       5.790   4.229  -0.166  1.00  0.00     0.005 C 
ENDBRANCH  19  20
ENDBRANCH  18  19
ENDBRANCH  17  18
ENDBRANCH  16  17
ENDBRANCH  15  16
ENDBRANCH  14  15
ENDBRANCH  13  14
ENDBRANCH  12  13
ENDBRANCH  10  12
ENDBRANCH   1  10
BRANCH   4  22
HETATM   22  N3  UNL     1      -2.708   0.040  -1.320  1.00  0.00    -0.224 N 
ATOM     23  H3  UNL     1      -2.092   0.759  -1.699  1.00  0.00     0.177 HD
BRANCH  22  24
HETATM   24  C13 UNL     1      -4.073   0.119  -1.722  1.00  0.00     0.157 C 
BRANCH  24  25
HETATM   25  C14 UNL     1      -4.887   0.835  -0.701  1.00  0.00     0.137 C 
BRANCH  25  26
HETATM   26  N4  UNL     1      -4.474   2.175  -0.445  1.00  0.00    -0.407 N 
HETATM   27  C15 UNL     1      -5.259   2.857   0.538  1.00  0.00     0.143 C 
HETATM   28  C16 UNL     1      -4.637   4.200   0.874  1.00  0.00     0.187 C 
HETATM   29  O1  UNL     1      -4.418   4.958  -0.274  1.00  0.00    -0.388 OA
HETATM   30  C17 UNL     1      -4.815   4.328  -1.428  1.00  0.00     0.187 C 
HETATM   31  C18 UNL     1      -4.156   2.953  -1.591  1.00  0.00     0.143 C 
ENDBRANCH  25  26
ENDBRANCH  24  25
ENDBRANCH  22  24
ENDBRANCH   4  22
BRANCH   7  32
HETATM   32  N6  UNL     1      -2.875  -3.650   1.379  1.00  0.00    -0.129 N 
ATOM     33  H6  UNL     1      -2.372  -4.297   1.986  1.00  0.00     0.205 HD
BRANCH  32  34
HETATM   34  N7  UNL     1      -4.222  -3.851   1.189  1.00  0.00    -0.260 N 
HETATM   35  C20 UNL     1      -4.653  -4.868   0.310  1.00  0.00     0.201 C 
HETATM   36  N8  UNL     1      -5.121  -5.958   0.808  1.00  0.00    -0.372 N 
HETATM   37  N9  UNL     1      -4.583  -4.721  -1.089  1.00  0.00    -0.062 NA
ATOM     38  H82 UNL     1      -5.172  -6.064   1.821  1.00  0.00     0.158 HD
ATOM     39  H81 UNL     1      -5.432  -6.693   0.173  1.00  0.00     0.158 HD
ATOM     40  H7  UNL     1      -4.903  -3.271   1.679  1.00  0.00     0.190 HD
ENDBRANCH  32  34
ENDBRANCH   7  32
TORSDOF 16
