REMARK  17 active torsions:
REMARK  status: ('A' for Active; 'I' for Inactive)
REMARK    1  A    between atoms: C2_2  and  C3_3 
REMARK    2  A    between atoms: C3_3  and  C4_4 
REMARK    3  A    between atoms: C4_4  and  C5_5 
REMARK    4  A    between atoms: C5_5  and  C6_6 
REMARK    5  A    between atoms: C6_6  and  C7_7 
REMARK    6  A    between atoms: C7_7  and  C8_8 
REMARK    7  A    between atoms: C8_8  and  C9_9 
REMARK    8  A    between atoms: C9_9  and  C10_10 
REMARK    9  A    between atoms: C10_10  and  C11_11 
REMARK   10  A    between atoms: C11_11  and  C12_12 
REMARK       I    between atoms: C12_12  and  N1_14 
REMARK   11  A    between atoms: N1_14  and  C13_16 
REMARK   12  A    between atoms: N3_21  and  C15_22 
REMARK   13  A    between atoms: C15_22  and  C16_23 
REMARK   14  A    between atoms: C16_23  and  C17_24 
REMARK   15  A    between atoms: C18_28  and  O3_29 
REMARK   16  A    between atoms: C19_31  and  O4_32 
REMARK   17  A    between atoms: C20_34  and  O5_35 
ROOT
HETATM    1  C13 UNL     1      -2.179   1.462   0.744  1.00  0.00     0.703 A 
HETATM    2  N2  UNL     1      -2.826   2.257   1.637  1.00  0.00    -0.138 N 
ATOM      3  H2  UNL     1      -2.406   2.778   2.407  1.00  0.00     0.189 HD
HETATM    4  C14 UNL     1      -4.118   2.221   1.308  1.00  0.00     0.355 A 
HETATM    5  O2  UNL     1      -5.007   2.870   1.958  1.00  0.00    -0.244 OA
HETATM    6  N3  UNL     1      -4.301   1.433   0.243  1.00  0.00    -0.228 N 
HETATM    7  N5  UNL     1      -3.095   0.977  -0.086  1.00  0.00    -0.126 N 
ATOM      8  H5  UNL     1      -2.902   0.346  -0.864  1.00  0.00     0.206 HD
ENDROOT
BRANCH   1   9
HETATM    9  N1  UNL     1      -0.934   1.260   0.752  1.00  0.00    -0.158 N 
HETATM   10  C12 UNL     1      -0.146   0.483  -0.087  1.00  0.00     0.235 C 
HETATM   11  O1  UNL     1      -0.589  -0.037  -1.125  1.00  0.00    -0.273 OA
ATOM     12  H1  UNL     1      -0.425   1.744   1.492  1.00  0.00     0.187 HD
BRANCH  10  13
HETATM   13  C11 UNL     1       1.320   0.273   0.302  1.00  0.00     0.103 C 
BRANCH  13  14
HETATM   14  C10 UNL     1       1.972  -0.604  -0.718  1.00  0.00     0.009 C 
BRANCH  14  15
HETATM   15  C9  UNL     1       3.346  -1.034  -0.570  1.00  0.00     0.001 C 
BRANCH  15  16
HETATM   16  C8  UNL     1       4.510  -0.132  -0.511  1.00  0.00     0.004 C 
BRANCH  16  17
HETATM   17  C7  UNL     1       4.666   0.823   0.583  1.00  0.00     0.027 C 
BRANCH  17  18
HETATM   18  C6  UNL     1       5.870   1.679   0.505  1.00  0.00    -0.031 C 
BRANCH  18  19
HETATM   19  C5  UNL     1       7.241   1.215   0.588  1.00  0.00    -0.031 C 
BRANCH  19  20
HETATM   20  C4  UNL     1       7.831   0.268  -0.393  1.00  0.00     0.027 C 
BRANCH  20  21
HETATM   21  C3  UNL     1       9.338   0.082  -0.068  1.00  0.00     0.003 C 
BRANCH  21  22
HETATM   22  C2  UNL     1       9.962  -0.865  -1.038  1.00  0.00    -0.004 C 
HETATM   23  C1  UNL     1       9.340  -2.230  -1.025  1.00  0.00     0.005 C 
ENDBRANCH  21  22
ENDBRANCH  20  21
ENDBRANCH  19  20
ENDBRANCH  18  19
ENDBRANCH  17  18
ENDBRANCH  16  17
ENDBRANCH  15  16
ENDBRANCH  14  15
ENDBRANCH  13  14
ENDBRANCH  10  13
ENDBRANCH   1   9
BRANCH   6  24
HETATM   24  C15 UNL     1      -5.553   1.143  -0.413  1.00  0.00     0.156 C 
BRANCH  24  25
HETATM   25  C16 UNL     1      -6.151  -0.076   0.240  1.00  0.00     0.058 C 
BRANCH  25  26
HETATM   26  C17 UNL     1      -7.473  -0.463  -0.381  1.00  0.00     0.221 C 
HETATM   27  N4  UNL     1      -8.455   0.590  -0.272  1.00  0.00    -0.040 N 
HETATM   28  C18 UNL     1      -9.685  -0.087  -0.642  1.00  0.00     0.350 C 
ATOM     29  H42 UNL     1      -8.480   1.061   0.633  1.00  0.00     0.280 HD
ATOM     30  H41 UNL     1      -8.247   1.428  -0.815  1.00  0.00     0.280 HD
HETATM   31  C19 UNL     1      -9.567  -1.416   0.070  1.00  0.00     0.205 C 
HETATM   32  C20 UNL     1      -8.097  -1.580   0.396  1.00  0.00     0.181 C 
BRANCH  28  33
HETATM   33  O3  UNL     1      -9.803  -0.236  -2.027  1.00  0.00    -0.368 OA
ATOM     34  H3  UNL     1     -10.608  -0.679  -2.269  1.00  0.00     0.212 HD
ENDBRANCH  28  33
BRANCH  31  35
HETATM   35  O4  UNL     1     -10.284  -1.340   1.275  1.00  0.00    -0.389 OA
ATOM     36  H4  UNL     1     -10.210  -2.175   1.722  1.00  0.00     0.210 HD
ENDBRANCH  31  35
BRANCH  32  37
HETATM   37  O5  UNL     1      -7.659  -2.817  -0.054  1.00  0.00    -0.391 OA
ATOM     38  H5  UNL     1      -8.055  -3.526   0.439  1.00  0.00     0.210 HD
ENDBRANCH  32  37
ENDBRANCH  25  26
ENDBRANCH  24  25
ENDBRANCH   6  24
TORSDOF 17
