REMARK  20 active torsions:
REMARK  status: ('A' for Active; 'I' for Inactive)
REMARK    1  A    between atoms: C1_2  and  C2_3 
REMARK       I    between atoms: C1_2  and  N1_26 
REMARK    2  A    between atoms: C2_3  and  C3_4 
REMARK    3  A    between atoms: C3_4  and  C4_5 
REMARK    4  A    between atoms: C4_5  and  C5_6 
REMARK    5  A    between atoms: C5_6  and  C6_7 
REMARK    6  A    between atoms: C6_7  and  C7_8 
REMARK    7  A    between atoms: C7_8  and  C8_9 
REMARK    8  A    between atoms: C8_9  and  C9_10 
REMARK    9  A    between atoms: C9_10  and  C10_11 
REMARK   10  A    between atoms: C10_11  and  C11_12 
REMARK   11  A    between atoms: C11_12  and  C12_13 
REMARK   12  A    between atoms: C12_13  and  C13_14 
REMARK   13  A    between atoms: C13_14  and  C14_15 
REMARK   14  A    between atoms: C14_15  and  C15_16 
REMARK   15  A    between atoms: C18_19  and  O2_20 
REMARK   16  A    between atoms: C19_22  and  O3_23 
REMARK   17  A    between atoms: C22_28  and  O4_29 
REMARK   18  A    between atoms: C23_31  and  O5_32 
REMARK   19  A    between atoms: C24_34  and  O6_35 
REMARK   20  A    between atoms: C25_37  and  O7_38 
ROOT
HETATM    1  C5  UNL     1       2.109  -0.955   3.395  1.00  0.00    -0.031 C 
ENDROOT
BRANCH   1   2
HETATM    2  C4  UNL     1       3.523  -0.773   3.694  1.00  0.00    -0.030 C 
BRANCH   2   3
HETATM    3  C3  UNL     1       4.324   0.362   3.270  1.00  0.00     0.036 C 
BRANCH   3   4
HETATM    4  C2  UNL     1       4.501   0.589   1.817  1.00  0.00     0.107 C 
BRANCH   4   5
HETATM    5  C1  UNL     1       5.163  -0.573   1.164  1.00  0.00     0.222 C 
HETATM    6  O1  UNL     1       5.622  -1.567   1.793  1.00  0.00    -0.273 OA
HETATM    7  N1  UNL     1       5.301  -0.589  -0.241  1.00  0.00    -0.321 N 
HETATM    8  C21 UNL     1       4.774   0.532  -0.997  1.00  0.00     0.163 C 
HETATM    9  C25 UNL     1       5.963  -1.692  -0.884  1.00  0.00     0.254 C 
HETATM   10  C22 UNL     1       5.583   0.758  -2.251  1.00  0.00     0.167 C 
HETATM   11  C23 UNL     1       6.948   0.160  -2.181  1.00  0.00     0.181 C 
HETATM   12  C24 UNL     1       7.037  -1.274  -1.825  1.00  0.00     0.198 C 
BRANCH  10  13
HETATM   13  O4  UNL     1       5.719   2.121  -2.503  1.00  0.00    -0.391 OA
ATOM     14  H4  UNL     1       6.228   2.263  -3.292  1.00  0.00     0.210 HD
ENDBRANCH  10  13
BRANCH  11  15
HETATM   15  O5  UNL     1       7.819   0.943  -1.387  1.00  0.00    -0.390 OA
ATOM     16  H5  UNL     1       8.688   0.562  -1.342  1.00  0.00     0.210 HD
ENDBRANCH  11  15
BRANCH  12  17
HETATM   17  O6  UNL     1       7.148  -2.076  -2.961  1.00  0.00    -0.389 OA
ATOM     18  H6  UNL     1       7.205  -2.996  -2.733  1.00  0.00     0.210 HD
ENDBRANCH  12  17
BRANCH   9  19
HETATM   19  O7  UNL     1       4.992  -2.432  -1.582  1.00  0.00    -0.374 OA
ATOM     20  H7  UNL     1       5.429  -3.161  -2.007  1.00  0.00     0.212 HD
ENDBRANCH   9  19
ENDBRANCH   4   5
ENDBRANCH   3   4
ENDBRANCH   2   3
ENDBRANCH   1   2
BRANCH   1  21
HETATM   21  C6  UNL     1       1.598  -1.073   2.022  1.00  0.00     0.027 C 
BRANCH  21  22
HETATM   22  C7  UNL     1       0.084  -1.327   1.990  1.00  0.00     0.004 C 
BRANCH  22  23
HETATM   23  C8  UNL     1      -0.716  -0.252   2.629  1.00  0.00     0.000 C 
BRANCH  23  24
HETATM   24  C9  UNL     1      -0.522   1.104   1.998  1.00  0.00     0.000 C 
BRANCH  24  25
HETATM   25  C10 UNL     1      -0.903   1.125   0.548  1.00  0.00     0.000 C 
BRANCH  25  26
HETATM   26  C11 UNL     1      -2.348   0.773   0.310  1.00  0.00     0.000 C 
BRANCH  26  27
HETATM   27  C12 UNL     1      -3.299   1.714   0.991  1.00  0.00     0.000 C 
BRANCH  27  28
HETATM   28  C13 UNL     1      -4.709   1.269   0.690  1.00  0.00     0.000 C 
BRANCH  28  29
HETATM   29  C14 UNL     1      -5.031   1.259  -0.776  1.00  0.00     0.005 C 
BRANCH  29  30
HETATM   30  C15 UNL     1      -6.486   0.794  -0.897  1.00  0.00    -0.012 C 
HETATM   31  C16 UNL     1      -6.608  -0.586  -0.303  1.00  0.00     0.007 C 
HETATM   32  C17 UNL     1      -7.691  -1.408  -0.945  1.00  0.00     0.034 C 
HETATM   33  C18 UNL     1      -7.339  -1.714  -2.383  1.00  0.00     0.147 C 
HETATM   34  C19 UNL     1      -6.344  -0.675  -2.846  1.00  0.00     0.147 C 
HETATM   35  C20 UNL     1      -6.789   0.692  -2.374  1.00  0.00     0.039 C 
BRANCH  33  36
HETATM   36  O2  UNL     1      -6.847  -3.007  -2.530  1.00  0.00    -0.393 OA
ATOM     37  H2  UNL     1      -6.626  -3.199  -3.434  1.00  0.00     0.210 HD
ENDBRANCH  33  36
BRANCH  34  38
HETATM   38  O3  UNL     1      -6.326  -0.689  -4.253  1.00  0.00    -0.393 OA
ATOM     39  H3  UNL     1      -5.701  -0.036  -4.544  1.00  0.00     0.210 HD
ENDBRANCH  34  38
ENDBRANCH  29  30
ENDBRANCH  28  29
ENDBRANCH  27  28
ENDBRANCH  26  27
ENDBRANCH  25  26
ENDBRANCH  24  25
ENDBRANCH  23  24
ENDBRANCH  22  23
ENDBRANCH  21  22
ENDBRANCH   1  21
TORSDOF 20
