REMARK  19 active torsions:
REMARK  status: ('A' for Active; 'I' for Inactive)
REMARK    1  A    between atoms: N1_1  and  C1_4 
REMARK    2  A    between atoms: C2_7  and  C3_8 
REMARK    3  A    between atoms: C3_8  and  O1_9 
REMARK    4  A    between atoms: C3_8  and  O2_11 
REMARK    5  A    between atoms: C4_13  and  C5_14 
REMARK    6  A    between atoms: C5_14  and  C6_15 
REMARK    7  A    between atoms: C6_15  and  C7_16 
REMARK    8  A    between atoms: C7_16  and  C8_17 
REMARK    9  A    between atoms: C8_17  and  C9_18 
REMARK   10  A    between atoms: C9_18  and  N3_19 
REMARK   11  A    between atoms: N3_19  and  C10_21 
REMARK   12  A    between atoms: C10_21  and  N4_23 
REMARK   13  A    between atoms: N4_23  and  C11_25 
REMARK   14  A    between atoms: C11_25  and  C12_26 
REMARK   15  A    between atoms: C12_26  and  C13_27 
REMARK   16  A    between atoms: C13_27  and  C14_28 
REMARK   17  A    between atoms: C14_28  and  C15_29 
REMARK   18  A    between atoms: C15_29  and  C16_30 
REMARK   19  A    between atoms: C16_30  and  N5_31 
ROOT
HETATM    1  N3  UNL     1      -1.542   0.907   1.849  1.00  0.00    -0.367 N 
ATOM      2  H3  UNL     1      -2.019   1.717   2.246  1.00  0.00     0.161 HD
ENDROOT
BRANCH   1   3
HETATM    3  C9  UNL     1      -1.861   0.449   0.513  1.00  0.00     0.122 C 
BRANCH   3   4
HETATM    4  C8  UNL     1      -2.874   1.354  -0.140  1.00  0.00     0.020 C 
BRANCH   4   5
HETATM    5  C7  UNL     1      -4.137   1.373   0.654  1.00  0.00     0.002 C 
BRANCH   5   6
HETATM    6  C6  UNL     1      -5.187   2.293   0.028  1.00  0.00     0.005 C 
BRANCH   6   7
HETATM    7  C5  UNL     1      -5.573   1.872  -1.338  1.00  0.00     0.048 C 
BRANCH   7   8
HETATM    8  C4  UNL     1      -6.192   0.517  -1.446  1.00  0.00     0.014 A 
HETATM    9  C2  UNL     1      -7.478   0.075  -1.339  1.00  0.00     0.079 A 
HETATM   10  N2  UNL     1      -7.697  -1.214  -1.426  1.00  0.00    -0.335 N 
HETATM   11  C1  UNL     1      -6.671  -2.032  -1.615  1.00  0.00     0.143 A 
ATOM     12  H2  UNL     1      -8.645  -1.583  -1.349  1.00  0.00     0.168 HD
HETATM   13  S2  UNL     1      -5.339  -0.980  -1.677  1.00  0.00    -0.057 SA
BRANCH   9  14
HETATM   14  C3  UNL     1      -8.634   1.060  -1.189  1.00  0.00     0.306 C 
BRANCH  14  15
HETATM   15  O1  UNL     1      -8.407   2.043  -0.281  1.00  0.00    -0.366 OA
ATOM     16  H1  UNL     1      -9.127   2.656  -0.188  1.00  0.00     0.213 HD
ENDBRANCH  14  15
BRANCH  14  17
HETATM   17  O2  UNL     1      -8.926   1.576  -2.477  1.00  0.00    -0.366 OA
ATOM     18  H2  UNL     1      -9.646   2.189  -2.384  1.00  0.00     0.213 HD
ENDBRANCH  14  17
ENDBRANCH   9  14
BRANCH  11  19
HETATM   19  N1  UNL     1      -6.699  -3.351  -1.726  1.00  0.00    -0.380 N 
ATOM     20  H12 UNL     1      -7.499  -3.983  -1.689  1.00  0.00     0.158 HD
ATOM     21  H11 UNL     1      -5.910  -3.980  -1.871  1.00  0.00     0.158 HD
ENDBRANCH  11  19
ENDBRANCH   7   8
ENDBRANCH   6   7
ENDBRANCH   5   6
ENDBRANCH   4   5
ENDBRANCH   3   4
ENDBRANCH   1   3
BRANCH   1  22
HETATM   22  C10 UNL     1      -0.547   0.207   2.606  1.00  0.00     0.167 C 
HETATM   23  S1  UNL     1      -0.185   0.717   4.127  1.00  0.00    -0.041 SA
BRANCH  22  24
HETATM   24  N4  UNL     1       0.099  -0.911   2.034  1.00  0.00    -0.367 N 
ATOM     25  H4  UNL     1      -0.163  -1.206   1.093  1.00  0.00     0.161 HD
BRANCH  24  26
HETATM   26  C11 UNL     1       1.104  -1.638   2.730  1.00  0.00     0.122 C 
BRANCH  26  27
HETATM   27  C12 UNL     1       2.400  -0.968   2.983  1.00  0.00     0.020 C 
BRANCH  27  28
HETATM   28  C13 UNL     1       3.207  -0.543   1.796  1.00  0.00     0.002 C 
BRANCH  28  29
HETATM   29  C14 UNL     1       2.596   0.438   0.885  1.00  0.00     0.002 C 
BRANCH  29  30
HETATM   30  C15 UNL     1       3.486   0.902  -0.212  1.00  0.00     0.020 C 
BRANCH  30  31
HETATM   31  C16 UNL     1       4.014  -0.087  -1.175  1.00  0.00     0.121 C 
BRANCH  31  32
HETATM   32  N5  UNL     1       4.863  -1.078  -0.620  1.00  0.00    -0.380 N 
HETATM   33  C17 UNL     1       6.150  -1.047  -0.589  1.00  0.00     0.072 C 
HETATM   34  C18 UNL     1       6.838   0.121  -1.181  1.00  0.00     0.076 C 
HETATM   35  N6  UNL     1       6.824  -2.140   0.016  1.00  0.00    -0.380 N 
HETATM   36  C19 UNL     1       8.344   0.010  -1.048  1.00  0.00     0.009 C 
HETATM   37  C20 UNL     1       8.826  -1.417  -1.054  1.00  0.00     0.020 C 
HETATM   38  C21 UNL     1       8.261  -2.101   0.192  1.00  0.00     0.121 C 
ATOM     39  H6  UNL     1       6.295  -2.955   0.327  1.00  0.00     0.160 HD
ATOM     40  H5  UNL     1       4.411  -1.893  -0.206  1.00  0.00     0.160 HD
ENDBRANCH  31  32
ENDBRANCH  30  31
ENDBRANCH  29  30
ENDBRANCH  28  29
ENDBRANCH  27  28
ENDBRANCH  26  27
ENDBRANCH  24  26
ENDBRANCH  22  24
ENDBRANCH   1  22
TORSDOF 19
