REMARK  17 active torsions:
REMARK  status: ('A' for Active; 'I' for Inactive)
REMARK    1  A    between atoms: C4_4  and  N1_5 
REMARK    2  A    between atoms: C5_10  and  C6_11 
REMARK    3  A    between atoms: C6_11  and  C7_12 
REMARK    4  A    between atoms: C7_12  and  C8_13 
REMARK    5  A    between atoms: C8_13  and  C9_14 
REMARK    6  A    between atoms: C9_14  and  C10_15 
REMARK    7  A    between atoms: C10_15  and  C11_16 
REMARK    8  A    between atoms: C11_16  and  C12_17 
REMARK    9  A    between atoms: C13_18  and  O1_19 
REMARK   10  A    between atoms: N3_21  and  C14_22 
REMARK   11  A    between atoms: C14_22  and  C15_23 
REMARK   12  A    between atoms: C15_23  and  C16_24 
REMARK   13  A    between atoms: C16_24  and  C17_25 
REMARK   14  A    between atoms: C17_25  and  C18_26 
REMARK   15  A    between atoms: C18_26  and  C19_27 
REMARK   16  A    between atoms: C19_27  and  N4_28 
REMARK   17  A    between atoms: C24_33  and  N5_34 
ROOT
HETATM    1  C12 UNL     1       0.800  -1.337   1.080  1.00  0.00     0.062 A 
HETATM    2  C13 UNL     1      -0.211  -0.501   0.654  1.00  0.00     0.169 A 
HETATM    3  N3  UNL     1      -1.160  -0.896  -0.204  1.00  0.00    -0.162 N 
HETATM    4  C24 UNL     1      -1.152  -2.146  -0.685  1.00  0.00     0.682 A 
HETATM    5  N6  UNL     1      -0.188  -3.013  -0.306  1.00  0.00    -0.156 N 
ATOM      6  H6  UNL     1      -0.185  -3.964  -0.674  1.00  0.00     0.187 HD
HETATM    7  C25 UNL     1       0.783  -2.618   0.569  1.00  0.00     0.270 A 
HETATM    8  O2  UNL     1       1.665  -3.449   0.901  1.00  0.00    -0.267 OA
ENDROOT
BRANCH   1   9
HETATM    9  C11 UNL     1       1.810  -0.859   2.021  1.00  0.00     0.049 C 
BRANCH   9  10
HETATM   10  C10 UNL     1       2.876   0.029   1.423  1.00  0.00     0.005 C 
BRANCH  10  11
HETATM   11  C9  UNL     1       3.798   0.419   2.529  1.00  0.00     0.000 C 
BRANCH  11  12
HETATM   12  C8  UNL     1       4.933   1.297   2.137  1.00  0.00     0.000 C 
BRANCH  12  13
HETATM   13  C7  UNL     1       5.848   0.700   1.120  1.00  0.00     0.007 C 
BRANCH  13  14
HETATM   14  C6  UNL     1       6.945   1.702   0.839  1.00  0.00     0.076 C 
BRANCH  14  15
HETATM   15  C5  UNL     1       7.934   1.241  -0.149  1.00  0.00     0.082 A 
HETATM   16  N2  UNL     1       7.847   1.446  -1.476  1.00  0.00    -0.332 N 
HETATM   17  C4  UNL     1       8.816   0.973  -2.284  1.00  0.00     0.101 A 
ATOM     18  H2  UNL     1       7.054   1.955  -1.867  1.00  0.00     0.168 HD
HETATM   19  C3  UNL     1       9.901   0.282  -1.790  1.00  0.00     0.072 A 
HETATM   20  C2  UNL     1       9.987   0.074  -0.429  1.00  0.00     0.010 A 
HETATM   21  C1  UNL     1      11.147  -0.676   0.159  1.00  0.00     0.068 C 
HETATM   22  N7  UNL     1       8.998   0.564   0.331  1.00  0.00    -0.350 N 
ATOM     23  H7  UNL     1       9.053   0.415   1.339  1.00  0.00     0.167 HD
BRANCH  17  24
HETATM   24  N1  UNL     1       8.688   1.199  -3.566  1.00  0.00    -0.385 N 
ATOM     25  H12 UNL     1       9.422   0.841  -4.178  1.00  0.00     0.157 HD
ATOM     26  H11 UNL     1       7.885   1.710  -3.932  1.00  0.00     0.157 HD
ENDBRANCH  17  24
ENDBRANCH  14  15
ENDBRANCH  13  14
ENDBRANCH  12  13
ENDBRANCH  11  12
ENDBRANCH  10  11
ENDBRANCH   9  10
ENDBRANCH   1   9
BRANCH   2  27
HETATM   27  O1  UNL     1      -0.228   0.794   1.145  1.00  0.00    -0.345 OA
ATOM     28  H1  UNL     1      -0.924   1.370   0.852  1.00  0.00     0.219 HD
ENDBRANCH   2  27
BRANCH   3  29
HETATM   29  C14 UNL     1      -2.201   0.005  -0.625  1.00  0.00     0.150 C 
BRANCH  29  30
HETATM   30  C15 UNL     1      -3.330  -0.161   0.374  1.00  0.00     0.021 C 
BRANCH  30  31
HETATM   31  C16 UNL     1      -4.501   0.740   0.049  1.00  0.00     0.002 C 
BRANCH  31  32
HETATM   32  C17 UNL     1      -5.073   0.440  -1.309  1.00  0.00     0.002 C 
BRANCH  32  33
HETATM   33  C18 UNL     1      -6.224   1.369  -1.562  1.00  0.00     0.030 C 
BRANCH  33  34
HETATM   34  C19 UNL     1      -7.338   1.237  -0.552  1.00  0.00     0.272 C 
BRANCH  34  35
HETATM   35  N4  UNL     1      -7.913  -0.100  -0.519  1.00  0.00     0.088 N 
HETATM   36  C20 UNL     1      -8.958  -0.130   0.486  1.00  0.00     0.272 C 
HETATM   37  C21 UNL     1      -9.977  -1.122  -0.036  1.00  0.00     0.032 C 
HETATM   38  C22 UNL     1      -9.977  -0.790  -1.505  1.00  0.00     0.032 C 
HETATM   39  C23 UNL     1      -8.535  -0.436  -1.777  1.00  0.00     0.272 C 
ENDBRANCH  34  35
ENDBRANCH  33  34
ENDBRANCH  32  33
ENDBRANCH  31  32
ENDBRANCH  30  31
ENDBRANCH  29  30
ENDBRANCH   3  29
BRANCH   4  40
HETATM   40  N5  UNL     1      -2.043  -2.573  -1.512  1.00  0.00    -0.234 N 
ATOM     41  H52 UNL     1      -2.771  -1.918  -1.798  1.00  0.00     0.174 HD
ATOM     42  H51 UNL     1      -2.037  -3.525  -1.878  1.00  0.00     0.174 HD
ENDBRANCH   4  40
TORSDOF 17
