REMARK  17 active torsions:
REMARK  status: ('A' for Active; 'I' for Inactive)
REMARK    1  A    between atoms: C5_5  and  O1_6 
REMARK    2  A    between atoms: O1_6  and  C6_7 
REMARK    3  A    between atoms: C6_7  and  C7_8 
REMARK    4  A    between atoms: C7_8  and  C8_9 
REMARK    5  A    between atoms: C8_9  and  N1_10 
REMARK    6  A    between atoms: N1_10  and  C9_12 
REMARK    7  A    between atoms: C9_12  and  C10_13 
REMARK    8  A    between atoms: C10_13  and  O2_14 
REMARK    9  A    between atoms: C17_22  and  C18_23 
REMARK   10  A    between atoms: C18_23  and  C19_24 
REMARK   11  A    between atoms: C18_23  and  N2_27 
REMARK   12  A    between atoms: C19_24  and  O3_25 
REMARK   13  A    between atoms: N2_27  and  C20_30 
REMARK   14  A    between atoms: C20_30  and  C21_31 
REMARK   15  A    between atoms: C21_31  and  C22_32 
REMARK   16  A    between atoms: C22_32  and  C23_33 
REMARK   17  A    between atoms: C23_33  and  N3_34 
ROOT
HETATM    1  C1  UNL     1       1.084  -3.138   1.273  1.00  0.00     0.016 C 
HETATM    2  C2  UNL     1       0.876  -1.751   0.614  1.00  0.00    -0.033 C 
HETATM    3  C3  UNL     1       1.423  -0.790   1.644  1.00  0.00     0.013 C 
HETATM    4  C4  UNL     1       2.136   0.389   1.010  1.00  0.00     0.033 C 
HETATM    5  C5  UNL     1       3.394  -0.190   0.384  1.00  0.00     0.121 C 
HETATM    6  C11 UNL     1       3.123  -1.383  -0.460  1.00  0.00     0.037 C 
HETATM    7  C12 UNL     1       1.685  -1.758  -0.643  1.00  0.00    -0.003 C 
HETATM    8  C13 UNL     1       1.139  -0.988  -1.791  1.00  0.00     0.006 C 
HETATM    9  C14 UNL     1      -0.340  -1.065  -1.987  1.00  0.00     0.006 C 
HETATM   10  C15 UNL     1      -1.014  -0.685  -0.696  1.00  0.00    -0.005 C 
HETATM   11  C16 UNL     1      -2.489  -0.731  -0.949  1.00  0.00     0.012 C 
HETATM   12  C17 UNL     1      -3.360  -0.511   0.258  1.00  0.00     0.019 C 
HETATM   13  C24 UNL     1      -2.846  -1.286   1.457  1.00  0.00     0.007 C 
HETATM   14  C25 UNL     1      -1.350  -1.227   1.617  1.00  0.00     0.011 C 
HETATM   15  C26 UNL     1      -0.603  -1.642   0.386  1.00  0.00    -0.033 C 
HETATM   16  C27 UNL     1      -1.070  -3.039  -0.019  1.00  0.00     0.016 C 
ENDROOT
BRANCH  12  17
HETATM   17  C18 UNL     1      -4.764  -0.930  -0.008  1.00  0.00     0.213 C 
BRANCH  17  18
HETATM   18  C19 UNL     1      -5.016  -2.360  -0.317  1.00  0.00     0.197 C 
BRANCH  18  19
HETATM   19  O3  UNL     1      -6.308  -2.550  -0.848  1.00  0.00    -0.399 OA
ATOM     20  H3  UNL     1      -6.469  -3.465  -1.046  1.00  0.00     0.209 HD
ENDBRANCH  18  19
ENDBRANCH  17  18
BRANCH  17  21
HETATM   21  N2  UNL     1      -5.685  -0.395   0.956  1.00  0.00    -0.069 N 
ATOM     22  H22 UNL     1      -6.075  -1.143   1.530  1.00  0.00     0.277 HD
ATOM     23  H21 UNL     1      -5.185   0.132   1.672  1.00  0.00     0.277 HD
BRANCH  21  24
HETATM   24  C20 UNL     1      -6.727   0.395   0.394  1.00  0.00     0.233 C 
BRANCH  24  25
HETATM   25  C21 UNL     1      -6.348   1.712  -0.202  1.00  0.00     0.029 C 
BRANCH  25  26
HETATM   26  C22 UNL     1      -7.562   2.422  -0.801  1.00  0.00     0.029 C 
BRANCH  26  27
HETATM   27  C23 UNL     1      -8.639   2.704   0.208  1.00  0.00     0.229 C 
BRANCH  27  28
HETATM   28  N3  UNL     1      -8.115   3.562   1.247  1.00  0.00    -0.079 N 
ATOM     29  H33 UNL     1      -7.275   3.176   1.678  1.00  0.00     0.274 HD
ATOM     30  H32 UNL     1      -7.706   4.417   0.871  1.00  0.00     0.274 HD
ATOM     31  H31 UNL     1      -8.846   3.753   1.932  1.00  0.00     0.274 HD
ENDBRANCH  27  28
ENDBRANCH  26  27
ENDBRANCH  25  26
ENDBRANCH  24  25
ENDBRANCH  21  24
ENDBRANCH  17  21
ENDBRANCH  12  17
BRANCH   5  32
HETATM   32  O1  UNL     1       4.209   0.772  -0.197  1.00  0.00    -0.386 OA
BRANCH  32  33
HETATM   33  C6  UNL     1       5.412   0.953   0.530  1.00  0.00     0.169 C 
BRANCH  33  34
HETATM   34  C7  UNL     1       6.269   2.011  -0.125  1.00  0.00     0.045 C 
BRANCH  34  35
HETATM   35  C8  UNL     1       7.525   2.174   0.707  1.00  0.00     0.116 C 
BRANCH  35  36
HETATM   36  N1  UNL     1       8.429   3.160   0.190  1.00  0.00    -0.419 N 
ATOM     37  H1  UNL     1       8.593   4.049   0.662  1.00  0.00     0.153 HD
BRANCH  36  38
HETATM   38  C9  UNL     1       9.087   2.812  -1.035  1.00  0.00     0.139 C 
BRANCH  38  39
HETATM   39  C10 UNL     1      10.090   1.684  -0.840  1.00  0.00     0.183 C 
BRANCH  39  40
HETATM   40  O2  UNL     1      10.661   1.438  -2.086  1.00  0.00    -0.399 OA
ATOM     41  H2  UNL     1      11.287   0.734  -1.964  1.00  0.00     0.209 HD
ENDBRANCH  39  40
ENDBRANCH  38  39
ENDBRANCH  36  38
ENDBRANCH  35  36
ENDBRANCH  34  35
ENDBRANCH  33  34
ENDBRANCH  32  33
ENDBRANCH   5  32
TORSDOF 17
