REMARK  15 active torsions:
REMARK  status: ('A' for Active; 'I' for Inactive)
REMARK    1  A    between atoms: C2_2  and  C3_4 
REMARK    2  A    between atoms: C3_4  and  C4_5 
REMARK    3  A    between atoms: C4_5  and  C5_6 
REMARK    4  A    between atoms: C5_6  and  S1_7 
REMARK    5  A    between atoms: S1_7  and  C6_8 
REMARK    6  A    between atoms: S1_7  and  C13_21 
REMARK    7  A    between atoms: C6_8  and  C7_9 
REMARK    8  A    between atoms: C7_9  and  C8_10 
REMARK    9  A    between atoms: C8_10  and  C9_11 
REMARK   10  A    between atoms: C9_11  and  C10_12 
REMARK   11  A    between atoms: C12_15  and  N2_16 
REMARK   12  A    between atoms: C14_23  and  C15_24 
REMARK   13  A    between atoms: C15_24  and  O2_25 
REMARK   14  A    between atoms: C16_27  and  O3_28 
REMARK   15  A    between atoms: C17_30  and  O4_31 
ROOT
HETATM    1  S1  UNL     1      -0.816   0.312   0.461  1.00  0.00    -0.189 SA
ENDROOT
BRANCH   1   2
HETATM    2  C5  UNL     1      -1.612  -1.235   0.131  1.00  0.00     0.066 C 
BRANCH   2   3
HETATM    3  C4  UNL     1      -3.089  -1.121   0.046  1.00  0.00     0.015 C 
BRANCH   3   4
HETATM    4  C3  UNL     1      -3.715  -2.439  -0.277  1.00  0.00     0.054 C 
BRANCH   4   5
HETATM    5  C2  UNL     1      -3.495  -3.533   0.678  1.00  0.00     0.015 C 
HETATM    6  C1  UNL     1      -4.563  -4.018   1.332  1.00  0.00     0.035 C 
HETATM    7  N1  UNL     1      -2.259  -4.158   0.962  1.00  0.00    -0.108 NA
ENDBRANCH   4   5
ENDBRANCH   3   4
ENDBRANCH   2   3
ENDBRANCH   1   2
BRANCH   1   8
HETATM    8  C6  UNL     1       0.944   0.144   0.557  1.00  0.00     0.066 C 
BRANCH   8   9
HETATM    9  C7  UNL     1       1.558  -0.375  -0.691  1.00  0.00     0.010 C 
BRANCH   9  10
HETATM   10  C8  UNL     1       3.048  -0.471  -0.536  1.00  0.00     0.007 C 
BRANCH  10  11
HETATM   11  C9  UNL     1       3.431  -1.380   0.556  1.00  0.00     0.057 C 
BRANCH  11  12
HETATM   12  C10 UNL     1       4.951  -1.490   0.701  1.00  0.00     0.018 A 
HETATM   13  C11 UNL     1       5.436  -2.306   1.682  1.00  0.00     0.078 A 
HETATM   14  S2  UNL     1       7.127  -2.144   1.503  1.00  0.00    -0.064 SA
HETATM   15  C12 UNL     1       7.127  -1.053   0.196  1.00  0.00     0.142 A 
HETATM   16  N3  UNL     1       5.837  -0.857  -0.049  1.00  0.00    -0.340 N 
ATOM     17  H3  UNL     1       5.537  -0.233  -0.798  1.00  0.00     0.167 HD
BRANCH  15  18
HETATM   18  N2  UNL     1       8.141  -0.508  -0.447  1.00  0.00    -0.380 N 
ATOM     19  H22 UNL     1       9.132  -0.659  -0.259  1.00  0.00     0.158 HD
ATOM     20  H21 UNL     1       8.141   0.146  -1.230  1.00  0.00     0.158 HD
ENDBRANCH  15  18
ENDBRANCH  11  12
ENDBRANCH  10  11
ENDBRANCH   9  10
ENDBRANCH   8   9
ENDBRANCH   1   8
BRANCH   1  21
HETATM   21  C13 UNL     1      -1.195   1.556  -0.713  1.00  0.00     0.205 C 
HETATM   22  O1  UNL     1      -2.526   1.873  -0.811  1.00  0.00    -0.363 OA
HETATM   23  C14 UNL     1      -2.598   3.215  -1.186  1.00  0.00     0.178 C 
HETATM   24  C16 UNL     1      -1.607   3.835  -0.192  1.00  0.00     0.181 C 
HETATM   25  C17 UNL     1      -0.470   2.823  -0.291  1.00  0.00     0.187 C 
BRANCH  23  26
HETATM   26  C15 UNL     1      -3.978   3.774  -0.976  1.00  0.00     0.198 C 
BRANCH  26  27
HETATM   27  O2  UNL     1      -3.973   5.105  -1.369  1.00  0.00    -0.398 OA
ATOM     28  H2  UNL     1      -4.845   5.458  -1.236  1.00  0.00     0.209 HD
ENDBRANCH  26  27
ENDBRANCH  23  26
BRANCH  24  29
HETATM   29  O3  UNL     1      -1.224   5.096  -0.574  1.00  0.00    -0.390 OA
ATOM     30  H3  UNL     1      -0.610   5.480   0.041  1.00  0.00     0.210 HD
ENDBRANCH  24  29
BRANCH  25  31
HETATM   31  O4  UNL     1       0.485   3.224  -1.192  1.00  0.00    -0.390 OA
ATOM     32  H4  UNL     1       0.938   4.016  -0.928  1.00  0.00     0.210 HD
ENDBRANCH  25  31
ENDBRANCH   1  21
TORSDOF 15
