REMARK  15 active torsions:
REMARK  status: ('A' for Active; 'I' for Inactive)
REMARK    1  A    between atoms: C2_2  and  N3_14 
REMARK    2  A    between atoms: N1_3  and  C3_5 
REMARK    3  A    between atoms: C3_5  and  C4_6 
REMARK    4  A    between atoms: C4_6  and  C5_7 
REMARK    5  A    between atoms: C5_7  and  N2_8 
REMARK    6  A    between atoms: N3_14  and  C11_16 
REMARK    7  A    between atoms: C11_16  and  C12_17 
REMARK    8  A    between atoms: C12_17  and  C13_18 
REMARK    9  A    between atoms: C14_19  and  C15_20 
REMARK   10  A    between atoms: C15_20  and  C16_21 
REMARK   11  A    between atoms: C17_24  and  C18_25 
REMARK   12  A    between atoms: C18_25  and  O1_26 
REMARK   13  A    between atoms: C19_28  and  O2_29 
REMARK   14  A    between atoms: C20_31  and  O3_32 
REMARK   15  A    between atoms: C21_34  and  O4_35 
ROOT
HETATM    1  C13 UNL     1      -1.881   2.826   1.390  1.00  0.00    -0.029 C 
HETATM    2  C14 UNL     1      -2.539   1.966   0.651  1.00  0.00    -0.028 C 
ENDROOT
BRANCH   1   3
HETATM    3  C12 UNL     1      -0.447   3.140   1.377  1.00  0.00     0.046 C 
BRANCH   3   4
HETATM    4  C11 UNL     1       0.326   2.327   0.394  1.00  0.00     0.124 C 
BRANCH   4   5
HETATM    5  N3  UNL     1       0.260   0.941   0.719  1.00  0.00    -0.380 N 
ATOM      6  H3  UNL     1      -0.242   0.658   1.561  1.00  0.00     0.160 HD
BRANCH   5   7
HETATM    7  C2  UNL     1       0.861  -0.053  -0.078  1.00  0.00     0.072 C 
HETATM    8  C1  UNL     1       0.072  -1.338  -0.202  1.00  0.00     0.088 C 
HETATM    9  N1  UNL     1       1.952  -0.032  -0.691  1.00  0.00    -0.360 N 
ATOM     10  H1  UNL     1       2.147  -0.900  -1.190  1.00  0.00     0.166 HD
BRANCH   9  11
HETATM   11  C3  UNL     1       2.965   0.929  -0.840  1.00  0.00     0.064 C 
BRANCH  11  12
HETATM   12  C4  UNL     1       4.124   0.409  -1.683  1.00  0.00     0.074 C 
BRANCH  12  13
HETATM   13  C5  UNL     1       4.771  -0.810  -1.126  1.00  0.00     0.277 C 
BRANCH  13  14
HETATM   14  N2  UNL     1       5.338  -0.692   0.175  1.00  0.00     0.088 N 
HETATM   15  C6  UNL     1       5.903  -1.979   0.539  1.00  0.00     0.272 C 
HETATM   16  C7  UNL     1       7.161  -2.293  -0.220  1.00  0.00     0.030 C 
HETATM   17  C8  UNL     1       8.198  -1.186  -0.009  1.00  0.00     0.003 C 
HETATM   18  C9  UNL     1       7.555   0.094  -0.524  1.00  0.00     0.030 C 
HETATM   19  C10 UNL     1       6.320   0.331   0.341  1.00  0.00     0.272 C 
ENDBRANCH  13  14
ENDBRANCH  12  13
ENDBRANCH  11  12
ENDBRANCH   9  11
ENDBRANCH   5   7
ENDBRANCH   4   5
ENDBRANCH   3   4
ENDBRANCH   1   3
BRANCH   2  20
HETATM   20  C15 UNL     1      -4.027   1.771   0.802  1.00  0.00     0.054 C 
BRANCH  20  21
HETATM   21  C16 UNL     1      -4.364   0.354   1.178  1.00  0.00     0.111 C 
HETATM   22  N4  UNL     1      -3.942  -0.611   0.226  1.00  0.00    -0.406 N 
HETATM   23  C17 UNL     1      -4.845  -0.930  -0.822  1.00  0.00     0.132 C 
ATOM     24  H4  UNL     1      -3.027  -1.057   0.292  1.00  0.00     0.154 HD
HETATM   25  C19 UNL     1      -6.072  -0.111  -0.938  1.00  0.00     0.173 C 
HETATM   26  C20 UNL     1      -6.675   0.332   0.352  1.00  0.00     0.179 C 
HETATM   27  C21 UNL     1      -5.793   0.159   1.539  1.00  0.00     0.172 C 
BRANCH  23  28
HETATM   28  C18 UNL     1      -5.138  -2.425  -0.744  1.00  0.00     0.191 C 
BRANCH  28  29
HETATM   29  O1  UNL     1      -3.900  -3.068  -0.901  1.00  0.00    -0.399 OA
ATOM     30  H1  UNL     1      -4.082  -3.999  -0.852  1.00  0.00     0.209 HD
ENDBRANCH  28  29
ENDBRANCH  23  28
BRANCH  25  31
HETATM   31  O2  UNL     1      -7.045  -0.901  -1.592  1.00  0.00    -0.391 OA
ATOM     32  H2  UNL     1      -7.833  -0.375  -1.666  1.00  0.00     0.210 HD
ENDBRANCH  25  31
BRANCH  26  33
HETATM   33  O3  UNL     1      -7.891  -0.295   0.629  1.00  0.00    -0.390 OA
ATOM     34  H3  UNL     1      -8.275  -0.013   1.451  1.00  0.00     0.210 HD
ENDBRANCH  26  33
BRANCH  27  35
HETATM   35  O4  UNL     1      -6.186   1.101   2.518  1.00  0.00    -0.391 OA
ATOM     36  H4  UNL     1      -7.099   0.976   2.749  1.00  0.00     0.210 HD
ENDBRANCH  27  35
ENDBRANCH  20  21
ENDBRANCH   2  20
TORSDOF 15
