REMARK  17 active torsions:
REMARK  status: ('A' for Active; 'I' for Inactive)
REMARK    1  A    between atoms: C2_2  and  C3_3 
REMARK    2  A    between atoms: C3_3  and  N1_5 
REMARK    3  A    between atoms: C3_3  and  C5_9 
REMARK    4  A    between atoms: C5_9  and  N2_10 
REMARK    5  A    between atoms: N2_10  and  O1_11 
REMARK    6  A    between atoms: N2_10  and  C6_13 
REMARK    7  A    between atoms: C6_13  and  C7_14 
REMARK    8  A    between atoms: C7_14  and  C8_15 
REMARK    9  A    between atoms: C8_15  and  C9_16 
REMARK   10  A    between atoms: C9_16  and  C10_17 
REMARK   11  A    between atoms: C10_17  and  C11_18 
REMARK   12  A    between atoms: C11_18  and  N3_19 
REMARK   13  A    between atoms: N3_19  and  C12_21 
REMARK   14  A    between atoms: C12_21  and  C13_22 
REMARK   15  A    between atoms: C17_29  and  N5_30 
REMARK   16  A    between atoms: C18_34  and  O2_35 
REMARK   17  A    between atoms: C19_37  and  O3_38 
ROOT
HETATM    1  N3  UNL     1      -2.137   1.776   0.565  1.00  0.00    -0.382 N 
ATOM      2  H3  UNL     1      -2.126   2.795   0.529  1.00  0.00     0.164 HD
ENDROOT
BRANCH   1   3
HETATM    3  C11 UNL     1      -0.927   1.131   0.329  1.00  0.00     0.060 C 
BRANCH   3   4
HETATM    4  C10 UNL     1      -0.328   0.445   1.538  1.00  0.00     0.044 C 
BRANCH   4   5
HETATM    5  C9  UNL     1       0.971  -0.195   1.147  1.00  0.00     0.005 C 
BRANCH   5   6
HETATM    6  C8  UNL     1       1.983   0.764   0.609  1.00  0.00     0.002 C 
BRANCH   6   7
HETATM    7  C7  UNL     1       3.311   0.058   0.286  1.00  0.00     0.022 C 
BRANCH   7   8
HETATM    8  C6  UNL     1       4.209   1.118  -0.256  1.00  0.00     0.155 C 
BRANCH   8   9
HETATM    9  N2  UNL     1       5.526   0.703  -0.592  1.00  0.00    -0.274 N 
BRANCH   9  10
HETATM   10  C5  UNL     1       6.424   0.339   0.426  1.00  0.00     0.127 C 
BRANCH  10  11
HETATM   11  C3  UNL     1       7.785  -0.096   0.048  1.00  0.00     0.153 C 
HETATM   12  C4  UNL     1       8.675   0.985  -0.521  1.00  0.00     0.052 C 
BRANCH  11  13
HETATM   13  C2  UNL     1       7.817  -1.319  -0.818  1.00  0.00     0.039 C 
HETATM   14  C1  UNL     1       9.236  -1.880  -0.906  1.00  0.00     0.008 C 
ENDBRANCH  11  13
BRANCH  11  15
HETATM   15  N1  UNL     1       8.453  -0.490   1.315  1.00  0.00    -0.066 N 
ATOM     16  H13 UNL     1       8.045  -1.315   1.755  1.00  0.00     0.275 HD
ATOM     17  H12 UNL     1       9.388  -0.875   1.183  1.00  0.00     0.275 HD
ATOM     18  H11 UNL     1       8.431   0.342   1.904  1.00  0.00     0.275 HD
ENDBRANCH  11  15
ENDBRANCH  10  11
ENDBRANCH   9  10
BRANCH   9  19
HETATM   19  O1  UNL     1       5.848   0.678  -1.727  1.00  0.00    -0.288 OA
ATOM     20  H1  UNL     1       5.241   0.924  -2.415  1.00  0.00     0.244 HD
ENDBRANCH   9  19
ENDBRANCH   8   9
ENDBRANCH   7   8
ENDBRANCH   6   7
ENDBRANCH   5   6
ENDBRANCH   4   5
ENDBRANCH   3   4
ENDBRANCH   1   3
BRANCH   1  21
HETATM   21  C12 UNL     1      -3.344   1.185   0.841  1.00  0.00     0.067 C 
BRANCH  21  22
HETATM   22  C13 UNL     1      -4.038   0.527  -0.294  1.00  0.00     0.058 C 
HETATM   23  C14 UNL     1      -3.342  -0.588  -0.987  1.00  0.00     0.243 C 
HETATM   24  N4  UNL     1      -4.466  -1.247  -1.700  1.00  0.00    -0.070 N 
HETATM   25  C15 UNL     1      -5.429  -1.352  -0.656  1.00  0.00     0.195 C 
ATOM     26  H42 UNL     1      -4.786  -0.773  -2.545  1.00  0.00     0.277 HD
ATOM     27  H41 UNL     1      -4.233  -2.122  -2.170  1.00  0.00     0.277 HD
HETATM   28  C16 UNL     1      -6.817  -1.580  -1.223  1.00  0.00     0.069 C 
HETATM   29  C20 UNL     1      -5.348  -0.108   0.158  1.00  0.00     0.058 C 
HETATM   30  C17 UNL     1      -7.890  -1.179  -0.230  1.00  0.00     0.216 C 
HETATM   31  C18 UNL     1      -7.820   0.272   0.154  1.00  0.00     0.177 C 
HETATM   32  C19 UNL     1      -6.456   0.870  -0.139  1.00  0.00     0.155 C 
BRANCH  30  33
HETATM   33  N5  UNL     1      -9.178  -1.485  -0.829  1.00  0.00    -0.072 N 
ATOM     34  H53 UNL     1      -9.303  -1.053  -1.745  1.00  0.00     0.274 HD
ATOM     35  H52 UNL     1      -9.256  -2.457  -1.128  1.00  0.00     0.274 HD
ATOM     36  H51 UNL     1      -9.900  -1.215  -0.161  1.00  0.00     0.274 HD
ENDBRANCH  30  33
BRANCH  31  37
HETATM   37  O2  UNL     1      -8.737   1.026  -0.587  1.00  0.00    -0.391 OA
ATOM     38  H2  UNL     1      -8.693   1.943  -0.344  1.00  0.00     0.210 HD
ENDBRANCH  31  37
BRANCH  32  39
HETATM   39  O3  UNL     1      -6.347   1.304  -1.453  1.00  0.00    -0.392 OA
ATOM     40  H3  UNL     1      -5.493   1.678  -1.636  1.00  0.00     0.210 HD
ENDBRANCH  32  39
ENDBRANCH  21  22
ENDBRANCH   1  21
TORSDOF 17
