REMARK  11 active torsions:
REMARK  status: ('A' for Active; 'I' for Inactive)
REMARK    1  A    between atoms: C5_9  and  S1_10 
REMARK    2  A    between atoms: S1_10  and  C6_13 
REMARK    3  A    between atoms: C6_13  and  C7_14 
REMARK    4  A    between atoms: C7_14  and  C8_15 
REMARK    5  A    between atoms: C8_15  and  C9_16 
REMARK    6  A    between atoms: C9_16  and  C10_17 
REMARK    7  A    between atoms: C10_17  and  C11_18 
REMARK    8  A    between atoms: C11_18  and  C12_19 
REMARK    9  A    between atoms: C12_19  and  C13_20 
REMARK   10  A    between atoms: C13_20  and  N3_21 
REMARK   11  A    between atoms: C15_26  and  N6_27 
REMARK       I    between atoms: N6_27  and  C16_29 
ROOT
HETATM    1  N1  UNL     1      -8.037  -0.170  -1.672  1.00  0.00    -0.191 NA
HETATM    2  C1  UNL     1      -7.355  -0.203  -0.740  1.00  0.00     0.103 C 
HETATM    3  C2  UNL     1      -6.539  -0.268   0.446  1.00  0.00     0.088 A 
HETATM    4  C3  UNL     1      -7.154  -0.508   1.679  1.00  0.00     0.116 A 
HETATM    5  N2  UNL     1      -6.477  -0.613   2.827  1.00  0.00    -0.331 N 
ATOM      6  H2  UNL     1      -6.957  -0.789   3.709  1.00  0.00     0.168 HD
HETATM    7  C4  UNL     1      -5.143  -0.478   2.777  1.00  0.00     0.269 A 
HETATM    8  O1  UNL     1      -4.527  -0.583   3.877  1.00  0.00    -0.266 OA
HETATM    9  C5  UNL     1      -4.436  -0.241   1.630  1.00  0.00     0.155 A 
HETATM   10  C15 UNL     1      -5.171  -0.136   0.436  1.00  0.00     0.084 A 
ENDROOT
BRANCH  10  11
HETATM   11  N6  UNL     1      -4.457   0.121  -0.716  1.00  0.00    -0.328 N 
HETATM   12  C16 UNL     1      -4.816   0.633  -1.958  1.00  0.00     0.186 C 
HETATM   13  N7  UNL     1      -4.749  -0.093  -3.013  1.00  0.00    -0.373 N 
HETATM   14  N8  UNL     1      -5.224   1.985  -2.077  1.00  0.00    -0.064 NA
ATOM     15  H72 UNL     1      -4.455  -1.066  -2.927  1.00  0.00     0.158 HD
ATOM     16  H71 UNL     1      -5.012   0.283  -3.924  1.00  0.00     0.158 HD
ATOM     17  H6  UNL     1      -3.467  -0.111  -0.642  1.00  0.00     0.168 HD
ENDBRANCH  10  11
BRANCH   9  18
HETATM   18  S1  UNL     1      -2.728  -0.084   1.694  1.00  0.00     0.183 S 
HETATM   19  O2  UNL     1      -2.324   1.101   0.908  1.00  0.00    -0.222 OA
HETATM   20  O3  UNL     1      -2.388   0.279   3.157  1.00  0.00    -0.222 OA
BRANCH  18  21
HETATM   21  C6  UNL     1      -1.800  -1.481   1.322  1.00  0.00     0.146 C 
BRANCH  21  22
HETATM   22  C7  UNL     1      -0.331  -1.265   1.431  1.00  0.00     0.015 C 
BRANCH  22  23
HETATM   23  C8  UNL     1       0.298  -0.253   0.547  1.00  0.00     0.001 C 
BRANCH  23  24
HETATM   24  C9  UNL     1       1.829  -0.223   0.812  1.00  0.00     0.000 C 
BRANCH  24  25
HETATM   25  C10 UNL     1       2.401   0.823  -0.116  1.00  0.00     0.000 C 
BRANCH  25  26
HETATM   26  C11 UNL     1       3.884   0.955   0.040  1.00  0.00     0.002 C 
BRANCH  26  27
HETATM   27  C12 UNL     1       4.560  -0.351  -0.268  1.00  0.00     0.020 C 
BRANCH  27  28
HETATM   28  C13 UNL     1       6.069  -0.228  -0.115  1.00  0.00     0.122 C 
BRANCH  28  29
HETATM   29  N3  UNL     1       6.619   0.765  -1.000  1.00  0.00    -0.367 N 
HETATM   30  C14 UNL     1       7.661   0.524  -1.694  1.00  0.00     0.196 C 
HETATM   31  N4  UNL     1       8.152   1.552  -2.550  1.00  0.00    -0.067 NA
HETATM   32  N5  UNL     1       8.346  -0.722  -1.648  1.00  0.00    -0.067 NA
ATOM     33  H3  UNL     1       6.168   1.677  -1.073  1.00  0.00     0.161 HD
ENDBRANCH  28  29
ENDBRANCH  27  28
ENDBRANCH  26  27
ENDBRANCH  25  26
ENDBRANCH  24  25
ENDBRANCH  23  24
ENDBRANCH  22  23
ENDBRANCH  21  22
ENDBRANCH  18  21
ENDBRANCH   9  18
TORSDOF 11
