REMARK  14 active torsions:
REMARK  status: ('A' for Active; 'I' for Inactive)
REMARK    1  A    between atoms: C2_2  and  C3_3 
REMARK    2  A    between atoms: C4_6  and  N2_7 
REMARK    3  A    between atoms: N2_7  and  C5_9 
REMARK    4  A    between atoms: C5_9  and  C6_10 
REMARK    5  A    between atoms: C6_10  and  C7_11 
REMARK    6  A    between atoms: C7_11  and  C8_12 
REMARK    7  A    between atoms: C8_12  and  N3_13 
REMARK    8  A    between atoms: C11_16  and  C12_17 
REMARK    9  A    between atoms: C12_17  and  O1_18 
REMARK   10  A    between atoms: C15_25  and  C16_26 
REMARK   11  A    between atoms: C16_26  and  C17_27 
REMARK   12  A    between atoms: C17_27  and  C18_28 
REMARK   13  A    between atoms: C18_28  and  N5_29 
REMARK       I    between atoms: N5_29  and  C19_31 
REMARK   14  A    between atoms: N7_33  and  O3_35 
ROOT
HETATM    1  C3  UNL     1      -2.150   0.203  -1.493  1.00  0.00     0.038 A 
HETATM    2  N1  UNL     1      -0.883  -0.178  -1.279  1.00  0.00    -0.195 N 
ATOM      3  H1  UNL     1      -0.394  -0.651  -2.039  1.00  0.00     0.184 HD
HETATM    4  C4  UNL     1      -0.203   0.024  -0.113  1.00  0.00     0.681 A 
HETATM    5  N4  UNL     1      -0.903   0.650   0.844  1.00  0.00    -0.156 N 
ATOM      6  H4  UNL     1      -0.434   0.823   1.733  1.00  0.00     0.187 HD
HETATM    7  C14 UNL     1      -2.169   1.065   0.722  1.00  0.00     0.267 A 
HETATM    8  O2  UNL     1      -2.730   1.642   1.687  1.00  0.00    -0.267 OA
HETATM    9  C15 UNL     1      -2.832   0.835  -0.494  1.00  0.00     0.034 A 
ENDROOT
BRANCH   4  10
HETATM   10  N2  UNL     1       1.001  -0.374   0.009  1.00  0.00    -0.226 N 
ATOM     11  H2  UNL     1       1.421  -0.841  -0.794  1.00  0.00     0.177 HD
BRANCH  10  12
HETATM   12  C5  UNL     1       1.807  -0.223   1.166  1.00  0.00     0.138 C 
BRANCH  12  13
HETATM   13  C6  UNL     1       2.785   0.922   0.976  1.00  0.00     0.022 C 
BRANCH  13  14
HETATM   14  C7  UNL     1       3.669   0.655  -0.212  1.00  0.00     0.032 C 
BRANCH  14  15
HETATM   15  C8  UNL     1       4.441  -0.603   0.011  1.00  0.00     0.272 C 
BRANCH  15  16
HETATM   16  N3  UNL     1       5.297  -0.581   1.180  1.00  0.00     0.088 N 
HETATM   17  C9  UNL     1       5.919  -1.851   1.383  1.00  0.00     0.273 C 
HETATM   18  C10 UNL     1       7.338  -1.737   0.936  1.00  0.00     0.038 C 
HETATM   19  C11 UNL     1       7.650  -0.274   1.010  1.00  0.00     0.039 C 
HETATM   20  C13 UNL     1       6.308   0.428   1.143  1.00  0.00     0.279 C 
BRANCH  19  21
HETATM   21  C12 UNL     1       8.333   0.201  -0.278  1.00  0.00     0.170 C 
BRANCH  21  22
HETATM   22  O1  UNL     1       8.585   1.562  -0.123  1.00  0.00    -0.400 OA
ATOM     23  H1  UNL     1       9.008   1.856  -0.921  1.00  0.00     0.209 HD
ENDBRANCH  21  22
ENDBRANCH  19  21
ENDBRANCH  15  16
ENDBRANCH  14  15
ENDBRANCH  13  14
ENDBRANCH  12  13
ENDBRANCH  10  12
ENDBRANCH   4  10
BRANCH   1  24
HETATM   24  C2  UNL     1      -2.744  -0.032  -2.821  1.00  0.00     0.054 C 
HETATM   25  C1  UNL     1      -3.607  -1.216  -2.995  1.00  0.00     0.011 C 
ENDBRANCH   1  24
BRANCH   9  26
HETATM   26  C16 UNL     1      -4.231   1.278  -0.517  1.00  0.00     0.048 C 
BRANCH  26  27
HETATM   27  C17 UNL     1      -5.146   0.216  -0.030  1.00  0.00     0.025 C 
BRANCH  27  28
HETATM   28  C18 UNL     1      -6.608   0.637  -0.067  1.00  0.00     0.122 C 
BRANCH  28  29
HETATM   29  N5  UNL     1      -7.383  -0.488   0.419  1.00  0.00    -0.363 N 
HETATM   30  C19 UNL     1      -8.787  -0.358   0.466  1.00  0.00     0.208 C 
HETATM   31  N6  UNL     1      -9.483   0.033  -0.694  1.00  0.00    -0.062 NA
HETATM   32  N7  UNL     1      -9.421  -0.591   1.544  1.00  0.00    -0.241 N 
ATOM     33  H7  UNL     1     -10.436  -0.493   1.565  1.00  0.00     0.197 HD
ATOM     34  H5  UNL     1      -6.926  -1.349   0.719  1.00  0.00     0.162 HD
BRANCH  32  35
HETATM   35  O3  UNL     1      -8.756  -0.969   2.668  1.00  0.00    -0.287 OA
ATOM     36  H3  UNL     1      -9.229  -1.143   3.473  1.00  0.00     0.244 HD
ENDBRANCH  32  35
ENDBRANCH  28  29
ENDBRANCH  27  28
ENDBRANCH  26  27
ENDBRANCH   9  26
TORSDOF 14
