REMARK  13 active torsions:
REMARK  status: ('A' for Active; 'I' for Inactive)
REMARK    1  A    between atoms: C2_2  and  C3_3 
REMARK    2  A    between atoms: C3_3  and  C4_4 
REMARK    3  A    between atoms: C4_4  and  C5_5 
REMARK    4  A    between atoms: C5_5  and  C6_6 
REMARK    5  A    between atoms: C6_6  and  C7_7 
REMARK    6  A    between atoms: C7_7  and  C8_8 
REMARK    7  A    between atoms: C8_8  and  C9_9 
REMARK    8  A    between atoms: C9_9  and  N1_10 
REMARK    9  A    between atoms: N1_10  and  C10_12 
REMARK   10  A    between atoms: C11_15  and  N3_16 
REMARK   11  A    between atoms: C12_21  and  N5_22 
REMARK   12  A    between atoms: N5_22  and  O1_24 
REMARK   13  A    between atoms: O1_24  and  C13_25 
ROOT
HETATM    1  C10 UNL     1       1.054   1.291  -0.452  1.00  0.00     0.707 A 
HETATM    2  N2  UNL     1       1.414   2.125   0.531  1.00  0.00    -0.022 N 
ATOM      3  H2  UNL     1       0.738   2.793   0.902  1.00  0.00     0.203 HD
HETATM    4  C11 UNL     1       2.659   2.089   1.033  1.00  0.00     0.705 A 
HETATM    5  N4  UNL     1       3.580   1.223   0.572  1.00  0.00    -0.020 N 
ATOM      6  H4  UNL     1       4.524   1.200   0.957  1.00  0.00     0.203 HD
HETATM    7  C12 UNL     1       3.210   0.388  -0.416  1.00  0.00     0.731 A 
HETATM    8  N8  UNL     1       1.945   0.424  -0.927  1.00  0.00    -0.020 N 
ATOM      9  H8  UNL     1       1.681  -0.216  -1.676  1.00  0.00     0.203 HD
ENDROOT
BRANCH   7  10
HETATM   10  N5  UNL     1       4.048  -0.451  -0.888  1.00  0.00    -0.094 N 
ATOM     11  H5  UNL     1       3.759  -1.080  -1.637  1.00  0.00     0.213 HD
BRANCH  10  12
HETATM   12  O1  UNL     1       5.314  -0.522  -0.412  1.00  0.00    -0.241 OA
BRANCH  12  13
HETATM   13  C13 UNL     1       5.794  -1.700   0.181  1.00  0.00     0.336 C 
HETATM   14  C14 UNL     1       6.989  -2.128  -0.587  1.00  0.00     0.266 C 
HETATM   15  O2  UNL     1       6.869  -3.101  -1.369  1.00  0.00    -0.270 OA
HETATM   16  N6  UNL     1       8.205  -1.416  -0.397  1.00  0.00    -0.276 N 
HETATM   17  C15 UNL     1       8.471  -0.689   0.804  1.00  0.00     0.329 C 
ATOM     18  H6  UNL     1       8.906  -1.424  -1.138  1.00  0.00     0.173 HD
HETATM   19  O3  UNL     1       9.554  -0.069   0.944  1.00  0.00    -0.247 OA
HETATM   20  N7  UNL     1       7.441  -0.728   1.788  1.00  0.00    -0.276 N 
HETATM   21  C16 UNL     1       6.229  -1.443   1.588  1.00  0.00     0.266 C 
ATOM     22  H7  UNL     1       7.578  -0.226   2.665  1.00  0.00     0.173 HD
HETATM   23  O4  UNL     1       5.519  -1.862   2.534  1.00  0.00    -0.270 OA
ENDBRANCH  12  13
ENDBRANCH  10  12
ENDBRANCH   7  10
BRANCH   4  24
HETATM   24  N3  UNL     1       3.007   2.887   1.975  1.00  0.00    -0.234 N 
ATOM     25  H32 UNL     1       2.309   3.543   2.324  1.00  0.00     0.174 HD
ATOM     26  H31 UNL     1       3.953   2.860   2.356  1.00  0.00     0.174 HD
ENDBRANCH   4  24
BRANCH   1  27
HETATM   27  N1  UNL     1      -0.158   1.375  -0.891  1.00  0.00    -0.225 N 
ATOM     28  H1  UNL     1      -0.778   2.068  -0.472  1.00  0.00     0.177 HD
BRANCH  27  29
HETATM   29  C9  UNL     1      -0.680   0.535  -1.949  1.00  0.00     0.138 C 
BRANCH  29  30
HETATM   30  C8  UNL     1      -1.957   1.135  -2.441  1.00  0.00     0.020 C 
BRANCH  30  31
HETATM   31  C7  UNL     1      -3.017   1.246  -1.346  1.00  0.00     0.002 C 
BRANCH  31  32
HETATM   32  C6  UNL     1      -3.275  -0.141  -0.862  1.00  0.00     0.000 C 
BRANCH  32  33
HETATM   33  C5  UNL     1      -4.327  -0.200   0.255  1.00  0.00     0.000 C 
BRANCH  33  34
HETATM   34  C4  UNL     1      -5.634   0.339  -0.202  1.00  0.00     0.000 C 
BRANCH  34  35
HETATM   35  C3  UNL     1      -6.695   0.372   0.815  1.00  0.00    -0.000 C 
BRANCH  35  36
HETATM   36  C2  UNL     1      -7.152  -0.888   1.448  1.00  0.00    -0.005 C 
HETATM   37  C1  UNL     1      -6.182  -1.666   2.251  1.00  0.00     0.005 C 
ENDBRANCH  35  36
ENDBRANCH  34  35
ENDBRANCH  33  34
ENDBRANCH  32  33
ENDBRANCH  31  32
ENDBRANCH  30  31
ENDBRANCH  29  30
ENDBRANCH  27  29
ENDBRANCH   1  27
TORSDOF 13
