REMARK  12 active torsions:
REMARK  status: ('A' for Active; 'I' for Inactive)
REMARK    1  A    between atoms: O1_2  and  C2_3 
REMARK    2  A    between atoms: C2_3  and  C3_4 
REMARK    3  A    between atoms: N2_9  and  C5_10 
REMARK    4  A    between atoms: C5_10  and  C6_11 
REMARK    5  A    between atoms: C6_11  and  N3_12 
REMARK    6  A    between atoms: N3_12  and  C7_15 
REMARK    7  A    between atoms: C7_15  and  C8_16 
REMARK    8  A    between atoms: C8_16  and  C9_17 
REMARK    9  A    between atoms: C9_17  and  C10_18 
REMARK   10  A    between atoms: C10_18  and  N4_19 
REMARK   11  A    between atoms: C16_27  and  N6_28 
REMARK   12  A    between atoms: C17_33  and  N8_34 
ROOT
HETATM    1  C3  UNL     1      -5.313   1.074  -1.014  1.00  0.00     0.150 C 
HETATM    2  N1  UNL     1      -4.156   1.384  -1.871  1.00  0.00    -0.332 N 
ATOM      3  H1  UNL     1      -4.314   1.657  -2.841  1.00  0.00     0.165 HD
HETATM    4  C4  UNL     1      -2.836   1.313  -1.383  1.00  0.00     0.324 C 
HETATM    5  O2  UNL     1      -1.910   1.994  -1.836  1.00  0.00    -0.247 OA
HETATM    6  N2  UNL     1      -2.549   0.404  -0.306  1.00  0.00    -0.283 N 
HETATM    7  C15 UNL     1      -3.677  -0.343   0.179  1.00  0.00     0.139 A 
HETATM    8  N5  UNL     1      -3.423  -1.417   0.991  1.00  0.00    -0.176 N 
ATOM      9  H5  UNL     1      -2.487  -1.548   1.375  1.00  0.00     0.186 HD
HETATM   10  C16 UNL     1      -4.395  -2.304   1.289  1.00  0.00     0.679 A 
HETATM   11  N7  UNL     1      -5.631  -2.150   0.795  1.00  0.00    -0.177 N 
ATOM     12  H7  UNL     1      -6.345  -2.838   1.034  1.00  0.00     0.186 HD
HETATM   13  C17 UNL     1      -5.968  -1.105  -0.017  1.00  0.00     0.127 A 
HETATM   14  C18 UNL     1      -4.957  -0.206  -0.304  1.00  0.00     0.056 A 
ENDROOT
BRANCH   6  15
HETATM   15  C5  UNL     1      -1.248   0.251   0.253  1.00  0.00     0.163 C 
BRANCH  15  16
HETATM   16  C6  UNL     1      -0.423  -0.807  -0.446  1.00  0.00     0.252 C 
BRANCH  16  17
HETATM   17  N3  UNL     1       0.883  -0.948   0.164  1.00  0.00    -0.074 N 
ATOM     18  H32 UNL     1       0.807  -1.162   1.158  1.00  0.00     0.277 HD
ATOM     19  H31 UNL     1       1.349  -1.800  -0.148  1.00  0.00     0.277 HD
BRANCH  17  20
HETATM   20  C7  UNL     1       1.702   0.206  -0.060  1.00  0.00     0.232 C 
BRANCH  20  21
HETATM   21  C8  UNL     1       3.063   0.065   0.534  1.00  0.00     0.029 C 
BRANCH  21  22
HETATM   22  C9  UNL     1       3.797  -1.096  -0.040  1.00  0.00     0.032 C 
BRANCH  22  23
HETATM   23  C10 UNL     1       5.195  -1.225   0.538  1.00  0.00     0.272 C 
BRANCH  23  24
HETATM   24  N4  UNL     1       5.985  -0.035   0.262  1.00  0.00     0.088 N 
HETATM   25  C11 UNL     1       6.266   0.083  -1.165  1.00  0.00     0.272 C 
HETATM   26  C12 UNL     1       7.370   1.118  -1.155  1.00  0.00     0.032 C 
HETATM   27  C13 UNL     1       8.278   0.534  -0.076  1.00  0.00     0.032 C 
HETATM   28  C14 UNL     1       7.318  -0.155   0.840  1.00  0.00     0.272 C 
ENDBRANCH  23  24
ENDBRANCH  22  23
ENDBRANCH  21  22
ENDBRANCH  20  21
ENDBRANCH  17  20
ENDBRANCH  16  17
ENDBRANCH  15  16
ENDBRANCH   6  15
BRANCH   1  29
HETATM   29  C2  UNL     1      -5.316   2.278  -0.074  1.00  0.00     0.197 C 
BRANCH  29  30
HETATM   30  O1  UNL     1      -6.191   2.476   0.861  1.00  0.00    -0.394 OA
HETATM   31  C1  UNL     1      -6.467   1.765   1.944  1.00  0.00     0.201 C 
ENDBRANCH  29  30
ENDBRANCH   1  29
BRANCH  10  32
HETATM   32  N6  UNL     1      -4.109  -3.304   2.060  1.00  0.00    -0.234 N 
ATOM     33  H62 UNL     1      -3.168  -3.421   2.436  1.00  0.00     0.174 HD
ATOM     34  H61 UNL     1      -4.844  -3.975   2.285  1.00  0.00     0.174 HD
ENDBRANCH  10  32
BRANCH  13  35
HETATM   35  N8  UNL     1      -7.160  -1.013  -0.485  1.00  0.00    -0.384 N 
ATOM     36  H82 UNL     1      -7.906  -1.676  -0.273  1.00  0.00     0.157 HD
ATOM     37  H81 UNL     1      -7.412  -0.232  -1.091  1.00  0.00     0.157 HD
ENDBRANCH  13  35
TORSDOF 12
