REMARK  16 active torsions:
REMARK  status: ('A' for Active; 'I' for Inactive)
REMARK       I    between atoms: C1_2  and  N3_23 
REMARK       I    between atoms: N2_3  and  C2_5 
REMARK    1  A    between atoms: C2_5  and  C3_7 
REMARK    2  A    between atoms: C3_7  and  C4_8 
REMARK    3  A    between atoms: C5_10  and  C6_11 
REMARK    4  A    between atoms: C6_11  and  O3_12 
REMARK    5  A    between atoms: C7_14  and  O4_15 
REMARK    6  A    between atoms: C8_17  and  O5_18 
REMARK    7  A    between atoms: C9_20  and  O6_21 
REMARK    8  A    between atoms: N3_23  and  C10_25 
REMARK    9  A    between atoms: C10_25  and  C11_26 
REMARK   10  A    between atoms: C11_26  and  C12_27 
REMARK   11  A    between atoms: C12_27  and  C13_28 
REMARK   12  A    between atoms: C13_28  and  C14_29 
REMARK   13  A    between atoms: C14_29  and  C15_30 
REMARK   14  A    between atoms: C15_30  and  C16_31 
REMARK   15  A    between atoms: C16_31  and  N4_32 
REMARK   16  A    between atoms: N4_32  and  C17_34 
ROOT
HETATM    1  N1  UNL     1      -0.755   0.959  -0.736  1.00  0.00    -0.063 NA
HETATM    2  C1  UNL     1      -0.969   0.395  -2.017  1.00  0.00     0.190 C 
HETATM    3  N2  UNL     1      -2.142   0.166  -2.517  1.00  0.00    -0.301 N 
ATOM      4  H2  UNL     1      -2.200  -0.244  -3.449  1.00  0.00     0.171 HD
HETATM    5  C2  UNL     1      -3.359   0.460  -1.827  1.00  0.00     0.226 C 
HETATM    6  O1  UNL     1      -3.988   1.464  -2.235  1.00  0.00    -0.273 OA
HETATM    7  N3  UNL     1       0.214   0.063  -2.775  1.00  0.00    -0.364 N 
ATOM      8  H3  UNL     1       0.801   0.797  -3.173  1.00  0.00     0.162 HD
ENDROOT
BRANCH   5   9
HETATM    9  C3  UNL     1      -3.740  -0.424  -0.734  1.00  0.00     0.137 C 
BRANCH   9  10
HETATM   10  C4  UNL     1      -4.998  -0.084  -0.003  1.00  0.00     0.162 C 
HETATM   11  O2  UNL     1      -6.109  -0.043  -0.805  1.00  0.00    -0.373 OA
HETATM   12  C5  UNL     1      -7.260  -0.140  -0.053  1.00  0.00     0.176 C 
HETATM   13  C7  UNL     1      -7.208   0.626   1.254  1.00  0.00     0.180 C 
HETATM   14  C8  UNL     1      -6.171   1.731   1.198  1.00  0.00     0.180 C 
HETATM   15  C9  UNL     1      -4.833   1.047   0.949  1.00  0.00     0.178 C 
BRANCH  12  16
HETATM   16  C6  UNL     1      -7.638  -1.577   0.222  1.00  0.00     0.198 C 
BRANCH  16  17
HETATM   17  O3  UNL     1      -8.826  -1.628   0.985  1.00  0.00    -0.398 OA
ATOM     18  H3  UNL     1      -9.064  -2.531   1.158  1.00  0.00     0.209 HD
ENDBRANCH  16  17
ENDBRANCH  12  16
BRANCH  13  19
HETATM   19  O4  UNL     1      -8.445   1.170   1.580  1.00  0.00    -0.390 OA
ATOM     20  H4  UNL     1      -8.412   1.650   2.399  1.00  0.00     0.210 HD
ENDBRANCH  13  19
BRANCH  14  21
HETATM   21  O5  UNL     1      -6.459   2.695   0.259  1.00  0.00    -0.390 OA
ATOM     22  H5  UNL     1      -5.809   3.387   0.224  1.00  0.00     0.210 HD
ENDBRANCH  14  21
BRANCH  15  23
HETATM   23  O6  UNL     1      -3.907   1.971   0.528  1.00  0.00    -0.390 OA
ATOM     24  H6  UNL     1      -3.802   2.693   1.136  1.00  0.00     0.210 HD
ENDBRANCH  15  23
ENDBRANCH   9  10
ENDBRANCH   5   9
BRANCH   7  25
HETATM   25  C10 UNL     1       0.550  -1.334  -2.959  1.00  0.00     0.122 C 
BRANCH  25  26
HETATM   26  C11 UNL     1       0.978  -2.022  -1.705  1.00  0.00     0.020 C 
BRANCH  26  27
HETATM   27  C12 UNL     1       2.255  -1.373  -1.105  1.00  0.00     0.002 C 
BRANCH  27  28
HETATM   28  C13 UNL     1       2.532  -2.159   0.130  1.00  0.00     0.000 C 
BRANCH  28  29
HETATM   29  C14 UNL     1       3.730  -1.856   0.889  1.00  0.00     0.005 C 
BRANCH  29  30
HETATM   30  C15 UNL     1       3.921  -0.556   1.529  1.00  0.00     0.044 C 
BRANCH  30  31
HETATM   31  C16 UNL     1       4.013   0.646   0.686  1.00  0.00     0.056 C 
BRANCH  31  32
HETATM   32  N4  UNL     1       4.967   0.686  -0.308  1.00  0.00    -0.398 N 
ATOM     33  H4  UNL     1       4.604   0.602  -1.257  1.00  0.00     0.159 HD
BRANCH  32  34
HETATM   34  C17 UNL     1       6.322   0.821  -0.219  1.00  0.00     0.080 C 
HETATM   35  C18 UNL     1       7.079  -0.284   0.466  1.00  0.00     0.025 C 
HETATM   36  C19 UNL     1       8.509   0.302   0.540  1.00  0.00     0.002 C 
HETATM   37  C20 UNL     1       8.326   1.791   0.571  1.00  0.00     0.002 C 
HETATM   38  C21 UNL     1       6.846   2.049   0.540  1.00  0.00     0.025 C 
ENDBRANCH  32  34
ENDBRANCH  31  32
ENDBRANCH  30  31
ENDBRANCH  29  30
ENDBRANCH  28  29
ENDBRANCH  27  28
ENDBRANCH  26  27
ENDBRANCH  25  26
ENDBRANCH   7  25
TORSDOF 16
