REMARK  4 active torsions:
REMARK  status: ('A' for Active; 'I' for Inactive)
REMARK    1  A    between atoms: O1_2  and  C2_3 
REMARK    2  A    between atoms: C2_3  and  C3_5 
REMARK    3  A    between atoms: C11_14  and  O3_15 
REMARK    4  A    between atoms: O3_15  and  C12_16 
ROOT
HETATM    1  C3  UNL     1      -1.392   0.041  -0.577  1.00  0.00     0.065 C 
HETATM    2  C4  UNL     1      -1.808  -1.411  -0.840  1.00  0.00     0.023 C 
HETATM    3  C5  UNL     1      -0.948  -2.077  -1.863  1.00  0.00     0.031 C 
HETATM    4  C6  UNL     1       0.130  -2.959  -1.268  1.00  0.00     0.273 C 
HETATM    5  N1  UNL     1       0.554  -2.366  -0.013  1.00  0.00     0.094 N 
HETATM    6  C7  UNL     1       1.543  -3.159   0.611  1.00  0.00     0.273 C 
HETATM    7  C8  UNL     1       2.952  -2.772   0.458  1.00  0.00     0.031 C 
HETATM    8  C9  UNL     1       3.213  -1.354   0.046  1.00  0.00     0.011 C 
HETATM    9  C10 UNL     1       2.086  -0.541   0.568  1.00  0.00     0.049 C 
HETATM   10  C11 UNL     1       2.079   0.895   0.154  1.00  0.00     0.139 C 
HETATM   11  C14 UNL     1       0.609   1.234   0.457  1.00  0.00     0.046 C 
HETATM   12  C15 UNL     1      -0.150  -0.015   0.235  1.00  0.00     0.011 C 
HETATM   13  C16 UNL     1      -0.637  -0.491   1.608  1.00  0.00     0.018 C 
HETATM   14  C17 UNL     1      -2.071  -0.134   1.708  1.00  0.00    -0.009 C 
HETATM   15  C18 UNL     1      -2.286   0.790   2.915  1.00  0.00     0.011 C 
HETATM   16  C19 UNL     1      -2.392   0.572   0.409  1.00  0.00    -0.027 C 
HETATM   17  C20 UNL     1      -3.823   0.225   0.094  1.00  0.00     0.016 C 
HETATM   18  C21 UNL     1      -2.276   2.041   0.664  1.00  0.00     0.016 C 
HETATM   19  C22 UNL     1       0.859  -1.003  -0.235  1.00  0.00     0.239 C 
ENDROOT
BRANCH   1  20
HETATM   20  C2  UNL     1      -1.345   0.832  -1.793  1.00  0.00     0.268 C 
HETATM   21  O2  UNL     1      -0.315   1.390  -2.297  1.00  0.00    -0.264 OA
BRANCH  20  22
HETATM   22  O1  UNL     1      -2.499   1.051  -2.546  1.00  0.00    -0.326 OA
HETATM   23  C1  UNL     1      -2.531   1.796  -3.721  1.00  0.00     0.213 C 
ENDBRANCH  20  22
ENDBRANCH   1  20
BRANCH  10  24
HETATM   24  O3  UNL     1       2.973   1.717   0.782  1.00  0.00    -0.316 OA
BRANCH  24  25
HETATM   25  C12 UNL     1       3.918   2.531   0.178  1.00  0.00     0.255 C 
HETATM   26  C13 UNL     1       4.792   3.346   1.038  1.00  0.00     0.126 C 
HETATM   27  O4  UNL     1       3.962   2.515  -1.065  1.00  0.00    -0.266 OA
ENDBRANCH  24  25
ENDBRANCH  10  24
TORSDOF 4
