REMARK  4 active torsions:
REMARK  status: ('A' for Active; 'I' for Inactive)
REMARK    1  A    between atoms: C14_15  and  O2_16 
REMARK    2  A    between atoms: O2_16  and  C15_17 
REMARK    3  A    between atoms: C20_23  and  O4_24 
REMARK    4  A    between atoms: O4_24  and  C21_25 
ROOT
HETATM    1  C1  UNL     1       4.818  -1.669  -0.072  1.00  0.00     0.049 C 
HETATM    2  C2  UNL     1       3.636  -1.239  -0.411  1.00  0.00     0.068 C 
HETATM    3  O1  UNL     1       2.888  -1.379  -1.576  1.00  0.00    -0.347 OA
HETATM    4  C3  UNL     1       1.491  -1.463  -1.240  1.00  0.00     0.140 C 
HETATM    5  C4  UNL     1       0.625  -0.563  -2.025  1.00  0.00     0.034 C 
HETATM    6  C5  UNL     1      -0.696  -1.262  -2.231  1.00  0.00     0.008 C 
HETATM    7  C6  UNL     1      -1.764  -0.890  -1.284  1.00  0.00     0.002 A 
HETATM    8  C7  UNL     1      -1.911  -1.644  -0.051  1.00  0.00     0.003 A 
HETATM    9  C8  UNL     1      -0.672  -2.271   0.524  1.00  0.00     0.012 C 
HETATM   10  C9  UNL     1       0.271  -1.124   0.960  1.00  0.00     0.005 C 
HETATM   11  C10 UNL     1      -0.692  -0.084   0.956  1.00  0.00     0.006 C 
HETATM   12  C11 UNL     1      -0.473   1.340   1.210  1.00  0.00    -0.011 C 
HETATM   13  C12 UNL     1       0.068   1.655   2.582  1.00  0.00     0.010 C 
HETATM   14  C13 UNL     1      -1.913   1.847   1.162  1.00  0.00     0.038 C 
HETATM   15  C14 UNL     1      -2.690   0.832   0.336  1.00  0.00     0.142 C 
HETATM   16  C17 UNL     1      -1.609  -0.107  -0.177  1.00  0.00    -0.001 A 
HETATM   17  C18 UNL     1       1.498  -1.298   0.237  1.00  0.00     0.019 C 
HETATM   18  C19 UNL     1       2.062  -2.666   0.739  1.00  0.00     0.021 C 
HETATM   19  C20 UNL     1       2.668  -0.398   0.436  1.00  0.00     0.198 C 
ENDROOT
BRANCH  15  20
HETATM   20  O2  UNL     1      -3.437   1.409  -0.679  1.00  0.00    -0.315 OA
BRANCH  20  21
HETATM   21  C15 UNL     1      -4.812   1.214  -0.705  1.00  0.00     0.255 C 
HETATM   22  C16 UNL     1      -5.693   1.793  -1.752  1.00  0.00     0.126 C 
HETATM   23  O3  UNL     1      -5.367   0.519   0.189  1.00  0.00    -0.266 OA
ENDBRANCH  20  21
ENDBRANCH  15  20
BRANCH  19  24
HETATM   24  O4  UNL     1       2.686   0.795  -0.277  1.00  0.00    -0.309 OA
BRANCH  24  25
HETATM   25  C21 UNL     1       3.215   1.938   0.298  1.00  0.00     0.255 C 
HETATM   26  C22 UNL     1       3.254   3.235  -0.431  1.00  0.00     0.126 C 
HETATM   27  O5  UNL     1       3.694   1.939   1.475  1.00  0.00    -0.266 OA
ENDBRANCH  24  25
ENDBRANCH  19  24
TORSDOF 4
