REMARK  1 active torsions:
REMARK  status: ('A' for Active; 'I' for Inactive)
REMARK    1  A    between atoms: C2_2  and  C3_3 
ROOT
HETATM    1  C3  UNL     1      -3.169  -0.351   0.053  1.00  0.00    -0.013 C 
HETATM    2  C4  UNL     1      -3.066  -1.532  -0.860  1.00  0.00     0.005 C 
HETATM    3  C5  UNL     1      -2.858  -2.827  -0.123  1.00  0.00     0.000 C 
HETATM    4  C6  UNL     1      -1.597  -2.861   0.677  1.00  0.00     0.000 C 
HETATM    5  C7  UNL     1      -0.667  -3.970   0.176  1.00  0.00     0.000 C 
HETATM    6  C8  UNL     1       0.698  -3.840   0.800  1.00  0.00     0.002 C 
HETATM    7  C9  UNL     1       1.677  -4.603  -0.037  1.00  0.00     0.026 C 
HETATM    8  C10 UNL     1       3.116  -4.163   0.199  1.00  0.00     0.167 C 
HETATM    9  O1  UNL     1       3.292  -2.815  -0.036  1.00  0.00    -0.389 OA
HETATM   10  C11 UNL     1       4.522  -2.498  -0.576  1.00  0.00     0.193 C 
HETATM   11  C12 UNL     1       5.017  -1.170  -0.006  1.00  0.00     0.193 C 
HETATM   12  O2  UNL     1       4.102  -0.159  -0.269  1.00  0.00    -0.387 OA
HETATM   13  C13 UNL     1       4.651   1.067   0.028  1.00  0.00     0.193 C 
HETATM   14  C14 UNL     1       4.151   2.183  -0.860  1.00  0.00     0.193 C 
HETATM   15  O3  UNL     1       2.875   2.615  -0.508  1.00  0.00    -0.387 OA
HETATM   16  C15 UNL     1       2.934   3.962  -0.255  1.00  0.00     0.193 C 
HETATM   17  C16 UNL     1       1.645   4.693  -0.433  1.00  0.00     0.193 C 
HETATM   18  O4  UNL     1       0.521   3.913  -0.286  1.00  0.00    -0.387 OA
HETATM   19  C17 UNL     1      -0.573   4.802  -0.234  1.00  0.00     0.198 C 
HETATM   20  C18 UNL     1      -1.872   4.088  -0.483  1.00  0.00     0.299 C 
HETATM   21  N1  UNL     1      -1.824   2.812   0.151  1.00  0.00     0.099 N 
HETATM   22  C19 UNL     1      -2.627   2.486   1.282  1.00  0.00     0.308 A 
HETATM   23  C20 UNL     1      -3.171   2.161  -0.020  1.00  0.00     0.251 A 
HETATM   24  C21 UNL     1      -2.916   0.893  -0.754  1.00  0.00     0.042 C 
ENDROOT
BRANCH   1  25
HETATM   25  C2  UNL     1      -4.467  -0.303   0.811  1.00  0.00     0.000 C 
HETATM   26  C1  UNL     1      -5.674  -0.228  -0.058  1.00  0.00     0.005 C 
ENDBRANCH   1  25
TORSDOF 1
