REMARK  2 active torsions:
REMARK  status: ('A' for Active; 'I' for Inactive)
REMARK    1  A    between atoms: C2_2  and  C3_3 
REMARK    2  A    between atoms: C3_3  and  C4_4 
ROOT
HETATM    1  C4  UNL     1      -0.670   0.846  -0.334  1.00  0.00     0.144 C 
HETATM    2  O1  UNL     1      -0.938   0.947  -1.665  1.00  0.00    -0.223 OA
HETATM    3  O2  UNL     1      -1.670   0.131  -2.270  1.00  0.00    -0.239 OA
HETATM    4  C5  UNL     1      -2.714  -0.543  -1.753  1.00  0.00     0.215 C 
HETATM    5  C6  UNL     1      -2.623  -0.716  -0.328  1.00  0.00     0.027 C 
HETATM    6  C7  UNL     1      -2.762  -2.057   0.336  1.00  0.00     0.010 C 
HETATM    7  C8  UNL     1      -1.940  -1.902   1.638  1.00  0.00     0.034 C 
HETATM    8  C9  UNL     1      -1.387  -0.565   1.475  1.00  0.00     0.144 C 
HETATM    9  O3  UNL     1      -0.351  -0.075   2.237  1.00  0.00    -0.314 OA
HETATM   10  C10 UNL     1       0.468   0.933   1.741  1.00  0.00     0.274 C 
HETATM   11  O4  UNL     1       0.976   1.790   2.472  1.00  0.00    -0.264 OA
HETATM   12  C11 UNL     1       0.713   0.935   0.269  1.00  0.00     0.113 C 
HETATM   13  C12 UNL     1       1.750   1.784  -0.302  1.00  0.00     0.031 C 
HETATM   14  C13 UNL     1       3.028   1.140  -0.851  1.00  0.00    -0.010 C 
HETATM   15  C14 UNL     1       4.223   1.365  -0.022  1.00  0.00     0.010 C 
HETATM   16  C15 UNL     1       2.902  -0.284  -1.410  1.00  0.00     0.025 C 
HETATM   17  C16 UNL     1       3.051  -1.398  -0.406  1.00  0.00     0.127 C 
HETATM   18  C17 UNL     1       1.953  -2.429  -0.699  1.00  0.00     0.037 C 
HETATM   19  C18 UNL     1       0.821  -1.701  -1.447  1.00  0.00    -0.004 C 
HETATM   20  C19 UNL     1      -0.504  -1.669  -0.681  1.00  0.00     0.021 C 
HETATM   21  C20 UNL     1      -1.102  -0.510  -0.034  1.00  0.00     0.032 C 
HETATM   22  C21 UNL     1       1.389  -0.418  -1.344  1.00  0.00     0.027 C 
HETATM   23  C22 UNL     1       1.383  -0.350   0.150  1.00  0.00     0.148 C 
HETATM   24  O5  UNL     1       2.671  -0.530   0.655  1.00  0.00    -0.378 OA
ENDROOT
BRANCH   1  25
HETATM   25  C3  UNL     1      -1.231   2.113   0.130  1.00  0.00     0.015 C 
BRANCH  25  26
HETATM   26  C2  UNL     1      -2.636   2.482  -0.078  1.00  0.00    -0.011 C 
HETATM   27  C1  UNL     1      -3.393   2.863   0.923  1.00  0.00     0.011 C 
ENDBRANCH  25  26
ENDBRANCH   1  25
TORSDOF 2
