REMARK  1 active torsions:
REMARK  status: ('A' for Active; 'I' for Inactive)
REMARK    1  A    between atoms: C2_2  and  C3_3 
REMARK       I    between atoms: C3_3  and  N1_5 
ROOT
HETATM    1  C3  UNL     1       5.325   1.026   0.031  1.00  0.00     0.219 C 
HETATM    2  O1  UNL     1       6.335   0.586   0.636  1.00  0.00    -0.273 OA
HETATM    3  N1  UNL     1       4.121   0.291   0.108  1.00  0.00    -0.346 N 
HETATM    4  C4  UNL     1       2.804   0.513  -0.457  1.00  0.00     0.137 C 
HETATM    5  C5  UNL     1       2.411  -0.860   0.023  1.00  0.00     0.001 C 
HETATM    6  C6  UNL     1       2.195  -1.785  -1.128  1.00  0.00     0.019 C 
HETATM    7  C7  UNL     1       0.757  -1.424  -1.528  1.00  0.00     0.072 C 
HETATM    8  C8  UNL     1       0.092  -1.187  -0.204  1.00  0.00     0.201 C 
HETATM    9  C9  UNL     1       1.155  -0.956   0.819  1.00  0.00     0.084 C 
HETATM   10  O2  UNL     1      -0.705  -2.292   0.074  1.00  0.00    -0.197 OA
HETATM   11  O3  UNL     1      -1.926  -1.900  -0.255  1.00  0.00    -0.197 OA
HETATM   12  C10 UNL     1      -1.947  -0.617   0.282  1.00  0.00     0.206 C 
HETATM   13  C11 UNL     1      -2.011  -0.727   1.763  1.00  0.00     0.074 C 
HETATM   14  C12 UNL     1      -3.007   0.370   2.157  1.00  0.00     0.038 C 
HETATM   15  C13 UNL     1      -4.028   0.171   1.025  1.00  0.00     0.131 C 
HETATM   16  O4  UNL     1      -4.913   1.206   1.073  1.00  0.00    -0.380 OA
HETATM   17  C14 UNL     1      -5.801   1.299   0.050  1.00  0.00     0.122 C 
HETATM   18  C15 UNL     1      -6.186   0.003  -0.591  1.00  0.00     0.036 C 
HETATM   19  C16 UNL     1      -5.122   0.259  -1.636  1.00  0.00    -0.009 C 
HETATM   20  C17 UNL     1      -5.192   1.718  -1.265  1.00  0.00     0.036 C 
HETATM   21  C18 UNL     1      -3.820  -0.386  -1.341  1.00  0.00     0.017 C 
HETATM   22  C19 UNL     1      -3.099   0.211  -0.175  1.00  0.00     0.080 C 
HETATM   23  O5  UNL     1      -0.756  -0.089  -0.200  1.00  0.00    -0.313 OA
HETATM   24  C20 UNL     1       3.698  -0.943   0.753  1.00  0.00     0.093 C 
HETATM   25  C21 UNL     1       4.577  -2.129   0.468  1.00  0.00     0.033 C 
ENDROOT
BRANCH   1  26
HETATM   26  C2  UNL     1       5.376   2.281  -0.747  1.00  0.00     0.098 C 
HETATM   27  C1  UNL     1       6.778   2.841  -0.648  1.00  0.00     0.014 C 
ENDBRANCH   1  26
TORSDOF 1
