REMARK  1 active torsions:
REMARK  status: ('A' for Active; 'I' for Inactive)
REMARK    1  A    between atoms: C8_12  and  N1_13 
ROOT
HETATM    1  N1  UNL     1      -0.147  -0.054   0.510  1.00  0.00    -0.351 N 
HETATM    2  C9  UNL     1       0.612   0.154  -0.643  1.00  0.00     0.065 C 
HETATM    3  C10 UNL     1       1.467  -1.021  -1.069  1.00  0.00     0.046 C 
HETATM    4  C11 UNL     1       2.855  -0.658  -1.451  1.00  0.00     0.016 C 
HETATM    5  C12 UNL     1       3.764  -0.237  -0.378  1.00  0.00    -0.018 C 
HETATM    6  C13 UNL     1       5.078  -1.012  -0.529  1.00  0.00     0.012 C 
HETATM    7  C14 UNL     1       6.168  -0.092  -0.090  1.00  0.00     0.001 C 
HETATM    8  C15 UNL     1       5.544   1.233   0.248  1.00  0.00     0.001 C 
HETATM    9  C16 UNL     1       4.253   1.191  -0.516  1.00  0.00     0.012 C 
HETATM   10  C17 UNL     1       3.295  -0.451   1.023  1.00  0.00     0.177 C 
HETATM   11  O4  UNL     1       2.551   0.626   1.460  1.00  0.00    -0.385 OA
HETATM   12  C18 UNL     1       1.512   0.315   2.296  1.00  0.00     0.212 C 
HETATM   13  C19 UNL     1       0.433  -0.529   1.675  1.00  0.00     0.090 C 
ENDROOT
BRANCH   1  14
HETATM   14  C8  UNL     1      -1.529   0.212   0.470  1.00  0.00     0.238 C 
HETATM   15  S1  UNL     1      -1.808   1.917   0.133  1.00  0.00     0.287 S 
HETATM   16  O1  UNL     1      -0.527   2.682   0.455  1.00  0.00    -0.196 OA
HETATM   17  O2  UNL     1      -2.029   2.141  -1.357  1.00  0.00    -0.196 OA
HETATM   18  O3  UNL     1      -3.004   2.603   1.038  1.00  0.00    -0.274 OA
HETATM   19  C1  UNL     1      -4.071   1.794   1.319  1.00  0.00     0.190 C 
HETATM   20  C2  UNL     1      -4.968   1.544   0.131  1.00  0.00     0.028 C 
HETATM   21  C3  UNL     1      -5.554   0.148   0.129  1.00  0.00     0.002 C 
HETATM   22  C4  UNL     1      -5.145  -0.654  -1.065  1.00  0.00     0.000 C 
HETATM   23  C5  UNL     1      -4.400  -1.908  -0.744  1.00  0.00     0.000 C 
HETATM   24  C6  UNL     1      -3.158  -1.672   0.073  1.00  0.00     0.003 C 
HETATM   25  C7  UNL     1      -2.213  -0.696  -0.532  1.00  0.00     0.044 C 
ENDBRANCH   1  14
TORSDOF 1
