REMARK  8 active torsions:
REMARK  status: ('A' for Active; 'I' for Inactive)
REMARK    1  A    between atoms: C2_2  and  C4_4 
REMARK    2  A    between atoms: C4_4  and  N1_6 
REMARK    3  A    between atoms: N1_6  and  C6_8 
REMARK    4  A    between atoms: C7_11  and  N3_12 
REMARK    5  A    between atoms: C9_18  and  N5_19 
REMARK    6  A    between atoms: N5_19  and  C10_20 
REMARK    7  A    between atoms: C10_20  and  C11_21 
REMARK    8  A    between atoms: C16_27  and  C17_28 
ROOT
HETATM    1  C6  UNL     1      -1.365  -0.823  -0.687  1.00  0.00     0.146 A 
HETATM    2  N2  UNL     1      -1.288  -2.034  -1.227  1.00  0.00    -0.175 N 
ATOM      3  H2  UNL     1      -2.128  -2.588  -1.394  1.00  0.00     0.186 HD
HETATM    4  C7  UNL     1      -0.053  -2.517  -1.552  1.00  0.00     0.678 A 
HETATM    5  N4  UNL     1       1.068  -1.822  -1.346  1.00  0.00    -0.186 N 
ATOM      6  H4  UNL     1       1.970  -2.223  -1.603  1.00  0.00     0.184 HD
HETATM    7  C8  UNL     1       1.012  -0.614  -0.809  1.00  0.00     0.120 A 
HETATM    8  C9  UNL     1       2.235   0.064  -0.620  1.00  0.00     0.138 A 
HETATM    9  C15 UNL     1       2.088   1.335  -0.045  1.00  0.00     0.075 A 
HETATM   10  C16 UNL     1       0.866   1.860   0.296  1.00  0.00     0.052 A 
HETATM   11  N6  UNL     1      -0.247   1.145   0.080  1.00  0.00    -0.352 N 
ATOM     12  H6  UNL     1      -1.151   1.541   0.336  1.00  0.00     0.166 HD
HETATM   13  C20 UNL     1      -0.198  -0.084  -0.467  1.00  0.00     0.108 A 
ENDROOT
BRANCH   1  14
HETATM   14  N1  UNL     1      -2.484  -0.321  -0.374  1.00  0.00    -0.369 N 
ATOM     15  H1  UNL     1      -2.440   0.613   0.033  1.00  0.00     0.161 HD
BRANCH  14  16
HETATM   16  C4  UNL     1      -3.781  -0.855  -0.502  1.00  0.00     0.082 C 
HETATM   17  C5  UNL     1      -4.639  -0.131  -1.548  1.00  0.00     0.032 C 
BRANCH  16  18
HETATM   18  C2  UNL     1      -4.541  -1.034   0.801  1.00  0.00    -0.000 C 
HETATM   19  C1  UNL     1      -5.002   0.269   1.407  1.00  0.00     0.011 C 
HETATM   20  C3  UNL     1      -5.716  -1.963   0.675  1.00  0.00     0.011 C 
ENDBRANCH  16  18
ENDBRANCH  14  16
ENDBRANCH   1  14
BRANCH   4  21
HETATM   21  N3  UNL     1       0.033  -3.686  -2.073  1.00  0.00    -0.234 N 
ATOM     22  H32 UNL     1      -0.824  -4.217  -2.230  1.00  0.00     0.174 HD
ATOM     23  H31 UNL     1       0.956  -4.047  -2.316  1.00  0.00     0.174 HD
ENDBRANCH   4  21
BRANCH   8  24
HETATM   24  N5  UNL     1       3.277  -0.446  -0.940  1.00  0.00    -0.414 NA
BRANCH  24  25
HETATM   25  C10 UNL     1       4.425  -0.998  -1.288  1.00  0.00     0.201 C 
BRANCH  25  26
HETATM   26  C11 UNL     1       5.534  -0.870  -0.251  1.00  0.00     0.033 A 
HETATM   27  C12 UNL     1       6.792  -1.409  -0.295  1.00  0.00     0.022 A 
HETATM   28  C13 UNL     1       7.597  -1.160   0.739  1.00  0.00     0.008 A 
HETATM   29  C14 UNL     1       7.105  -0.389   1.757  1.00  0.00     0.050 A 
HETATM   30  S1  UNL     1       5.519  -0.036   1.227  1.00  0.00    -0.100 SA
ENDBRANCH  25  26
ENDBRANCH  24  25
ENDBRANCH   8  24
BRANCH  10  31
HETATM   31  C17 UNL     1       0.781   3.212   0.910  1.00  0.00     0.138 C 
HETATM   32  C18 UNL     1       0.135   3.164   2.266  1.00  0.00     0.058 C 
HETATM   33  C19 UNL     1      -0.038   4.107   0.020  1.00  0.00     0.058 C 
HETATM   34  F1  UNL     1       2.062   3.721   1.052  1.00  0.00    -0.237 F 
ENDBRANCH  10  31
TORSDOF 8
