REMARK  7 active torsions:
REMARK  status: ('A' for Active; 'I' for Inactive)
REMARK    1  A    between atoms: C4_4  and  C5_5 
REMARK    2  A    between atoms: C5_5  and  C6_7 
REMARK    3  A    between atoms: C6_7  and  C7_8 
REMARK    4  A    between atoms: N1_11  and  C10_12 
REMARK    5  A    between atoms: C10_12  and  C11_13 
REMARK    6  A    between atoms: C14_18  and  N3_19 
REMARK    7  A    between atoms: C15_24  and  N5_25 
ROOT
HETATM    1  C7  UNL     1      -0.033   0.101   0.373  1.00  0.00    -0.005 C 
HETATM    2  C8  UNL     1       0.539   0.520  -0.925  1.00  0.00     0.020 C 
HETATM    3  C9  UNL     1       1.901   1.096  -0.712  1.00  0.00     0.095 C 
HETATM    4  N1  UNL     1       2.479   1.006   0.564  1.00  0.00    -0.292 NA
HETATM    5  C16 UNL     1       1.658   1.146   1.694  1.00  0.00     0.095 C 
HETATM    6  C17 UNL     1       0.176   1.223   1.357  1.00  0.00     0.020 C 
ENDROOT
BRANCH   4   7
HETATM    7  C10 UNL     1       3.364  -0.088   0.676  1.00  0.00     0.076 C 
BRANCH   7   8
HETATM    8  C11 UNL     1       4.724  -0.016   0.183  1.00  0.00     0.041 A 
HETATM    9  C12 UNL     1       5.500  -1.187   0.230  1.00  0.00     0.037 A 
HETATM   10  C13 UNL     1       4.896  -2.455   0.720  1.00  0.00     0.070 C 
HETATM   11  N2  UNL     1       6.768  -1.116  -0.172  1.00  0.00    -0.195 N 
HETATM   12  C14 UNL     1       7.340   0.016  -0.618  1.00  0.00     0.677 A 
ATOM     13  H2  UNL     1       7.334  -1.964  -0.140  1.00  0.00     0.184 HD
HETATM   14  N4  UNL     1       6.631   1.132  -0.671  1.00  0.00    -0.176 N 
HETATM   15  C15 UNL     1       5.330   1.107  -0.270  1.00  0.00     0.127 A 
ATOM     16  H4  UNL     1       7.053   1.998  -1.007  1.00  0.00     0.186 HD
BRANCH  12  17
HETATM   17  N3  UNL     1       8.591   0.014  -0.998  1.00  0.00    -0.234 N 
ATOM     18  H32 UNL     1       9.138  -0.846  -0.957  1.00  0.00     0.174 HD
ATOM     19  H31 UNL     1       9.025   0.873  -1.336  1.00  0.00     0.174 HD
ENDBRANCH  12  17
BRANCH  15  20
HETATM   20  N5  UNL     1       4.746   2.256  -0.311  1.00  0.00    -0.384 N 
ATOM     21  H52 UNL     1       3.771   2.237  -0.011  1.00  0.00     0.157 HD
ATOM     22  H51 UNL     1       5.202   3.102  -0.652  1.00  0.00     0.157 HD
ENDBRANCH  15  20
ENDBRANCH   7   8
ENDBRANCH   4   7
BRANCH   1  23
HETATM   23  C6  UNL     1      -1.429  -0.419   0.358  1.00  0.00     0.088 C 
BRANCH  23  24
HETATM   24  C5  UNL     1      -2.474   0.474  -0.108  1.00  0.00     0.160 C 
HETATM   25  O1  UNL     1      -2.227   1.644  -0.445  1.00  0.00    -0.292 OA
BRANCH  24  26
HETATM   26  C4  UNL     1      -3.835  -0.019  -0.179  1.00  0.00     0.017 A 
HETATM   27  C3  UNL     1      -4.143  -1.335   0.185  1.00  0.00     0.025 A 
HETATM   28  C2  UNL     1      -5.403  -1.844   0.134  1.00  0.00    -0.022 A 
HETATM   29  C1  UNL     1      -5.671  -3.251   0.533  1.00  0.00     0.051 C 
HETATM   30  C22 UNL     1      -6.434  -1.036  -0.293  1.00  0.00     0.128 A 
HETATM   31  C20 UNL     1      -6.166   0.269  -0.660  1.00  0.00    -0.016 A 
HETATM   32  F1  UNL     1      -7.691  -1.555  -0.340  1.00  0.00    -0.205 F 
HETATM   33  C18 UNL     1      -4.860   0.787  -0.604  1.00  0.00    -0.039 A 
HETATM   34  C21 UNL     1      -7.278   1.115  -1.113  1.00  0.00     0.052 C 
HETATM   35  C19 UNL     1      -4.702   2.185  -1.018  1.00  0.00     0.050 C 
ENDBRANCH  24  26
ENDBRANCH  23  24
ENDBRANCH   1  23
TORSDOF 7
