REMARK  8 active torsions:
REMARK  status: ('A' for Active; 'I' for Inactive)
REMARK    1  A    between atoms: C2_2  and  C4_11 
REMARK    2  A    between atoms: N1_3  and  N2_5 
REMARK    3  A    between atoms: N2_5  and  S1_7 
REMARK    4  A    between atoms: C5_13  and  N3_14 
REMARK    5  A    between atoms: N3_14  and  N4_16 
REMARK    6  A    between atoms: C6_18  and  C7_19 
REMARK    7  A    between atoms: C10_28  and  N9_29 
REMARK    8  A    between atoms: C11_34  and  C12_35 
ROOT
HETATM    1  C4  UNL     1       2.199   0.054   0.006  1.00  0.00     0.064 A 
HETATM    2  S2  UNL     1       1.646   0.968  -1.390  1.00  0.00    -0.048 SA
HETATM    3  C5  UNL     1       0.011   0.555  -1.329  1.00  0.00     0.164 A 
HETATM    4  N10 UNL     1      -0.062  -0.244  -0.283  1.00  0.00    -0.330 N 
ATOM      5  H10 UNL     1      -0.956  -0.651  -0.008  1.00  0.00     0.168 HD
HETATM    6  C11 UNL     1       1.047  -0.517   0.416  1.00  0.00     0.119 A 
ENDROOT
BRANCH   3   7
HETATM    7  N3  UNL     1      -0.982   0.927  -2.126  1.00  0.00    -0.280 N 
ATOM      8  H3  UNL     1      -0.818   1.553  -2.915  1.00  0.00     0.189 HD
BRANCH   7   9
HETATM    9  N4  UNL     1      -2.255   0.435  -1.850  1.00  0.00    -0.309 N 
HETATM   10  C6  UNL     1      -3.005   0.840  -0.920  1.00  0.00     0.126 C 
ATOM     11  H4  UNL     1      -2.609  -0.312  -2.447  1.00  0.00     0.186 HD
BRANCH  10  12
HETATM   12  C7  UNL     1      -4.325   0.327  -0.637  1.00  0.00     0.066 A 
HETATM   13  C8  UNL     1      -5.040   0.889   0.443  1.00  0.00     0.134 A 
HETATM   14  N5  UNL     1      -4.461   1.923   1.210  1.00  0.00    -0.082 NA
HETATM   15  N6  UNL     1      -6.259   0.456   0.750  1.00  0.00    -0.318 N 
HETATM   16  C9  UNL     1      -6.874  -0.532   0.056  1.00  0.00     0.195 A 
ATOM     17  H6  UNL     1      -6.749   0.883   1.536  1.00  0.00     0.169 HD
HETATM   18  N7  UNL     1      -8.177  -0.977   0.403  1.00  0.00    -0.063 NA
HETATM   19  N8  UNL     1      -6.202  -1.062  -0.961  1.00  0.00    -0.316 N 
HETATM   20  C10 UNL     1      -4.948  -0.671  -1.337  1.00  0.00     0.116 A 
ATOM     21  H8  UNL     1      -6.650  -1.807  -1.494  1.00  0.00     0.170 HD
BRANCH  20  22
HETATM   22  N9  UNL     1      -4.449  -1.267  -2.315  1.00  0.00    -0.385 N 
ATOM     23  H92 UNL     1      -3.513  -0.975  -2.596  1.00  0.00     0.157 HD
ATOM     24  H91 UNL     1      -4.913  -2.011  -2.837  1.00  0.00     0.157 HD
ENDBRANCH  20  22
ENDBRANCH  10  12
ENDBRANCH   7   9
ENDBRANCH   3   7
BRANCH   1  25
HETATM   25  C2  UNL     1       3.578   0.134   0.518  1.00  0.00     0.042 C 
HETATM   26  C1  UNL     1       4.074  -0.295   1.825  1.00  0.00     0.071 C 
HETATM   27  N1  UNL     1       4.434   0.743  -0.311  1.00  0.00    -0.295 N 
ATOM     28  H1  UNL     1       4.136   1.061  -1.233  1.00  0.00     0.187 HD
BRANCH  27  29
HETATM   29  N2  UNL     1       5.740   0.929   0.123  1.00  0.00    -0.227 N 
ATOM     30  H2  UNL     1       5.976   1.745   0.687  1.00  0.00     0.200 HD
BRANCH  29  31
HETATM   31  S1  UNL     1       6.975  -0.224  -0.291  1.00  0.00     0.240 S 
HETATM   32  C3  UNL     1       7.740   0.242  -1.824  1.00  0.00     0.187 C 
HETATM   33  O1  UNL     1       6.369  -1.576  -0.386  1.00  0.00    -0.205 OA
HETATM   34  O2  UNL     1       8.059  -0.232   0.758  1.00  0.00    -0.205 OA
ENDBRANCH  29  31
ENDBRANCH  27  29
ENDBRANCH   1  25
BRANCH   6  35
HETATM   35  C12 UNL     1       0.987  -1.533   1.523  1.00  0.00     0.282 C 
HETATM   36  N11 UNL     1      -0.207  -1.600   2.330  1.00  0.00    -0.056 NA
HETATM   37  O3  UNL     1       1.913  -2.276   1.735  1.00  0.00    -0.269 OA
ENDBRANCH   6  35
TORSDOF 8
