REMARK  10 active torsions:
REMARK  status: ('A' for Active; 'I' for Inactive)
REMARK    1  A    between atoms: C2_3  and  S1_4 
REMARK    2  A    between atoms: S1_4  and  C3_5 
REMARK    3  A    between atoms: C8_16  and  C9_17 
REMARK    4  A    between atoms: N5_18  and  O1_20 
REMARK    5  A    between atoms: O1_20  and  C10_21 
REMARK    6  A    between atoms: C10_21  and  C11_22 
REMARK    7  A    between atoms: C16_31  and  N8_32 
REMARK    8  A    between atoms: N8_32  and  N9_33 
REMARK    9  A    between atoms: N9_33  and  N10_35 
REMARK   10  A    between atoms: N11_39  and  N12_40 
ROOT
HETATM    1  N1  UNL     1      -8.622  -1.151   1.670  1.00  0.00    -0.197 NA
HETATM    2  C1  UNL     1      -8.044  -0.454   0.953  1.00  0.00     0.069 C 
HETATM    3  C2  UNL     1      -7.343   0.442   0.003  1.00  0.00     0.204 C 
ENDROOT
BRANCH   3   4
HETATM    4  S1  UNL     1      -5.852  -0.166  -0.590  1.00  0.00    -0.095 SA
BRANCH   4   5
HETATM    5  C3  UNL     1      -4.304   0.066   0.217  1.00  0.00     0.117 A 
HETATM    6  C4  UNL     1      -4.062   0.751   1.362  1.00  0.00     0.108 A 
HETATM    7  C5  UNL     1      -5.125   1.187   2.261  1.00  0.00     0.104 C 
HETATM    8  C6  UNL     1      -2.774   1.028   1.801  1.00  0.00     0.079 A 
HETATM    9  N2  UNL     1      -5.912   1.533   3.019  1.00  0.00    -0.191 NA
HETATM   10  N3  UNL     1      -2.459   1.636   2.814  1.00  0.00    -0.396 N 
HETATM   11  C7  UNL     1      -1.732   0.541   0.971  1.00  0.00     0.096 A 
ATOM     12  H32 UNL     1      -3.208   1.986   3.411  1.00  0.00     0.156 HD
ATOM     13  H31 UNL     1      -1.513   1.839   3.136  1.00  0.00     0.156 HD
HETATM   14  N4  UNL     1      -0.483   0.905   1.304  1.00  0.00    -0.337 N 
HETATM   15  C17 UNL     1      -1.969  -0.147  -0.170  1.00  0.00     0.146 A 
HETATM   16  C8  UNL     1       0.578   0.604   0.548  1.00  0.00     0.125 A 
ATOM     17  H4  UNL     1      -0.338   1.431   2.166  1.00  0.00     0.167 HD
HETATM   18  N7  UNL     1       0.392  -0.106  -0.572  1.00  0.00    -0.312 N 
HETATM   19  C16 UNL     1      -0.869  -0.512  -0.985  1.00  0.00     0.238 A 
ATOM     20  H7  UNL     1       1.202  -0.356  -1.139  1.00  0.00     0.170 HD
HETATM   21  N11 UNL     1      -3.223  -0.375  -0.533  1.00  0.00    -0.247 N 
BRANCH  16  22
HETATM   22  C9  UNL     1       1.858   1.192   0.887  1.00  0.00     0.162 C 
HETATM   23  N5  UNL     1       3.001   1.057   0.328  1.00  0.00    -0.274 N 
ATOM     24  H5  UNL     1       3.147   0.452  -0.481  1.00  0.00     0.193 HD
BRANCH  23  25
HETATM   25  O1  UNL     1       4.034   1.797   0.905  1.00  0.00    -0.276 OA
BRANCH  25  26
HETATM   26  C10 UNL     1       5.205   1.332   1.467  1.00  0.00     0.241 C 
BRANCH  26  27
HETATM   27  C11 UNL     1       6.071   0.578   0.538  1.00  0.00    -0.017 A 
HETATM   28  C12 UNL     1       6.908   1.265  -0.326  1.00  0.00     0.012 A 
HETATM   29  C13 UNL     1       7.694   0.517  -1.194  1.00  0.00     0.018 A 
HETATM   30  C14 UNL     1       7.670  -0.832  -1.229  1.00  0.00     0.087 A 
HETATM   31  N6  UNL     1       6.826  -1.473  -0.366  1.00  0.00    -0.375 N 
HETATM   32  C15 UNL     1       6.049  -0.777   0.495  1.00  0.00     0.096 A 
ATOM     33  H6  UNL     1       6.781  -2.492  -0.371  1.00  0.00     0.164 HD
ENDBRANCH  26  27
ENDBRANCH  25  26
ENDBRANCH  23  25
ENDBRANCH  16  22
BRANCH  19  34
HETATM   34  N8  UNL     1      -0.990  -1.305  -1.868  1.00  0.00    -0.289 NA
BRANCH  34  35
HETATM   35  N9  UNL     1      -1.160  -2.188  -2.851  1.00  0.00    -0.180 N 
ATOM     36  H9  UNL     1      -1.297  -1.813  -3.790  1.00  0.00     0.223 HD
BRANCH  35  37
HETATM   37  N10 UNL     1      -1.168  -3.573  -2.719  1.00  0.00    -0.320 N 
ATOM     38 2H10 UNL     1      -1.029  -3.929  -1.773  1.00  0.00     0.179 HD
ATOM     39 1H10 UNL     1      -1.298  -4.249  -3.472  1.00  0.00     0.179 HD
ENDBRANCH  35  37
ENDBRANCH  34  35
ENDBRANCH  19  34
BRANCH  21  40
HETATM   40  N12 UNL     1      -3.513  -0.918  -1.795  1.00  0.00    -0.337 N 
ATOM     41 2H12 UNL     1      -4.478  -1.093  -2.074  1.00  0.00     0.177 HD
ATOM     42 1H12 UNL     1      -2.718  -1.242  -2.346  1.00  0.00     0.177 HD
ENDBRANCH  21  40
ENDBRANCH   4   5
ENDBRANCH   3   4
TORSDOF 10
