REMARK  7 active torsions:
REMARK  status: ('A' for Active; 'I' for Inactive)
REMARK    1  A    between atoms: C5_13  and  C6_14 
REMARK       I    between atoms: C6_14  and  N4_16 
REMARK    2  A    between atoms: N4_16  and  N5_18 
REMARK    3  A    between atoms: C7_20  and  C8_21 
REMARK    4  A    between atoms: C8_21  and  C9_23 
REMARK    5  A    between atoms: C9_23  and  C10_28 
REMARK    6  A    between atoms: N6_24  and  O4_26 
REMARK    7  A    between atoms: C14_32  and  N7_33 
ROOT
HETATM    1  C6  UNL     1       1.935  -1.653  -0.111  1.00  0.00     0.289 C 
HETATM    2  O2  UNL     1       1.492  -2.812  -0.335  1.00  0.00    -0.264 OA
HETATM    3  N4  UNL     1       1.098  -0.585   0.288  1.00  0.00    -0.265 N 
ATOM      4  H4  UNL     1       1.469   0.348   0.467  1.00  0.00     0.190 HD
ENDROOT
BRANCH   3   5
HETATM    5  N5  UNL     1      -0.283  -0.877   0.426  1.00  0.00    -0.305 N 
HETATM    6  C7  UNL     1      -1.121   0.023   0.110  1.00  0.00     0.164 C 
ATOM      7  H5  UNL     1      -0.595  -1.785   0.770  1.00  0.00     0.186 HD
BRANCH   6   8
HETATM    8  C8  UNL     1      -2.563  -0.275   0.252  1.00  0.00     0.217 C 
HETATM    9  O3  UNL     1      -2.894  -1.379   0.669  1.00  0.00    -0.284 OA
BRANCH   8  10
HETATM   10  C9  UNL     1      -3.528   0.784  -0.118  1.00  0.00     0.116 C 
HETATM   11  N6  UNL     1      -3.027   1.867  -0.512  1.00  0.00    -0.265 N 
ATOM     12  H6  UNL     1      -2.007   1.844  -0.514  1.00  0.00     0.194 HD
BRANCH  11  13
HETATM   13  O4  UNL     1      -3.496   3.009  -0.918  1.00  0.00    -0.289 OA
ATOM     14  H4  UNL     1      -3.117   3.828  -1.216  1.00  0.00     0.244 HD
ENDBRANCH  11  13
BRANCH  10  15
HETATM   15  C10 UNL     1      -4.958   0.565   0.030  1.00  0.00    -0.001 A 
HETATM   16  C11 UNL     1      -5.834   1.652  -0.059  1.00  0.00     0.014 A 
HETATM   17  C12 UNL     1      -7.210   1.490   0.030  1.00  0.00     0.003 A 
HETATM   18  C13 UNL     1      -7.767   0.252   0.210  1.00  0.00     0.036 A 
HETATM   19  C14 UNL     1      -6.946  -0.852   0.304  1.00  0.00     0.103 A 
HETATM   20  C15 UNL     1      -5.563  -0.655   0.210  1.00  0.00     0.050 A 
BRANCH  19  21
HETATM   21  N7  UNL     1      -7.467  -2.156   0.491  1.00  0.00    -0.116 N 
HETATM   22  O5  UNL     1      -6.681  -3.107   0.569  1.00  0.00    -0.532 OA
HETATM   23  O6  UNL     1      -8.805  -2.407   0.590  1.00  0.00    -0.532 OA
ENDBRANCH  19  21
ENDBRANCH  10  15
ENDBRANCH   8  10
ENDBRANCH   6   8
ENDBRANCH   3   5
BRANCH   1  24
HETATM   24  C5  UNL     1       3.352  -1.432  -0.272  1.00  0.00     0.134 A 
HETATM   25  C4  UNL     1       4.171  -2.423  -0.648  1.00  0.00     0.126 A 
HETATM   26  N3  UNL     1       5.569  -2.234  -0.815  1.00  0.00    -0.343 N 
HETATM   27  C3  UNL     1       6.103  -1.092  -0.609  1.00  0.00     0.215 A 
ATOM     28  H3  UNL     1       6.153  -3.019  -1.103  1.00  0.00     0.167 HD
HETATM   29  C2  UNL     1       7.539  -0.920  -0.786  1.00  0.00     0.307 A 
HETATM   30  N9  UNL     1       5.292   0.027  -0.202  1.00  0.00    -0.159 N 
HETATM   31  N2  UNL     1       8.078   0.359  -0.546  1.00  0.00    -0.152 N 
HETATM   32  O1  UNL     1       8.278  -1.856  -1.136  1.00  0.00    -0.263 OA
HETATM   33  C1  UNL     1       7.257   1.468  -0.140  1.00  0.00     0.695 A 
ATOM     34  H2  UNL     1       9.081   0.503  -0.664  1.00  0.00     0.188 HD
HETATM   35  N1  UNL     1       7.747   2.639   0.080  1.00  0.00    -0.233 N 
HETATM   36  N10 UNL     1       5.861   1.265   0.023  1.00  0.00    -0.109 N 
ATOM     37  H12 UNL     1       8.750   2.785  -0.037  1.00  0.00     0.174 HD
ATOM     38  H11 UNL     1       7.165   3.425   0.368  1.00  0.00     0.174 HD
ATOM     39  H10 UNL     1       5.270   2.045   0.310  1.00  0.00     0.208 HD
HETATM   40  N8  UNL     1       3.896  -0.151  -0.033  1.00  0.00    -0.271 N 
ATOM     41  H8  UNL     1       3.300   0.626   0.254  1.00  0.00     0.189 HD
ENDBRANCH   1  24
TORSDOF 7
