REMARK  10 active torsions:
REMARK  status: ('A' for Active; 'I' for Inactive)
REMARK    1  A    between atoms: N1_2  and  C3_4 
REMARK    2  A    between atoms: C3_4  and  C4_5 
REMARK    3  A    between atoms: C4_5  and  O1_6 
REMARK    4  A    between atoms: O1_6  and  C5_7 
REMARK    5  A    between atoms: C5_7  and  C6_8 
REMARK    6  A    between atoms: C6_8  and  N2_9 
REMARK    7  A    between atoms: N2_9  and  C7_11 
REMARK    8  A    between atoms: C9_15  and  N4_16 
REMARK    9  A    between atoms: N4_16  and  C10_18 
REMARK   10  A    between atoms: C13_25  and  N7_26 
ROOT
HETATM    1  C7  UNL     1      -0.659  -0.379  -0.042  1.00  0.00     0.679 A 
HETATM    2  N3  UNL     1      -1.226  -0.031  -1.205  1.00  0.00    -0.200 N 
ATOM      3  H3  UNL     1      -0.766  -0.294  -2.077  1.00  0.00     0.183 HD
HETATM    4  C8  UNL     1      -2.389   0.658  -1.259  1.00  0.00     0.139 A 
HETATM    5  C9  UNL     1      -2.988   0.999  -0.074  1.00  0.00     0.094 A 
HETATM    6  C13 UNL     1      -2.423   0.651   1.157  1.00  0.00     0.143 A 
HETATM    7  N8  UNL     1      -1.269  -0.031   1.123  1.00  0.00    -0.175 N 
ATOM      8  H8  UNL     1      -0.832  -0.299   2.005  1.00  0.00     0.186 HD
ENDROOT
BRANCH   1   9
HETATM    9  N2  UNL     1       0.436  -1.036   0.021  1.00  0.00    -0.224 N 
ATOM     10  H2  UNL     1       0.802  -1.262   0.946  1.00  0.00     0.177 HD
BRANCH   9  11
HETATM   11  C6  UNL     1       1.180  -1.474  -1.114  1.00  0.00     0.164 C 
BRANCH  11  12
HETATM   12  C5  UNL     1       2.094  -2.595  -0.670  1.00  0.00     0.187 C 
BRANCH  12  13
HETATM   13  O1  UNL     1       2.955  -2.345   0.263  1.00  0.00    -0.388 OA
BRANCH  13  14
HETATM   14  C4  UNL     1       3.973  -1.560   0.437  1.00  0.00     0.187 C 
BRANCH  14  15
HETATM   15  C3  UNL     1       3.724  -0.089   0.411  1.00  0.00     0.142 C 
BRANCH  15  16
HETATM   16  N1  UNL     1       4.958   0.666   0.638  1.00  0.00    -0.419 N 
HETATM   17  C1  UNL     1       5.907   0.574  -0.414  1.00  0.00     0.142 C 
HETATM   18  C2  UNL     1       4.744   1.951   1.209  1.00  0.00     0.142 C 
ENDBRANCH  15  16
ENDBRANCH  14  15
ENDBRANCH  13  14
ENDBRANCH  12  13
ENDBRANCH  11  12
ENDBRANCH   9  11
ENDBRANCH   1   9
BRANCH   6  19
HETATM   19  N7  UNL     1      -3.022   0.993   2.237  1.00  0.00    -0.383 N 
ATOM     20  H72 UNL     1      -3.900   1.512   2.263  1.00  0.00     0.157 HD
ATOM     21  H71 UNL     1      -2.610   0.739   3.135  1.00  0.00     0.157 HD
ENDBRANCH   6  19
BRANCH   5  22
HETATM   22  N4  UNL     1      -4.213   1.720  -0.104  1.00  0.00    -0.337 N 
ATOM     23  H4  UNL     1      -4.193   2.736  -0.196  1.00  0.00     0.167 HD
BRANCH  22  24
HETATM   24  C10 UNL     1      -5.347   1.116  -0.017  1.00  0.00     0.121 A 
HETATM   25  C11 UNL     1      -6.610   1.661  -0.029  1.00  0.00     0.068 A 
HETATM   26  C12 UNL     1      -7.512   0.641   0.087  1.00  0.00     0.111 A 
HETATM   27  N5  UNL     1      -6.791  -0.490   0.167  1.00  0.00    -0.310 N 
HETATM   28  N6  UNL     1      -5.484  -0.216   0.105  1.00  0.00    -0.286 N 
ATOM     29  H5  UNL     1      -7.185  -1.426   0.262  1.00  0.00     0.186 HD
ATOM     30  H6  UNL     1      -4.725  -0.897   0.143  1.00  0.00     0.188 HD
ENDBRANCH  22  24
ENDBRANCH   5  22
TORSDOF 10
