REMARK  9 active torsions:
REMARK  status: ('A' for Active; 'I' for Inactive)
REMARK    1  A    between atoms: C2_2  and  C3_3 
REMARK    2  A    between atoms: C13_14  and  N1_15 
REMARK    3  A    between atoms: N1_15  and  C15_17 
REMARK    4  A    between atoms: C15_17  and  C16_18 
REMARK    5  A    between atoms: C16_18  and  O2_19 
REMARK    6  A    between atoms: C16_18  and  C17_21 
REMARK    7  A    between atoms: C17_21  and  N2_22 
REMARK    8  A    between atoms: N2_22  and  S1_24 
REMARK    9  A    between atoms: S1_24  and  C18_27 
ROOT
HETATM    1  C3  UNL     1      -4.341  -0.633   0.950  1.00  0.00    -0.022 C 
HETATM    2  C4  UNL     1      -4.463  -1.837   1.866  1.00  0.00     0.020 C 
HETATM    3  C5  UNL     1      -5.239   0.398   1.682  1.00  0.00     0.014 C 
HETATM    4  C6  UNL     1      -5.256   1.615   0.755  1.00  0.00     0.013 C 
HETATM    5  C7  UNL     1      -3.942   2.220   1.036  1.00  0.00     0.062 C 
HETATM    6  C8  UNL     1      -3.319   3.222   0.180  1.00  0.00     0.140 C 
HETATM    7  O1  UNL     1      -3.251   4.423  -0.024  1.00  0.00    -0.297 OA
HETATM    8  C9  UNL     1      -2.622   2.089  -0.547  1.00  0.00     0.022 C 
HETATM    9  C10 UNL     1      -3.288   1.928  -1.824  1.00  0.00     0.024 C 
HETATM   10  C11 UNL     1      -1.128   2.273  -0.749  1.00  0.00     0.019 C 
HETATM   11  C12 UNL     1      -0.657   1.096  -1.538  1.00  0.00     0.026 C 
HETATM   12  C13 UNL     1      -0.333  -0.129  -0.748  1.00  0.00     0.083 C 
HETATM   13  C22 UNL     1      -0.509  -0.161   0.687  1.00  0.00     0.034 C 
HETATM   14  C23 UNL     1      -1.804  -0.790   1.220  1.00  0.00    -0.041 C 
HETATM   15  C24 UNL     1      -1.719  -0.507   2.726  1.00  0.00     0.015 C 
HETATM   16  C25 UNL     1      -1.680  -2.259   1.035  1.00  0.00     0.015 C 
HETATM   17  C26 UNL     1      -3.031  -0.144   0.589  1.00  0.00     0.011 C 
HETATM   18  C27 UNL     1      -2.799   1.322   0.678  1.00  0.00     0.018 C 
ENDROOT
BRANCH  12  19
HETATM   19  N1  UNL     1       1.062  -0.384  -1.106  1.00  0.00    -0.390 N 
HETATM   20  C14 UNL     1       1.339  -1.654  -1.582  1.00  0.00     0.149 C 
BRANCH  19  21
HETATM   21  C15 UNL     1       1.982   0.453  -0.483  1.00  0.00     0.091 C 
BRANCH  21  22
HETATM   22  C16 UNL     1       3.347   0.584  -1.092  1.00  0.00     0.174 C 
BRANCH  22  23
HETATM   23  O2  UNL     1       3.244   1.020  -2.425  1.00  0.00    -0.389 OA
ATOM     24  H2  UNL     1       4.108   1.103  -2.811  1.00  0.00     0.210 HD
ENDBRANCH  22  23
BRANCH  22  25
HETATM   25  C17 UNL     1       4.268  -0.574  -0.972  1.00  0.00     0.169 C 
BRANCH  25  26
HETATM   26  N2  UNL     1       5.551  -0.107  -1.539  1.00  0.00    -0.312 N 
ATOM     27  H2  UNL     1       5.710   0.822  -1.930  1.00  0.00     0.172 HD
BRANCH  26  28
HETATM   28  S1  UNL     1       6.738  -1.348  -1.447  1.00  0.00     0.265 S 
HETATM   29  O3  UNL     1       7.339  -1.491  -2.813  1.00  0.00    -0.200 OA
HETATM   30  O4  UNL     1       6.230  -2.641  -0.950  1.00  0.00    -0.200 OA
BRANCH  28  31
HETATM   31  C18 UNL     1       8.034  -0.732  -0.394  1.00  0.00     0.119 A 
HETATM   32  C19 UNL     1       8.403  -1.156   0.852  1.00  0.00     0.033 A 
HETATM   33  C20 UNL     1       9.401  -0.489   1.450  1.00  0.00     0.009 A 
HETATM   34  C21 UNL     1       9.964   0.553   0.771  1.00  0.00     0.051 A 
HETATM   35  S2  UNL     1       9.087   0.579  -0.687  1.00  0.00    -0.088 SA
ENDBRANCH  28  31
ENDBRANCH  26  28
ENDBRANCH  25  26
ENDBRANCH  22  25
ENDBRANCH  21  22
ENDBRANCH  19  21
ENDBRANCH  12  19
BRANCH   1  36
HETATM   36  C2  UNL     1      -5.234  -1.069  -0.182  1.00  0.00    -0.027 C 
HETATM   37  C1  UNL     1      -4.816  -1.607  -1.310  1.00  0.00     0.007 C 
ENDBRANCH   1  36
TORSDOF 9
