REMARK  11 active torsions:
REMARK  status: ('A' for Active; 'I' for Inactive)
REMARK    1  A    between atoms: O1_2  and  C2_3 
REMARK    2  A    between atoms: C2_3  and  C3_4 
REMARK    3  A    between atoms: C3_4  and  C4_5 
REMARK    4  A    between atoms: C4_5  and  C5_6 
REMARK    5  A    between atoms: C4_5  and  C31_37 
REMARK    6  A    between atoms: C6_7  and  C7_8 
REMARK    7  A    between atoms: C7_8  and  C8_9 
REMARK    8  A    between atoms: C9_10  and  C10_11 
REMARK    9  A    between atoms: C10_11  and  O2_12 
REMARK   10  A    between atoms: O2_12  and  C11_13 
REMARK   11  A    between atoms: C29_33  and  O5_34 
ROOT
HETATM    1  C8  UNL     1      -0.139   0.513   1.215  1.00  0.00     0.013 C 
HETATM    2  C9  UNL     1      -0.897   0.154  -0.022  1.00  0.00    -0.005 C 
HETATM    3  C13 UNL     1      -0.210   0.702  -1.272  1.00  0.00    -0.001 C 
HETATM    4  C14 UNL     1      -0.388  -0.032  -2.542  1.00  0.00     0.006 C 
HETATM    5  C15 UNL     1      -1.230   0.631  -3.585  1.00  0.00     0.012 C 
HETATM    6  C16 UNL     1      -2.040   1.761  -2.982  1.00  0.00    -0.018 C 
HETATM    7  C17 UNL     1      -2.693   2.427  -4.217  1.00  0.00     0.018 C 
HETATM    8  C18 UNL     1      -3.056   1.356  -2.028  1.00  0.00     0.012 C 
HETATM    9  C19 UNL     1      -2.850   1.727  -0.588  1.00  0.00     0.007 C 
HETATM   10  C20 UNL     1      -2.278   0.611   0.235  1.00  0.00     0.006 C 
HETATM   11  C21 UNL     1      -2.406   0.942   1.681  1.00  0.00    -0.022 C 
HETATM   12  C22 UNL     1      -3.133  -0.204   2.368  1.00  0.00     0.017 C 
HETATM   13  C23 UNL     1      -3.235   2.141   2.049  1.00  0.00     0.093 C 
HETATM   14  C24 UNL     1      -2.944   2.321   3.525  1.00  0.00     0.149 C 
HETATM   15  O4  UNL     1      -3.471   3.287   4.096  1.00  0.00    -0.293 OA
HETATM   16  C25 UNL     1      -2.064   1.378   4.254  1.00  0.00     0.047 C 
HETATM   17  C26 UNL     1      -1.050   0.777   3.589  1.00  0.00    -0.013 C 
HETATM   18  C27 UNL     1      -1.035   1.229   2.174  1.00  0.00    -0.013 C 
HETATM   19  C28 UNL     1      -0.641   2.677   2.350  1.00  0.00     0.021 C 
HETATM   20  C29 UNL     1      -0.984   2.732  -2.550  1.00  0.00     0.126 C 
HETATM   21  C30 UNL     1      -0.076   2.158  -1.454  1.00  0.00     0.038 C 
ENDROOT
BRANCH   1  22
HETATM   22  C7  UNL     1       0.795  -0.359   1.902  1.00  0.00     0.033 C 
BRANCH  22  23
HETATM   23  C6  UNL     1       1.999  -0.824   1.162  1.00  0.00    -0.029 C 
HETATM   24  C5  UNL     1       3.235  -0.559   1.566  1.00  0.00    -0.015 C 
BRANCH  24  25
HETATM   25  C4  UNL     1       4.451  -1.019   0.838  1.00  0.00     0.111 C 
BRANCH  25  26
HETATM   26  C3  UNL     1       4.064  -1.731  -0.405  1.00  0.00     0.045 C 
BRANCH  26  27
HETATM   27  C2  UNL     1       5.240  -2.216  -1.209  1.00  0.00     0.168 C 
BRANCH  27  28
HETATM   28  O1  UNL     1       4.683  -2.839  -2.354  1.00  0.00    -0.396 OA
HETATM   29  C1  UNL     1       5.695  -3.330  -3.177  1.00  0.00     0.201 C 
ENDBRANCH  27  28
ENDBRANCH  26  27
ENDBRANCH  25  26
BRANCH  25  30
HETATM   30  C31 UNL     1       5.293  -1.861   1.696  1.00  0.00     0.180 C 
HETATM   31  O6  UNL     1       4.792  -2.376   2.734  1.00  0.00    -0.647 OA
HETATM   32  O7  UNL     1       6.607  -2.100   1.396  1.00  0.00    -0.647 OA
ENDBRANCH  25  30
ENDBRANCH  24  25
ENDBRANCH  22  23
ENDBRANCH   1  22
BRANCH   2  33
HETATM   33  C10 UNL     1      -0.950  -1.325  -0.320  1.00  0.00     0.189 C 
BRANCH  33  34
HETATM   34  O2  UNL     1      -1.470  -2.160   0.664  1.00  0.00    -0.321 OA
BRANCH  34  35
HETATM   35  C11 UNL     1      -1.543  -3.495   0.445  1.00  0.00     0.254 C 
HETATM   36  C12 UNL     1      -2.095  -4.419   1.479  1.00  0.00     0.126 C 
HETATM   37  O3  UNL     1      -1.137  -3.966  -0.655  1.00  0.00    -0.266 OA
ENDBRANCH  34  35
ENDBRANCH  33  34
ENDBRANCH   2  33
BRANCH  20  38
HETATM   38  O5  UNL     1      -1.454   3.996  -2.242  1.00  0.00    -0.395 OA
ATOM     39  H5  UNL     1      -0.784   4.612  -1.968  1.00  0.00     0.210 HD
ENDBRANCH  20  38
TORSDOF 11
