REMARK  7 active torsions:
REMARK  status: ('A' for Active; 'I' for Inactive)
REMARK    1  A    between atoms: O1_2  and  C2_3 
REMARK    2  A    between atoms: C2_3  and  C3_4 
REMARK    3  A    between atoms: C2_3  and  C8_9 
REMARK    4  A    between atoms: C4_5  and  C5_6 
REMARK    5  A    between atoms: C11_12  and  O2_13 
REMARK    6  A    between atoms: C14_17  and  O3_18 
REMARK    7  A    between atoms: N1_22  and  O4_24 
ROOT
HETATM    1  C8  UNL     1       0.398   0.481  -0.383  1.00  0.00     0.017 A 
HETATM    2  C9  UNL     1       0.695   0.969   0.854  1.00  0.00    -0.016 A 
HETATM    3  C10 UNL     1      -0.253   1.805   1.626  1.00  0.00     0.052 C 
HETATM    4  C11 UNL     1       1.951   0.660   1.384  1.00  0.00     0.087 A 
HETATM    5  C12 UNL     1       2.876  -0.109   0.701  1.00  0.00     0.059 A 
HETATM    6  C13 UNL     1       2.576  -0.603  -0.551  1.00  0.00    -0.002 A 
HETATM    7  C14 UNL     1       1.344  -0.298  -1.068  1.00  0.00     0.083 A 
HETATM    8  C15 UNL     1       3.681  -1.396  -1.118  1.00  0.00     0.106 A 
HETATM    9  C16 UNL     1       4.746  -1.373  -0.104  1.00  0.00     0.087 A 
HETATM   10  N1  UNL     1       5.894  -1.961  -0.224  1.00  0.00    -0.269 N 
ATOM     11  H1  UNL     1       6.113  -2.488  -1.069  1.00  0.00     0.194 HD
HETATM   12  C17 UNL     1       4.230  -0.578   1.004  1.00  0.00     0.210 A 
HETATM   13  O5  UNL     1       4.868  -0.345   2.046  1.00  0.00    -0.285 OA
ENDROOT
BRANCH   1  14
HETATM   14  C2  UNL     1      -0.915   0.746  -1.021  1.00  0.00     0.179 C 
BRANCH  14  15
HETATM   15  O1  UNL     1      -0.953   2.027  -1.593  1.00  0.00    -0.382 OA
HETATM   16  C1  UNL     1      -1.121   2.012  -2.964  1.00  0.00     0.202 C 
ENDBRANCH  14  15
BRANCH  14  17
HETATM   17  C3  UNL     1      -2.073   0.521  -0.131  1.00  0.00     0.006 C 
HETATM   18  C4  UNL     1      -2.509  -0.684   0.213  1.00  0.00    -0.024 C 
BRANCH  18  19
HETATM   19  C5  UNL     1      -3.663  -0.913   1.099  1.00  0.00    -0.000 C 
HETATM   20  C6  UNL     1      -4.232   0.343   1.669  1.00  0.00     0.013 C 
HETATM   21  C7  UNL     1      -4.770  -1.698   0.438  1.00  0.00     0.013 C 
ENDBRANCH  18  19
ENDBRANCH  14  17
ENDBRANCH   1  14
BRANCH   7  22
HETATM   22  O3  UNL     1       1.003  -0.779  -2.330  1.00  0.00    -0.359 OA
ATOM     23  H3  UNL     1       1.643  -1.306  -2.794  1.00  0.00     0.217 HD
ENDBRANCH   7  22
BRANCH   4  24
HETATM   24  O2  UNL     1       2.232   1.163   2.638  1.00  0.00    -0.359 OA
ATOM     25  H2  UNL     1       3.086   0.953   2.998  1.00  0.00     0.217 HD
ENDBRANCH   4  24
BRANCH  10  26
HETATM   26  O4  UNL     1       6.821  -1.871   0.798  1.00  0.00    -0.290 OA
ATOM     27  H4  UNL     1       7.663  -2.302   0.710  1.00  0.00     0.244 HD
ENDBRANCH  10  26
TORSDOF 7
