REMARK  6 active torsions:
REMARK  status: ('A' for Active; 'I' for Inactive)
REMARK    1  A    between atoms: C1_2  and  N2_4 
REMARK    2  A    between atoms: N2_4  and  N3_6 
REMARK    3  A    between atoms: C2_8  and  C3_9 
REMARK    4  A    between atoms: C2_8  and  C12_24 
REMARK    5  A    between atoms: C3_9  and  C4_10 
REMARK    6  A    between atoms: N4_18  and  O1_20 
ROOT
HETATM    1  C4  UNL     1      -0.177  -1.170  -0.433  1.00  0.00     0.088 C 
HETATM    2  C5  UNL     1      -1.453  -1.633  -1.026  1.00  0.00     0.025 C 
HETATM    3  C6  UNL     1      -2.214  -0.695  -1.877  1.00  0.00     0.002 C 
HETATM    4  C7  UNL     1      -3.612  -0.478  -1.363  1.00  0.00     0.000 C 
HETATM    5  C8  UNL     1      -3.683  -0.073   0.072  1.00  0.00     0.000 C 
HETATM    6  C9  UNL     1      -3.396   1.383   0.294  1.00  0.00     0.007 C 
HETATM    7  C10 UNL     1      -1.946   1.691   0.471  1.00  0.00     0.078 C 
HETATM    8  C11 UNL     1      -1.167   0.620   1.142  1.00  0.00     0.097 C 
HETATM    9  N4  UNL     1      -1.465   0.487   2.420  1.00  0.00    -0.257 N 
ATOM     10  H4  UNL     1      -0.968  -0.232   2.946  1.00  0.00     0.195 HD
HETATM   11  N5  UNL     1      -0.195  -0.224   0.617  1.00  0.00    -0.373 N 
ATOM     12  H5  UNL     1       0.703  -0.143   1.095  1.00  0.00     0.161 HD
ENDROOT
BRANCH   1  13
HETATM   13  C3  UNL     1       0.750  -0.682  -1.513  1.00  0.00     0.086 C 
BRANCH  13  14
HETATM   14  C2  UNL     1       2.063  -0.197  -0.913  1.00  0.00     0.061 C 
HETATM   15  N3  UNL     1       2.336   1.034  -0.991  1.00  0.00    -0.300 N 
ATOM     16  H3  UNL     1       1.641   1.616  -1.458  1.00  0.00     0.186 HD
BRANCH  15  17
HETATM   17  N2  UNL     1       3.435   1.677  -0.533  1.00  0.00    -0.278 N 
ATOM     18  H2  UNL     1       4.353   1.499  -0.940  1.00  0.00     0.189 HD
BRANCH  17  19
HETATM   19  C1  UNL     1       3.274   2.619   0.543  1.00  0.00     0.199 C 
HETATM   20  N1  UNL     1       1.982   2.842   1.085  1.00  0.00    -0.068 NA
HETATM   21  S1  UNL     1       4.591   3.388   1.091  1.00  0.00    -0.043 SA
ENDBRANCH  17  19
ENDBRANCH  15  17
BRANCH  14  22
HETATM   22  C12 UNL     1       2.890  -1.187  -0.266  1.00  0.00     0.099 A 
HETATM   23  C13 UNL     1       4.066  -1.042   0.437  1.00  0.00     0.041 A 
HETATM   24  C14 UNL     1       4.440  -2.316   0.839  1.00  0.00     0.027 A 
HETATM   25  C15 UNL     1       3.486  -3.185   0.370  1.00  0.00     0.142 A 
HETATM   26  O2  UNL     1       2.603  -2.480  -0.267  1.00  0.00    -0.321 OA
ENDBRANCH  14  22
ENDBRANCH  13  14
ENDBRANCH   1  13
BRANCH   9  27
HETATM   27  O1  UNL     1      -2.374   1.226   3.085  1.00  0.00    -0.288 OA
ATOM     28  H1  UNL     1      -2.589   1.130   4.005  1.00  0.00     0.244 HD
ENDBRANCH   9  27
TORSDOF 6
