REMARK  7 active torsions:
REMARK  status: ('A' for Active; 'I' for Inactive)
REMARK    1  A    between atoms: C1_2  and  C2_3 
REMARK    2  A    between atoms: C1_2  and  C10_12 
REMARK    3  A    between atoms: C2_3  and  C3_4 
REMARK    4  A    between atoms: C3_4  and  C4_6 
REMARK    5  A    between atoms: C12_14  and  O3_15 
REMARK    6  A    between atoms: C15_19  and  O4_20 
REMARK    7  A    between atoms: C16_22  and  O5_23 
ROOT
HETATM    1  C10 UNL     1      -1.608  -0.436  -0.201  1.00  0.00     0.046 A 
HETATM    2  C11 UNL     1      -1.627   0.883   0.289  1.00  0.00     0.055 A 
HETATM    3  C12 UNL     1      -2.804   1.578   0.427  1.00  0.00     0.073 A 
HETATM    4  C13 UNL     1      -4.022   1.033   0.098  1.00  0.00    -0.013 A 
HETATM    5  C14 UNL     1      -4.029  -0.243  -0.380  1.00  0.00     0.013 A 
HETATM    6  C15 UNL     1      -2.824  -0.985  -0.532  1.00  0.00     0.089 A 
HETATM    7  C16 UNL     1      -5.432  -0.641  -0.677  1.00  0.00     0.154 C 
HETATM    8  C17 UNL     1      -6.235   0.253   0.225  1.00  0.00     0.041 C 
HETATM    9  C18 UNL     1      -5.432   1.552   0.149  1.00  0.00     0.045 C 
ENDROOT
BRANCH   1  10
HETATM   10  C1  UNL     1      -0.342  -1.135  -0.332  1.00  0.00     0.169 C 
HETATM   11  O1  UNL     1      -0.246  -2.285  -0.751  1.00  0.00    -0.292 OA
BRANCH  10  12
HETATM   12  C2  UNL     1       0.894  -0.388   0.075  1.00  0.00     0.162 C 
BRANCH  12  13
HETATM   13  C3  UNL     1       2.116  -1.206  -0.103  1.00  0.00     0.138 C 
HETATM   14  O2  UNL     1       2.099  -2.344  -0.549  1.00  0.00    -0.297 OA
BRANCH  13  15
HETATM   15  C4  UNL     1       3.419  -0.642   0.267  1.00  0.00     0.056 C 
HETATM   16  C5  UNL     1       4.555  -1.627   0.058  1.00  0.00     0.012 C 
HETATM   17  C6  UNL     1       5.827  -0.861  -0.075  1.00  0.00     0.001 C 
HETATM   18  C7  UNL     1       5.809   0.464   0.631  1.00  0.00     0.000 C 
HETATM   19  C8  UNL     1       4.744   1.388   0.140  1.00  0.00     0.001 C 
HETATM   20  C9  UNL     1       3.723   0.536  -0.631  1.00  0.00     0.012 C 
ENDBRANCH  13  15
ENDBRANCH  12  13
ENDBRANCH  10  12
ENDBRANCH   1  10
BRANCH   6  21
HETATM   21  O4  UNL     1      -2.965  -2.256  -1.021  1.00  0.00    -0.359 OA
ATOM     22  H4  UNL     1      -3.805  -2.635  -1.250  1.00  0.00     0.217 HD
ENDBRANCH   6  21
BRANCH   3  23
HETATM   23  O3  UNL     1      -2.779   2.878   0.915  1.00  0.00    -0.360 OA
ATOM     24  H3  UNL     1      -3.593   3.359   1.010  1.00  0.00     0.217 HD
ENDBRANCH   3  23
BRANCH   7  25
HETATM   25  O5  UNL     1      -5.765  -0.385  -2.008  1.00  0.00    -0.391 OA
ATOM     26  H5  UNL     1      -6.661  -0.639  -2.198  1.00  0.00     0.210 HD
ENDBRANCH   7  25
TORSDOF 7
