REMARK  8 active torsions:
REMARK  status: ('A' for Active; 'I' for Inactive)
REMARK    1  A    between atoms: C2_2  and  C3_3 
REMARK    2  A    between atoms: C6_7  and  O2_8 
REMARK    3  A    between atoms: C7_10  and  C8_11 
REMARK    4  A    between atoms: C8_11  and  C10_13 
REMARK    5  A    between atoms: C10_13  and  C12_15 
REMARK    6  A    between atoms: C12_15  and  O3_16 
REMARK    7  A    between atoms: C13_18  and  O4_19 
REMARK    8  A    between atoms: C14_21  and  O5_22 
ROOT
HETATM    1  C3  UNL     1       3.336   0.283   0.087  1.00  0.00     0.172 C 
HETATM    2  C4  UNL     1       4.432  -0.001   1.030  1.00  0.00     0.080 C 
HETATM    3  O1  UNL     1       2.091   0.330   0.769  1.00  0.00    -0.310 OA
HETATM    4  C5  UNL     1       0.971  -0.302   0.217  1.00  0.00     0.122 A 
HETATM    5  C6  UNL     1      -0.325   0.114   0.476  1.00  0.00     0.113 A 
HETATM    6  C7  UNL     1      -1.445  -0.510  -0.065  1.00  0.00     0.038 A 
HETATM    7  C13 UNL     1      -1.137  -1.603  -0.901  1.00  0.00     0.113 A 
HETATM    8  C14 UNL     1       0.148  -2.028  -1.172  1.00  0.00     0.115 A 
HETATM    9  C15 UNL     1       1.212  -1.378  -0.608  1.00  0.00     0.065 A 
HETATM   10  C16 UNL     1       2.631  -1.737  -0.725  1.00  0.00     0.062 C 
HETATM   11  C17 UNL     1       2.971  -2.951  -1.522  1.00  0.00     0.077 C 
HETATM   12  O6  UNL     1       3.390  -0.618  -0.959  1.00  0.00    -0.318 OA
ENDROOT
BRANCH   6  13
HETATM   13  C8  UNL     1      -2.813  -0.010   0.153  1.00  0.00    -0.062 C 
HETATM   14  C9  UNL     1      -3.503  -0.746   1.298  1.00  0.00     0.045 C 
BRANCH  13  15
HETATM   15  C10 UNL     1      -3.285   1.285  -0.260  1.00  0.00     0.035 C 
HETATM   16  C11 UNL     1      -2.759   2.584   0.159  1.00  0.00     0.017 C 
BRANCH  15  17
HETATM   17  C12 UNL     1      -4.815   1.297   0.050  1.00  0.00     0.172 C 
BRANCH  17  18
HETATM   18  O3  UNL     1      -5.418   0.255  -0.663  1.00  0.00    -0.400 OA
ATOM     19  H3  UNL     1      -6.349   0.262  -0.474  1.00  0.00     0.209 HD
ENDBRANCH  17  18
ENDBRANCH  15  17
ENDBRANCH  13  15
ENDBRANCH   6  13
BRANCH   5  20
HETATM   20  O2  UNL     1      -0.460   1.189   1.321  1.00  0.00    -0.357 OA
ATOM     21  H2  UNL     1      -1.349   1.474   1.499  1.00  0.00     0.217 HD
ENDBRANCH   5  20
BRANCH   7  22
HETATM   22  O4  UNL     1      -2.230  -2.254  -1.456  1.00  0.00    -0.357 OA
ATOM     23  H4  UNL     1      -2.022  -2.990  -2.019  1.00  0.00     0.217 HD
ENDBRANCH   7  22
BRANCH   8  24
HETATM   24  O5  UNL     1       0.414  -3.097  -2.019  1.00  0.00    -0.357 OA
ATOM     25  H5  UNL     1       1.298  -3.390  -2.206  1.00  0.00     0.217 HD
ENDBRANCH   8  24
BRANCH   1  26
HETATM   26  C2  UNL     1       3.470   1.663  -0.558  1.00  0.00     0.064 C 
HETATM   27  C1  UNL     1       3.441   2.758   0.502  1.00  0.00     0.010 C 
ENDBRANCH   1  26
TORSDOF 8
