REMARK  6 active torsions:
REMARK  status: ('A' for Active; 'I' for Inactive)
REMARK    1  A    between atoms: O1_2  and  C2_3 
REMARK    2  A    between atoms: C5_6  and  N1_7 
REMARK    3  A    between atoms: N1_7  and  S1_8 
REMARK    4  A    between atoms: S1_8  and  C6_11 
REMARK    5  A    between atoms: C12_19  and  C13_20 
REMARK    6  A    between atoms: C18_28  and  O5_29 
ROOT
HETATM    1  C2  UNL     1      -2.682  -1.753  -0.368  1.00  0.00     0.103 A 
HETATM    2  C3  UNL     1      -1.400  -1.264  -0.217  1.00  0.00     0.057 A 
HETATM    3  C4  UNL     1      -1.095   0.093  -0.193  1.00  0.00     0.036 A 
HETATM    4  C5  UNL     1       0.225   0.547  -0.037  1.00  0.00     0.136 A 
HETATM    5  C11 UNL     1       0.343   1.968  -0.036  1.00  0.00     0.080 A 
HETATM    6  C12 UNL     1      -0.716   2.806  -0.172  1.00  0.00     0.081 A 
HETATM    7  N2  UNL     1      -1.949   2.293  -0.317  1.00  0.00    -0.352 N 
ATOM      8  H2  UNL     1      -2.744   2.923  -0.419  1.00  0.00     0.166 HD
HETATM    9  C15 UNL     1      -2.156   0.954  -0.330  1.00  0.00     0.055 A 
HETATM   10  C16 UNL     1      -3.467   0.484  -0.484  1.00  0.00     0.002 A 
HETATM   11  C17 UNL     1      -4.578   1.465  -0.629  1.00  0.00     0.054 C 
HETATM   12  C18 UNL     1      -3.725  -0.870  -0.503  1.00  0.00     0.109 A 
ENDROOT
BRANCH   4  13
HETATM   13  N1  UNL     1       1.161  -0.163   0.084  1.00  0.00    -0.318 NA
BRANCH  13  14
HETATM   14  S1  UNL     1       2.046  -1.479   0.203  1.00  0.00     0.331 S 
HETATM   15  O2  UNL     1       1.738  -2.357   1.432  1.00  0.00    -0.186 OA
HETATM   16  O3  UNL     1       2.048  -2.436  -0.979  1.00  0.00    -0.186 OA
BRANCH  14  17
HETATM   17  C6  UNL     1       3.765  -1.026   0.504  1.00  0.00     0.135 A 
HETATM   18  C7  UNL     1       4.837  -1.330  -0.286  1.00  0.00     0.042 A 
HETATM   19  C8  UNL     1       6.048  -0.887   0.133  1.00  0.00    -0.036 A 
HETATM   20  C9  UNL     1       7.342  -1.145  -0.640  1.00  0.00     0.050 C 
HETATM   21  C10 UNL     1       6.073  -0.180   1.304  1.00  0.00     0.059 A 
HETATM   22 BR1  UNL     1       7.618   0.585   2.171  1.00  0.00    -0.042 Br
HETATM   23  S2  UNL     1       4.443  -0.150   1.785  1.00  0.00    -0.068 SA
ENDBRANCH  14  17
ENDBRANCH  13  14
ENDBRANCH   4  13
BRANCH   6  24
HETATM   24  C13 UNL     1      -0.500   4.246  -0.160  1.00  0.00     0.172 C 
HETATM   25  C14 UNL     1       0.869   4.800   0.002  1.00  0.00     0.098 C 
HETATM   26  O4  UNL     1      -1.483   5.003  -0.286  1.00  0.00    -0.291 OA
ENDBRANCH   6  24
BRANCH   1  27
HETATM   27  O1  UNL     1      -2.963  -3.109  -0.389  1.00  0.00    -0.353 OA
HETATM   28  C1  UNL     1      -1.969  -4.092  -0.259  1.00  0.00     0.210 C 
ENDBRANCH   1  27
BRANCH  12  29
HETATM   29  O5  UNL     1      -5.034  -1.281  -0.658  1.00  0.00    -0.352 OA
HETATM   30  C19 UNL     1      -5.914  -1.502   0.447  1.00  0.00     0.210 C 
ENDBRANCH  12  29
TORSDOF 6
