REMARK  5 active torsions:
REMARK  status: ('A' for Active; 'I' for Inactive)
REMARK    1  A    between atoms: C4_7  and  C5_8 
REMARK    2  A    between atoms: C5_8  and  N2_9 
REMARK    3  A    between atoms: C8_12  and  N3_13 
REMARK    4  A    between atoms: C19_27  and  C20_28 
REMARK    5  A    between atoms: C20_28  and  C21_29 
ROOT
HETATM    1  N2  UNL     1       1.525   0.720  -0.075  1.00  0.00    -0.382 N 
HETATM    2  C6  UNL     1       1.215  -0.644  -0.361  1.00  0.00     0.128 C 
HETATM    3  C7  UNL     1      -0.113  -1.129   0.276  1.00  0.00     0.073 C 
HETATM    4  C8  UNL     1      -1.087  -0.103  -0.123  1.00  0.00     0.006 C 
HETATM    5  C18 UNL     1      -0.753   1.231   0.520  1.00  0.00     0.105 C 
HETATM    6  C19 UNL     1       0.556   1.685  -0.191  1.00  0.00    -0.010 C 
ENDROOT
BRANCH   4   7
HETATM    7  N3  UNL     1      -2.444  -0.373  -0.407  1.00  0.00    -0.266 N 
HETATM    8  C9  UNL     1      -3.380  -1.090   0.266  1.00  0.00     0.112 A 
HETATM    9  C10 UNL     1      -4.579  -1.043  -0.467  1.00  0.00     0.050 A 
HETATM   10  C17 UNL     1      -3.312  -1.804   1.523  1.00  0.00     0.178 C 
HETATM   11  N4  UNL     1      -4.383  -0.320  -1.546  1.00  0.00    -0.305 N 
HETATM   12  C13 UNL     1      -5.751  -1.769   0.055  1.00  0.00     0.035 C 
HETATM   13  C11 UNL     1      -5.339  -0.001  -2.584  1.00  0.00     0.161 C 
HETATM   14  C12 UNL     1      -3.135   0.084  -1.530  1.00  0.00     0.333 A 
HETATM   15  O2  UNL     1      -2.571   0.801  -2.401  1.00  0.00    -0.246 OA
HETATM   16  C14 UNL     1      -6.714  -0.936   0.832  1.00  0.00     0.016 C 
HETATM   17  C15 UNL     1      -5.356  -2.975   0.841  1.00  0.00     0.018 C 
HETATM   18  C16 UNL     1      -4.430  -2.661   1.978  1.00  0.00     0.086 C 
HETATM   19  O3  UNL     1      -2.306  -1.718   2.265  1.00  0.00    -0.291 OA
ENDBRANCH   4   7
BRANCH   6  20
HETATM   20  C20 UNL     1       0.751   3.111  -0.005  1.00  0.00     0.057 C 
BRANCH  20  21
HETATM   21  C21 UNL     1       1.697   3.765  -0.975  1.00  0.00    -0.009 A 
HETATM   22  C22 UNL     1       1.900   5.267  -0.835  1.00  0.00     0.005 A 
HETATM   23  C23 UNL     1       3.023   4.312  -0.619  1.00  0.00     0.005 A 
ENDBRANCH  20  21
ENDBRANCH   6  20
BRANCH   1  24
HETATM   24  C5  UNL     1       2.662   0.877   0.760  1.00  0.00     0.167 C 
BRANCH  24  25
HETATM   25  C4  UNL     1       3.788   0.022   0.287  1.00  0.00     0.035 A 
HETATM   26  C3  UNL     1       4.196   0.172  -1.022  1.00  0.00     0.254 A 
HETATM   27  N1  UNL     1       5.208  -0.582  -1.472  1.00  0.00    -0.325 N 
HETATM   28  O1  UNL     1       3.689   0.970  -1.843  1.00  0.00    -0.268 OA
HETATM   29  C2  UNL     1       5.805  -1.467  -0.652  1.00  0.00     0.030 A 
ATOM     30  H1  UNL     1       5.526  -0.485  -2.436  1.00  0.00     0.169 HD
HETATM   31  C1  UNL     1       6.905  -2.310  -1.199  1.00  0.00     0.070 C 
HETATM   32  C26 UNL     1       5.425  -1.640   0.658  1.00  0.00     0.062 A 
HETATM   33  C24 UNL     1       4.385  -0.871   1.143  1.00  0.00    -0.025 A 
HETATM   34 CL1  UNL     1       6.180  -2.792   1.746  1.00  0.00    -0.082 Cl
HETATM   35  C25 UNL     1       3.985  -1.018   2.567  1.00  0.00     0.050 C 
ENDBRANCH  24  25
ENDBRANCH   1  24
TORSDOF 5
