REMARK  8 active torsions:
REMARK  status: ('A' for Active; 'I' for Inactive)
REMARK    1  A    between atoms: C5_6  and  N2_7 
REMARK    2  A    between atoms: N2_7  and  S1_9 
REMARK    3  A    between atoms: S1_9  and  C6_12 
REMARK    4  A    between atoms: C9_15  and  O3_16 
REMARK    5  A    between atoms: O3_16  and  C10_17 
REMARK    6  A    between atoms: C13_20  and  C14_21 
REMARK    7  A    between atoms: C15_22  and  C16_23 
REMARK    8  A    between atoms: N4_29  and  O4_30 
ROOT
HETATM    1  N1  UNL     1      -9.281  -0.454   3.369  1.00  0.00    -0.191 NA
HETATM    2  C1  UNL     1      -8.644  -0.412   2.403  1.00  0.00     0.099 C 
HETATM    3  C2  UNL     1      -7.853  -0.370   1.197  1.00  0.00     0.047 A 
HETATM    4  C3  UNL     1      -6.908  -1.334   0.930  1.00  0.00     0.025 A 
HETATM    5  C4  UNL     1      -6.157  -1.264  -0.249  1.00  0.00     0.035 A 
HETATM    6  C5  UNL     1      -6.347  -0.243  -1.149  1.00  0.00     0.081 A 
HETATM    7  C24 UNL     1      -7.321   0.706  -0.824  1.00  0.00     0.145 A 
HETATM    8  F1  UNL     1      -7.491   1.708  -1.730  1.00  0.00    -0.204 F 
HETATM    9  C25 UNL     1      -8.073   0.669   0.319  1.00  0.00     0.067 A 
ENDROOT
BRANCH   6  10
HETATM   10  N2  UNL     1      -5.619  -0.143  -2.358  1.00  0.00    -0.278 N 
ATOM     11  H2  UNL     1      -6.038   0.357  -3.142  1.00  0.00     0.179 HD
BRANCH  10  12
HETATM   12  S1  UNL     1      -4.069  -0.825  -2.558  1.00  0.00     0.263 S 
HETATM   13  O1  UNL     1      -4.059  -2.333  -2.391  1.00  0.00    -0.200 OA
HETATM   14  O2  UNL     1      -3.550  -0.575  -3.956  1.00  0.00    -0.200 OA
BRANCH  12  15
HETATM   15  C6  UNL     1      -2.876  -0.156  -1.472  1.00  0.00     0.080 A 
HETATM   16  C7  UNL     1      -2.593  -0.780  -0.282  1.00  0.00     0.028 A 
HETATM   17  C8  UNL     1      -1.631  -0.202   0.556  1.00  0.00     0.039 A 
HETATM   18  C9  UNL     1      -0.981   0.958   0.209  1.00  0.00     0.076 A 
HETATM   19  C22 UNL     1      -1.282   1.569  -0.996  1.00  0.00     0.039 A 
HETATM   20  C23 UNL     1      -2.238   1.008  -1.846  1.00  0.00     0.028 A 
BRANCH  18  21
HETATM   21  O3  UNL     1      -0.032   1.506   1.062  1.00  0.00    -0.311 OA
BRANCH  21  22
HETATM   22  C10 UNL     1       1.309   1.127   0.939  1.00  0.00     0.076 A 
HETATM   23  C11 UNL     1       1.697   0.216  -0.020  1.00  0.00     0.039 A 
HETATM   24  C12 UNL     1       3.028  -0.117  -0.093  1.00  0.00     0.023 A 
HETATM   25  C13 UNL     1       3.977   0.429   0.759  1.00  0.00     0.018 A 
HETATM   26  C20 UNL     1       3.533   1.348   1.713  1.00  0.00     0.023 A 
HETATM   27  C21 UNL     1       2.203   1.697   1.805  1.00  0.00     0.039 A 
BRANCH  25  28
HETATM   28  C14 UNL     1       5.368   0.087   0.689  1.00  0.00    -0.060 C 
HETATM   29  C15 UNL     1       6.549  -0.186   0.643  1.00  0.00    -0.039 C 
BRANCH  29  30
HETATM   30  C16 UNL     1       7.950  -0.499   0.571  1.00  0.00     0.130 A 
HETATM   31  C17 UNL     1       8.918   0.336   1.095  1.00  0.00     0.129 A 
HETATM   32  N3  UNL     1      10.231   0.044   1.028  1.00  0.00    -0.371 N 
HETATM   33  C18 UNL     1      10.657  -1.088   0.440  1.00  0.00     0.107 A 
ATOM     34  H3  UNL     1      10.911   0.690   1.428  1.00  0.00     0.164 HD
HETATM   35  C19 UNL     1       9.701  -1.928  -0.087  1.00  0.00     0.141 A 
HETATM   36  N4  UNL     1       8.387  -1.635  -0.019  1.00  0.00    -0.225 N 
BRANCH  36  37
HETATM   37  O4  UNL     1       7.412  -2.463  -0.540  1.00  0.00    -0.282 OA
ATOM     38  H4  UNL     1       7.719  -3.261  -0.954  1.00  0.00     0.245 HD
ENDBRANCH  36  37
ENDBRANCH  29  30
ENDBRANCH  25  28
ENDBRANCH  21  22
ENDBRANCH  18  21
ENDBRANCH  12  15
ENDBRANCH  10  12
ENDBRANCH   6  10
TORSDOF 8
