REMARK  6 active torsions:
REMARK  status: ('A' for Active; 'I' for Inactive)
REMARK    1  A    between atoms: C11_12  and  C12_13 
REMARK    2  A    between atoms: C14_16  and  O1_17 
REMARK    3  A    between atoms: O1_17  and  C15_18 
REMARK    4  A    between atoms: C15_18  and  C16_19 
REMARK    5  A    between atoms: C16_19  and  N2_20 
REMARK    6  A    between atoms: C21_27  and  O4_28 
ROOT
HETATM    1  C1  UNL     1      -2.533   3.445  -0.502  1.00  0.00     0.010 C 
HETATM    2  C2  UNL     1      -2.768   1.966  -0.226  1.00  0.00    -0.013 C 
HETATM    3  C3  UNL     1      -3.412   1.391  -1.446  1.00  0.00     0.005 C 
HETATM    4  C4  UNL     1      -4.088   0.126  -1.019  1.00  0.00     0.006 C 
HETATM    5  C5  UNL     1      -3.238  -1.065  -1.067  1.00  0.00    -0.002 A 
HETATM    6  C6  UNL     1      -3.569  -1.988   0.119  1.00  0.00     0.014 A 
HETATM    7  C7  UNL     1      -4.122  -3.349  -0.323  1.00  0.00     0.012 C 
HETATM    8  C8  UNL     1      -2.127  -1.978   0.455  1.00  0.00     0.114 A 
HETATM    9  C9  UNL     1      -1.582  -3.356   0.319  1.00  0.00     0.075 C 
HETATM   10  N1  UNL     1      -1.151  -4.423   0.194  1.00  0.00    -0.196 NA
HETATM   11  C10 UNL     1      -1.859  -1.068  -0.725  1.00  0.00     0.036 A 
HETATM   12  C11 UNL     1      -1.036   0.099  -0.379  1.00  0.00     0.038 C 
HETATM   13  C14 UNL     1       0.083  -0.473   0.474  1.00  0.00     0.276 C 
HETATM   14  O3  UNL     1      -0.347  -1.054   1.644  1.00  0.00    -0.323 OA
HETATM   15  C21 UNL     1      -1.662  -1.411   1.727  1.00  0.00     0.186 C 
HETATM   16  C22 UNL     1      -2.403  -0.218   2.247  1.00  0.00     0.071 C 
HETATM   17  C23 UNL     1      -1.771   1.078   1.842  1.00  0.00     0.011 C 
HETATM   18  C24 UNL     1      -1.607   1.241   0.331  1.00  0.00     0.007 C 
ENDROOT
BRANCH  15  19
HETATM   19  O4  UNL     1      -1.746  -2.431   2.707  1.00  0.00    -0.364 OA
ATOM     20  H4  UNL     1      -1.445  -2.064   3.530  1.00  0.00     0.213 HD
ENDBRANCH  15  19
BRANCH  12  21
HETATM   21  C12 UNL     1      -0.329   0.570  -1.617  1.00  0.00    -0.004 C 
HETATM   22  C13 UNL     1       0.262   1.705  -1.814  1.00  0.00     0.053 C 
HETATM   23 BR1  UNL     1       1.085   2.002  -3.546  1.00  0.00    -0.064 Br
ENDBRANCH  12  21
BRANCH  13  24
HETATM   24  O1  UNL     1       1.084   0.405   0.782  1.00  0.00    -0.358 OA
BRANCH  24  25
HETATM   25  C15 UNL     1       2.328  -0.027   0.332  1.00  0.00     0.201 C 
BRANCH  25  26
HETATM   26  C16 UNL     1       3.342   1.048   0.727  1.00  0.00     0.298 C 
BRANCH  26  27
HETATM   27  N2  UNL     1       4.675   0.751   0.328  1.00  0.00     0.094 N 
HETATM   28  C17 UNL     1       5.301  -0.349   0.989  1.00  0.00     0.298 C 
HETATM   29  C18 UNL     1       6.799  -0.208   0.757  1.00  0.00     0.198 C 
HETATM   30  O2  UNL     1       7.062   0.722  -0.259  1.00  0.00    -0.388 OA
HETATM   31  C19 UNL     1       6.320   0.311  -1.381  1.00  0.00     0.198 C 
HETATM   32  C20 UNL     1       4.855   0.669  -1.098  1.00  0.00     0.298 C 
ENDBRANCH  26  27
ENDBRANCH  25  26
ENDBRANCH  24  25
ENDBRANCH  13  24
TORSDOF 6
