REMARK  8 active torsions:
REMARK  status: ('A' for Active; 'I' for Inactive)
REMARK    1  A    between atoms: C2_2  and  C3_3 
REMARK    2  A    between atoms: C3_3  and  C4_4 
REMARK    3  A    between atoms: C9_9  and  C11_11 
REMARK       I    between atoms: C11_11  and  N1_13 
REMARK    4  A    between atoms: N1_13  and  C12_15 
REMARK    5  A    between atoms: C12_15  and  C13_16 
REMARK    6  A    between atoms: C13_16  and  N2_17 
REMARK    7  A    between atoms: N3_22  and  C18_23 
REMARK    8  A    between atoms: C18_23  and  N4_25 
ROOT
HETATM    1  C4  UNL     1      -2.901   1.373  -1.409  1.00  0.00     0.089 C 
HETATM    2  C5  UNL     1      -2.298   0.511  -2.516  1.00  0.00     0.037 C 
HETATM    3  C6  UNL     1      -0.979  -0.024  -1.971  1.00  0.00    -0.012 C 
HETATM    4  C7  UNL     1      -1.156  -1.460  -1.522  1.00  0.00     0.018 C 
HETATM    5  C8  UNL     1       0.083  -0.003  -3.034  1.00  0.00     0.018 C 
HETATM    6  C9  UNL     1      -0.767   0.930  -0.862  1.00  0.00     0.119 C 
HETATM    7  C10 UNL     1      -0.680   2.356  -1.606  1.00  0.00     0.050 C 
HETATM    8  N3  UNL     1      -2.082   0.985  -0.225  1.00  0.00    -0.335 N 
ENDROOT
BRANCH   6   9
HETATM    9  C11 UNL     1       0.440   0.894  -0.099  1.00  0.00     0.246 C 
HETATM   10  O1  UNL     1       0.719   1.888   0.679  1.00  0.00    -0.271 OA
HETATM   11  N1  UNL     1       1.378  -0.140  -0.116  1.00  0.00    -0.357 N 
ATOM     12  H1  UNL     1       1.205  -0.945  -0.718  1.00  0.00     0.162 HD
BRANCH  11  13
HETATM   13  C12 UNL     1       2.601  -0.120   0.693  1.00  0.00     0.152 C 
BRANCH  13  14
HETATM   14  C13 UNL     1       3.439  -1.343   0.490  1.00  0.00     0.292 C 
BRANCH  14  15
HETATM   15  N2  UNL     1       4.608  -1.187   1.352  1.00  0.00     0.090 N 
HETATM   16  C14 UNL     1       5.460  -0.110   0.886  1.00  0.00     0.272 C 
HETATM   17  C15 UNL     1       6.873  -0.480   1.289  1.00  0.00     0.032 C 
HETATM   18  C16 UNL     1       6.733  -1.819   1.949  1.00  0.00     0.032 C 
HETATM   19  C17 UNL     1       5.462  -2.361   1.296  1.00  0.00     0.272 C 
ENDBRANCH  14  15
ENDBRANCH  13  14
ENDBRANCH  11  13
ENDBRANCH   6   9
BRANCH   8  20
HETATM   20  C18 UNL     1      -2.539   0.928   1.098  1.00  0.00     0.172 C 
HETATM   21  S1  UNL     1      -3.985   1.870   1.286  1.00  0.00    -0.041 SA
BRANCH  20  22
HETATM   22  N4  UNL     1      -2.102   0.480   2.329  1.00  0.00    -0.367 N 
HETATM   23  C19 UNL     1      -0.920  -0.199   2.781  1.00  0.00     0.151 C 
HETATM   24  C20 UNL     1      -3.033   0.722   3.515  1.00  0.00     0.151 C 
ENDBRANCH  20  22
ENDBRANCH   8  20
BRANCH   1  25
HETATM   25  C3  UNL     1      -4.361   1.022  -1.312  1.00  0.00     0.025 C 
BRANCH  25  26
HETATM   26  C2  UNL     1      -4.720  -0.375  -0.996  1.00  0.00    -0.002 C 
HETATM   27  C1  UNL     1      -6.266  -0.412  -0.933  1.00  0.00     0.005 C 
ENDBRANCH  25  26
ENDBRANCH   1  25
TORSDOF 8
