REMARK  7 active torsions:
REMARK  status: ('A' for Active; 'I' for Inactive)
REMARK    1  A    between atoms: C2_2  and  C3_3 
REMARK       I    between atoms: C3_3  and  N1_5 
REMARK    2  A    between atoms: C6_8  and  C7_9 
REMARK       I    between atoms: C7_9  and  N2_11 
REMARK    3  A    between atoms: N2_11  and  C8_13 
REMARK    4  A    between atoms: C13_18  and  N3_19 
REMARK    5  A    between atoms: N3_19  and  C14_20 
REMARK    6  A    between atoms: N3_19  and  C16_22 
REMARK    7  A    between atoms: C16_22  and  C19_25 
ROOT
HETATM    1  C8  UNL     1      -1.145  -0.841  -1.542  1.00  0.00     0.130 C 
HETATM    2  C9  UNL     1      -0.852  -2.209  -2.255  1.00  0.00     0.031 C 
HETATM    3  C10 UNL     1      -1.652  -2.173  -3.542  1.00  0.00     0.003 C 
HETATM    4  C11 UNL     1      -2.808  -1.202  -3.470  1.00  0.00     0.006 C 
HETATM    5  C12 UNL     1      -3.463  -1.385  -2.091  1.00  0.00     0.054 C 
HETATM    6  C13 UNL     1      -2.496  -1.021  -0.969  1.00  0.00     0.008 C 
ENDROOT
BRANCH   1   7
HETATM    7  N2  UNL     1      -0.053  -0.729  -0.612  1.00  0.00    -0.351 N 
HETATM    8  C7  UNL     1       1.226  -0.224  -1.011  1.00  0.00     0.222 C 
HETATM    9  O2  UNL     1       1.347   0.114  -2.230  1.00  0.00    -0.273 OA
ATOM     10  H2  UNL     1      -0.194  -1.017   0.356  1.00  0.00     0.163 HD
BRANCH   8  11
HETATM   11  C6  UNL     1       2.377  -0.075  -0.124  1.00  0.00     0.081 C 
HETATM   12  C5  UNL     1       2.370  -1.236   0.867  1.00  0.00     0.034 C 
HETATM   13  C4  UNL     1       3.605  -1.250   1.718  1.00  0.00     0.126 C 
HETATM   14  N1  UNL     1       4.361   0.001   1.612  1.00  0.00    -0.352 N 
HETATM   15  C3  UNL     1       5.773  -0.085   1.656  1.00  0.00     0.219 C 
HETATM   16  C22 UNL     1       3.670   1.256   1.477  1.00  0.00     0.126 C 
HETATM   17  O1  UNL     1       6.313  -1.232   1.784  1.00  0.00    -0.273 OA
HETATM   18  C21 UNL     1       2.412   1.203   0.668  1.00  0.00     0.034 C 
BRANCH  15  19
HETATM   19  C2  UNL     1       6.648   1.119   1.561  1.00  0.00     0.098 C 
HETATM   20  C1  UNL     1       8.101   0.671   1.674  1.00  0.00     0.014 C 
ENDBRANCH  15  19
ENDBRANCH   8  11
ENDBRANCH   1   7
BRANCH   6  21
HETATM   21  N3  UNL     1      -2.976  -0.264   0.079  1.00  0.00    -0.377 N 
BRANCH  21  22
HETATM   22  C14 UNL     1      -3.600  -1.048   1.097  1.00  0.00     0.119 C 
HETATM   23  C15 UNL     1      -2.658  -1.916   1.900  1.00  0.00     0.026 C 
ENDBRANCH  21  22
BRANCH  21  24
HETATM   24  C16 UNL     1      -3.335   1.083   0.049  1.00  0.00     0.024 C 
HETATM   25  C17 UNL     1      -4.516   1.466  -0.825  1.00  0.00     0.038 C 
HETATM   26  C18 UNL     1      -3.749   1.502   1.452  1.00  0.00     0.038 C 
BRANCH  24  27
HETATM   27  C19 UNL     1      -2.204   2.015  -0.331  1.00  0.00     0.026 C 
HETATM   28  C20 UNL     1      -2.568   3.472  -0.370  1.00  0.00     0.007 C 
ENDBRANCH  24  27
ENDBRANCH  21  24
ENDBRANCH   6  21
TORSDOF 7
