REMARK  6 active torsions:
REMARK  status: ('A' for Active; 'I' for Inactive)
REMARK    1  A    between atoms: C1_2  and  C2_3 
REMARK       I    between atoms: C1_2  and  N3_20 
REMARK    2  A    between atoms: C2_3  and  C3_4 
REMARK    3  A    between atoms: C3_4  and  C4_5 
REMARK    4  A    between atoms: C4_5  and  N1_6 
REMARK    5  A    between atoms: C7_9  and  C8_10 
REMARK       I    between atoms: C8_10  and  N2_12 
REMARK    6  A    between atoms: N3_20  and  C16_22 
ROOT
HETATM    1  N1  UNL     1       0.588  -0.324   0.877  1.00  0.00    -0.393 N 
HETATM    2  C5  UNL     1       1.123   0.782   1.641  1.00  0.00     0.122 C 
HETATM    3  C6  UNL     1       2.503   0.342   2.157  1.00  0.00     0.034 C 
HETATM    4  C7  UNL     1       3.362   0.299   0.883  1.00  0.00     0.084 C 
HETATM    5  C14 UNL     1       2.862  -0.931   0.154  1.00  0.00     0.058 C 
HETATM    6  C15 UNL     1       1.406  -0.763  -0.175  1.00  0.00     0.059 C 
ENDROOT
BRANCH   1   7
HETATM    7  C4  UNL     1      -0.042  -1.305   1.705  1.00  0.00     0.122 C 
BRANCH   7   8
HETATM    8  C3  UNL     1      -0.651  -2.456   0.952  1.00  0.00     0.029 C 
BRANCH   8   9
HETATM    9  C2  UNL     1      -1.700  -2.097  -0.036  1.00  0.00     0.104 C 
BRANCH   9  10
HETATM   10  C1  UNL     1      -2.905  -1.457   0.482  1.00  0.00     0.217 C 
HETATM   11  O1  UNL     1      -3.087  -1.291   1.711  1.00  0.00    -0.274 OA
HETATM   12  N3  UNL     1      -3.916  -0.997  -0.398  1.00  0.00    -0.356 N 
ATOM     13  H3  UNL     1      -3.784  -1.124  -1.402  1.00  0.00     0.162 HD
BRANCH  12  14
HETATM   14  C16 UNL     1      -5.126  -0.356   0.066  1.00  0.00     0.084 C 
HETATM   15  C17 UNL     1      -6.356  -1.161  -0.251  1.00  0.00     0.025 C 
HETATM   16  C18 UNL     1      -7.326  -0.469  -1.161  1.00  0.00     0.002 C 
HETATM   17  C19 UNL     1      -8.151   0.574  -0.472  1.00  0.00     0.000 C 
HETATM   18  C20 UNL     1      -7.517   1.934  -0.449  1.00  0.00     0.000 C 
HETATM   19  C21 UNL     1      -6.208   1.882   0.305  1.00  0.00     0.002 C 
HETATM   20  C22 UNL     1      -5.178   1.049  -0.445  1.00  0.00     0.025 C 
ENDBRANCH  12  14
ENDBRANCH   9  10
ENDBRANCH   8   9
ENDBRANCH   7   8
ENDBRANCH   1   7
BRANCH   4  21
HETATM   21  C8  UNL     1       4.788   0.223   1.198  1.00  0.00     0.224 C 
HETATM   22  O2  UNL     1       5.078   0.002   2.428  1.00  0.00    -0.273 OA
HETATM   23  N2  UNL     1       5.847   0.367   0.281  1.00  0.00    -0.352 N 
HETATM   24  C9  UNL     1       5.583   0.641  -1.104  1.00  0.00     0.125 C 
HETATM   25  C13 UNL     1       7.213   0.237   0.714  1.00  0.00     0.125 C 
HETATM   26  C10 UNL     1       6.523   1.782  -1.519  1.00  0.00     0.020 C 
HETATM   27  C11 UNL     1       7.963   1.421  -1.361  1.00  0.00     0.003 C 
HETATM   28  C12 UNL     1       8.187   0.259  -0.433  1.00  0.00     0.020 C 
ENDBRANCH   4  21
TORSDOF 6
