REMARK  6 active torsions:
REMARK  status: ('A' for Active; 'I' for Inactive)
REMARK    1  A    between atoms: N2_6  and  C5_7 
REMARK    2  A    between atoms: C9_11  and  C10_12 
REMARK    3  A    between atoms: C9_11  and  N4_18 
REMARK    4  A    between atoms: C10_12  and  C11_13 
REMARK    5  A    between atoms: C11_13  and  C12_14 
REMARK    6  A    between atoms: C12_14  and  C13_15 
ROOT
HETATM    1  C5  UNL     1       1.468  -0.664   0.367  1.00  0.00     0.033 C 
HETATM    2  C6  UNL     1       1.490  -1.669   1.516  1.00  0.00     0.039 C 
HETATM    3  C7  UNL     1       0.740   0.553   0.853  1.00  0.00     0.033 C 
HETATM    4  C8  UNL     1      -0.717   0.254   1.032  1.00  0.00     0.044 C 
HETATM    5  C9  UNL     1      -1.459  -0.185  -0.180  1.00  0.00     0.160 C 
HETATM    6  C19 UNL     1      -0.419  -0.323  -1.290  1.00  0.00     0.044 C 
HETATM    7  C20 UNL     1       0.699  -1.200  -0.805  1.00  0.00     0.033 C 
ENDROOT
BRANCH   5   8
HETATM    8  C10 UNL     1      -2.627   0.598  -0.610  1.00  0.00     0.042 C 
BRANCH   8   9
HETATM    9  C11 UNL     1      -2.571   1.994  -1.010  1.00  0.00     0.011 C 
BRANCH   9  10
HETATM   10  C12 UNL     1      -2.096   3.031  -0.043  1.00  0.00     0.099 C 
BRANCH  10  11
HETATM   11  C13 UNL     1      -2.185   4.409  -0.679  1.00  0.00     0.231 C 
HETATM   12  N3  UNL     1      -1.760   5.483   0.130  1.00  0.00    -0.062 NA
HETATM   13  O1  UNL     1      -2.617   4.534  -1.852  1.00  0.00    -0.277 OA
ENDBRANCH  10  11
ENDBRANCH   9  10
ENDBRANCH   8   9
ENDBRANCH   5   8
BRANCH   5  14
HETATM   14  N4  UNL     1      -1.948  -1.535   0.077  1.00  0.00     0.098 N 
HETATM   15  C14 UNL     1      -2.788  -2.095  -0.918  1.00  0.00     0.273 C 
HETATM   16  C15 UNL     1      -2.755  -3.623  -0.694  1.00  0.00     0.030 C 
HETATM   17  C16 UNL     1      -3.552  -3.862   0.570  1.00  0.00     0.003 C 
HETATM   18  C17 UNL     1      -3.826  -2.574   1.311  1.00  0.00     0.030 C 
HETATM   19  C18 UNL     1      -2.614  -1.656   1.360  1.00  0.00     0.273 C 
ENDBRANCH   5  14
BRANCH   1  20
HETATM   20  N2  UNL     1       2.828  -0.401  -0.004  1.00  0.00    -0.325 N 
HETATM   21  C4  UNL     1       3.920  -0.947   0.774  1.00  0.00     0.130 C 
HETATM   22  C3  UNL     1       4.831   0.234   1.181  1.00  0.00     0.040 C 
HETATM   23  C2  UNL     1       5.475   0.773  -0.077  1.00  0.00     0.128 C 
HETATM   24  N1  UNL     1       4.421   1.164  -1.003  1.00  0.00    -0.338 N 
HETATM   25  C1  UNL     1       4.581   2.327  -1.842  1.00  0.00     0.154 C 
HETATM   26  C21 UNL     1       3.226   0.414  -1.102  1.00  0.00     0.320 C 
HETATM   27  O2  UNL     1       2.542   0.464  -2.116  1.00  0.00    -0.247 OA
ENDBRANCH   1  20
TORSDOF 6
