REMARK  6 active torsions:
REMARK  status: ('A' for Active; 'I' for Inactive)
REMARK    1  A    between atoms: C2_2  and  C3_3 
REMARK    2  A    between atoms: C3_3  and  S1_4 
REMARK    3  A    between atoms: S1_4  and  N1_7 
REMARK    4  A    between atoms: C6_10  and  C7_11 
REMARK       I    between atoms: C7_11  and  N2_13 
REMARK    5  A    between atoms: N2_13  and  C8_15 
REMARK    6  A    between atoms: C12_19  and  C13_20 
ROOT
HETATM    1  C7  UNL     1      -0.011   0.461   0.244  1.00  0.00     0.222 C 
HETATM    2  O3  UNL     1      -0.424   1.483   0.887  1.00  0.00    -0.273 OA
HETATM    3  N2  UNL     1      -0.765  -0.054  -0.845  1.00  0.00    -0.356 N 
ATOM      4  H2  UNL     1      -0.416  -0.872  -1.344  1.00  0.00     0.162 HD
ENDROOT
BRANCH   1   5
HETATM    5  C6  UNL     1       1.262  -0.131   0.694  1.00  0.00     0.080 C 
HETATM    6  C5  UNL     1       2.336  -0.116  -0.367  1.00  0.00     0.029 C 
HETATM    7  C4  UNL     1       3.617   0.541   0.117  1.00  0.00     0.108 C 
HETATM    8  N1  UNL     1       4.108   0.005   1.349  1.00  0.00    -0.211 NA
HETATM    9  C20 UNL     1       3.076  -0.253   2.299  1.00  0.00     0.108 C 
HETATM   10  C19 UNL     1       1.809   0.531   1.928  1.00  0.00     0.029 C 
BRANCH   8  11
HETATM   11  S1  UNL     1       5.125  -1.330   1.051  1.00  0.00     0.211 S 
HETATM   12  O1  UNL     1       5.559  -2.026   2.297  1.00  0.00    -0.211 OA
HETATM   13  O2  UNL     1       4.347  -2.343   0.230  1.00  0.00    -0.211 OA
BRANCH  11  14
HETATM   14  C3  UNL     1       6.552  -0.894   0.097  1.00  0.00     0.157 C 
BRANCH  14  15
HETATM   15  C2  UNL     1       7.396   0.148   0.796  1.00  0.00     0.012 C 
HETATM   16  C1  UNL     1       8.584   0.451  -0.093  1.00  0.00     0.006 C 
ENDBRANCH  14  15
ENDBRANCH  11  14
ENDBRANCH   8  11
ENDBRANCH   1   5
BRANCH   3  17
HETATM   17  C8  UNL     1      -2.008   0.543  -1.267  1.00  0.00     0.088 C 
HETATM   18  C9  UNL     1      -1.957   1.016  -2.698  1.00  0.00     0.026 C 
HETATM   19  C10 UNL     1      -3.266   0.598  -3.283  1.00  0.00     0.002 C 
HETATM   20  C11 UNL     1      -3.578  -0.689  -2.591  1.00  0.00     0.007 C 
HETATM   21  C12 UNL     1      -3.174  -0.404  -1.140  1.00  0.00     0.012 C 
BRANCH  21  22
HETATM   22  C13 UNL     1      -4.382   0.217  -0.483  1.00  0.00    -0.009 C 
HETATM   23  C14 UNL     1      -4.126   0.706   0.908  1.00  0.00     0.005 C 
HETATM   24  C15 UNL     1      -5.470   1.197   1.455  1.00  0.00     0.000 C 
HETATM   25  C16 UNL     1      -6.475   0.094   1.548  1.00  0.00     0.000 C 
HETATM   26  C17 UNL     1      -5.934  -1.165   0.935  1.00  0.00     0.000 C 
HETATM   27  C18 UNL     1      -5.474  -0.820  -0.469  1.00  0.00     0.005 C 
ENDBRANCH  21  22
ENDBRANCH   3  17
TORSDOF 6
