REMARK  6 active torsions:
REMARK  status: ('A' for Active; 'I' for Inactive)
REMARK    1  A    between atoms: C1_2  and  C2_3 
REMARK       I    between atoms: C1_2  and  N2_13 
REMARK    2  A    between atoms: C2_3  and  C3_4 
REMARK    3  A    between atoms: C3_4  and  C4_5 
REMARK    4  A    between atoms: C4_5  and  C5_6 
REMARK    5  A    between atoms: C5_6  and  N1_7 
REMARK       I    between atoms: N3_18  and  C14_19 
REMARK    6  A    between atoms: C14_19  and  C15_21 
ROOT
HETATM    1  O1  UNL     1       1.173   1.978  -0.793  1.00  0.00    -0.273 OA
HETATM    2  C1  UNL     1       1.246   1.079   0.071  1.00  0.00     0.223 C 
HETATM    3  N2  UNL     1       0.294   0.067   0.262  1.00  0.00    -0.317 N 
ATOM      4  H2  UNL     1       0.658  -0.770   0.717  1.00  0.00     0.170 HD
HETATM    5  C11 UNL     1      -0.923   0.007  -0.026  1.00  0.00     0.082 C 
HETATM    6  C12 UNL     1      -1.755   1.022  -0.679  1.00  0.00     0.096 C 
HETATM    7  C13 UNL     1      -2.995   1.214   0.182  1.00  0.00     0.135 C 
HETATM    8  N3  UNL     1      -3.698  -0.062   0.154  1.00  0.00    -0.335 N 
HETATM    9  C14 UNL     1      -5.026  -0.084  -0.320  1.00  0.00     0.225 C 
HETATM   10  O2  UNL     1      -5.577   1.000  -0.738  1.00  0.00    -0.273 OA
HETATM   11  C21 UNL     1      -3.044  -1.248   0.579  1.00  0.00     0.250 C 
HETATM   12  N4  UNL     1      -1.603  -1.212   0.323  1.00  0.00    -0.363 N 
ATOM     13  H4  UNL     1      -1.066  -2.076   0.394  1.00  0.00     0.162 HD
ENDROOT
BRANCH   2  14
HETATM   14  C2  UNL     1       2.417   1.071   0.968  1.00  0.00     0.103 C 
BRANCH  14  15
HETATM   15  C3  UNL     1       3.485   1.973   0.453  1.00  0.00     0.011 C 
BRANCH  15  16
HETATM   16  C4  UNL     1       4.063   1.626  -0.879  1.00  0.00     0.031 C 
BRANCH  16  17
HETATM   17  C5  UNL     1       4.673   0.238  -0.805  1.00  0.00     0.272 C 
BRANCH  17  18
HETATM   18  N1  UNL     1       5.722   0.185   0.181  1.00  0.00     0.088 N 
HETATM   19  C6  UNL     1       6.234  -1.171   0.251  1.00  0.00     0.272 C 
HETATM   20  C7  UNL     1       7.306  -1.324  -0.803  1.00  0.00     0.030 C 
HETATM   21  C8  UNL     1       8.543  -0.525  -0.402  1.00  0.00     0.003 C 
HETATM   22  C9  UNL     1       8.123   0.773   0.266  1.00  0.00     0.030 C 
HETATM   23  C10 UNL     1       6.719   1.164  -0.143  1.00  0.00     0.272 C 
ENDBRANCH  17  18
ENDBRANCH  16  17
ENDBRANCH  15  16
ENDBRANCH  14  15
ENDBRANCH   2  14
BRANCH   9  24
HETATM   24  C15 UNL     1      -5.830  -1.336  -0.356  1.00  0.00     0.078 C 
HETATM   25  C16 UNL     1      -7.073  -1.103  -1.202  1.00  0.00     0.014 C 
HETATM   26  C17 UNL     1      -8.112  -0.259  -0.560  1.00  0.00     0.001 C 
HETATM   27  C18 UNL     1      -8.264  -0.409   0.913  1.00  0.00     0.000 C 
HETATM   28  C19 UNL     1      -6.982  -0.596   1.664  1.00  0.00     0.001 C 
HETATM   29  C20 UNL     1      -6.241  -1.751   1.047  1.00  0.00     0.014 C 
ENDBRANCH   9  24
TORSDOF 6
