REMARK  5 active torsions:
REMARK  status: ('A' for Active; 'I' for Inactive)
REMARK    1  A    between atoms: C2_2  and  C3_3 
REMARK    2  A    between atoms: C3_3  and  C4_4 
REMARK    3  A    between atoms: C4_4  and  C5_5 
REMARK       I    between atoms: C5_5  and  N1_7 
REMARK    4  A    between atoms: C9_11  and  C10_12 
REMARK       I    between atoms: C10_12  and  N2_14 
REMARK    5  A    between atoms: N2_14  and  C11_16 
ROOT
HETATM    1  C10 UNL     1       0.479   1.623  -1.687  1.00  0.00     0.241 C 
HETATM    2  O2  UNL     1      -0.419   2.275  -2.250  1.00  0.00    -0.271 OA
HETATM    3  N2  UNL     1       0.142   0.461  -0.973  1.00  0.00    -0.354 N 
ATOM      4  H2  UNL     1       0.896  -0.056  -0.521  1.00  0.00     0.162 HD
ENDROOT
BRANCH   1   5
HETATM    5  C9  UNL     1       1.874   2.072  -1.775  1.00  0.00     0.179 C 
HETATM    6  N1  UNL     1       2.788   1.171  -1.053  1.00  0.00    -0.339 N 
HETATM    7  C5  UNL     1       3.123   1.209   0.323  1.00  0.00     0.220 C 
HETATM    8  C6  UNL     1       3.307   0.210  -2.002  1.00  0.00     0.127 C 
HETATM    9  O1  UNL     1       3.929   0.347   0.758  1.00  0.00    -0.273 OA
HETATM   10  C7  UNL     1       2.833   0.627  -3.356  1.00  0.00     0.022 C 
HETATM   11  C8  UNL     1       2.414   2.048  -3.185  1.00  0.00     0.037 C 
BRANCH   7  12
HETATM   12  C4  UNL     1       2.556   2.223   1.244  1.00  0.00     0.103 C 
BRANCH  12  13
HETATM   13  C3  UNL     1       2.885   2.025   2.680  1.00  0.00     0.009 C 
BRANCH  13  14
HETATM   14  C2  UNL     1       2.393   0.737   3.275  1.00  0.00    -0.004 C 
HETATM   15  C1  UNL     1       2.832   0.746   4.747  1.00  0.00     0.005 C 
ENDBRANCH  13  14
ENDBRANCH  12  13
ENDBRANCH   7  12
ENDBRANCH   1   5
BRANCH   3  16
HETATM   16  C11 UNL     1      -1.206  -0.050  -0.837  1.00  0.00     0.089 C 
HETATM   17  C12 UNL     1      -1.656   0.109   0.599  1.00  0.00     0.030 C 
HETATM   18  C13 UNL     1      -3.050  -0.354   0.813  1.00  0.00    -0.012 C 
HETATM   19  C14 UNL     1      -3.937  -0.334  -0.388  1.00  0.00     0.009 C 
HETATM   20  C18 UNL     1      -3.050  -1.712   1.480  1.00  0.00     0.009 C 
HETATM   21  C15 UNL     1      -3.836  -1.511  -1.293  1.00  0.00    -0.013 C 
HETATM   22  C16 UNL     1      -3.863  -2.826  -0.512  1.00  0.00     0.009 C 
HETATM   23  C21 UNL     1      -2.642  -1.547  -2.176  1.00  0.00     0.011 C 
HETATM   24  C17 UNL     1      -2.688  -2.735   0.452  1.00  0.00    -0.013 C 
HETATM   25  C19 UNL     1      -1.393  -2.499  -0.238  1.00  0.00     0.011 C 
HETATM   26  C20 UNL     1      -1.399  -1.447  -1.307  1.00  0.00     0.009 C 
ENDBRANCH   3  16
TORSDOF 5
