REMARK  5 active torsions:
REMARK  status: ('A' for Active; 'I' for Inactive)
REMARK    1  A    between atoms: C5_6  and  C6_7 
REMARK    2  A    between atoms: C6_7  and  C7_8 
REMARK    3  A    between atoms: C7_8  and  C8_9 
REMARK    4  A    between atoms: C8_9  and  C9_10 
REMARK    5  A    between atoms: C9_10  and  C10_11 
ROOT
HETATM    1  C1  UNL     1      -0.603   5.237  -1.387  1.00  0.00     0.013 C 
HETATM    2  C2  UNL     1      -0.631   4.044  -1.482  1.00  0.00    -0.098 C 
HETATM    3  C3  UNL     1      -0.667   2.584  -1.572  1.00  0.00     0.195 C 
HETATM    4  C4  UNL     1       0.348   2.004  -0.662  1.00  0.00     0.155 C 
HETATM    5  O1  UNL     1       1.123   2.707  -0.054  1.00  0.00    -0.296 OA
HETATM    6  C5  UNL     1       0.447   0.516  -0.469  1.00  0.00     0.080 C 
HETATM    7  C12 UNL     1      -0.885   0.043   0.001  1.00  0.00     0.099 C 
HETATM    8  C13 UNL     1      -1.377  -1.141  -0.821  1.00  0.00     0.050 C 
HETATM    9  C14 UNL     1      -2.458  -1.899  -0.079  1.00  0.00     0.082 C 
HETATM   10  C15 UNL     1      -2.690  -3.241  -0.680  1.00  0.00     0.032 C 
HETATM   11  N1  UNL     1      -3.696  -1.125  -0.030  1.00  0.00    -0.355 N 
ATOM     12  H1  UNL     1      -4.495  -1.587  -0.463  1.00  0.00     0.162 HD
HETATM   13  C16 UNL     1      -3.986   0.149   0.509  1.00  0.00     0.240 C 
HETATM   14  O2  UNL     1      -5.189   0.410   0.670  1.00  0.00    -0.271 OA
HETATM   15  C17 UNL     1      -3.020   1.186   0.894  1.00  0.00     0.173 C 
HETATM   16  C18 UNL     1      -3.548   2.527   1.185  1.00  0.00     0.042 C 
HETATM   17  N2  UNL     1      -1.926   1.088  -0.041  1.00  0.00    -0.355 N 
HETATM   18  C19 UNL     1      -1.985   2.081  -1.044  1.00  0.00     0.100 C 
HETATM   19  S1  UNL     1      -3.414   2.617  -1.590  1.00  0.00    -0.064 SA
ENDROOT
BRANCH   6  20
HETATM   20  C6  UNL     1       1.465   0.280   0.630  1.00  0.00     0.014 C 
BRANCH  20  21
HETATM   21  C7  UNL     1       1.741  -1.131   0.969  1.00  0.00     0.001 C 
BRANCH  21  22
HETATM   22  C8  UNL     1       2.325  -1.976  -0.106  1.00  0.00     0.000 C 
BRANCH  22  23
HETATM   23  C9  UNL     1       3.663  -1.464  -0.597  1.00  0.00    -0.000 C 
BRANCH  23  24
HETATM   24  C10 UNL     1       4.685  -1.415   0.514  1.00  0.00    -0.005 C 
HETATM   25  C11 UNL     1       5.976  -0.887  -0.110  1.00  0.00     0.005 C 
ENDBRANCH  23  24
ENDBRANCH  22  23
ENDBRANCH  21  22
ENDBRANCH  20  21
ENDBRANCH   6  20
TORSDOF 5
