REMARK  10 active torsions:
REMARK  status: ('A' for Active; 'I' for Inactive)
REMARK    1  A    between atoms: C2_2  and  N1_3 
REMARK    2  A    between atoms: N1_3  and  C3_4 
REMARK    3  A    between atoms: N1_3  and  C5_6 
REMARK    4  A    between atoms: C5_6  and  O1_7 
REMARK    5  A    between atoms: C5_6  and  N2_9 
REMARK    6  A    between atoms: N3_12  and  C8_13 
REMARK    7  A    between atoms: C8_13  and  N4_15 
REMARK    8  A    between atoms: N4_15  and  C9_17 
REMARK    9  A    between atoms: C9_17  and  C12_20 
REMARK   10  A    between atoms: C12_20  and  C13_21 
ROOT
HETATM    1  N2  UNL     1       2.511   0.668   0.245  1.00  0.00    -0.344 N 
HETATM    2  C6  UNL     1       1.961   1.912  -0.359  1.00  0.00     0.146 C 
HETATM    3  C7  UNL     1       0.929   2.516   0.549  1.00  0.00     0.145 C 
HETATM    4  N3  UNL     1      -0.116   1.472   0.650  1.00  0.00    -0.355 N 
HETATM    5  C16 UNL     1       0.295   0.285   1.312  1.00  0.00     0.145 C 
HETATM    6  C17 UNL     1       1.705  -0.183   1.030  1.00  0.00     0.146 C 
ENDROOT
BRANCH   4   7
HETATM    7  C8  UNL     1      -1.404   1.733   0.094  1.00  0.00     0.170 C 
HETATM    8  S1  UNL     1      -1.629   3.185  -0.628  1.00  0.00    -0.041 SA
BRANCH   7   9
HETATM    9  N4  UNL     1      -2.413   0.764   0.178  1.00  0.00    -0.359 N 
ATOM     10  H4  UNL     1      -2.219  -0.125   0.638  1.00  0.00     0.162 HD
BRANCH   9  11
HETATM   11  C9  UNL     1      -3.729   1.007  -0.380  1.00  0.00     0.025 C 
HETATM   12  C10 UNL     1      -3.736   1.293  -1.847  1.00  0.00     0.038 C 
HETATM   13  C11 UNL     1      -4.238   2.285   0.307  1.00  0.00     0.038 C 
BRANCH  11  14
HETATM   14  C12 UNL     1      -4.694  -0.067  -0.037  1.00  0.00     0.034 C 
BRANCH  14  15
HETATM   15  C13 UNL     1      -4.375  -1.444  -0.474  1.00  0.00    -0.020 C 
HETATM   16  C14 UNL     1      -5.536  -2.329   0.018  1.00  0.00     0.009 C 
HETATM   17  C15 UNL     1      -4.273  -1.695  -1.934  1.00  0.00     0.009 C 
ENDBRANCH  14  15
ENDBRANCH  11  14
ENDBRANCH   9  11
ENDBRANCH   7   9
ENDBRANCH   4   7
BRANCH   1  18
HETATM   18  C5  UNL     1       3.859   0.408  -0.052  1.00  0.00     0.217 C 
BRANCH  18  19
HETATM   19  N1  UNL     1       4.737  -0.603   0.330  1.00  0.00    -0.348 N 
BRANCH  19  20
HETATM   20  C2  UNL     1       6.106  -0.552  -0.272  1.00  0.00     0.122 C 
HETATM   21  C1  UNL     1       6.135  -1.324  -1.552  1.00  0.00     0.026 C 
ENDBRANCH  19  20
BRANCH  19  22
HETATM   22  C3  UNL     1       4.511  -1.662   1.253  1.00  0.00     0.122 C 
HETATM   23  C4  UNL     1       4.947  -1.304   2.669  1.00  0.00     0.026 C 
ENDBRANCH  19  22
ENDBRANCH  18  19
BRANCH  18  24
HETATM   24  O1  UNL     1       4.399   1.311  -0.861  1.00  0.00    -0.333 OA
ATOM     25  H1  UNL     1       3.800   2.001  -1.122  1.00  0.00     0.220 HD
ENDBRANCH  18  24
ENDBRANCH   1  18
TORSDOF 10
