REMARK  0 active torsions:
REMARK  status: ('A' for Active; 'I' for Inactive)
ROOT
HETATM    1  C1  UNL     1       3.186   2.071   0.467  1.00  0.00     0.015 C 
HETATM    2  C2  UNL     1       2.828   0.621   0.049  1.00  0.00    -0.043 C 
HETATM    3  C3  UNL     1       3.747   0.430  -1.145  1.00  0.00     0.015 C 
HETATM    4  C4  UNL     1       3.263  -0.200   1.226  1.00  0.00     0.009 C 
HETATM    5  C5  UNL     1       2.265  -1.260   1.543  1.00  0.00     0.002 C 
HETATM    6  C6  UNL     1       1.557  -1.744   0.302  1.00  0.00     0.012 C 
HETATM    7  C7  UNL     1       0.705  -0.725  -0.402  1.00  0.00    -0.015 C 
HETATM    8  C8  UNL     1       0.905  -1.079  -1.901  1.00  0.00     0.018 C 
HETATM    9  C9  UNL     1       1.383   0.599  -0.262  1.00  0.00     0.005 C 
HETATM   10  C10 UNL     1       0.729   1.488   0.779  1.00  0.00     0.026 C 
HETATM   11  C11 UNL     1      -0.712   1.611   0.250  1.00  0.00     0.119 C 
HETATM   12  N1  UNL     1      -1.380   0.375   0.341  1.00  0.00    -0.395 N 
HETATM   13  C12 UNL     1      -2.756   0.594   0.255  1.00  0.00     0.021 C 
HETATM   14  C13 UNL     1      -3.114   2.083   0.036  1.00  0.00     0.038 C 
HETATM   15  C14 UNL     1      -3.538   0.263   1.536  1.00  0.00     0.038 C 
HETATM   16  C15 UNL     1      -3.445  -0.025  -0.948  1.00  0.00     0.030 C 
HETATM   17  C16 UNL     1      -2.996  -1.398  -1.153  1.00  0.00     0.005 C 
HETATM   18  C17 UNL     1      -1.501  -1.413  -1.336  1.00  0.00     0.031 C 
HETATM   19  C18 UNL     1      -0.759  -0.791  -0.132  1.00  0.00     0.032 C 
HETATM   20  C19 UNL     1      -1.029  -1.903   0.906  1.00  0.00     0.039 C 
ENDROOT
TORSDOF 0
