REMARK  0 active torsions:
REMARK  status: ('A' for Active; 'I' for Inactive)
ROOT
HETATM    1  C1  UNL     1       3.214   2.141   0.065  1.00  0.00     0.014 C 
HETATM    2  C2  UNL     1       2.757   0.968   0.408  1.00  0.00    -0.084 C 
HETATM    3  C3  UNL     1       3.693  -0.187   0.496  1.00  0.00     0.034 C 
HETATM    4  C4  UNL     1       3.246  -1.173  -0.579  1.00  0.00     0.005 C 
HETATM    5  C5  UNL     1       1.864  -0.882  -1.064  1.00  0.00     0.010 C 
HETATM    6  C6  UNL     1       0.882  -0.616   0.085  1.00  0.00    -0.032 C 
HETATM    7  C7  UNL     1       0.983  -1.782   1.014  1.00  0.00     0.016 C 
HETATM    8  C8  UNL     1       1.330   0.683   0.729  1.00  0.00     0.022 C 
HETATM    9  C9  UNL     1       0.507   1.860   0.320  1.00  0.00     0.010 C 
HETATM   10  C10 UNL     1      -0.959   1.711   0.545  1.00  0.00     0.012 C 
HETATM   11  C11 UNL     1      -1.443   0.327   0.294  1.00  0.00    -0.022 C 
HETATM   12  C12 UNL     1      -1.819  -0.334   1.564  1.00  0.00     0.017 C 
HETATM   13  C13 UNL     1      -0.439  -0.402  -0.537  1.00  0.00     0.004 C 
HETATM   14  C14 UNL     1      -1.166  -1.614  -0.987  1.00  0.00     0.008 C 
HETATM   15  C15 UNL     1      -2.627  -1.185  -1.055  1.00  0.00     0.022 C 
HETATM   16  C16 UNL     1      -2.653   0.276  -0.636  1.00  0.00     0.022 C 
HETATM   17  C17 UNL     1      -3.928   0.608   0.093  1.00  0.00     0.028 C 
HETATM   18  S1  UNL     1      -2.325   1.346  -2.032  1.00  0.00    -0.086 SA
ENDROOT
TORSDOF 0
