REMARK  0 active torsions:
REMARK  status: ('A' for Active; 'I' for Inactive)
ROOT
HETATM    1  C1  UNL     1       4.738  -0.682   1.201  1.00  0.00     0.047 C 
HETATM    2  C2  UNL     1       3.526  -0.470   0.740  1.00  0.00     0.049 C 
HETATM    3  O1  UNL     1       2.243  -0.979   1.018  1.00  0.00    -0.343 OA
HETATM    4  C3  UNL     1       1.601   0.101   0.417  1.00  0.00     0.085 C 
HETATM    5  C4  UNL     1       1.005   1.143   1.271  1.00  0.00     0.041 C 
HETATM    6  C5  UNL     1      -0.404   1.484   0.796  1.00  0.00     0.009 C 
HETATM    7  C6  UNL     1      -1.224   0.210   0.700  1.00  0.00     0.002 C 
HETATM    8  C7  UNL     1      -2.638   0.528   0.339  1.00  0.00    -0.043 C 
HETATM    9  C8  UNL     1      -2.802   1.479  -0.789  1.00  0.00     0.015 C 
HETATM   10  C9  UNL     1      -3.271   1.188   1.574  1.00  0.00     0.015 C 
HETATM   11  C10 UNL     1      -3.389  -0.772   0.142  1.00  0.00     0.009 C 
HETATM   12  C11 UNL     1      -2.835  -1.576  -0.975  1.00  0.00     0.002 C 
HETATM   13  C12 UNL     1      -1.425  -1.262  -1.339  1.00  0.00     0.010 C 
HETATM   14  C13 UNL     1      -0.574  -0.820  -0.177  1.00  0.00    -0.033 C 
HETATM   15  C14 UNL     1      -0.277  -2.075   0.642  1.00  0.00     0.016 C 
HETATM   16  C15 UNL     1       0.676  -0.233  -0.727  1.00  0.00     0.030 C 
HETATM   17  C16 UNL     1       1.502  -1.109  -1.585  1.00  0.00     0.010 C 
HETATM   18  C17 UNL     1       2.803  -0.290  -1.641  1.00  0.00     0.020 C 
HETATM   19  C18 UNL     1       2.888   0.386  -0.281  1.00  0.00     0.036 C 
HETATM   20  C19 UNL     1       3.388   1.778  -0.268  1.00  0.00     0.025 C 
ENDROOT
TORSDOF 0
