REMARK  3 active torsions:
REMARK  status: ('A' for Active; 'I' for Inactive)
REMARK    1  A    between atoms: N3_4  and  N4_6 
REMARK       I    between atoms: C2_8  and  N5_9 
REMARK       I    between atoms: C2_8  and  N8_18 
REMARK    2  A    between atoms: N5_9  and  C3_11 
REMARK    3  A    between atoms: N8_18  and  N9_20 
ROOT
HETATM    1  N4  UNL     1       1.609   1.151   0.872  1.00  0.00    -0.128 N 
ATOM      2  H4  UNL     1       2.089   1.995   0.559  1.00  0.00     0.205 HD
HETATM    3  C2  UNL     1       0.325   1.168   0.995  1.00  0.00     0.719 C 
HETATM    4  N5  UNL     1      -0.387   0.021   1.428  1.00  0.00    -0.159 N 
ATOM      5  H5  UNL     1      -0.188  -0.388   2.341  1.00  0.00     0.187 HD
HETATM    6  N8  UNL     1      -0.376   2.364   0.687  1.00  0.00    -0.070 N 
ATOM      7  H8  UNL     1      -1.278   2.539   1.130  1.00  0.00     0.212 HD
ENDROOT
BRANCH   1   8
HETATM    8  N3  UNL     1       2.359   0.007   1.157  1.00  0.00    -0.262 N 
HETATM    9  C1  UNL     1       2.973  -0.653   0.211  1.00  0.00     0.216 C 
HETATM   10  N1  UNL     1       3.727  -1.814   0.545  1.00  0.00    -0.065 NA
HETATM   11  N2  UNL     1       2.856  -0.175  -1.116  1.00  0.00    -0.065 NA
ATOM     12  H3  UNL     1       2.428  -0.319   2.121  1.00  0.00     0.190 HD
ENDBRANCH   1   8
BRANCH   4  13
HETATM   13  C3  UNL     1      -1.393  -0.567   0.578  1.00  0.00     0.190 C 
HETATM   14  N6  UNL     1      -1.983  -1.666   0.812  1.00  0.00    -0.360 N 
HETATM   15  C4  UNL     1      -2.941  -2.030  -0.189  1.00  0.00     0.142 C 
ATOM     16  H6  UNL     1      -1.793  -2.237   1.636  1.00  0.00     0.162 HD
HETATM   17  C5  UNL     1      -3.090  -0.754  -1.026  1.00  0.00     0.142 C 
HETATM   18  N7  UNL     1      -1.887  -0.047  -0.628  1.00  0.00    -0.360 N 
ATOM     19  H7  UNL     1      -1.461   0.719  -1.150  1.00  0.00     0.162 HD
ENDBRANCH   4  13
BRANCH   6  20
HETATM   20  N9  UNL     1       0.134   3.302  -0.201  1.00  0.00    -0.024 N 
HETATM   21  O1  UNL     1      -0.465   3.533  -1.257  1.00  0.00    -0.516 OA
HETATM   22  O2  UNL     1       1.294   3.961   0.101  1.00  0.00    -0.516 OA
ENDBRANCH   6  20
TORSDOF 3
