REMARK  5 active torsions:
REMARK  status: ('A' for Active; 'I' for Inactive)
REMARK    1  A    between atoms: N1_1  and  C1_4 
REMARK    2  A    between atoms: C2_7  and  O1_8 
REMARK    3  A    between atoms: O1_8  and  S1_9 
REMARK    4  A    between atoms: S1_9  and  N3_10 
REMARK    5  A    between atoms: C3_15  and  O4_16 
ROOT
HETATM    1  C1  UNL     1      -1.977  -0.940   0.033  1.00  0.00     0.680 A 
HETATM    2  N2  UNL     1      -0.636  -0.790   0.096  1.00  0.00    -0.167 N 
ATOM      3  H2  UNL     1      -0.044  -1.612  -0.021  1.00  0.00     0.186 HD
HETATM    4  C2  UNL     1      -0.053   0.401   0.307  1.00  0.00     0.215 A 
HETATM    5  C3  UNL     1      -0.815   1.536   0.470  1.00  0.00     0.188 A 
HETATM    6  C4  UNL     1      -2.186   1.377   0.404  1.00  0.00     0.297 A 
HETATM    7  O5  UNL     1      -2.934   2.376   0.544  1.00  0.00    -0.264 OA
HETATM    8  N4  UNL     1      -2.742   0.155   0.188  1.00  0.00    -0.154 N 
ATOM      9  H4  UNL     1      -3.757   0.067   0.143  1.00  0.00     0.187 HD
ENDROOT
BRANCH   4  10
HETATM   10  O1  UNL     1       1.324   0.531   0.369  1.00  0.00    -0.195 OA
BRANCH  10  11
HETATM   11  S1  UNL     1       2.383  -0.783   0.186  1.00  0.00     0.362 S 
HETATM   12  O2  UNL     1       2.152  -1.537  -1.083  1.00  0.00    -0.176 OA
HETATM   13  O3  UNL     1       2.268  -1.761   1.330  1.00  0.00    -0.176 OA
BRANCH  11  14
HETATM   14  N3  UNL     1       4.009  -0.201   0.179  1.00  0.00    -0.305 N 
ATOM     15  H32 UNL     1       4.275   0.779   0.271  1.00  0.00     0.171 HD
ATOM     16  H31 UNL     1       4.645  -0.991   0.069  1.00  0.00     0.171 HD
ENDBRANCH  11  14
ENDBRANCH  10  11
ENDBRANCH   4  10
BRANCH   5  17
HETATM   17  O4  UNL     1      -0.279   2.799   0.691  1.00  0.00    -0.352 OA
ATOM     18  H4  UNL     1      -0.805   3.582   0.803  1.00  0.00     0.218 HD
ENDBRANCH   5  17
BRANCH   1  19
HETATM   19  N1  UNL     1      -2.516  -2.105  -0.173  1.00  0.00    -0.234 N 
ATOM     20  H12 UNL     1      -1.936  -2.936  -0.291  1.00  0.00     0.174 HD
ATOM     21  H11 UNL     1      -3.529  -2.218  -0.221  1.00  0.00     0.174 HD
ENDBRANCH   1  19
TORSDOF 5
