REMARK  3 active torsions:
REMARK  status: ('A' for Active; 'I' for Inactive)
REMARK    1  A    between atoms: C3_7  and  N2_8 
REMARK    2  A    between atoms: N2_8  and  N3_9 
REMARK    3  A    between atoms: N3_9  and  C4_11 
ROOT
HETATM    1  N3  UNL     1      -0.363   0.016  -0.147  1.00  0.00    -0.289 N 
ATOM      2  H3  UNL     1      -1.027  -0.465  -0.754  1.00  0.00     0.183 HD
ENDROOT
BRANCH   1   3
HETATM    3  N2  UNL     1      -0.793   0.951   0.774  1.00  0.00    -0.104 NA
BRANCH   3   4
HETATM    4  C3  UNL     1      -2.231   1.002   0.904  1.00  0.00     0.293 C 
HETATM    5  C2  UNL     1      -2.926   1.340  -0.337  1.00  0.00     0.266 C 
HETATM    6  N1  UNL     1      -4.062   0.499  -0.440  1.00  0.00    -0.276 N 
HETATM    7  O2  UNL     1      -2.575   2.216  -1.155  1.00  0.00    -0.269 OA
HETATM    8  C1  UNL     1      -3.913  -0.518   0.540  1.00  0.00     0.324 C 
ATOM      9  H1  UNL     1      -4.838   0.604  -1.093  1.00  0.00     0.173 HD
HETATM   10  O1  UNL     1      -4.743  -1.472   0.755  1.00  0.00    -0.247 OA
HETATM   11  N6  UNL     1      -2.701  -0.324   1.253  1.00  0.00    -0.315 N 
ATOM     12  H6  UNL     1      -2.251  -0.986   1.885  1.00  0.00     0.166 HD
ENDBRANCH   3   4
ENDBRANCH   1   3
BRANCH   1  13
HETATM   13  C4  UNL     1       1.026  -0.259  -0.228  1.00  0.00     0.114 C 
HETATM   14  N4  UNL     1       1.532  -0.441  -1.397  1.00  0.00    -0.376 N 
HETATM   15  C5  UNL     1       2.946  -0.724  -1.521  1.00  0.00     0.148 C 
ATOM     16  H4  UNL     1       0.943  -0.386  -2.228  1.00  0.00     0.160 HD
HETATM   17  C6  UNL     1       3.644   0.123  -0.454  1.00  0.00     0.252 C 
HETATM   18  N5  UNL     1       3.221  -0.398   0.822  1.00  0.00    -0.067 N 
HETATM   19  C7  UNL     1       1.803  -0.321   1.010  1.00  0.00     0.309 C 
ATOM     20  H52 UNL     1       3.556  -1.352   0.957  1.00  0.00     0.277 HD
ATOM     21  H51 UNL     1       3.716   0.061   1.586  1.00  0.00     0.277 HD
ENDBRANCH   1  13
TORSDOF 3
