REMARK  2 active torsions:
REMARK  status: ('A' for Active; 'I' for Inactive)
REMARK    1  A    between atoms: N2_5  and  C3_6 
REMARK    2  A    between atoms: C6_16  and  C7_17 
ROOT
HETATM    1  C7  UNL     1      -2.082  -0.397  -0.508  1.00  0.00     0.074 C 
HETATM    2  C8  UNL     1      -3.084  -0.398   0.619  1.00  0.00     0.036 C 
HETATM    3  C9  UNL     1      -2.092  -1.794  -1.091  1.00  0.00     0.036 C 
HETATM    4  C10 UNL     1      -2.703   0.453  -1.563  1.00  0.00     0.073 C 
HETATM    5  N5  UNL     1      -3.195   1.101  -2.400  1.00  0.00    -0.196 NA
ENDROOT
BRANCH   1   6
HETATM    6  C6  UNL     1      -0.764   0.065  -0.142  1.00  0.00     0.027 A 
HETATM    7  C2  UNL     1      -0.434   1.304   0.363  1.00  0.00     0.034 A 
HETATM    8  C1  UNL     1      -1.395   2.388   0.623  1.00  0.00     0.070 C 
HETATM    9  N1  UNL     1       0.899   1.357   0.580  1.00  0.00    -0.295 N 
HETATM   10  N2  UNL     1       1.414   0.207   0.232  1.00  0.00    -0.221 N 
ATOM     11  H1  UNL     1       1.414   2.156   0.951  1.00  0.00     0.187 HD
HETATM   12  C5  UNL     1       0.422  -0.618  -0.219  1.00  0.00     0.135 A 
HETATM   13  S2  UNL     1       0.758  -2.129  -0.725  1.00  0.00    -0.058 SA
BRANCH  10  14
HETATM   14  C3  UNL     1       2.811  -0.145   0.308  1.00  0.00     0.191 A 
HETATM   15  N3  UNL     1       3.691  -0.329  -0.653  1.00  0.00    -0.275 N 
HETATM   16  N4  UNL     1       4.892  -0.638  -0.389  1.00  0.00    -0.258 N 
ATOM     17  H3  UNL     1       3.402  -0.221  -1.625  1.00  0.00     0.189 HD
HETATM   18  C4  UNL     1       5.254  -0.778   0.890  1.00  0.00     0.305 A 
ATOM     19  H4  UNL     1       5.569  -0.777  -1.139  1.00  0.00     0.191 HD
HETATM   20  O1  UNL     1       6.409  -1.084   1.354  1.00  0.00    -0.258 OA
HETATM   21  S1  UNL     1       3.780  -0.440   1.701  1.00  0.00     0.012 SA
ENDBRANCH  10  14
ENDBRANCH   1   6
TORSDOF 2
