REMARK  2 active torsions:
REMARK  status: ('A' for Active; 'I' for Inactive)
REMARK    1  A    between atoms: C4_6  and  C5_7 
REMARK    2  A    between atoms: C11_18  and  N5_19 
ROOT
HETATM    1  C5  UNL     1       0.095  -0.818  -0.399  1.00  0.00     0.087 C 
HETATM    2  C6  UNL     1      -0.900   0.121  -0.916  1.00  0.00     0.022 A 
HETATM    3  C7  UNL     1      -1.477   0.288  -2.153  1.00  0.00     0.033 A 
HETATM    4  C8  UNL     1      -1.207  -0.503  -3.349  1.00  0.00     0.070 C 
HETATM    5  N2  UNL     1      -2.326   1.308  -2.048  1.00  0.00    -0.301 N 
ATOM      6  H2  UNL     1      -2.900   1.662  -2.813  1.00  0.00     0.187 HD
HETATM    7  N3  UNL     1      -2.328   1.801  -0.826  1.00  0.00    -0.281 N 
HETATM    8  C9  UNL     1      -3.100   2.902  -0.303  1.00  0.00     0.179 C 
HETATM    9  C10 UNL     1      -1.443   1.078  -0.088  1.00  0.00     0.128 A 
HETATM   10  N4  UNL     1      -1.016   1.126   1.256  1.00  0.00    -0.347 N 
ATOM     11  H4  UNL     1      -1.039   2.013   1.759  1.00  0.00     0.163 HD
HETATM   12  C11 UNL     1      -0.546  -0.064   1.930  1.00  0.00     0.291 C 
HETATM   13  C12 UNL     1      -0.188  -1.181   1.018  1.00  0.00     0.011 C 
HETATM   14  C13 UNL     1      -1.381  -2.154   0.972  1.00  0.00     0.020 C 
HETATM   15  C14 UNL     1       0.954  -1.992   1.628  1.00  0.00     0.020 C 
ENDROOT
BRANCH   1  16
HETATM   16  C4  UNL     1       1.501  -0.390  -0.656  1.00  0.00     0.035 A 
HETATM   17  C3  UNL     1       2.235  -0.714  -1.775  1.00  0.00     0.115 A 
HETATM   18  N1  UNL     1       3.440  -0.149  -1.643  1.00  0.00    -0.354 N 
HETATM   19  C2  UNL     1       3.460   0.509  -0.477  1.00  0.00     0.077 A 
ATOM     20  H1  UNL     1       4.208  -0.209  -2.312  1.00  0.00     0.166 HD
HETATM   21  C1  UNL     1       4.616   1.284   0.069  1.00  0.00     0.089 C 
HETATM   22  N6  UNL     1       2.275   0.364   0.130  1.00  0.00    -0.348 N 
ATOM     23  H6  UNL     1       2.010   0.759   1.032  1.00  0.00     0.167 HD
ENDBRANCH   1  16
BRANCH  12  24
HETATM   24  N5  UNL     1      -1.659  -0.465   2.811  1.00  0.00    -0.058 N 
ATOM     25  H53 UNL     1      -1.973   0.272   3.443  1.00  0.00     0.276 HD
ATOM     26  H52 UNL     1      -2.548  -0.588   2.325  1.00  0.00     0.276 HD
ATOM     27  H51 UNL     1      -1.327  -1.304   3.286  1.00  0.00     0.276 HD
ENDBRANCH  12  24
TORSDOF 2
