REMARK  5 active torsions:
REMARK  status: ('A' for Active; 'I' for Inactive)
REMARK    1  A    between atoms: C4_4  and  C5_5 
REMARK    2  A    between atoms: C7_7  and  O1_9 
REMARK    3  A    between atoms: C10_12  and  O2_13 
REMARK    4  A    between atoms: C15_20  and  O4_21 
REMARK    5  A    between atoms: O4_21  and  O5_22 
ROOT
HETATM    1  C5  UNL     1       1.210   0.122  -0.128  1.00  0.00     0.009 C 
HETATM    2  C6  UNL     1       0.042  -0.364   0.251  1.00  0.00    -0.006 C 
HETATM    3  C7  UNL     1      -0.110  -1.843   0.219  1.00  0.00     0.083 C 
HETATM    4  C8  UNL     1       0.772  -2.434   1.288  1.00  0.00     0.051 C 
HETATM    5  C9  UNL     1      -1.533  -2.154   0.627  1.00  0.00     0.076 C 
HETATM    6  C10 UNL     1      -2.444  -1.308  -0.212  1.00  0.00     0.153 C 
HETATM    7  C11 UNL     1      -2.418   0.147   0.283  1.00  0.00     0.192 C 
HETATM    8  O3  UNL     1      -3.061   0.851  -0.676  1.00  0.00    -0.380 OA
HETATM    9  C12 UNL     1      -3.065   2.201  -0.629  1.00  0.00     0.168 C 
HETATM   10  C13 UNL     1      -1.920   2.835   0.094  1.00  0.00     0.030 C 
HETATM   11  C14 UNL     1      -0.703   1.920   0.157  1.00  0.00     0.051 C 
HETATM   12  C15 UNL     1      -1.042   0.570   0.682  1.00  0.00     0.151 C 
ENDROOT
BRANCH   1  13
HETATM   13  C4  UNL     1       2.345  -0.661  -0.572  1.00  0.00     0.002 C 
HETATM   14  C2  UNL     1       3.460   0.000  -0.922  1.00  0.00    -0.088 C 
HETATM   15  C1  UNL     1       4.660  -0.736  -1.386  1.00  0.00     0.043 C 
HETATM   16  C3  UNL     1       3.477   1.473  -0.839  1.00  0.00     0.043 C 
ENDBRANCH   1  13
BRANCH   3  17
HETATM   17  O1  UNL     1       0.133  -2.348  -1.056  1.00  0.00    -0.385 OA
ATOM     18  H1  UNL     1       0.036  -3.293  -1.076  1.00  0.00     0.211 HD
ENDBRANCH   3  17
BRANCH  12  19
HETATM   19  O4  UNL     1      -0.934   0.518   2.098  1.00  0.00    -0.224 OA
BRANCH  19  20
HETATM   20  O5  UNL     1      -1.783   1.253   2.717  1.00  0.00    -0.249 OA
ATOM     21  H5  UNL     1      -1.711   1.218   3.664  1.00  0.00     0.253 HD
ENDBRANCH  19  20
ENDBRANCH  12  19
BRANCH   6  22
HETATM   22  O2  UNL     1      -3.752  -1.748  -0.023  1.00  0.00    -0.393 OA
ATOM     23  H2  UNL     1      -4.329  -1.212  -0.554  1.00  0.00     0.210 HD
ENDBRANCH   6  22
TORSDOF 5
