REMARK  4 active torsions:
REMARK  status: ('A' for Active; 'I' for Inactive)
REMARK    1  A    between atoms: C2_2  and  S1_4 
REMARK    2  A    between atoms: S1_4  and  C3_5 
REMARK    3  A    between atoms: C6_10  and  N2_11 
REMARK    4  A    between atoms: N4_19  and  O2_20 
ROOT
HETATM    1  C3  UNL     1       2.002  -0.736   0.273  1.00  0.00     0.153 A 
HETATM    2  N1  UNL     1       1.153   0.168   0.824  1.00  0.00    -0.337 N 
ATOM      3  H1  UNL     1       1.483   0.847   1.510  1.00  0.00     0.168 HD
HETATM    4  C4  UNL     1      -0.137   0.143   0.440  1.00  0.00     0.048 A 
HETATM    5  C5  UNL     1      -0.623  -0.755  -0.481  1.00  0.00     0.035 A 
HETATM    6  C6  UNL     1       0.258  -1.665  -1.028  1.00  0.00     0.111 A 
HETATM    7  N3  UNL     1       1.536  -1.609  -0.620  1.00  0.00    -0.322 N 
ATOM      8  H3  UNL     1       2.194  -2.279  -1.020  1.00  0.00     0.169 HD
HETATM    9  C7  UNL     1      -2.066  -0.465  -0.628  1.00  0.00     0.065 C 
HETATM   10  C8  UNL     1      -2.517  -0.545  -2.071  1.00  0.00     0.040 C 
HETATM   11  C9  UNL     1      -2.814  -1.448   0.243  1.00  0.00     0.040 C 
HETATM   12  N4  UNL     1      -2.177   0.887  -0.194  1.00  0.00    -0.171 NA
HETATM   13  C10 UNL     1      -1.244   1.041   0.906  1.00  0.00     0.075 C 
HETATM   14  C11 UNL     1      -0.799   2.487   0.932  1.00  0.00     0.041 C 
HETATM   15  C12 UNL     1      -1.804   0.626   2.231  1.00  0.00     0.041 C 
ENDROOT
BRANCH   1  16
HETATM   16  S1  UNL     1       3.712  -0.695   0.789  1.00  0.00    -0.017 SA
BRANCH  16  17
HETATM   17  C2  UNL     1       4.662   0.399  -0.266  1.00  0.00     0.189 C 
HETATM   18  C1  UNL     1       6.109   0.566   0.005  1.00  0.00     0.105 C 
HETATM   19  O1  UNL     1       4.097   0.978  -1.178  1.00  0.00    -0.285 OA
ENDBRANCH  16  17
ENDBRANCH   1  16
BRANCH   6  20
HETATM   20  N2  UNL     1      -0.162  -2.526  -1.898  1.00  0.00    -0.385 N 
ATOM     21  H22 UNL     1      -1.133  -2.569  -2.208  1.00  0.00     0.157 HD
ATOM     22  H21 UNL     1       0.489  -3.199  -2.302  1.00  0.00     0.157 HD
ENDBRANCH   6  20
BRANCH  12  23
HETATM   23  O2  UNL     1      -3.409   1.296   0.097  1.00  0.00    -0.311 OA
ATOM     24  H2  UNL     1      -3.483   2.198   0.386  1.00  0.00     0.237 HD
ENDBRANCH  12  23
TORSDOF 4
