REMARK  5 active torsions:
REMARK  status: ('A' for Active; 'I' for Inactive)
REMARK    1  A    between atoms: N2_6  and  O1_7 
REMARK    2  A    between atoms: C5_9  and  N3_10 
REMARK    3  A    between atoms: N3_10  and  N4_12 
REMARK       I    between atoms: C6_14  and  N6_16 
REMARK    4  A    between atoms: N6_16  and  N7_18 
REMARK    5  A    between atoms: N9_23  and  N10_24 
ROOT
HETATM    1  C1  UNL     1      -4.004   0.112   0.335  1.00  0.00     0.075 C 
HETATM    2  C2  UNL     1      -2.534  -0.157   0.339  1.00  0.00     0.089 A 
HETATM    3  C3  UNL     1      -2.048  -1.447   0.344  1.00  0.00     0.186 A 
HETATM    4  C4  UNL     1      -2.956  -2.573   0.347  1.00  0.00     0.123 C 
HETATM    5  N1  UNL     1      -3.698  -3.470   0.357  1.00  0.00    -0.190 NA
HETATM    6  N2  UNL     1      -0.706  -1.662   0.348  1.00  0.00    -0.037 N 
HETATM    7  C5  UNL     1       0.110  -0.603   0.345  1.00  0.00     0.740 A 
HETATM    8  N8  UNL     1      -0.384   0.637   0.340  1.00  0.00    -0.107 N 
ATOM      9  H8  UNL     1       0.267   1.422   0.338  1.00  0.00     0.208 HD
HETATM   10  N9  UNL     1      -1.693   0.894   0.337  1.00  0.00    -0.191 N 
ENDROOT
BRANCH   6  11
HETATM   11  O1  UNL     1      -0.261  -2.969   0.353  1.00  0.00    -0.268 OA
ATOM     12  H1  UNL     1       0.677  -3.119   0.356  1.00  0.00     0.246 HD
ENDBRANCH   6  11
BRANCH  10  13
HETATM   13  N10 UNL     1      -2.152   2.228   0.331  1.00  0.00    -0.323 N 
ATOM     14 2H10 UNL     1      -3.153   2.425   0.329  1.00  0.00     0.178 HD
ATOM     15 1H10 UNL     1      -1.515   3.024   0.329  1.00  0.00     0.178 HD
ENDBRANCH  10  13
BRANCH   7  16
HETATM   16  N3  UNL     1       1.378  -0.792   0.348  1.00  0.00    -0.126 N 
ATOM     17  H3  UNL     1       1.718  -1.754   0.351  1.00  0.00     0.206 HD
BRANCH  16  18
HETATM   18  N4  UNL     1       2.319   0.233   0.347  1.00  0.00    -0.258 N 
HETATM   19  C6  UNL     1       3.477  -0.013  -0.133  1.00  0.00     0.222 C 
HETATM   20  N5  UNL     1       3.808  -1.282  -0.650  1.00  0.00    -0.061 NA
HETATM   21  N6  UNL     1       4.467   0.998  -0.156  1.00  0.00    -0.279 N 
ATOM     22  H6  UNL     1       5.349   0.823   0.326  1.00  0.00     0.189 HD
ATOM     23  H4  UNL     1       2.091   1.155   0.719  1.00  0.00     0.190 HD
BRANCH  21  24
HETATM   24  N7  UNL     1       4.298   2.221  -0.804  1.00  0.00    -0.343 N 
ATOM     25  H72 UNL     1       3.410   2.379  -1.281  1.00  0.00     0.176 HD
ATOM     26  H71 UNL     1       5.012   2.950  -0.821  1.00  0.00     0.176 HD
ENDBRANCH  21  24
ENDBRANCH  16  18
ENDBRANCH   7  16
TORSDOF 5
