REMARK  9 active torsions:
REMARK  status: ('A' for Active; 'I' for Inactive)
REMARK    1  A    between atoms: N1_1  and  N2_4 
REMARK       I    between atoms: N2_4  and  C1_6 
REMARK    2  A    between atoms: C1_6  and  C2_8 
REMARK       I    between atoms: C2_8  and  N3_10 
REMARK    3  A    between atoms: N3_10  and  N4_12 
REMARK    4  A    between atoms: N4_12  and  C3_14 
REMARK    5  A    between atoms: C3_14  and  O3_15 
REMARK    6  A    between atoms: C3_14  and  N5_17 
REMARK    7  A    between atoms: N5_17  and  C4_19 
REMARK    8  A    between atoms: C4_19  and  O4_20 
REMARK    9  A    between atoms: C4_19  and  C5_22 
ROOT
HETATM    1  N4  UNL     1       0.098   0.322   0.614  1.00  0.00    -0.262 N 
ATOM      2  H4  UNL     1       0.591   0.397  -0.276  1.00  0.00     0.190 HD
ENDROOT
BRANCH   1   3
HETATM    3  N3  UNL     1      -1.323   0.194   0.631  1.00  0.00    -0.259 N 
HETATM    4  C2  UNL     1      -1.970  -0.250  -0.527  1.00  0.00     0.329 C 
HETATM    5  O2  UNL     1      -1.351  -0.542  -1.587  1.00  0.00    -0.261 OA
ATOM      6  H3  UNL     1      -1.856   0.422   1.470  1.00  0.00     0.190 HD
BRANCH   4   7
HETATM    7  C1  UNL     1      -3.437  -0.385  -0.513  1.00  0.00     0.329 C 
HETATM    8  N2  UNL     1      -4.131  -0.830  -1.665  1.00  0.00    -0.268 N 
ATOM      9  H2  UNL     1      -3.623  -1.062  -2.519  1.00  0.00     0.190 HD
HETATM   10  O1  UNL     1      -4.100  -0.108   0.517  1.00  0.00    -0.261 OA
BRANCH   8  11
HETATM   11  N1  UNL     1      -5.516  -0.945  -1.613  1.00  0.00    -0.342 N 
ATOM     12  H12 UNL     1      -6.009  -0.709  -0.752  1.00  0.00     0.176 HD
ATOM     13  H11 UNL     1      -6.016  -1.265  -2.442  1.00  0.00     0.176 HD
ENDBRANCH   8  11
ENDBRANCH   4   7
ENDBRANCH   1   3
BRANCH   1  14
HETATM   14  C3  UNL     1       0.809   0.345   1.801  1.00  0.00     0.238 C 
BRANCH  14  15
HETATM   15  O3  UNL     1       0.053   0.242   2.869  1.00  0.00    -0.331 OA
ATOM     16  H3  UNL     1       0.541   0.258   3.684  1.00  0.00     0.221 HD
ENDBRANCH  14  15
BRANCH  14  17
HETATM   17  N5  UNL     1       2.165   0.459   2.023  1.00  0.00    -0.303 N 
ATOM     18  H5  UNL     1       2.385   0.445   3.019  1.00  0.00     0.171 HD
BRANCH  17  19
HETATM   19  C4  UNL     1       3.308   0.588   1.251  1.00  0.00     0.150 C 
BRANCH  19  20
HETATM   20  O4  UNL     1       4.450   0.679   1.897  1.00  0.00    -0.347 OA
ATOM     21  H4  UNL     1       5.234   0.767   1.368  1.00  0.00     0.219 HD
ENDBRANCH  19  20
BRANCH  19  22
HETATM   22  C5  UNL     1       3.423   0.638  -0.200  1.00  0.00     0.219 A 
HETATM   23  C6  UNL     1       4.694   0.074  -0.840  1.00  0.00     0.209 A 
HETATM   24  O5  UNL     1       4.463   1.433  -0.718  1.00  0.00    -0.373 OA
ENDBRANCH  19  22
ENDBRANCH  17  19
ENDBRANCH  14  17
ENDBRANCH   1  14
TORSDOF 9
