REMARK  5 active torsions:
REMARK  status: ('A' for Active; 'I' for Inactive)
REMARK    1  A    between atoms: O1_2  and  C2_3 
REMARK    2  A    between atoms: C2_3  and  C3_5 
REMARK    3  A    between atoms: C4_6  and  N1_7 
REMARK       I    between atoms: N1_7  and  C5_9 
REMARK    4  A    between atoms: C6_16  and  N5_17 
REMARK    5  A    between atoms: N6_20  and  O4_21 
ROOT
HETATM    1  C3  UNL     1       0.114  -0.547  -0.080  1.00  0.00     0.201 A 
HETATM    2  C4  UNL     1      -0.724   0.547  -0.081  1.00  0.00     0.160 A 
HETATM    3  N3  UNL     1      -2.047   0.422   0.142  1.00  0.00    -0.269 N 
ATOM      4  H3  UNL     1      -2.650   1.245   0.138  1.00  0.00     0.189 HD
HETATM    5  N4  UNL     1      -2.558  -0.780   0.367  1.00  0.00    -0.129 N 
ATOM      6  H4  UNL     1      -3.559  -0.879   0.535  1.00  0.00     0.205 HD
HETATM    7  C6  UNL     1      -1.765  -1.880   0.376  1.00  0.00     0.717 A 
HETATM    8  N6  UNL     1      -0.446  -1.745   0.153  1.00  0.00    -0.042 N 
ENDROOT
BRANCH   2   9
HETATM    9  N1  UNL     1      -0.205   1.691  -0.301  1.00  0.00    -0.294 N 
HETATM   10  C5  UNL     1      -0.894   2.917  -0.341  1.00  0.00     0.334 C 
HETATM   11  N2  UNL     1      -0.641   3.987   0.556  1.00  0.00    -0.040 NA
HETATM   12  O3  UNL     1      -1.782   3.088  -1.213  1.00  0.00    -0.251 OA
ATOM     13  H1  UNL     1       0.802   1.720  -0.463  1.00  0.00     0.172 HD
ENDBRANCH   2   9
BRANCH   1  14
HETATM   14  C2  UNL     1       1.544  -0.440  -0.317  1.00  0.00     0.316 C 
HETATM   15  O2  UNL     1       2.112   0.660  -0.539  1.00  0.00    -0.257 OA
BRANCH  14  16
HETATM   16  O1  UNL     1       2.331  -1.583  -0.302  1.00  0.00    -0.321 OA
HETATM   17  C1  UNL     1       3.729  -1.462  -0.536  1.00  0.00     0.213 C 
ENDBRANCH  14  16
ENDBRANCH   1  14
BRANCH   8  18
HETATM   18  O4  UNL     1       0.351  -2.864   0.163  1.00  0.00    -0.269 OA
ATOM     19  H4  UNL     1      -0.045  -3.712   0.328  1.00  0.00     0.245 HD
ENDBRANCH   8  18
BRANCH   7  20
HETATM   20  N5  UNL     1      -2.259  -3.054   0.596  1.00  0.00    -0.231 N 
ATOM     21  H52 UNL     1      -3.260  -3.156   0.765  1.00  0.00     0.174 HD
ATOM     22  H51 UNL     1      -1.663  -3.881   0.603  1.00  0.00     0.174 HD
ENDBRANCH   7  20
TORSDOF 5
