REMARK  3 active torsions:
REMARK  status: ('A' for Active; 'I' for Inactive)
REMARK       I    between atoms: C1_4  and  N3_6 
REMARK       I    between atoms: N3_6  and  C2_8 
REMARK    1  A    between atoms: C2_8  and  C3_10 
REMARK    2  A    between atoms: C4_18  and  N6_19 
REMARK    3  A    between atoms: N6_19  and  N7_21 
ROOT
HETATM    1  C3  UNL     1      -0.774   0.334   0.647  1.00  0.00     0.158 A 
HETATM    2  N4  UNL     1      -1.559   0.779   1.582  1.00  0.00    -0.259 N 
ATOM      3  H4  UNL     1      -1.253   1.109   2.497  1.00  0.00     0.180 HD
HETATM    4  S1  UNL     1      -3.181   0.728   1.049  1.00  0.00     0.325 S 
HETATM    5  O2  UNL     1      -3.820   2.077   0.993  1.00  0.00    -0.182 OA
HETATM    6  O3  UNL     1      -4.006  -0.266   1.809  1.00  0.00    -0.182 OA
HETATM    7  N5  UNL     1      -2.872   0.083  -0.514  1.00  0.00    -0.249 N 
ATOM      8  H5  UNL     1      -3.548  -0.138  -1.245  1.00  0.00     0.182 HD
HETATM    9  C4  UNL     1      -1.459  -0.072  -0.556  1.00  0.00     0.164 A 
ENDROOT
BRANCH   1  10
HETATM   10  C2  UNL     1       0.697   0.280   0.874  1.00  0.00     0.279 C 
HETATM   11  N3  UNL     1       1.634  -0.171  -0.036  1.00  0.00    -0.296 N 
HETATM   12  C1  UNL     1       3.032  -0.171   0.312  1.00  0.00     0.188 C 
ATOM     13  H3  UNL     1       1.336  -0.504  -0.953  1.00  0.00     0.171 HD
HETATM   14  N1  UNL     1       3.934  -0.579  -0.501  1.00  0.00    -0.373 N 
HETATM   15  N2  UNL     1       3.472   0.287   1.583  1.00  0.00    -0.064 NA
ATOM     16  H12 UNL     1       4.924  -0.579  -0.255  1.00  0.00     0.158 HD
ATOM     17  H11 UNL     1       3.618  -0.908  -1.413  1.00  0.00     0.158 HD
HETATM   18  O1  UNL     1       1.116   0.688   2.017  1.00  0.00    -0.265 OA
ENDBRANCH   1  10
BRANCH   9  19
HETATM   19  N6  UNL     1      -0.879  -0.560  -1.650  1.00  0.00    -0.289 N 
ATOM     20  H6  UNL     1       0.135  -0.666  -1.665  1.00  0.00     0.188 HD
BRANCH  19  21
HETATM   21  N7  UNL     1      -1.609  -0.929  -2.770  1.00  0.00    -0.344 N 
ATOM     22  H72 UNL     1      -2.622  -0.816  -2.738  1.00  0.00     0.176 HD
ATOM     23  H71 UNL     1      -1.164  -1.303  -3.608  1.00  0.00     0.176 HD
ENDBRANCH  19  21
ENDBRANCH   9  19
TORSDOF 3
