REMARK  4 active torsions:
REMARK  status: ('A' for Active; 'I' for Inactive)
REMARK    1  A    between atoms: C5_5  and  O1_6 
REMARK    2  A    between atoms: O1_6  and  C6_7 
REMARK    3  A    between atoms: C9_12  and  C10_13 
REMARK    4  A    between atoms: C10_13  and  O3_14 
ROOT
HETATM    1  C1  UNL     1      -0.197   2.809   0.593  1.00  0.00     0.038 C 
HETATM    2  C2  UNL     1      -0.301   1.533   0.590  1.00  0.00     0.003 C 
HETATM    3  C3  UNL     1      -0.627   0.728  -0.732  1.00  0.00     0.047 C 
HETATM    4  C4  UNL     1       0.450  -0.232  -0.962  1.00  0.00     0.046 C 
HETATM    5  C5  UNL     1       1.519  -0.546   0.034  1.00  0.00     0.150 C 
HETATM    6  C8  UNL     1       0.967  -0.414   1.507  1.00  0.00     0.155 C 
HETATM    7  N1  UNL     1      -0.257   0.292   1.273  1.00  0.00    -0.374 N 
HETATM    8  C9  UNL     1      -1.612  -0.143   1.327  1.00  0.00     0.116 C 
HETATM    9  C11 UNL     1      -1.940   0.156  -0.148  1.00  0.00    -0.016 C 
HETATM   10  C12 UNL     1      -2.541  -0.928  -0.914  1.00  0.00     0.018 C 
HETATM   11  C13 UNL     1      -2.891   1.336  -0.135  1.00  0.00     0.018 C 
ENDROOT
BRANCH   5  12
HETATM   12  O1  UNL     1       2.721   0.150  -0.114  1.00  0.00    -0.315 OA
BRANCH  12  13
HETATM   13  C6  UNL     1       3.956  -0.425  -0.338  1.00  0.00     0.255 C 
HETATM   14  C7  UNL     1       5.229   0.282  -0.497  1.00  0.00     0.126 C 
HETATM   15  O2  UNL     1       3.938  -1.679  -0.404  1.00  0.00    -0.266 OA
ENDBRANCH  12  13
ENDBRANCH   5  12
BRANCH   8  16
HETATM   16  C10 UNL     1      -1.829  -1.554   1.710  1.00  0.00     0.190 C 
BRANCH  16  17
HETATM   17  O3  UNL     1      -1.280  -2.513   0.932  1.00  0.00    -0.399 OA
ATOM     18  H3  UNL     1      -1.419  -3.420   1.178  1.00  0.00     0.209 HD
ENDBRANCH  16  17
ENDBRANCH   8  16
TORSDOF 4
