REMARK  5 active torsions:
REMARK  status: ('A' for Active; 'I' for Inactive)
REMARK    1  A    between atoms: C4_5  and  N2_6 
REMARK    2  A    between atoms: N2_6  and  C5_8 
REMARK    3  A    between atoms: C5_8  and  O2_13 
REMARK    4  A    between atoms: N3_9  and  C6_11 
REMARK    5  A    between atoms: O2_13  and  C7_14 
ROOT
HETATM    1  C5  UNL     1       1.304  -0.809  -0.408  1.00  0.00     0.222 C 
HETATM    2  N3  UNL     1       2.256  -1.657  -0.578  1.00  0.00    -0.300 N 
ATOM      3  H3  UNL     1       3.212  -1.304  -0.528  1.00  0.00     0.171 HD
ENDROOT
BRANCH   1   4
HETATM    4  N2  UNL     1      -0.036  -1.282  -0.474  1.00  0.00    -0.351 N 
ATOM      5  H2  UNL     1      -0.272  -1.967  -1.192  1.00  0.00     0.163 HD
BRANCH   4   6
HETATM    6  C4  UNL     1      -1.076  -0.845   0.419  1.00  0.00     0.088 C 
HETATM    7  C3  UNL     1      -2.347  -1.558   0.048  1.00  0.00     0.055 C 
HETATM    8  C2  UNL     1      -3.522  -1.115   0.890  1.00  0.00     0.274 C 
HETATM    9  N1  UNL     1      -3.562   0.327   0.896  1.00  0.00     0.084 N 
HETATM   10  C1  UNL     1      -4.912   0.850   0.948  1.00  0.00     0.309 C 
HETATM   11  C12 UNL     1      -2.772   0.921  -0.143  1.00  0.00     0.274 C 
HETATM   12  C11 UNL     1      -1.309   0.650   0.175  1.00  0.00     0.055 C 
ENDBRANCH   4   6
ENDBRANCH   1   4
BRANCH   1  13
HETATM   13  O2  UNL     1       1.651   0.502  -0.174  1.00  0.00    -0.312 OA
BRANCH  13  14
HETATM   14  C7  UNL     1       2.930   0.977   0.095  1.00  0.00     0.060 C 
HETATM   15  C8  UNL     1       2.821   2.496   0.285  1.00  0.00     0.046 C 
HETATM   16  C9  UNL     1       3.898   0.768  -1.054  1.00  0.00     0.046 C 
HETATM   17  C10 UNL     1       3.560   0.429   1.334  1.00  0.00     0.046 C 
ENDBRANCH  13  14
ENDBRANCH   1  13
BRANCH   2  18
HETATM   18  C6  UNL     1       2.090  -3.019  -0.825  1.00  0.00     0.355 C 
HETATM   19  O1  UNL     1       1.995  -3.440  -2.001  1.00  0.00    -0.283 OA
ENDBRANCH   2  18
TORSDOF 5
