REMARK  2 active torsions:
REMARK  status: ('A' for Active; 'I' for Inactive)
REMARK    1  A    between atoms: C1_1  and  C12_14 
REMARK    2  A    between atoms: N1_2  and  C2_4 
ROOT
HETATM    1  C2  UNL     1      -0.601   0.129   0.091  1.00  0.00     0.030 C 
HETATM    2  C3  UNL     1      -1.321  -0.230   1.395  1.00  0.00     0.035 C 
HETATM    3  C4  UNL     1      -2.788  -0.328   1.106  1.00  0.00    -0.012 C 
HETATM    4  C5  UNL     1      -3.330   0.977   0.571  1.00  0.00     0.009 C 
HETATM    5  C6  UNL     1      -2.615   1.340  -0.699  1.00  0.00    -0.012 C 
HETATM    6  C7  UNL     1      -2.749   0.299  -1.777  1.00  0.00     0.009 C 
HETATM    7  C8  UNL     1      -2.346  -1.035  -1.213  1.00  0.00    -0.012 C 
HETATM    8  C9  UNL     1      -3.077  -1.388   0.045  1.00  0.00     0.009 C 
HETATM    9  C10 UNL     1      -0.860  -0.979  -0.878  1.00  0.00     0.035 C 
HETATM   10  C11 UNL     1      -1.132   1.462  -0.370  1.00  0.00     0.035 C 
ENDROOT
BRANCH   1  11
HETATM   11  N1  UNL     1       0.785   0.260   0.369  1.00  0.00    -0.389 N 
HETATM   12  C1  UNL     1       1.704  -0.461  -0.151  1.00  0.00     0.117 C 
ATOM     13  H1  UNL     1       1.068   0.982   1.032  1.00  0.00     0.159 HD
BRANCH  12  14
HETATM   14  C12 UNL     1       3.101  -0.178   0.261  1.00  0.00     0.360 C 
HETATM   15  N2  UNL     1       4.050  -1.049  -0.409  1.00  0.00    -0.042 N 
HETATM   16  C13 UNL     1       5.312  -0.405  -0.011  1.00  0.00     0.262 C 
ATOM     17  H22 UNL     1       3.970  -2.043  -0.194  1.00  0.00     0.280 HD
ATOM     18  H21 UNL     1       3.910  -1.172  -1.412  1.00  0.00     0.280 HD
HETATM   19  C14 UNL     1       4.907   1.058  -0.161  1.00  0.00     0.198 C 
HETATM   20  O1  UNL     1       3.526   1.078  -0.147  1.00  0.00    -0.354 OA
ENDBRANCH  12  14
ENDBRANCH   1  11
TORSDOF 2
