REMARK  3 active torsions:
REMARK  status: ('A' for Active; 'I' for Inactive)
REMARK    1  A    between atoms: C4_4  and  S1_5 
REMARK    2  A    between atoms: S1_5  and  N1_6 
REMARK    3  A    between atoms: C5_11  and  C6_12 
ROOT
HETATM    1  C6  UNL     1       1.031   1.787   0.086  1.00  0.00     0.112 C 
HETATM    2  C7  UNL     1       0.853   3.197   0.266  1.00  0.00     0.089 C 
HETATM    3  N2  UNL     1       0.734   4.362   0.415  1.00  0.00    -0.192 NA
ENDROOT
BRANCH   1   4
HETATM    4  C5  UNL     1       0.050   0.926  -0.013  1.00  0.00     0.065 A 
HETATM    5  C4  UNL     1       0.321  -0.414  -0.185  1.00  0.00     0.097 A 
HETATM    6  C3  UNL     1      -0.712  -1.313  -0.296  1.00  0.00     0.055 A 
HETATM    7  C2  UNL     1      -2.014  -0.882  -0.237  1.00  0.00     0.027 A 
HETATM    8  C1  UNL     1      -3.043  -1.711  -0.339  1.00  0.00     0.043 C 
HETATM    9  N3  UNL     1      -2.263   0.421  -0.069  1.00  0.00    -0.324 N 
HETATM   10  C8  UNL     1      -1.273   1.318   0.042  1.00  0.00     0.258 A 
ATOM     11  H3  UNL     1      -3.231   0.740  -0.024  1.00  0.00     0.169 HD
HETATM   12  O3  UNL     1      -1.545   2.517   0.196  1.00  0.00    -0.267 OA
BRANCH   5  13
HETATM   13  S1  UNL     1       1.954  -0.952  -0.248  1.00  0.00     0.257 S 
HETATM   14  O1  UNL     1       2.652  -0.360  -1.464  1.00  0.00    -0.201 OA
HETATM   15  O2  UNL     1       1.948  -2.451  -0.529  1.00  0.00    -0.201 OA
BRANCH  13  16
HETATM   16  N1  UNL     1       2.886  -0.660   1.142  1.00  0.00    -0.324 N 
ATOM     17  H12 UNL     1       2.487  -0.193   1.956  1.00  0.00     0.169 HD
ATOM     18  H11 UNL     1       3.854  -0.979   1.105  1.00  0.00     0.169 HD
ENDBRANCH  13  16
ENDBRANCH   5  13
ENDBRANCH   1   4
TORSDOF 3
