REMARK  3 active torsions:
REMARK  status: ('A' for Active; 'I' for Inactive)
REMARK    1  A    between atoms: C3_5  and  C4_6 
REMARK    2  A    between atoms: C4_6  and  C5_7 
REMARK    3  A    between atoms: C9_18  and  C10_19 
ROOT
HETATM    1  C1  UNL     1      -1.248   2.816   0.510  1.00  0.00     0.044 C 
HETATM    2  C2  UNL     1      -1.185   1.580   0.083  1.00  0.00     0.040 A 
HETATM    3  N1  UNL     1      -0.019   1.216  -0.553  1.00  0.00    -0.345 N 
ATOM      4  H1  UNL     1       0.721   1.910  -0.659  1.00  0.00     0.167 HD
HETATM    5  C3  UNL     1       0.177  -0.012  -1.036  1.00  0.00     0.090 A 
HETATM    6  N4  UNL     1      -0.814  -0.915  -0.886  1.00  0.00    -0.312 N 
ATOM      7  H4  UNL     1      -0.671  -1.856  -1.253  1.00  0.00     0.170 HD
HETATM    8  C8  UNL     1      -1.961  -0.643  -0.288  1.00  0.00     0.260 A 
HETATM    9  O1  UNL     1      -2.902  -1.455  -0.131  1.00  0.00    -0.267 OA
HETATM   10  C9  UNL     1      -2.172   0.644   0.221  1.00  0.00     0.071 A 
ENDROOT
BRANCH   5  11
HETATM   11  C4  UNL     1       1.436  -0.405  -1.722  1.00  0.00     0.135 C 
BRANCH  11  12
HETATM   12  C5  UNL     1       2.394  -0.930  -0.723  1.00  0.00     0.032 A 
HETATM   13  C6  UNL     1       3.328  -0.212  -0.014  1.00  0.00     0.114 A 
HETATM   14  N2  UNL     1       4.019  -1.049   0.806  1.00  0.00    -0.360 N 
HETATM   15  C7  UNL     1       3.496  -2.264   0.584  1.00  0.00     0.180 A 
ATOM     16  H2  UNL     1       4.772  -0.805   1.450  1.00  0.00     0.166 HD
HETATM   17  N3  UNL     1       2.510  -2.201  -0.341  1.00  0.00    -0.354 N 
ATOM     18  H3  UNL     1       1.956  -2.985  -0.684  1.00  0.00     0.166 HD
ENDBRANCH  11  12
ENDBRANCH   5  11
BRANCH  10  19
HETATM   19  C10 UNL     1      -3.301   0.942   0.819  1.00  0.00     0.119 C 
HETATM   20  N5  UNL     1      -4.325  -0.031   0.961  1.00  0.00    -0.114 NA
ENDBRANCH  10  19
TORSDOF 3
