REMARK  2 active torsions:
REMARK  status: ('A' for Active; 'I' for Inactive)
REMARK    1  A    between atoms: C6_11  and  C7_12 
REMARK    2  A    between atoms: C7_12  and  C8_13 
ROOT
HETATM    1  C1  UNL     1      -0.449  -0.818   2.848  1.00  0.00     0.045 C 
HETATM    2  C2  UNL     1      -1.069   0.012   2.046  1.00  0.00     0.052 A 
HETATM    3  N1  UNL     1      -1.835   1.016   2.566  1.00  0.00    -0.321 N 
ATOM      4  H1  UNL     1      -1.914   1.106   3.579  1.00  0.00     0.169 HD
HETATM    5  C3  UNL     1      -2.479   1.878   1.788  1.00  0.00     0.261 A 
HETATM    6  O1  UNL     1      -3.166   2.778   2.362  1.00  0.00    -0.267 OA
HETATM    7  C4  UNL     1      -2.408   1.805   0.419  1.00  0.00     0.163 A 
HETATM    8  N2  UNL     1      -1.671   0.838  -0.120  1.00  0.00    -0.359 N 
ATOM      9  H2  UNL     1      -1.601   0.760  -1.135  1.00  0.00     0.165 HD
HETATM   10  C5  UNL     1      -1.008  -0.049   0.675  1.00  0.00     0.054 A 
HETATM   11  C6  UNL     1      -0.284  -0.998   0.096  1.00  0.00     0.012 C 
ENDROOT
BRANCH  11  12
HETATM   12  C7  UNL     1      -0.238  -1.037  -1.407  1.00  0.00     0.107 C 
BRANCH  12  13
HETATM   13  C8  UNL     1       1.192  -0.753  -1.764  1.00  0.00     0.103 A 
HETATM   14  N3  UNL     1       2.118  -1.748  -1.901  1.00  0.00    -0.296 N 
HETATM   15  C9  UNL     1       3.288  -1.168  -2.221  1.00  0.00     0.340 A 
ATOM     16  H3  UNL     1       1.952  -2.747  -1.782  1.00  0.00     0.172 HD
HETATM   17  O2  UNL     1       4.373  -1.772  -2.427  1.00  0.00    -0.245 OA
HETATM   18  N4  UNL     1       3.063   0.143  -2.274  1.00  0.00    -0.250 N 
HETATM   19  N5  UNL     1       1.790   0.413  -1.998  1.00  0.00    -0.285 N 
ATOM     20  H4  UNL     1       3.770   0.844  -2.496  1.00  0.00     0.192 HD
ATOM     21  H5  UNL     1       1.356   1.336  -1.971  1.00  0.00     0.188 HD
ENDBRANCH  12  13
ENDBRANCH  11  12
TORSDOF 2
