REMARK  6 active torsions:
REMARK  status: ('A' for Active; 'I' for Inactive)
REMARK    1  A    between atoms: C2_2  and  O1_3 
REMARK    2  A    between atoms: O1_3  and  C3_4 
REMARK       I    between atoms: C3_4  and  N1_6 
REMARK    3  A    between atoms: C10_15  and  O4_16 
REMARK    4  A    between atoms: C11_18  and  C12_19 
REMARK    5  A    between atoms: C12_19  and  C13_20 
REMARK    6  A    between atoms: C13_20  and  O6_22 
ROOT
HETATM    1  C3  UNL     1      -2.010   1.246  -0.089  1.00  0.00     0.369 C 
HETATM    2  O2  UNL     1      -1.295   2.149  -0.591  1.00  0.00    -0.238 OA
HETATM    3  N1  UNL     1      -1.508  -0.084  -0.115  1.00  0.00    -0.258 N 
HETATM    4  C4  UNL     1      -2.331  -1.110   0.460  1.00  0.00     0.233 C 
HETATM    5  O3  UNL     1      -3.152  -0.767   1.346  1.00  0.00    -0.272 OA
HETATM    6  C5  UNL     1      -2.168  -2.506  -0.019  1.00  0.00     0.092 C 
HETATM    7  C6  UNL     1      -2.922  -3.481   0.817  1.00  0.00     0.021 C 
HETATM    8  C7  UNL     1      -0.685  -2.793  -0.070  1.00  0.00     0.114 C 
HETATM    9  C8  UNL     1      -0.092  -2.863   1.243  1.00  0.00     0.065 C 
HETATM   10  N2  UNL     1       0.367  -2.931   2.303  1.00  0.00    -0.197 NA
HETATM   11  C9  UNL     1      -0.026  -1.834  -0.994  1.00  0.00     0.057 C 
HETATM   12  C10 UNL     1       1.477  -1.954  -0.993  1.00  0.00     0.130 C 
HETATM   13  C11 UNL     1       1.993  -0.861  -0.088  1.00  0.00     0.026 C 
HETATM   14  C15 UNL     1       0.858   0.064   0.214  1.00  0.00     0.034 C 
HETATM   15  C16 UNL     1      -0.237  -0.399  -0.687  1.00  0.00     0.106 C 
ENDROOT
BRANCH  12  16
HETATM   16  O4  UNL     1       1.936  -1.755  -2.310  1.00  0.00    -0.395 OA
ATOM     17  H4  UNL     1       2.883  -1.831  -2.309  1.00  0.00     0.210 HD
ENDBRANCH  12  16
BRANCH  13  18
HETATM   18  C12 UNL     1       3.039  -0.053  -0.866  1.00  0.00     0.118 C 
BRANCH  18  19
HETATM   19  C13 UNL     1       3.585   1.038  -0.025  1.00  0.00     0.258 C 
HETATM   20  O5  UNL     1       3.215   1.234   1.157  1.00  0.00    -0.265 OA
BRANCH  19  21
HETATM   21  O6  UNL     1       4.540   1.867  -0.578  1.00  0.00    -0.326 OA
HETATM   22  C14 UNL     1       5.106   2.923   0.150  1.00  0.00     0.213 C 
ENDBRANCH  19  21
ENDBRANCH  18  19
ENDBRANCH  13  18
BRANCH   1  23
HETATM   23  O1  UNL     1      -3.218   1.600   0.446  1.00  0.00    -0.304 OA
BRANCH  23  24
HETATM   24  C2  UNL     1      -3.695   2.919   0.461  1.00  0.00     0.176 C 
HETATM   25  C1  UNL     1      -2.790   3.860   1.216  1.00  0.00     0.034 C 
ENDBRANCH  23  24
ENDBRANCH   1  23
TORSDOF 6
