REMARK  5 active torsions:
REMARK  status: ('A' for Active; 'I' for Inactive)
REMARK    1  A    between atoms: C2_2  and  C3_4 
REMARK    2  A    between atoms: C5_6  and  C6_7 
REMARK    3  A    between atoms: C6_7  and  C7_9 
REMARK    4  A    between atoms: C14_18  and  O5_19 
REMARK    5  A    between atoms: C14_18  and  C15_21 
ROOT
HETATM    1  C7  UNL     1       0.138   0.249  -0.581  1.00  0.00     0.202 C 
HETATM    2  C8  UNL     1      -0.310  -0.811   0.349  1.00  0.00     0.146 C 
HETATM    3  O3  UNL     1       0.345  -0.846   1.371  1.00  0.00    -0.297 OA
HETATM    4  C9  UNL     1      -1.372  -1.870   0.367  1.00  0.00     0.084 C 
HETATM    5  C10 UNL     1      -2.582  -1.423   1.131  1.00  0.00    -0.005 C 
HETATM    6  C11 UNL     1      -3.341  -2.692   1.540  1.00  0.00     0.011 C 
HETATM    7  C12 UNL     1      -3.528  -0.575   0.354  1.00  0.00     0.087 C 
HETATM    8  C13 UNL     1      -2.908   0.472  -0.460  1.00  0.00     0.176 C 
HETATM    9  O4  UNL     1      -3.064   0.315  -1.669  1.00  0.00    -0.294 OA
HETATM   10  C14 UNL     1      -2.118   1.709  -0.198  1.00  0.00     0.240 C 
HETATM   11  C17 UNL     1      -0.732   1.414  -0.624  1.00  0.00     0.195 C 
HETATM   12  O7  UNL     1      -0.210   2.381  -1.127  1.00  0.00    -0.292 OA
ENDROOT
BRANCH   1  13
HETATM   13  C6  UNL     1       1.558   0.607  -0.196  1.00  0.00     0.168 C 
HETATM   14  O2  UNL     1       1.829   1.784   0.156  1.00  0.00    -0.292 OA
BRANCH  13  15
HETATM   15  C5  UNL     1       2.520  -0.473  -0.266  1.00  0.00     0.061 C 
HETATM   16  C3  UNL     1       3.802  -0.394   0.021  1.00  0.00    -0.013 C 
HETATM   17  C4  UNL     1       4.365   0.908   0.465  1.00  0.00     0.052 C 
BRANCH  16  18
HETATM   18  C2  UNL     1       4.690  -1.563  -0.087  1.00  0.00     0.151 C 
HETATM   19  C1  UNL     1       6.124  -1.435   0.244  1.00  0.00     0.096 C 
HETATM   20  O1  UNL     1       4.186  -2.653  -0.465  1.00  0.00    -0.293 OA
ENDBRANCH  16  18
ENDBRANCH  13  15
ENDBRANCH   1  13
BRANCH  10  21
HETATM   21  O5  UNL     1      -2.051   1.911   1.192  1.00  0.00    -0.369 OA
ATOM     22  H5  UNL     1      -1.548   2.699   1.359  1.00  0.00     0.212 HD
ENDBRANCH  10  21
BRANCH  10  23
HETATM   23  C15 UNL     1      -2.692   2.897  -0.821  1.00  0.00     0.172 C 
HETATM   24  C16 UNL     1      -2.905   3.016  -2.298  1.00  0.00     0.095 C 
HETATM   25  O6  UNL     1      -3.013   3.834  -0.118  1.00  0.00    -0.294 OA
ENDBRANCH  10  23
TORSDOF 5
