REMARK  4 active torsions:
REMARK  status: ('A' for Active; 'I' for Inactive)
REMARK    1  A    between atoms: C3_3  and  C4_4 
REMARK    2  A    between atoms: C9_10  and  C10_11 
REMARK    3  A    between atoms: C10_11  and  O1_12 
REMARK    4  A    between atoms: N3_20  and  C15_21 
ROOT
HETATM    1  C4  UNL     1       0.615  -2.899  -0.209  1.00  0.00     0.133 C 
HETATM    2  C5  UNL     1       0.512  -3.260   1.162  1.00  0.00     0.059 C 
HETATM    3  N1  UNL     1       0.457  -3.557   2.268  1.00  0.00    -0.197 NA
ENDROOT
BRANCH   1   4
HETATM    4  C3  UNL     1       0.060  -1.619  -0.665  1.00  0.00     0.051 C 
HETATM    5  C2  UNL     1      -1.399  -1.413  -0.482  1.00  0.00     0.116 C 
HETATM    6  C1  UNL     1      -1.978  -1.851   0.840  1.00  0.00     0.034 C 
HETATM    7  N3  UNL     1      -1.896  -0.089  -0.725  1.00  0.00    -0.125 N 
HETATM    8  C14 UNL     1      -1.030   0.935  -1.140  1.00  0.00     0.339 C 
HETATM    9  N2  UNL     1       0.353   0.629  -1.318  1.00  0.00    -0.328 N 
HETATM   10  O2  UNL     1      -1.393   2.124  -1.370  1.00  0.00    -0.246 OA
HETATM   11  C6  UNL     1       0.896  -0.377  -0.410  1.00  0.00     0.043 C 
HETATM   12  C13 UNL     1       1.131   1.285  -2.359  1.00  0.00     0.155 C 
HETATM   13  C7  UNL     1       0.847   0.131   0.970  1.00  0.00     0.032 C 
HETATM   14  C12 UNL     1       2.340  -0.612  -0.777  1.00  0.00     0.032 C 
HETATM   15  C8  UNL     1       1.870   1.228   1.137  1.00  0.00     0.009 C 
HETATM   16  C9  UNL     1       3.246   0.627   1.160  1.00  0.00     0.009 C 
HETATM   17  C11 UNL     1       3.251  -0.684   0.450  1.00  0.00     0.009 C 
BRANCH   7  18
HETATM   18  C15 UNL     1      -3.269   0.186  -0.553  1.00  0.00     0.720 A 
HETATM   19  N4  UNL     1      -4.243  -0.422  -1.243  1.00  0.00    -0.115 N 
HETATM   20  N5  UNL     1      -5.381   0.086  -0.818  1.00  0.00    -0.211 N 
ATOM     21  H4  UNL     1      -4.126  -1.139  -1.959  1.00  0.00     0.207 HD
HETATM   22  N6  UNL     1      -5.179   0.995   0.117  1.00  0.00    -0.209 N 
ATOM     23  H5  UNL     1      -6.300  -0.188  -1.166  1.00  0.00     0.210 HD
HETATM   24  C16 UNL     1      -6.155   1.784   0.839  1.00  0.00     0.202 C 
HETATM   25  N7  UNL     1      -3.871   1.050   0.274  1.00  0.00    -0.113 N 
ATOM     26  H7  UNL     1      -3.387   1.662   0.931  1.00  0.00     0.207 HD
ENDBRANCH   7  18
BRANCH  16  27
HETATM   27  C10 UNL     1       4.229   1.559   0.484  1.00  0.00     0.168 C 
BRANCH  27  28
HETATM   28  O1  UNL     1       4.247   2.786   1.163  1.00  0.00    -0.400 OA
ATOM     29  H1  UNL     1       4.864   3.371   0.739  1.00  0.00     0.209 HD
ENDBRANCH  27  28
ENDBRANCH  16  27
ENDBRANCH   1   4
TORSDOF 4
