REMARK  6 active torsions:
REMARK  status: ('A' for Active; 'I' for Inactive)
REMARK    1  A    between atoms: C2_2  and  C3_3 
REMARK    2  A    between atoms: C4_4  and  C5_5 
REMARK    3  A    between atoms: C6_6  and  N1_7 
REMARK    4  A    between atoms: N1_7  and  C7_9 
REMARK    5  A    between atoms: C7_9  and  C8_10 
REMARK    6  A    between atoms: C8_10  and  O1_11 
ROOT
HETATM    1  C5  UNL     1      -0.161   0.568  -0.261  1.00  0.00     0.079 A 
HETATM    2  C6  UNL     1       0.770  -0.430  -0.055  1.00  0.00     0.121 A 
HETATM    3  N2  UNL     1       0.353  -1.661   0.225  1.00  0.00    -0.349 N 
ATOM      4  H2  UNL     1       1.046  -2.394   0.376  1.00  0.00     0.167 HD
HETATM    5  C10 UNL     1      -0.962  -1.973   0.316  1.00  0.00     0.121 A 
HETATM    6  C11 UNL     1      -1.912  -1.017   0.120  1.00  0.00     0.091 A 
HETATM    7  C12 UNL     1      -1.511   0.299  -0.179  1.00  0.00     0.084 A 
HETATM    8  C13 UNL     1      -2.454   1.264  -0.378  1.00  0.00     0.275 A 
HETATM    9  O2  UNL     1      -2.128   2.429  -0.642  1.00  0.00    -0.266 OA
HETATM   10  N3  UNL     1      -3.736   0.918  -0.280  1.00  0.00    -0.149 N 
HETATM   11  C14 UNL     1      -4.751   1.940  -0.490  1.00  0.00     0.179 C 
HETATM   12  C15 UNL     1      -4.142  -0.317   0.001  1.00  0.00     0.710 A 
HETATM   13  N4  UNL     1      -5.372  -0.863   0.142  1.00  0.00    -0.130 N 
ATOM     14  H4  UNL     1      -6.260  -0.371   0.046  1.00  0.00     0.205 HD
HETATM   15  N5  UNL     1      -5.225  -2.122   0.420  1.00  0.00    -0.274 N 
ATOM     16  H5  UNL     1      -5.990  -2.777   0.579  1.00  0.00     0.189 HD
HETATM   17  C16 UNL     1      -3.886  -2.446   0.469  1.00  0.00     0.116 A 
HETATM   18  C17 UNL     1      -3.374  -3.795   0.761  1.00  0.00     0.092 C 
HETATM   19  N6  UNL     1      -3.244  -1.308   0.206  1.00  0.00    -0.132 N 
ENDROOT
BRANCH   2  20
HETATM   20  N1  UNL     1       2.012  -0.111  -0.146  1.00  0.00    -0.373 N 
ATOM     21  H1  UNL     1       2.300   0.843  -0.362  1.00  0.00     0.161 HD
BRANCH  20  22
HETATM   22  C7  UNL     1       2.988  -1.162   0.071  1.00  0.00     0.147 C 
BRANCH  22  23
HETATM   23  C8  UNL     1       4.400  -0.620  -0.005  1.00  0.00     0.186 C 
BRANCH  23  24
HETATM   24  O1  UNL     1       5.358  -1.597   0.197  1.00  0.00    -0.394 OA
HETATM   25  C9  UNL     1       5.267  -2.212   1.418  1.00  0.00     0.201 C 
ENDBRANCH  23  24
ENDBRANCH  22  23
ENDBRANCH  20  22
ENDBRANCH   2  20
BRANCH   1  26
HETATM   26  C4  UNL     1       0.293   1.911  -0.567  1.00  0.00    -0.062 C 
HETATM   27  C3  UNL     1       0.720   3.037  -0.824  1.00  0.00    -0.101 C 
BRANCH  27  28
HETATM   28  C2  UNL     1       1.240   4.365  -1.147  1.00  0.00     0.090 C 
HETATM   29  C1  UNL     1       2.743   4.295  -1.079  1.00  0.00     0.018 C 
ENDBRANCH  27  28
ENDBRANCH   1  26
TORSDOF 6
