REMARK  1 active torsions:
REMARK  status: ('A' for Active; 'I' for Inactive)
REMARK    1  A    between atoms: C4_5  and  C5_6 
ROOT
HETATM    1  C1  UNL     1      -1.463  -0.326   1.589  1.00  0.00     0.310 C 
HETATM    2  N1  UNL     1      -1.249  -0.280   0.178  1.00  0.00     0.094 N 
HETATM    3  C2  UNL     1      -1.022  -1.580  -0.349  1.00  0.00     0.274 C 
HETATM    4  C3  UNL     1       0.304  -1.591  -1.044  1.00  0.00     0.048 C 
HETATM    5  C4  UNL     1       0.878  -0.203  -0.882  1.00  0.00     0.126 C 
HETATM    6  C6  UNL     1      -0.228   0.607  -0.259  1.00  0.00     0.165 C 
HETATM    7  C7  UNL     1       0.293   1.526   0.830  1.00  0.00     0.049 C 
HETATM    8  C8  UNL     1      -0.826   1.519  -1.337  1.00  0.00     0.049 C 
ENDROOT
BRANCH   5   9
HETATM    9  C5  UNL     1       2.116  -0.182  -0.095  1.00  0.00     0.179 C 
HETATM   10  O1  UNL     1       3.192   0.251  -0.595  1.00  0.00    -0.648 OA
HETATM   11  O2  UNL     1       2.166  -0.638   1.238  1.00  0.00    -0.648 OA
ENDBRANCH   5   9
TORSDOF 1
