REMARK  3 active torsions:
REMARK  status: ('A' for Active; 'I' for Inactive)
REMARK    1  A    between atoms: C2_2  and  C3_4 
REMARK    2  A    between atoms: C8_9  and  O2_10 
REMARK    3  A    between atoms: C8_9  and  O3_12 
ROOT
HETATM    1  C3  UNL     1       0.959   0.126  -0.121  1.00  0.00     0.060 C 
HETATM    2  C4  UNL     1       0.027  -0.905   0.523  1.00  0.00     0.016 C 
HETATM    3  C5  UNL     1      -1.341  -0.656  -0.124  1.00  0.00    -0.013 C 
HETATM    4  C6  UNL     1      -2.341  -1.699   0.255  1.00  0.00     0.010 C 
HETATM    5  C7  UNL     1      -1.844   0.720   0.195  1.00  0.00     0.072 C 
HETATM    6  C8  UNL     1      -0.843   1.753  -0.338  1.00  0.00     0.160 C 
HETATM    7  C9  UNL     1       0.472   1.475   0.354  1.00  0.00     0.080 C 
ENDROOT
BRANCH   6   8
HETATM    8  O2  UNL     1      -0.668   1.626  -1.709  1.00  0.00    -0.365 OA
ATOM      9  H2  UNL     1      -0.048   2.266  -2.039  1.00  0.00     0.213 HD
ENDBRANCH   6   8
BRANCH   6  10
HETATM   10  O3  UNL     1      -1.286   3.023   0.017  1.00  0.00    -0.365 OA
ATOM     11  H3  UNL     1      -0.666   3.663  -0.313  1.00  0.00     0.213 HD
ENDBRANCH   6  10
BRANCH   1  12
HETATM   12  C2  UNL     1       2.352  -0.058   0.271  1.00  0.00     0.127 C 
HETATM   13  C1  UNL     1       3.141  -1.301   0.015  1.00  0.00     0.091 C 
HETATM   14  O1  UNL     1       2.937   0.842   0.845  1.00  0.00    -0.298 OA
ENDBRANCH   1  12
TORSDOF 3
