REMARK  2 active torsions:
REMARK  status: ('A' for Active; 'I' for Inactive)
REMARK    1  A    between atoms: N1_2  and  C3_4 
REMARK    2  A    between atoms: C6_7  and  O1_8 
ROOT
HETATM    1  C3  UNL     1       0.580   0.280  -0.424  1.00  0.00     0.083 C 
HETATM    2  C4  UNL     1       0.245  -1.195  -0.589  1.00  0.00     0.033 C 
HETATM    3  C5  UNL     1      -1.137  -1.253   0.018  1.00  0.00     0.021 C 
HETATM    4  C6  UNL     1      -1.995  -0.300  -0.832  1.00  0.00     0.127 C 
HETATM    5  C7  UNL     1      -1.786   0.950  -0.005  1.00  0.00     0.022 C 
HETATM    6  C8  UNL     1      -2.226   0.441   1.364  1.00  0.00     0.013 C 
HETATM    7  C9  UNL     1      -0.953  -0.405   1.235  1.00  0.00    -0.001 C 
HETATM    8  C10 UNL     1      -0.374   0.838   0.546  1.00  0.00     0.019 C 
ENDROOT
BRANCH   1   9
HETATM    9  N1  UNL     1       1.938   0.428  -0.194  1.00  0.00    -0.416 N 
HETATM   10  C1  UNL     1       2.842   0.018  -1.206  1.00  0.00     0.143 C 
HETATM   11  C2  UNL     1       2.440   0.539   1.107  1.00  0.00     0.143 C 
ENDBRANCH   1   9
BRANCH   4  12
HETATM   12  O1  UNL     1      -3.346  -0.705  -0.799  1.00  0.00    -0.395 OA
ATOM     13  H1  UNL     1      -3.876  -0.117  -1.324  1.00  0.00     0.210 HD
ENDBRANCH   4  12
TORSDOF 2
