REMARK  1 active torsions:
REMARK  status: ('A' for Active; 'I' for Inactive)
REMARK    1  A    between atoms: C2_2  and  C3_4 
ROOT
HETATM    1  C3  UNL     1       1.561  -0.785   0.399  1.00  0.00     0.081 C 
HETATM    2  C4  UNL     1       0.504  -1.655  -0.155  1.00  0.00     0.247 C 
HETATM    3  N1  UNL     1      -0.745  -1.026  -0.437  1.00  0.00    -0.042 N 
ATOM      4  H11 UNL     1      -1.467  -1.689  -0.720  1.00  0.00     0.279 HD
ATOM      5  H12 UNL     1      -0.725  -0.474  -1.294  1.00  0.00     0.279 HD
HETATM    6  C5  UNL     1      -1.122  -0.244   0.730  1.00  0.00     0.423 C 
HETATM    7  C6  UNL     1      -0.218   0.971   0.707  1.00  0.00     0.049 C 
HETATM    8  C7  UNL     1      -0.818   1.743  -0.449  1.00  0.00     0.039 C 
HETATM    9  C8  UNL     1      -2.302   1.479  -0.290  1.00  0.00     0.275 C 
HETATM   10  N2  UNL     1      -2.402   0.380   0.604  1.00  0.00     0.115 N 
HETATM   11  C9  UNL     1      -3.498  -0.492   0.412  1.00  0.00     0.312 C 
HETATM   12  C10 UNL     1       1.211   0.657   0.558  1.00  0.00     0.022 C 
ENDROOT
BRANCH   1  13
HETATM   13  C2  UNL     1       2.795  -0.863  -0.435  1.00  0.00     0.128 C 
HETATM   14  C1  UNL     1       3.991  -0.075  -0.072  1.00  0.00     0.091 C 
HETATM   15  O1  UNL     1       2.801  -1.585  -1.416  1.00  0.00    -0.298 OA
ENDBRANCH   1  13
TORSDOF 1
