REMARK  8 active torsions:
REMARK  status: ('A' for Active; 'I' for Inactive)
REMARK    1  A    between atoms: C2_2  and  N1_3 
REMARK    2  A    between atoms: N1_3  and  O1_5 
REMARK    3  A    between atoms: O1_5  and  S1_6 
REMARK    4  A    between atoms: S1_6  and  N2_9 
REMARK    5  A    between atoms: N2_9  and  C3_10 
REMARK    6  A    between atoms: N2_9  and  C8_16 
REMARK    7  A    between atoms: C3_10  and  C4_11 
REMARK    8  A    between atoms: C8_16  and  C9_17 
ROOT
HETATM    1  C9  UNL     1       1.393   0.112  -1.444  1.00  0.00     0.008 C 
HETATM    2  C10 UNL     1       0.927   0.671  -2.802  1.00  0.00     0.007 C 
HETATM    3  C11 UNL     1      -0.524   0.988  -2.451  1.00  0.00     0.006 C 
HETATM    4  C12 UNL     1      -0.945  -0.312  -1.854  1.00  0.00    -0.001 C 
HETATM    5  C13 UNL     1      -2.246  -0.292  -1.130  1.00  0.00     0.000 C 
HETATM    6  C14 UNL     1      -2.594   0.973  -0.441  1.00  0.00     0.046 C 
HETATM    7  C15 UNL     1      -3.435   0.908   0.771  1.00  0.00     0.093 C 
HETATM    8  C16 UNL     1      -3.236   2.244   1.521  1.00  0.00     0.049 C 
HETATM    9  C17 UNL     1      -4.893   0.775   0.573  1.00  0.00     0.041 C 
HETATM   10  C18 UNL     1      -5.360  -0.062  -0.547  1.00  0.00     0.006 C 
HETATM   11  C19 UNL     1      -4.824  -1.446  -0.588  1.00  0.00     0.041 C 
HETATM   12  C20 UNL     1      -3.703  -1.725   0.365  1.00  0.00     0.097 C 
HETATM   13  C21 UNL     1      -3.768  -3.230   0.692  1.00  0.00     0.050 C 
HETATM   14  O5  UNL     1      -3.802  -1.078   1.562  1.00  0.00    -0.229 OA
HETATM   15  O6  UNL     1      -3.031  -0.055   1.699  1.00  0.00    -0.229 OA
HETATM   16  C22 UNL     1      -2.358  -1.553  -0.334  1.00  0.00     0.027 C 
HETATM   17  C23 UNL     1      -1.195  -1.879   0.523  1.00  0.00     0.009 C 
HETATM   18  C24 UNL     1      -0.047  -0.864   0.412  1.00  0.00     0.010 C 
HETATM   19  C25 UNL     1       0.259  -0.733  -1.044  1.00  0.00    -0.035 C 
HETATM   20  C26 UNL     1       0.632  -2.177  -1.468  1.00  0.00     0.016 C 
ENDROOT
BRANCH   1  21
HETATM   21  C8  UNL     1       1.806   1.266  -0.631  1.00  0.00     0.115 C 
BRANCH  21  22
HETATM   22  N2  UNL     1       2.283   0.901   0.689  1.00  0.00    -0.179 NA
BRANCH  22  23
HETATM   23  S1  UNL     1       3.956   0.507   0.689  1.00  0.00     0.361 S 
HETATM   24  O2  UNL     1       4.725   1.721   1.121  1.00  0.00    -0.179 OA
HETATM   25  O3  UNL     1       4.482   0.084  -0.630  1.00  0.00    -0.179 OA
BRANCH  23  26
HETATM   26  O1  UNL     1       4.318  -0.696   1.804  1.00  0.00    -0.138 OA
BRANCH  26  27
HETATM   27  N1  UNL     1       5.536  -1.200   1.646  1.00  0.00    -0.247 N 
ATOM     28  H1  UNL     1       6.348  -0.611   1.833  1.00  0.00     0.195 HD
BRANCH  27  29
HETATM   29  C2  UNL     1       5.731  -2.526   1.227  1.00  0.00     0.097 C 
HETATM   30  C1  UNL     1       5.095  -3.030  -0.009  1.00  0.00     0.076 C 
HETATM   31  C27 UNL     1       6.500  -3.336   1.953  1.00  0.00     0.291 C 
HETATM   32  F1  UNL     1       6.698  -4.599   1.572  1.00  0.00    -0.171 F 
HETATM   33  F2  UNL     1       7.091  -2.892   3.087  1.00  0.00    -0.171 F 
ENDBRANCH  27  29
ENDBRANCH  26  27
ENDBRANCH  23  26
ENDBRANCH  22  23
BRANCH  22  34
HETATM   34  C3  UNL     1       2.088   1.980   1.636  1.00  0.00     0.174 C 
BRANCH  34  35
HETATM   35  C4  UNL     1       2.096   3.328   1.035  1.00  0.00     0.066 A 
HETATM   36  C5  UNL     1       0.997   4.186   1.063  1.00  0.00     0.036 A 
HETATM   37  C6  UNL     1       1.418   5.341   0.394  1.00  0.00     0.027 A 
HETATM   38  C7  UNL     1       2.716   5.113   0.013  1.00  0.00     0.142 A 
HETATM   39  O4  UNL     1       3.067   3.922   0.410  1.00  0.00    -0.326 OA
ENDBRANCH  34  35
ENDBRANCH  22  34
ENDBRANCH  21  22
ENDBRANCH   1  21
TORSDOF 8
