REMARK  10 active torsions:
REMARK  status: ('A' for Active; 'I' for Inactive)
REMARK    1  A    between atoms: C2_2  and  O1_4 
REMARK    2  A    between atoms: O1_4  and  C4_5 
REMARK    3  A    between atoms: C4_5  and  O3_7 
REMARK    4  A    between atoms: O3_7  and  C5_8 
REMARK       I    between atoms: N1_17  and  C14_18 
REMARK    5  A    between atoms: C14_18  and  C15_20 
REMARK    6  A    between atoms: C15_20  and  C16_21 
REMARK    7  A    between atoms: C16_21  and  S1_22 
REMARK    8  A    between atoms: S1_22  and  C17_23 
REMARK    9  A    between atoms: C27_35  and  C29_37 
REMARK   10  A    between atoms: C29_37  and  O5_38 
ROOT
HETATM    1  C5  UNL     1      -1.876   0.643  -0.627  1.00  0.00     0.173 C 
HETATM    2  C6  UNL     1      -2.674  -0.430  -0.136  1.00  0.00     0.043 C 
HETATM    3  C7  UNL     1      -2.268  -1.662   0.636  1.00  0.00    -0.006 C 
HETATM    4  C8  UNL     1      -3.510  -2.573   0.653  1.00  0.00     0.011 C 
HETATM    5  C9  UNL     1      -1.047  -2.185   0.187  1.00  0.00    -0.018 C 
HETATM    6  C10 UNL     1      -1.214  -2.181  -1.298  1.00  0.00     0.012 C 
HETATM    7  C11 UNL     1       0.084  -2.438  -1.955  1.00  0.00     0.008 C 
HETATM    8  C12 UNL     1       0.717  -2.759  -0.608  1.00  0.00     0.021 C 
HETATM    9  C13 UNL     1       0.937  -1.371  -0.092  1.00  0.00     0.105 C 
HETATM   10  N1  UNL     1       0.592  -0.098  -0.544  1.00  0.00    -0.323 N 
HETATM   11  C14 UNL     1       1.729   0.471  -1.211  1.00  0.00     0.224 C 
HETATM   12  O4  UNL     1       1.676   1.625  -1.747  1.00  0.00    -0.273 OA
HETATM   13  C23 UNL     1      -0.444   0.918  -0.562  1.00  0.00     0.100 C 
HETATM   14  C24 UNL     1       0.014  -1.630   1.054  1.00  0.00    -0.017 C 
HETATM   15  C25 UNL     1       1.062  -2.452   1.822  1.00  0.00     0.018 C 
HETATM   16  C26 UNL     1      -0.229  -0.643   2.077  1.00  0.00     0.018 C 
HETATM   17  C27 UNL     1      -0.411  -3.493   0.050  1.00  0.00    -0.008 C 
HETATM   18  C28 UNL     1      -0.724  -4.551  -0.966  1.00  0.00     0.018 C 
ENDROOT
BRANCH  11  19
HETATM   19  C15 UNL     1       3.044  -0.210  -1.336  1.00  0.00     0.114 C 
BRANCH  19  20
HETATM   20  C16 UNL     1       3.976   0.555  -2.275  1.00  0.00     0.089 C 
BRANCH  20  21
HETATM   21  S1  UNL     1       4.213   2.214  -1.582  1.00  0.00    -0.126 SA
BRANCH  21  22
HETATM   22  C17 UNL     1       5.090   2.137  -0.047  1.00  0.00     0.039 A 
HETATM   23  C18 UNL     1       4.411   2.009   1.158  1.00  0.00     0.025 A 
HETATM   24  C19 UNL     1       5.085   1.950   2.345  1.00  0.00     0.044 A 
HETATM   25  C20 UNL     1       6.449   2.013   2.377  1.00  0.00     0.119 A 
HETATM   26  F1  UNL     1       7.138   1.957   3.529  1.00  0.00    -0.206 F 
HETATM   27  C21 UNL     1       7.138   2.140   1.185  1.00  0.00     0.086 A 
HETATM   28  C22 UNL     1       6.452   2.201  -0.027  1.00  0.00     0.136 A 
HETATM   29  F2  UNL     1       7.176   2.326  -1.182  1.00  0.00    -0.205 F 
ENDBRANCH  21  22
ENDBRANCH  20  21
ENDBRANCH  19  20
ENDBRANCH  11  19
BRANCH   1  30
HETATM   30  O3  UNL     1      -2.431   1.879  -0.070  1.00  0.00    -0.287 OA
BRANCH  30  31
HETATM   31  C4  UNL     1      -3.099   2.822  -0.766  1.00  0.00     0.407 C 
HETATM   32  O2  UNL     1      -3.269   2.639  -2.003  1.00  0.00    -0.229 OA
BRANCH  31  33
HETATM   33  O1  UNL     1      -3.572   3.948  -0.108  1.00  0.00    -0.293 OA
BRANCH  33  34
HETATM   34  C2  UNL     1      -4.272   4.945  -0.812  1.00  0.00     0.126 C 
HETATM   35  C1  UNL     1      -5.617   5.246  -0.185  1.00  0.00     0.040 C 
HETATM   36  C3  UNL     1      -3.461   6.222  -0.734  1.00  0.00     0.040 C 
ENDBRANCH  33  34
ENDBRANCH  31  33
ENDBRANCH  30  31
ENDBRANCH   1  30
BRANCH  17  37
HETATM   37  C29 UNL     1      -0.752  -4.208   1.214  1.00  0.00     0.174 C 
BRANCH  37  38
HETATM   38  O5  UNL     1      -0.251  -5.525   1.380  1.00  0.00    -0.400 OA
ATOM     39  H5  UNL     1      -0.481  -6.007   2.165  1.00  0.00     0.209 HD
ENDBRANCH  37  38
ENDBRANCH  17  37
TORSDOF 10
