REMARK  9 active torsions:
REMARK  status: ('A' for Active; 'I' for Inactive)
REMARK    1  A    between atoms: O1_2  and  C2_3 
REMARK    2  A    between atoms: C4_5  and  C5_6 
REMARK    3  A    between atoms: C10_11  and  N1_12 
REMARK    4  A    between atoms: C16_20  and  O2_21 
REMARK    5  A    between atoms: C21_26  and  O3_27 
REMARK    6  A    between atoms: C23_29  and  O4_30 
REMARK    7  A    between atoms: O4_30  and  C24_31 
REMARK    8  A    between atoms: N2_34  and  C27_35 
REMARK    9  A    between atoms: C31_39  and  O5_40 
ROOT
HETATM    1  C2  UNL     1      -1.334   0.955  -0.972  1.00  0.00     0.105 A 
HETATM    2  C3  UNL     1       0.034   0.727  -0.853  1.00  0.00     0.052 A 
HETATM    3  C4  UNL     1       0.544  -0.555  -0.776  1.00  0.00    -0.020 A 
HETATM    4  C20 UNL     1      -0.353  -1.579  -0.823  1.00  0.00     0.052 A 
HETATM    5  C21 UNL     1      -1.727  -1.403  -0.942  1.00  0.00     0.105 A 
HETATM    6  C23 UNL     1      -2.225  -0.112  -1.018  1.00  0.00     0.136 A 
ENDROOT
BRANCH   3   7
HETATM    7  C5  UNL     1       1.992  -0.757  -0.650  1.00  0.00    -0.025 A 
HETATM    8  C6  UNL     1       2.546  -1.907  -1.211  1.00  0.00     0.013 A 
HETATM    9  C7  UNL     1       3.904  -2.110  -1.101  1.00  0.00     0.013 A 
HETATM   10  C8  UNL     1       4.731  -1.191  -0.441  1.00  0.00    -0.021 A 
HETATM   11  C9  UNL     1       6.094  -1.443  -0.358  1.00  0.00     0.041 A 
HETATM   12  C18 UNL     1       4.150  -0.064   0.102  1.00  0.00     0.008 A 
HETATM   13  C10 UNL     1       6.898  -0.533   0.293  1.00  0.00     0.033 A 
HETATM   14  C15 UNL     1       6.302   0.590   0.831  1.00  0.00     0.066 A 
HETATM   15  C16 UNL     1       4.953   0.857   0.759  1.00  0.00     0.081 A 
HETATM   16  C19 UNL     1       2.789   0.134  -0.012  1.00  0.00     0.027 A 
BRANCH  13  17
HETATM   17  N1  UNL     1       8.292  -0.746   0.406  1.00  0.00    -0.375 N 
HETATM   18  C11 UNL     1       9.077  -1.860  -0.079  1.00  0.00     0.129 C 
HETATM   19  C12 UNL     1      10.305  -1.174  -0.634  1.00  0.00     0.100 C 
HETATM   20  C13 UNL     1      10.567  -0.117   0.418  1.00  0.00     0.260 C 
HETATM   21  F1  UNL     1      11.455  -0.616   1.352  1.00  0.00    -0.204 F 
HETATM   22  F2  UNL     1      11.123   1.026  -0.130  1.00  0.00    -0.204 F 
HETATM   23  C14 UNL     1       9.218   0.157   1.056  1.00  0.00     0.202 C 
ENDBRANCH  13  17
BRANCH  15  24
HETATM   24  O2  UNL     1       4.364   1.979   1.298  1.00  0.00    -0.355 OA
HETATM   25  C17 UNL     1       5.149   2.935   1.971  1.00  0.00     0.210 C 
ENDBRANCH  15  24
ENDBRANCH   3   7
BRANCH   1  26
HETATM   26  O1  UNL     1      -1.800   2.241  -1.046  1.00  0.00    -0.353 OA
HETATM   27  C1  UNL     1      -0.945   3.366  -1.006  1.00  0.00     0.210 C 
ENDBRANCH   1  26
BRANCH   5  28
HETATM   28  O3  UNL     1      -2.553  -2.516  -0.982  1.00  0.00    -0.353 OA
HETATM   29  C22 UNL     1      -1.995  -3.812  -0.902  1.00  0.00     0.210 C 
ENDBRANCH   5  28
BRANCH   6  30
HETATM   30  O4  UNL     1      -3.577   0.062  -1.135  1.00  0.00    -0.340 OA
BRANCH  30  31
HETATM   31  C24 UNL     1      -4.522   0.214  -0.124  1.00  0.00     0.138 C 
HETATM   32  C25 UNL     1      -5.607  -0.839  -0.238  1.00  0.00     0.077 C 
HETATM   33  C26 UNL     1      -6.649  -0.648   0.863  1.00  0.00     0.064 C 
HETATM   34  N2  UNL     1      -7.140   0.671   0.945  1.00  0.00    -0.363 N 
HETATM   35  C31 UNL     1      -6.206   1.715   0.806  1.00  0.00     0.222 C 
HETATM   36  C32 UNL     1      -5.228   1.543  -0.323  1.00  0.00     0.086 C 
BRANCH  34  37
HETATM   37  C27 UNL     1      -8.455   0.932   0.527  1.00  0.00     0.086 C 
HETATM   38  C28 UNL     1      -9.598   0.293   1.227  1.00  0.00     0.025 C 
HETATM   39  C29 UNL     1     -10.309   0.238  -0.114  1.00  0.00     0.004 C 
HETATM   40  C30 UNL     1      -8.934   0.268  -0.752  1.00  0.00     0.025 C 
ENDBRANCH  34  37
BRANCH  35  41
HETATM   41  O5  UNL     1      -5.516   1.983   1.995  1.00  0.00    -0.377 OA
ATOM     42  H5  UNL     1      -4.886   2.688   1.901  1.00  0.00     0.212 HD
ENDBRANCH  35  41
ENDBRANCH  30  31
ENDBRANCH   6  30
TORSDOF 9
