REMARK  3 active torsions:
REMARK  status: ('A' for Active; 'I' for Inactive)
REMARK    1  A    between atoms: C4_6  and  N2_7 
REMARK    2  A    between atoms: C6_16  and  O2_17 
REMARK    3  A    between atoms: C7_19  and  O3_20 
ROOT
HETATM    1  C1  UNL     1      -0.001   0.807  -2.407  1.00  0.00     0.146 C 
HETATM    2  N1  UNL     1      -0.922   0.407  -1.396  1.00  0.00    -0.390 N 
ATOM      3  H1  UNL     1      -1.916   0.426  -1.622  1.00  0.00     0.159 HD
HETATM    4  C2  UNL     1      -0.585   0.028  -0.231  1.00  0.00     0.093 A 
HETATM    5  C3  UNL     1      -1.674  -0.342   0.665  1.00  0.00     0.081 A 
HETATM    6  C4  UNL     1      -2.930  -0.283   0.274  1.00  0.00     0.138 C 
HETATM    7  N4  UNL     1      -1.352  -0.773   1.981  1.00  0.00    -0.318 N 
ATOM      8  H4  UNL     1      -2.096  -1.038   2.626  1.00  0.00     0.169 HD
HETATM    9  C5  UNL     1       0.005  -0.835   2.400  1.00  0.00     0.282 A 
HETATM   10  O1  UNL     1       0.302  -1.208   3.544  1.00  0.00    -0.265 OA
HETATM   11  C6  UNL     1       1.050  -0.458   1.479  1.00  0.00     0.170 A 
HETATM   12  C7  UNL     1       0.822  -0.046   0.232  1.00  0.00     0.136 A 
ENDROOT
BRANCH   6  13
HETATM   13  N2  UNL     1      -3.368   0.127  -1.003  1.00  0.00    -0.316 N 
HETATM   14  N3  UNL     1      -3.777  -0.706  -1.858  1.00  0.00    -0.345 N 
ATOM     15  H32 UNL     1      -3.785  -1.694  -1.604  1.00  0.00     0.176 HD
ATOM     16  H31 UNL     1      -4.094  -0.410  -2.781  1.00  0.00     0.176 HD
ATOM     17  H2  UNL     1      -3.354   1.119  -1.240  1.00  0.00     0.185 HD
ENDBRANCH   6  13
BRANCH  12  18
HETATM   18  O3  UNL     1       1.832   0.304  -0.618  1.00  0.00    -0.351 OA
HETATM   19  C8  UNL     1       3.201   0.251  -0.428  1.00  0.00     0.210 C 
ENDBRANCH  12  18
BRANCH  11  20
HETATM   20  O2  UNL     1       2.381  -0.514   1.875  1.00  0.00    -0.354 OA
ATOM     21  H2  UNL     1       3.069  -0.266   1.269  1.00  0.00     0.218 HD
ENDBRANCH  11  20
TORSDOF 3
