REMARK  3 active torsions:
REMARK  status: ('A' for Active; 'I' for Inactive)
REMARK    1  A    between atoms: N1_1  and  S1_4 
REMARK    2  A    between atoms: S1_4  and  C1_7 
REMARK    3  A    between atoms: C1_7  and  C2_8 
ROOT
HETATM    1  C2  UNL     1       0.278  -0.289  -0.463  1.00  0.00     0.034 A 
HETATM    2  C3  UNL     1       1.126  -1.135   0.212  1.00  0.00     0.100 A 
HETATM    3  C4  UNL     1       2.336  -0.663   0.737  1.00  0.00     0.251 A 
HETATM    4  O3  UNL     1       3.073  -1.484   1.345  1.00  0.00    -0.268 OA
HETATM    5  N2  UNL     1       2.663   0.625   0.575  1.00  0.00    -0.275 N 
ATOM      6  H2  UNL     1       3.541   0.984   0.950  1.00  0.00     0.173 HD
HETATM    7  C5  UNL     1       1.829   1.437  -0.083  1.00  0.00     0.327 A 
HETATM    8  O4  UNL     1       2.129   2.671  -0.245  1.00  0.00    -0.247 OA
HETATM    9  N3  UNL     1       0.659   0.988  -0.592  1.00  0.00    -0.311 N 
ATOM     10  H3  UNL     1       0.051   1.640  -1.087  1.00  0.00     0.170 HD
ENDROOT
BRANCH   1  11
HETATM   11  C1  UNL     1      -0.980  -0.794  -1.003  1.00  0.00     0.220 C 
BRANCH  11  12
HETATM   12  S1  UNL     1      -2.338  -0.676   0.124  1.00  0.00     0.229 S 
HETATM   13  O1  UNL     1      -3.550  -1.234  -0.606  1.00  0.00    -0.206 OA
HETATM   14  O2  UNL     1      -2.137  -1.562   1.320  1.00  0.00    -0.206 OA
BRANCH  12  15
HETATM   15  N1  UNL     1      -2.678   0.913   0.614  1.00  0.00    -0.328 N 
ATOM     16  H12 UNL     1      -3.557   1.401   0.440  1.00  0.00     0.168 HD
ATOM     17  H11 UNL     1      -1.865   1.287   1.104  1.00  0.00     0.168 HD
ENDBRANCH  12  15
ENDBRANCH  11  12
ENDBRANCH   1  11
TORSDOF 3
