REMARK  3 active torsions:
REMARK  status: ('A' for Active; 'I' for Inactive)
REMARK    1  A    between atoms: C1_2  and  N1_3 
REMARK    2  A    between atoms: N1_3  and  S1_5 
REMARK    3  A    between atoms: S1_5  and  C2_8 
ROOT
HETATM    1  C2  UNL     1      -0.326   0.002   0.510  1.00  0.00     0.163 A 
HETATM    2  C3  UNL     1      -0.873   0.130  -0.747  1.00  0.00     0.123 A 
HETATM    3  N2  UNL     1      -2.188   0.333  -0.928  1.00  0.00    -0.317 N 
ATOM      4  H2  UNL     1      -2.581   0.426  -1.865  1.00  0.00     0.170 HD
HETATM    5  C4  UNL     1      -2.979   0.411   0.172  1.00  0.00     0.327 A 
HETATM    6  O4  UNL     1      -4.208   0.600  -0.048  1.00  0.00    -0.247 OA
HETATM    7  N3  UNL     1      -2.514   0.296   1.420  1.00  0.00    -0.274 N 
ATOM      8  H3  UNL     1      -3.141   0.360   2.222  1.00  0.00     0.173 HD
HETATM    9  C5  UNL     1      -1.198   0.094   1.588  1.00  0.00     0.274 A 
HETATM   10  O5  UNL     1      -0.760  -0.015   2.774  1.00  0.00    -0.266 OA
ENDROOT
BRANCH   1  11
HETATM   11  S1  UNL     1       1.372  -0.260   0.815  1.00  0.00     0.271 S 
HETATM   12  O2  UNL     1       1.570  -1.517   1.610  1.00  0.00    -0.200 OA
HETATM   13  O3  UNL     1       1.872   0.886   1.649  1.00  0.00    -0.200 OA
BRANCH  11  14
HETATM   14  N1  UNL     1       2.257  -0.369  -0.654  1.00  0.00    -0.257 N 
ATOM     15  H1  UNL     1       1.766  -0.450  -1.545  1.00  0.00     0.181 HD
BRANCH  14  16
HETATM   16  C1  UNL     1       3.664  -0.345  -0.619  1.00  0.00     0.363 C 
HETATM   17  O1  UNL     1       4.252  -0.242   0.480  1.00  0.00    -0.283 OA
ENDBRANCH  14  16
ENDBRANCH  11  14
ENDBRANCH   1  11
TORSDOF 3
