REMARK  3 active torsions:
REMARK  status: ('A' for Active; 'I' for Inactive)
REMARK    1  A    between atoms: N4_12  and  C4_13 
REMARK    2  A    between atoms: C4_13  and  C5_14 
REMARK    3  A    between atoms: N6_20  and  O2_21 
ROOT
HETATM    1  N1  UNL     1      -1.694   1.029   1.542  1.00  0.00    -0.234 N 
ATOM      2  H11 UNL     1      -0.861   1.616   1.507  1.00  0.00     0.174 HD
ATOM      3  H12 UNL     1      -2.310   1.034   2.355  1.00  0.00     0.174 HD
HETATM    4  C1  UNL     1      -1.843   0.314   0.489  1.00  0.00     0.683 A 
HETATM    5  N2  UNL     1      -2.966  -0.477   0.536  1.00  0.00    -0.141 N 
ATOM      6  H2  UNL     1      -3.563  -0.452   1.363  1.00  0.00     0.189 HD
HETATM    7  C2  UNL     1      -3.286  -1.270  -0.472  1.00  0.00     0.339 A 
HETATM    8  O1  UNL     1      -4.327  -1.995  -0.415  1.00  0.00    -0.246 OA
HETATM    9  N3  UNL     1      -2.480  -1.278  -1.543  1.00  0.00    -0.303 N 
ATOM     10  H3  UNL     1      -2.706  -1.881  -2.334  1.00  0.00     0.171 HD
HETATM   11  C3  UNL     1      -1.391  -0.514  -1.595  1.00  0.00     0.205 A 
HETATM   12  N4  UNL     1      -1.038   0.308  -0.573  1.00  0.00    -0.174 N 
ENDROOT
BRANCH  12  13
HETATM   13  C4  UNL     1       0.127   1.123  -0.608  1.00  0.00     0.209 C 
BRANCH  13  14
HETATM   14  C5  UNL     1       1.370   0.529  -0.098  1.00  0.00     0.073 A 
HETATM   15  C6  UNL     1       1.843  -0.638  -0.662  1.00  0.00     0.117 A 
HETATM   16  N5  UNL     1       3.007  -1.227  -0.252  1.00  0.00    -0.372 N 
HETATM   17  C7  UNL     1       3.728  -0.681   0.721  1.00  0.00     0.107 A 
ATOM     18  H5  UNL     1       3.323  -2.090  -0.695  1.00  0.00     0.164 HD
HETATM   19  C8  UNL     1       3.272   0.480   1.292  1.00  0.00     0.140 A 
HETATM   20  N6  UNL     1       2.109   1.056   0.871  1.00  0.00    -0.236 N 
BRANCH  20  21
HETATM   21  O2  UNL     1       1.736   2.230   1.467  1.00  0.00    -0.283 OA
ATOM     22  H2  UNL     1       2.265   2.607   2.160  1.00  0.00     0.245 HD
ENDBRANCH  20  21
ENDBRANCH  13  14
ENDBRANCH  12  13
TORSDOF 3
