REMARK  3 active torsions:
REMARK  status: ('A' for Active; 'I' for Inactive)
REMARK    1  A    between atoms: C2_2  and  C3_3 
REMARK    2  A    between atoms: C3_3  and  N1_4 
REMARK    3  A    between atoms: N6_18  and  O1_19 
ROOT
HETATM    1  N1  UNL     1      -1.240  -0.204  -0.145  1.00  0.00    -0.225 NA
HETATM    2  C4  UNL     1      -1.138   0.942   0.699  1.00  0.00     0.133 C 
HETATM    3  C5  UNL     1      -0.357   0.732   1.969  1.00  0.00     0.137 C 
HETATM    4  N2  UNL     1       1.025   0.443   1.798  1.00  0.00    -0.371 N 
ATOM      5  H2  UNL     1       1.570   0.609   2.644  1.00  0.00     0.161 HD
HETATM    6  C6  UNL     1       1.745   0.019   0.817  1.00  0.00     0.166 A 
HETATM    7  N3  UNL     1       3.133  -0.126   1.122  1.00  0.00    -0.172 N 
ATOM      8  H3  UNL     1       3.500   0.097   2.047  1.00  0.00     0.186 HD
HETATM    9  C7  UNL     1       3.982  -0.594   0.082  1.00  0.00     0.694 A 
HETATM   10  N4  UNL     1       5.231  -0.730   0.329  1.00  0.00    -0.233 N 
ATOM     11  H41 UNL     1       5.840  -1.066  -0.417  1.00  0.00     0.174 HD
ATOM     12  H42 UNL     1       5.662  -0.526   1.231  1.00  0.00     0.174 HD
HETATM   13  N5  UNL     1       3.379  -0.879  -1.180  1.00  0.00    -0.104 N 
ATOM     14  H5  UNL     1       3.975  -1.214  -1.937  1.00  0.00     0.208 HD
HETATM   15  N6  UNL     1       2.016  -0.722  -1.430  1.00  0.00    -0.127 N 
HETATM   16  C8  UNL     1       1.221  -0.302  -0.516  1.00  0.00     0.207 A 
HETATM   17  N7  UNL     1      -0.129  -0.215  -0.993  1.00  0.00    -0.298 N 
ATOM     18  H7  UNL     1      -0.286  -0.158  -1.999  1.00  0.00     0.182 HD
ENDROOT
BRANCH   1  19
HETATM   19  C3  UNL     1      -2.413  -0.207  -0.982  1.00  0.00     0.140 C 
BRANCH  19  20
HETATM   20  C2  UNL     1      -3.684  -0.379  -0.229  1.00  0.00    -0.021 C 
HETATM   21  C1  UNL     1      -4.576   0.604  -0.332  1.00  0.00     0.008 C 
ENDBRANCH  19  20
ENDBRANCH   1  19
BRANCH  15  22
HETATM   22  O1  UNL     1       1.478  -1.014  -2.678  1.00  0.00    -0.266 OA
ATOM     23  H1  UNL     1       0.550  -0.907  -2.848  1.00  0.00     0.247 HD
ENDBRANCH  15  22
TORSDOF 3
