REMARK  3 active torsions:
REMARK  status: ('A' for Active; 'I' for Inactive)
REMARK    1  A    between atoms: C3_3  and  C4_4 
REMARK    2  A    between atoms: C4_4  and  N1_5 
REMARK    3  A    between atoms: N1_5  and  C5_7 
ROOT
HETATM    1  C1  UNL     1       3.921   1.512   0.926  1.00  0.00     0.012 C 
HETATM    2  C2  UNL     1       3.605   0.559   0.252  1.00  0.00    -0.116 C 
HETATM    3  C3  UNL     1       3.202  -0.609  -0.554  1.00  0.00     0.113 C 
ENDROOT
BRANCH   3   4
HETATM    4  C4  UNL     1       1.785  -0.960  -0.151  1.00  0.00     0.150 C 
BRANCH   4   5
HETATM    5  N1  UNL     1       0.900   0.139  -0.401  1.00  0.00    -0.225 N 
ATOM      6  H1  UNL     1       1.302   0.980  -0.814  1.00  0.00     0.177 HD
BRANCH   5   7
HETATM    7  C5  UNL     1      -0.351   0.150  -0.149  1.00  0.00     0.685 C 
HETATM    8  N2  UNL     1      -1.002   1.285  -0.461  1.00  0.00    -0.141 N 
HETATM    9  C6  UNL     1      -2.331   1.474  -0.688  1.00  0.00     0.341 C 
ATOM     10  H2  UNL     1      -0.420   2.119  -0.538  1.00  0.00     0.189 HD
HETATM   11  O1  UNL     1      -2.631   2.495  -1.335  1.00  0.00    -0.246 OA
HETATM   12  N3  UNL     1      -3.378   0.717  -0.315  1.00  0.00    -0.270 N 
HETATM   13  C7  UNL     1      -3.329  -0.425   0.395  1.00  0.00     0.318 C 
ATOM     14  H3  UNL     1      -4.303   1.041  -0.599  1.00  0.00     0.174 HD
HETATM   15  O2  UNL     1      -4.398  -0.947   0.762  1.00  0.00    -0.262 OA
HETATM   16  C8  UNL     1      -2.205  -1.136   0.794  1.00  0.00     0.328 C 
HETATM   17  O3  UNL     1      -2.374  -2.068   1.623  1.00  0.00    -0.261 OA
HETATM   18  N4  UNL     1      -0.910  -0.957   0.401  1.00  0.00    -0.151 N 
ATOM     19  H4  UNL     1      -0.287  -1.753   0.538  1.00  0.00     0.188 HD
ENDBRANCH   5   7
ENDBRANCH   4   5
ENDBRANCH   3   4
TORSDOF 3
