REMARK  9 active torsions:
REMARK  status: ('A' for Active; 'I' for Inactive)
REMARK    1  A    between atoms: C2_2  and  C3_3 
REMARK    2  A    between atoms: C3_3  and  C4_4 
REMARK    3  A    between atoms: C4_4  and  C5_5 
REMARK    4  A    between atoms: C5_5  and  C6_6 
REMARK    5  A    between atoms: C7_10  and  C8_11 
REMARK    6  A    between atoms: C9_13  and  O1_14 
REMARK    7  A    between atoms: C10_16  and  O2_17 
REMARK    8  A    between atoms: C11_19  and  O3_20 
REMARK    9  A    between atoms: N2_29  and  C19_30 
ROOT
HETATM    1  C4  UNL     1      -0.541  -0.822  -0.678  1.00  0.00    -0.005 C 
HETATM    2  C12 UNL     1       0.275  -0.742  -2.021  1.00  0.00     0.015 C 
HETATM    3  C13 UNL     1       0.736   0.688  -2.017  1.00  0.00     0.002 C 
HETATM    4  C14 UNL     1       0.569   1.231  -0.620  1.00  0.00     0.020 C 
HETATM    5  C15 UNL     1       0.442  -0.056   0.193  1.00  0.00     0.052 C 
HETATM    6  C16 UNL     1       0.023   0.138   1.601  1.00  0.00     0.022 C 
HETATM    7  C17 UNL     1       0.755   1.381   2.112  1.00  0.00     0.022 C 
HETATM    8  C18 UNL     1       2.244   1.188   2.081  1.00  0.00     0.132 C 
HETATM    9  N2  UNL     1       2.697   0.232   1.099  1.00  0.00    -0.317 N 
HETATM   10  C27 UNL     1       1.802  -0.578   0.286  1.00  0.00     0.234 C 
HETATM   11  O4  UNL     1       2.349  -1.577  -0.192  1.00  0.00    -0.272 OA
ENDROOT
BRANCH   1  12
HETATM   12  C3  UNL     1      -0.669  -2.216  -0.263  1.00  0.00    -0.020 C 
BRANCH  12  13
HETATM   13  C2  UNL     1      -1.098  -3.308  -1.120  1.00  0.00    -0.034 C 
HETATM   14  C1  UNL     1      -2.422  -3.383  -1.769  1.00  0.00     0.036 C 
ENDBRANCH  12  13
ENDBRANCH   1  12
BRANCH   1  15
HETATM   15  C5  UNL     1      -1.713  -0.044  -1.057  1.00  0.00     0.050 C 
BRANCH  15  16
HETATM   16  C6  UNL     1      -2.842   0.366  -0.258  1.00  0.00     0.218 C 
HETATM   17  N1  UNL     1      -3.740   1.176  -1.170  1.00  0.00    -0.059 N 
HETATM   18  C7  UNL     1      -4.462   2.099  -0.369  1.00  0.00     0.245 C 
ATOM     19  H12 UNL     1      -3.228   1.628  -1.928  1.00  0.00     0.278 HD
ATOM     20  H11 UNL     1      -4.348   0.592  -1.745  1.00  0.00     0.278 HD
HETATM   21  C9  UNL     1      -5.369   1.387   0.574  1.00  0.00     0.182 C 
HETATM   22  C10 UNL     1      -4.656   0.309   1.355  1.00  0.00     0.179 C 
HETATM   23  C11 UNL     1      -3.815  -0.554   0.366  1.00  0.00     0.180 C 
BRANCH  18  24
HETATM   24  C8  UNL     1      -5.239   3.037  -1.259  1.00  0.00     0.257 C 
HETATM   25  F1  UNL     1      -5.966   3.964  -0.552  1.00  0.00    -0.253 F 
ENDBRANCH  18  24
BRANCH  21  26
HETATM   26  O1  UNL     1      -6.468   0.894  -0.116  1.00  0.00    -0.391 OA
ATOM     27  H1  UNL     1      -7.046   0.440   0.485  1.00  0.00     0.210 HD
ENDBRANCH  21  26
BRANCH  22  28
HETATM   28  O2  UNL     1      -5.615  -0.509   1.936  1.00  0.00    -0.390 OA
ATOM     29  H2  UNL     1      -5.166  -1.187   2.427  1.00  0.00     0.210 HD
ENDBRANCH  22  28
BRANCH  23  30
HETATM   30  O3  UNL     1      -4.772  -0.928  -0.606  1.00  0.00    -0.391 OA
ATOM     31  H3  UNL     1      -5.398  -1.520  -0.205  1.00  0.00     0.210 HD
ENDBRANCH  23  30
ENDBRANCH  15  16
ENDBRANCH   1  15
BRANCH   9  32
HETATM   32  C19 UNL     1       4.095   0.093   0.948  1.00  0.00     0.038 A 
HETATM   33  C20 UNL     1       4.623   0.008  -0.317  1.00  0.00     0.036 A 
HETATM   34  C21 UNL     1       5.973  -0.128  -0.557  1.00  0.00    -0.059 A 
HETATM   35  C22 UNL     1       6.530  -0.219  -1.936  1.00  0.00     0.048 C 
HETATM   36  C23 UNL     1       6.843  -0.182   0.503  1.00  0.00     0.013 A 
HETATM   37  C24 UNL     1       6.350  -0.100   1.779  1.00  0.00    -0.059 A 
HETATM   38  C25 UNL     1       7.259  -0.155   2.938  1.00  0.00     0.048 C 
HETATM   39  C26 UNL     1       4.996   0.036   2.003  1.00  0.00     0.036 A 
ENDBRANCH   9  32
TORSDOF 9
