REMARK  8 active torsions:
REMARK  status: ('A' for Active; 'I' for Inactive)
REMARK    1  A    between atoms: C2_2  and  C3_3 
REMARK    2  A    between atoms: C5_5  and  C6_6 
REMARK    3  A    between atoms: C8_10  and  C9_11 
REMARK    4  A    between atoms: C12_14  and  C13_15 
REMARK    5  A    between atoms: C13_15  and  N2_16 
REMARK    6  A    between atoms: C16_19  and  C17_20 
REMARK       I    between atoms: C17_20  and  N3_22 
REMARK    7  A    between atoms: C20_26  and  C21_27 
REMARK    8  A    between atoms: C25_37  and  N6_38 
ROOT
HETATM    1  C9  UNL     1      -1.537   1.731  -0.339  1.00  0.00     0.053 C 
HETATM    2  C10 UNL     1      -0.720   1.141   0.782  1.00  0.00     0.013 C 
HETATM    3  C11 UNL     1       0.668   0.760   0.345  1.00  0.00     0.007 C 
HETATM    4  C12 UNL     1       1.274   1.665  -0.656  1.00  0.00     0.003 C 
HETATM    5  C23 UNL     1       0.380   2.119  -1.765  1.00  0.00     0.007 C 
HETATM    6  C24 UNL     1      -0.910   1.330  -1.682  1.00  0.00     0.013 C 
ENDROOT
BRANCH   1   7
HETATM    7  C8  UNL     1      -2.969   1.436  -0.274  1.00  0.00     0.085 A 
HETATM    8  N1  UNL     1      -3.942   2.374  -0.248  1.00  0.00    -0.353 N 
HETATM    9  C7  UNL     1      -5.136   1.756  -0.183  1.00  0.00     0.121 A 
ATOM     10  H1  UNL     1      -3.796   3.383  -0.273  1.00  0.00     0.166 HD
HETATM   11  C6  UNL     1      -4.929   0.395  -0.166  1.00  0.00     0.076 A 
HETATM   12  N4  UNL     1      -3.607   0.245  -0.223  1.00  0.00    -0.343 N 
ATOM     13  H4  UNL     1      -3.133  -0.658  -0.228  1.00  0.00     0.167 HD
BRANCH  11  14
HETATM   14  C5  UNL     1      -5.999  -0.598  -0.097  1.00  0.00     0.079 A 
HETATM   15  C4  UNL     1      -7.317  -0.229  -0.046  1.00  0.00     0.058 A 
HETATM   16  C3  UNL     1      -8.365  -1.125   0.020  1.00  0.00     0.028 A 
HETATM   17  N7  UNL     1      -8.043  -2.428   0.034  1.00  0.00    -0.196 N 
HETATM   18  C25 UNL     1      -6.752  -2.832  -0.015  1.00  0.00     0.676 A 
ATOM     19  H7  UNL     1      -8.785  -3.127   0.082  1.00  0.00     0.184 HD
HETATM   20  N5  UNL     1      -5.741  -1.917  -0.080  1.00  0.00    -0.190 N 
ATOM     21  H5  UNL     1      -4.774  -2.240  -0.116  1.00  0.00     0.184 HD
BRANCH  16  22
HETATM   22  C2  UNL     1      -9.781  -0.664   0.072  1.00  0.00     0.053 C 
HETATM   23  C1  UNL     1     -10.226  -0.471   1.514  1.00  0.00     0.011 C 
ENDBRANCH  16  22
BRANCH  18  24
HETATM   24  N6  UNL     1      -6.505  -4.095   0.001  1.00  0.00    -0.234 N 
ATOM     25  H62 UNL     1      -5.532  -4.399  -0.036  1.00  0.00     0.174 HD
ATOM     26  H61 UNL     1      -7.260  -4.779   0.050  1.00  0.00     0.174 HD
ENDBRANCH  18  24
ENDBRANCH  11  14
ENDBRANCH   1   7
BRANCH   4  27
HETATM   27  C13 UNL     1       2.468   0.951  -1.314  1.00  0.00     0.127 C 
BRANCH  27  28
HETATM   28  N2  UNL     1       3.467   0.587  -0.400  1.00  0.00    -0.383 N 
HETATM   29  C14 UNL     1       4.153   1.673   0.165  1.00  0.00     0.059 C 
HETATM   30  C15 UNL     1       5.366   1.422   0.965  1.00  0.00     0.058 C 
HETATM   31  C16 UNL     1       6.036   0.180   0.432  1.00  0.00     0.085 C 
HETATM   32  C19 UNL     1       5.046  -0.939   0.691  1.00  0.00     0.045 C 
HETATM   33  C20 UNL     1       3.727  -0.710  -0.022  1.00  0.00     0.156 C 
BRANCH  31  34
HETATM   34  C17 UNL     1       7.280  -0.141   1.169  1.00  0.00     0.221 C 
HETATM   35  O1  UNL     1       7.660   0.581   2.113  1.00  0.00    -0.273 OA
HETATM   36  N3  UNL     1       8.039  -1.278   0.795  1.00  0.00    -0.365 N 
HETATM   37  C18 UNL     1       9.256  -1.600   1.508  1.00  0.00     0.149 C 
ATOM     38  H3  UNL     1       7.728  -1.869   0.024  1.00  0.00     0.161 HD
ENDBRANCH  31  34
BRANCH  33  39
HETATM   39  C21 UNL     1       3.635  -1.807  -1.055  1.00  0.00     0.260 C 
HETATM   40  C22 UNL     1       4.575  -1.605  -2.208  1.00  0.00     0.092 C 
HETATM   41  F1  UNL     1       4.079  -2.969  -0.374  1.00  0.00    -0.204 F 
HETATM   42  F2  UNL     1       2.394  -2.113  -1.490  1.00  0.00    -0.204 F 
ENDBRANCH  33  39
ENDBRANCH  27  28
ENDBRANCH   4  27
TORSDOF 8
