REMARK  7 active torsions:
REMARK  status: ('A' for Active; 'I' for Inactive)
REMARK       I    between atoms: C2_2  and  N1_4 
REMARK    1  A    between atoms: N1_4  and  C3_6 
REMARK    2  A    between atoms: C3_6  and  C4_7 
REMARK    3  A    between atoms: C4_7  and  C5_8 
REMARK    4  A    between atoms: C10_16  and  S1_17 
REMARK    5  A    between atoms: S1_17  and  C11_20 
REMARK    6  A    between atoms: C13_22  and  O4_23 
REMARK    7  A    between atoms: C14_27  and  C15_28 
ROOT
HETATM    1  C5  UNL     1       2.946   1.360   0.049  1.00  0.00    -0.029 A 
HETATM    2  C6  UNL     1       3.712   1.648   1.157  1.00  0.00     0.096 A 
HETATM    3  N2  UNL     1       2.896   1.461   2.231  1.00  0.00    -0.365 N 
ATOM      4  H2  UNL     1       3.159   1.594   3.207  1.00  0.00     0.165 HD
HETATM    5  C7  UNL     1       1.696   1.075   1.796  1.00  0.00     0.044 A 
HETATM    6  C8  UNL     1       0.499   0.800   2.470  1.00  0.00     0.051 A 
HETATM    7  C9  UNL     1      -0.656   0.467   1.796  1.00  0.00     0.035 A 
HETATM    8 BR1  UNL     1      -2.229   0.134   2.781  1.00  0.00    -0.049 Br
HETATM    9  C10 UNL     1      -0.634   0.400   0.429  1.00  0.00     0.082 A 
HETATM   10  C18 UNL     1       0.546   0.662  -0.284  1.00  0.00     0.039 A 
HETATM   11  C19 UNL     1       1.675   0.996   0.424  1.00  0.00    -0.000 A 
ENDROOT
BRANCH   9  12
HETATM   12  S1  UNL     1      -2.072   0.244  -0.530  1.00  0.00     0.210 S 
HETATM   13  O2  UNL     1      -1.502  -0.260  -1.939  1.00  0.00    -0.217 OA
HETATM   14  O3  UNL     1      -2.526   1.585  -0.866  1.00  0.00    -0.217 OA
BRANCH  12  15
HETATM   15  C11 UNL     1      -3.169  -0.992  -0.120  1.00  0.00     0.095 A 
HETATM   16  C12 UNL     1      -2.824  -2.179   0.477  1.00  0.00     0.082 A 
HETATM   17  C13 UNL     1      -3.895  -3.015   0.453  1.00  0.00     0.141 A 
HETATM   18  N3  UNL     1      -4.885  -2.342  -0.152  1.00  0.00    -0.336 N 
HETATM   19  C14 UNL     1      -4.527  -1.109  -0.527  1.00  0.00     0.058 A 
ATOM     20  H3  UNL     1      -5.815  -2.730  -0.310  1.00  0.00     0.168 HD
BRANCH  17  21
HETATM   21  O4  UNL     1      -3.983  -4.313   0.946  1.00  0.00    -0.346 OA
ATOM     22  H4  UNL     1      -4.732  -4.897   0.929  1.00  0.00     0.219 HD
ENDBRANCH  17  21
BRANCH  19  23
HETATM   23  C15 UNL     1      -5.358   0.010  -1.011  1.00  0.00    -0.059 C 
HETATM   24  C16 UNL     1      -5.673  -0.007  -2.468  1.00  0.00     0.045 C 
HETATM   25  C17 UNL     1      -5.380   1.276  -0.260  1.00  0.00     0.045 C 
ENDBRANCH  19  23
ENDBRANCH  12  15
ENDBRANCH   9  12
BRANCH   1  26
HETATM   26  C4  UNL     1       3.395   1.368  -1.395  1.00  0.00     0.060 C 
BRANCH  26  27
HETATM   27  C3  UNL     1       4.931   1.320  -1.342  1.00  0.00     0.127 C 
BRANCH  27  28
HETATM   28  N1  UNL     1       5.332   0.158  -0.584  1.00  0.00    -0.361 N 
HETATM   29  C2  UNL     1       6.691  -0.141  -0.353  1.00  0.00     0.213 C 
HETATM   30  C1  UNL     1       7.048  -1.365   0.440  1.00  0.00     0.117 C 
HETATM   31  O1  UNL     1       7.635   0.568  -0.782  1.00  0.00    -0.274 OA
ATOM     32  H1  UNL     1       4.615  -0.462  -0.206  1.00  0.00     0.162 HD
ENDBRANCH  27  28
ENDBRANCH  26  27
ENDBRANCH   1  26
TORSDOF 7
