REMARK  8 active torsions:
REMARK  status: ('A' for Active; 'I' for Inactive)
REMARK    1  A    between atoms: C2_2  and  C3_3 
REMARK    2  A    between atoms: C3_3  and  C4_4 
REMARK    3  A    between atoms: C4_4  and  O1_5 
REMARK    4  A    between atoms: O1_5  and  C5_6 
REMARK    5  A    between atoms: C10_13  and  C11_14 
REMARK    6  A    between atoms: C11_14  and  N1_15 
REMARK    7  A    between atoms: C12_16  and  O2_17 
REMARK    8  A    between atoms: C15_21  and  O3_22 
ROOT
HETATM    1  N1  UNL     1      -1.178  -0.750  -0.204  1.00  0.00    -0.303 N 
HETATM    2  C12 UNL     1      -2.240  -1.427   0.277  1.00  0.00     0.161 A 
HETATM    3  C13 UNL     1      -3.306  -0.562   0.404  1.00  0.00     0.095 A 
HETATM    4  C14 UNL     1      -2.918   0.679  -0.002  1.00  0.00     0.035 A 
HETATM    5  C15 UNL     1      -1.573   0.513  -0.378  1.00  0.00     0.154 A 
HETATM    6  C16 UNL     1      -4.023   1.670   0.110  1.00  0.00     0.119 A 
HETATM    7  C17 UNL     1      -4.423   2.198  -1.260  1.00  0.00     0.037 C 
HETATM    8  N2  UNL     1      -5.113   0.880   0.619  1.00  0.00    -0.348 N 
ATOM      9  H2  UNL     1      -6.045   1.245   0.814  1.00  0.00     0.163 HD
HETATM   10  C18 UNL     1      -4.727  -0.467   0.815  1.00  0.00     0.257 A 
HETATM   11  O4  UNL     1      -5.400  -1.433   1.245  1.00  0.00    -0.267 OA
ENDROOT
BRANCH   1  12
HETATM   12  C11 UNL     1       0.074  -1.341  -0.562  1.00  0.00     0.174 C 
BRANCH  12  13
HETATM   13  C10 UNL     1       0.980  -1.738   0.546  1.00  0.00    -0.004 A 
HETATM   14  C5  UNL     1       1.806  -0.907   1.223  1.00  0.00     0.094 A 
HETATM   15  C6  UNL     1       2.553  -1.516   2.303  1.00  0.00     0.046 A 
HETATM   16 BR1  UNL     1       3.729  -0.412   3.300  1.00  0.00    -0.048 Br
HETATM   17  C7  UNL     1       2.449  -2.826   2.628  1.00  0.00     0.041 A 
HETATM   18  C8  UNL     1       1.592  -3.632   1.900  1.00  0.00     0.013 A 
HETATM   19 BR2  UNL     1       1.410  -5.497   2.319  1.00  0.00    -0.051 Br
HETATM   20  C9  UNL     1       0.866  -3.123   0.880  1.00  0.00     0.030 A 
BRANCH  14  21
HETATM   21  O1  UNL     1       2.019   0.358   1.026  1.00  0.00    -0.349 OA
BRANCH  21  22
HETATM   22  C4  UNL     1       2.231   1.608   0.831  1.00  0.00     0.175 C 
BRANCH  22  23
HETATM   23  C3  UNL     1       3.425   1.816  -0.140  1.00  0.00     0.026 C 
BRANCH  23  24
HETATM   24  C2  UNL     1       3.156   1.184  -1.480  1.00  0.00    -0.002 C 
HETATM   25  C1  UNL     1       4.325   1.393  -2.420  1.00  0.00     0.005 C 
ENDBRANCH  23  24
ENDBRANCH  22  23
ENDBRANCH  21  22
ENDBRANCH  14  21
ENDBRANCH  12  13
ENDBRANCH   1  12
BRANCH   2  26
HETATM   26  O2  UNL     1      -2.345  -2.785   0.623  1.00  0.00    -0.345 OA
ATOM     27  H2  UNL     1      -3.093  -3.262   0.962  1.00  0.00     0.219 HD
ENDBRANCH   2  26
BRANCH   5  28
HETATM   28  O3  UNL     1      -0.880   1.631  -0.861  1.00  0.00    -0.345 OA
ATOM     29  H3  UNL     1      -1.161   2.530  -0.985  1.00  0.00     0.219 HD
ENDBRANCH   5  28
TORSDOF 8
