REMARK  9 active torsions:
REMARK  status: ('A' for Active; 'I' for Inactive)
REMARK    1  A    between atoms: N1_2  and  C3_4 
REMARK    2  A    between atoms: C3_4  and  C4_5 
REMARK    3  A    between atoms: C4_5  and  C5_6 
REMARK    4  A    between atoms: C5_6  and  N2_7 
REMARK    5  A    between atoms: N2_7  and  C6_9 
REMARK    6  A    between atoms: C9_20  and  N7_21 
REMARK    7  A    between atoms: N7_21  and  C10_22 
REMARK    8  A    between atoms: C11_23  and  C12_24 
REMARK    9  A    between atoms: C18_31  and  N8_32 
ROOT
HETATM    1  C6  UNL     1       1.500  -1.822  -0.035  1.00  0.00     0.135 A 
HETATM    2  N3  UNL     1       2.684  -2.502  -0.096  1.00  0.00    -0.283 N 
ATOM      3  H3  UNL     1       3.542  -2.174  -0.540  1.00  0.00     0.188 HD
HETATM    4  N4  UNL     1       2.523  -3.653   0.518  1.00  0.00    -0.283 N 
ATOM      5  H4  UNL     1       3.246  -4.365   0.626  1.00  0.00     0.188 HD
HETATM    6  C7  UNL     1       1.252  -3.755   0.988  1.00  0.00     0.140 A 
HETATM    7  N5  UNL     1       0.613  -4.705   1.663  1.00  0.00    -0.337 N 
ATOM      8  H5  UNL     1       1.112  -5.558   1.915  1.00  0.00     0.168 HD
HETATM    9  C8  UNL     1      -0.664  -4.570   2.019  1.00  0.00     0.184 A 
HETATM   10  N6  UNL     1      -1.288  -3.447   1.679  1.00  0.00    -0.326 N 
ATOM     11  H6  UNL     1      -2.265  -3.359   1.960  1.00  0.00     0.169 HD
HETATM   12  C9  UNL     1      -0.754  -2.413   0.999  1.00  0.00     0.198 A 
HETATM   13  C21 UNL     1       0.572  -2.580   0.642  1.00  0.00     0.113 A 
ENDROOT
BRANCH  12  14
HETATM   14  N7  UNL     1      -1.389  -1.456   0.755  1.00  0.00    -0.384 NA
BRANCH  14  15
HETATM   15  C10 UNL     1      -1.988  -0.328   0.417  1.00  0.00     0.140 A 
HETATM   16  C11 UNL     1      -2.895  -0.280  -0.635  1.00  0.00    -0.006 A 
HETATM   17  C16 UNL     1      -3.473   0.935  -0.935  1.00  0.00     0.037 A 
HETATM   18  C17 UNL     1      -3.216   2.113  -0.265  1.00  0.00     0.063 A 
HETATM   19 CL1  UNL     1      -3.980   3.608  -0.800  1.00  0.00    -0.082 Cl
HETATM   20  C18 UNL     1      -2.316   2.053   0.778  1.00  0.00     0.081 A 
HETATM   21  C20 UNL     1      -1.728   0.846   1.092  1.00  0.00     0.103 A 
HETATM   22 CL2  UNL     1      -0.594   0.860   2.446  1.00  0.00    -0.078 Cl
BRANCH  16  23
HETATM   23  C12 UNL     1      -3.261  -1.507  -1.425  1.00  0.00    -0.021 C 
HETATM   24  C13 UNL     1      -2.111  -2.151  -2.114  1.00  0.00     0.019 C 
HETATM   25  C14 UNL     1      -4.101  -2.465  -0.609  1.00  0.00     0.019 C 
HETATM   26  C15 UNL     1      -4.200  -1.031  -2.528  1.00  0.00     0.019 C 
ENDBRANCH  16  23
BRANCH  20  27
HETATM   27  N8  UNL     1      -2.045   3.211   1.531  1.00  0.00    -0.330 N 
HETATM   28  C19 UNL     1      -2.820   3.956   2.182  1.00  0.00     0.201 C 
HETATM   29  N9  UNL     1      -4.213   3.702   2.258  1.00  0.00    -0.066 NA
HETATM   30  N10 UNL     1      -2.300   5.108   2.883  1.00  0.00    -0.066 NA
ATOM     31  H8  UNL     1      -1.064   3.490   1.552  1.00  0.00     0.168 HD
ENDBRANCH  20  27
ENDBRANCH  14  15
ENDBRANCH  12  14
BRANCH   1  32
HETATM   32  N2  UNL     1       1.255  -0.667  -0.514  1.00  0.00    -0.374 N 
ATOM     33  H2  UNL     1       0.316  -0.290  -0.388  1.00  0.00     0.161 HD
BRANCH  32  34
HETATM   34  C5  UNL     1       2.220   0.149  -1.227  1.00  0.00     0.123 C 
BRANCH  34  35
HETATM   35  C4  UNL     1       3.165   0.841  -0.257  1.00  0.00     0.050 C 
BRANCH  35  36
HETATM   36  C3  UNL     1       4.138   1.666  -1.058  1.00  0.00     0.273 C 
BRANCH  36  37
HETATM   37  N1  UNL     1       5.044   2.330  -0.130  1.00  0.00     0.080 N 
HETATM   38  C1  UNL     1       5.907   1.373   0.535  1.00  0.00     0.309 C 
HETATM   39  C2  UNL     1       5.775   3.371  -0.792  1.00  0.00     0.309 C 
ENDBRANCH  36  37
ENDBRANCH  35  36
ENDBRANCH  34  35
ENDBRANCH  32  34
ENDBRANCH   1  32
TORSDOF 9
