REMARK  8 active torsions:
REMARK  status: ('A' for Active; 'I' for Inactive)
REMARK    1  A    between atoms: C3_3  and  C4_5 
REMARK    2  A    between atoms: C11_12  and  O1_13 
REMARK    3  A    between atoms: C17_20  and  O2_21 
REMARK    4  A    between atoms: C18_23  and  C19_25 
REMARK    5  A    between atoms: C19_25  and  C21_27 
REMARK    6  A    between atoms: C21_27  and  C22_29 
REMARK    7  A    between atoms: C22_29  and  C23_30 
REMARK    8  A    between atoms: C23_30  and  N1_31 
ROOT
HETATM    1  C4  UNL     1       3.760  -1.300   0.524  1.00  0.00    -0.032 C 
HETATM    2  C5  UNL     1       3.457  -2.460   1.184  1.00  0.00    -0.017 C 
HETATM    3  C6  UNL     1       1.985  -2.735   1.070  1.00  0.00     0.034 C 
HETATM    4  C7  UNL     1       1.577  -1.275   1.027  1.00  0.00     0.010 C 
HETATM    5  C8  UNL     1       2.466  -0.871  -0.081  1.00  0.00    -0.009 C 
HETATM    6  C9  UNL     1       2.386  -1.703  -1.347  1.00  0.00     0.021 C 
HETATM    7  C10 UNL     1       2.227   0.552  -0.282  1.00  0.00     0.046 C 
HETATM    8  C11 UNL     1       0.723   0.840  -0.531  1.00  0.00     0.125 C 
HETATM    9  C12 UNL     1      -0.163   0.430   0.564  1.00  0.00     0.045 C 
HETATM   10  C13 UNL     1       0.155  -0.995   1.075  1.00  0.00    -0.032 C 
HETATM   11  C14 UNL     1      -0.188  -1.061   2.566  1.00  0.00     0.016 C 
HETATM   12  C15 UNL     1      -0.710  -2.041   0.438  1.00  0.00     0.012 C 
HETATM   13  C16 UNL     1      -2.109  -1.763   0.851  1.00  0.00     0.034 C 
HETATM   14  C17 UNL     1      -2.569  -0.367   0.816  1.00  0.00     0.138 C 
HETATM   15  C18 UNL     1      -1.608   0.751   0.540  1.00  0.00     0.060 C 
HETATM   16 BR1  UNL     1      -2.020   2.084   1.970  1.00  0.00    -0.081 Br
ENDROOT
BRANCH  15  17
HETATM   17  C19 UNL     1      -2.141   1.543  -0.626  1.00  0.00     0.073 C 
HETATM   18  C20 UNL     1      -1.514   2.937  -0.761  1.00  0.00     0.020 C 
BRANCH  17  19
HETATM   19  C21 UNL     1      -3.583   1.844  -0.531  1.00  0.00     0.134 C 
HETATM   20  O3  UNL     1      -4.278   1.704   0.415  1.00  0.00    -0.297 OA
BRANCH  19  21
HETATM   21  C22 UNL     1      -4.302   2.401  -1.749  1.00  0.00     0.106 C 
BRANCH  21  22
HETATM   22  C23 UNL     1      -5.538   1.612  -2.061  1.00  0.00     0.237 C 
BRANCH  22  23
HETATM   23  N1  UNL     1      -6.532   1.560  -1.054  1.00  0.00    -0.079 N 
ATOM     24  H13 UNL     1      -6.120   1.221  -0.185  1.00  0.00     0.274 HD
ATOM     25  H12 UNL     1      -6.792   2.508  -0.781  1.00  0.00     0.274 HD
ATOM     26  H11 UNL     1      -7.373   1.023  -1.266  1.00  0.00     0.274 HD
ENDBRANCH  22  23
ENDBRANCH  21  22
ENDBRANCH  19  21
ENDBRANCH  17  19
ENDBRANCH  15  17
BRANCH  14  27
HETATM   27  O2  UNL     1      -3.284  -0.206   2.034  1.00  0.00    -0.394 OA
ATOM     28  H2  UNL     1      -3.581   0.696   2.011  1.00  0.00     0.210 HD
ENDBRANCH  14  27
BRANCH   8  29
HETATM   29  O1  UNL     1       0.489   0.454  -1.788  1.00  0.00    -0.395 OA
ATOM     30  H1  UNL     1      -0.432   0.630  -1.940  1.00  0.00     0.210 HD
ENDBRANCH   8  29
BRANCH   1  31
HETATM   31  C3  UNL     1       5.097  -0.824   0.493  1.00  0.00     0.036 C 
HETATM   32  C2  UNL     1       5.492   0.272  -0.103  1.00  0.00    -0.007 C 
HETATM   33  C1  UNL     1       6.962   0.636  -0.084  1.00  0.00     0.038 C 
HETATM   34 CL1  UNL     1       6.394  -1.762   1.268  1.00  0.00    -0.084 Cl
ENDBRANCH   1  31
TORSDOF 8
