REMARK  11 active torsions:
REMARK  status: ('A' for Active; 'I' for Inactive)
REMARK    1  A    between atoms: C4_4  and  N1_5 
REMARK    2  A    between atoms: C6_7  and  C7_8 
REMARK    3  A    between atoms: C7_8  and  N2_9 
REMARK    4  A    between atoms: C7_8  and  C12_15 
REMARK    5  A    between atoms: N2_9  and  C8_11 
REMARK       I    between atoms: C12_15  and  N3_17 
REMARK    6  A    between atoms: N3_17  and  C13_19 
REMARK    7  A    between atoms: C17_26  and  C18_27 
REMARK    8  A    between atoms: C20_32  and  N5_33 
REMARK    9  A    between atoms: N5_33  and  C21_35 
REMARK   10  A    between atoms: C21_35  and  C22_36 
REMARK   11  A    between atoms: C22_36  and  O2_38 
ROOT
HETATM    1  N1  UNL     1       0.355   1.156  -0.213  1.00  0.00    -0.317 N 
HETATM    2  C5  UNL     1      -0.708   0.466   0.280  1.00  0.00     0.111 A 
HETATM    3  C6  UNL     1      -1.770   0.566  -0.582  1.00  0.00     0.014 A 
HETATM    4  C16 UNL     1      -1.316   1.344  -1.620  1.00  0.00     0.050 A 
HETATM    5  C17 UNL     1       0.017   1.701  -1.370  1.00  0.00     0.124 A 
ENDROOT
BRANCH   3   6
HETATM    6  C7  UNL     1      -3.165  -0.013  -0.477  1.00  0.00     0.109 C 
BRANCH   6   7
HETATM    7  N2  UNL     1      -3.652  -0.534  -1.653  1.00  0.00    -0.377 N 
ATOM      8  H2  UNL     1      -4.290   0.091  -2.145  1.00  0.00     0.160 HD
BRANCH   7   9
HETATM    9  C8  UNL     1      -3.450  -1.713  -2.284  1.00  0.00     0.019 C 
HETATM   10  C9  UNL     1      -1.969  -1.885  -2.670  1.00  0.00     0.037 C 
HETATM   11  C10 UNL     1      -3.895  -3.032  -1.790  1.00  0.00     0.037 C 
HETATM   12  C11 UNL     1      -4.075  -1.582  -3.711  1.00  0.00     0.037 C 
ENDBRANCH   7   9
ENDBRANCH   6   7
BRANCH   6  13
HETATM   13  C12 UNL     1      -3.456  -0.627   0.815  1.00  0.00     0.274 C 
HETATM   14  O1  UNL     1      -4.207  -1.644   0.871  1.00  0.00    -0.266 OA
HETATM   15  N3  UNL     1      -2.998  -0.242   2.083  1.00  0.00    -0.302 N 
ATOM     16  H3  UNL     1      -2.138  -0.664   2.433  1.00  0.00     0.171 HD
BRANCH  15  17
HETATM   17  C13 UNL     1      -3.613   0.630   2.844  1.00  0.00     0.151 A 
HETATM   18  N4  UNL     1      -4.735   1.295   2.574  1.00  0.00    -0.346 N 
HETATM   19  C14 UNL     1      -5.208   2.126   3.467  1.00  0.00     0.097 A 
ATOM     20  H4  UNL     1      -5.217   1.159   1.686  1.00  0.00     0.167 HD
HETATM   21  C15 UNL     1      -4.516   2.271   4.635  1.00  0.00     0.070 A 
HETATM   22  S1  UNL     1      -3.208   1.196   4.403  1.00  0.00    -0.064 SA
ENDBRANCH  15  17
ENDBRANCH   6  13
ENDBRANCH   3   6
BRANCH   1  23
HETATM   23  C4  UNL     1       1.642   1.299   0.405  1.00  0.00     0.044 A 
HETATM   24  C3  UNL     1       2.021   2.466   1.054  1.00  0.00     0.054 A 
HETATM   25  C2  UNL     1       3.272   2.529   1.625  1.00  0.00     0.009 A 
HETATM   26  C1  UNL     1       3.726   3.759   2.322  1.00  0.00     0.068 C 
HETATM   27  N6  UNL     1       4.122   1.499   1.573  1.00  0.00    -0.346 N 
HETATM   28  C20 UNL     1       3.801   0.346   0.956  1.00  0.00     0.103 A 
ATOM     29  H6  UNL     1       5.038   1.589   2.012  1.00  0.00     0.167 HD
HETATM   30  C19 UNL     1       2.558   0.262   0.376  1.00  0.00     0.078 A 
BRANCH  28  31
HETATM   31  N5  UNL     1       4.669  -0.599   0.967  1.00  0.00    -0.374 N 
ATOM     32  H5  UNL     1       5.564  -0.424   1.424  1.00  0.00     0.161 HD
BRANCH  31  33
HETATM   33  C21 UNL     1       4.452  -1.896   0.370  1.00  0.00     0.152 C 
BRANCH  33  34
HETATM   34  C22 UNL     1       5.827  -2.514   0.143  1.00  0.00     0.132 C 
HETATM   35  C23 UNL     1       6.595  -2.466   1.423  1.00  0.00     0.041 C 
BRANCH  34  36
HETATM   36  O2  UNL     1       5.747  -3.783  -0.417  1.00  0.00    -0.394 OA
ATOM     37  H2  UNL     1       6.604  -4.168  -0.558  1.00  0.00     0.210 HD
ENDBRANCH  34  36
ENDBRANCH  33  34
ENDBRANCH  31  33
ENDBRANCH  28  31
ENDBRANCH   1  23
BRANCH   5  38
HETATM   38  C18 UNL     1       0.747   2.530  -2.350  1.00  0.00     0.433 C 
HETATM   39  F1  UNL     1      -0.164   3.480  -2.855  1.00  0.00    -0.165 F 
HETATM   40  F2  UNL     1       1.168   1.748  -3.411  1.00  0.00    -0.165 F 
HETATM   41  F3  UNL     1       1.801   3.224  -1.883  1.00  0.00    -0.165 F 
ENDBRANCH   5  38
TORSDOF 11
