REMARK  12 active torsions:
REMARK  status: ('A' for Active; 'I' for Inactive)
REMARK    1  A    between atoms: N1_2  and  C3_4 
REMARK    2  A    between atoms: C3_4  and  C4_5 
REMARK    3  A    between atoms: C4_5  and  N2_6 
REMARK    4  A    between atoms: N2_6  and  C5_8 
REMARK    5  A    between atoms: C7_12  and  N4_13 
REMARK    6  A    between atoms: N4_13  and  C8_15 
REMARK    7  A    between atoms: C8_15  and  C9_16 
REMARK    8  A    between atoms: C11_18  and  C12_19 
REMARK    9  A    between atoms: C17_24  and  C18_25 
REMARK   10  A    between atoms: C20_30  and  N5_31 
REMARK   11  A    between atoms: N5_31  and  C21_33 
REMARK   12  A    between atoms: C24_36  and  N6_37 
ROOT
HETATM    1  C5  UNL     1      -3.316  -0.993  -0.482  1.00  0.00     0.122 A 
HETATM    2  C6  UNL     1      -2.273  -1.840  -0.600  1.00  0.00     0.138 A 
HETATM    3  N3  UNL     1      -0.987  -1.377  -0.773  1.00  0.00    -0.346 N 
ATOM      4  H3  UNL     1      -0.224  -2.049  -0.857  1.00  0.00     0.167 HD
HETATM    5  C7  UNL     1      -0.715  -0.079  -0.833  1.00  0.00     0.149 A 
HETATM    6  C20 UNL     1      -1.748   0.805  -0.716  1.00  0.00     0.148 A 
HETATM    7  N7  UNL     1      -3.043   0.353  -0.542  1.00  0.00    -0.325 N 
ATOM      8  H7  UNL     1      -3.805   1.026  -0.457  1.00  0.00     0.169 HD
ENDROOT
BRANCH   5   9
HETATM    9  N4  UNL     1       0.451   0.330  -1.032  1.00  0.00    -0.348 N 
ATOM     10  H4  UNL     1       0.555   1.344  -1.058  1.00  0.00     0.167 HD
BRANCH   9  11
HETATM   11  C8  UNL     1       1.623  -0.386  -1.223  1.00  0.00     0.101 C 
BRANCH  11  12
HETATM   12  C9  UNL     1       2.631  -0.370  -0.130  1.00  0.00    -0.019 A 
HETATM   13  C10 UNL     1       3.890  -0.821  -0.474  1.00  0.00     0.020 A 
HETATM   14  C11 UNL     1       4.908  -0.838   0.458  1.00  0.00    -0.049 A 
HETATM   15  C16 UNL     1       4.629  -0.400   1.718  1.00  0.00     0.024 A 
HETATM   16  C17 UNL     1       3.372   0.065   2.119  1.00  0.00     0.049 A 
HETATM   17  C19 UNL     1       2.377   0.064   1.143  1.00  0.00     0.028 A 
BRANCH  14  18
HETATM   18  C12 UNL     1       6.270  -1.321   0.113  1.00  0.00    -0.024 C 
HETATM   19  C13 UNL     1       6.472  -1.358  -1.388  1.00  0.00     0.019 C 
HETATM   20  C14 UNL     1       6.366  -2.752   0.628  1.00  0.00     0.019 C 
HETATM   21  C15 UNL     1       7.340  -0.461   0.730  1.00  0.00     0.019 C 
ENDBRANCH  14  18
BRANCH  16  22
HETATM   22  C18 UNL     1       3.116   0.527   3.505  1.00  0.00     0.417 C 
HETATM   23  F1  UNL     1       3.907   1.588   3.817  1.00  0.00    -0.166 F 
HETATM   24  F2  UNL     1       1.773   0.745   3.672  1.00  0.00    -0.166 F 
HETATM   25  F3  UNL     1       3.460  -0.538   4.341  1.00  0.00    -0.166 F 
ENDBRANCH  16  22
ENDBRANCH  11  12
ENDBRANCH   9  11
ENDBRANCH   5   9
BRANCH   6  26
HETATM   26  N5  UNL     1      -1.690   2.081  -0.733  1.00  0.00    -0.369 N 
ATOM     27  H5  UNL     1      -2.606   2.516  -0.625  1.00  0.00     0.161 HD
BRANCH  26  28
HETATM   28  C21 UNL     1      -0.665   3.017  -0.865  1.00  0.00     0.083 C 
HETATM   29  C22 UNL     1      -1.075   4.158  -1.819  1.00  0.00     0.027 C 
HETATM   30  C23 UNL     1      -0.466   5.464  -1.319  1.00  0.00     0.035 C 
HETATM   31  C24 UNL     1      -1.141   5.933  -0.041  1.00  0.00     0.183 C 
HETATM   32  C25 UNL     1      -1.558   4.648   0.685  1.00  0.00     0.035 C 
HETATM   33  C26 UNL     1      -0.443   3.637   0.520  1.00  0.00     0.027 C 
BRANCH  31  34
HETATM   34  N6  UNL     1      -2.352   6.670  -0.322  1.00  0.00    -0.075 N 
ATOM     35  H63 UNL     1      -2.177   7.447  -0.959  1.00  0.00     0.274 HD
ATOM     36  H62 UNL     1      -2.991   6.130  -0.905  1.00  0.00     0.274 HD
ATOM     37  H61 UNL     1      -2.805   6.985   0.536  1.00  0.00     0.274 HD
ENDBRANCH  31  34
ENDBRANCH  26  28
ENDBRANCH   6  26
BRANCH   1  38
HETATM   38  N2  UNL     1      -4.634  -1.362  -0.327  1.00  0.00    -0.353 N 
ATOM     39  H2  UNL     1      -5.250  -0.552  -0.258  1.00  0.00     0.166 HD
BRANCH  38  40
HETATM   40  C4  UNL     1      -5.339  -2.561  -0.241  1.00  0.00     0.092 C 
BRANCH  40  41
HETATM   41  C3  UNL     1      -4.636  -3.838  -0.119  1.00  0.00     0.315 C 
BRANCH  41  42
HETATM   42  N1  UNL     1      -5.688  -4.890  -0.005  1.00  0.00     0.084 N 
HETATM   43  C1  UNL     1      -6.391  -4.950  -1.234  1.00  0.00     0.309 C 
HETATM   44  C2  UNL     1      -6.428  -4.662   1.177  1.00  0.00     0.309 C 
ENDBRANCH  41  42
ENDBRANCH  40  41
ENDBRANCH  38  40
ENDBRANCH   1  38
TORSDOF 12
