REMARK  8 active torsions:
REMARK  status: ('A' for Active; 'I' for Inactive)
REMARK    1  A    between atoms: N1_1  and  C1_4 
REMARK    2  A    between atoms: C3_8  and  N3_9 
REMARK       I    between atoms: N3_9  and  C4_11 
REMARK       I    between atoms: C4_11  and  N4_13 
REMARK    3  A    between atoms: N4_13  and  C5_14 
REMARK    4  A    between atoms: N4_13  and  C8_17 
REMARK    5  A    between atoms: N5_21  and  C12_22 
REMARK    6  A    between atoms: C12_22  and  C13_23 
REMARK       I    between atoms: C13_23  and  N6_25 
REMARK       I    between atoms: N6_25  and  C14_27 
REMARK    7  A    between atoms: C14_27  and  C15_29 
REMARK    8  A    between atoms: C24_38  and  C25_39 
ROOT
HETATM    1  N3  UNL     1      -4.287  -0.052  -0.601  1.00  0.00    -0.307 N 
ATOM      2  H3  UNL     1      -3.547   0.538  -0.220  1.00  0.00     0.170 HD
HETATM    3  C4  UNL     1      -3.878  -0.985  -1.573  1.00  0.00     0.327 C 
HETATM    4  O1  UNL     1      -4.782  -1.726  -2.040  1.00  0.00    -0.246 OA
HETATM    5  N4  UNL     1      -2.519  -1.114  -2.031  1.00  0.00    -0.301 N 
ENDROOT
BRANCH   5   6
HETATM    6  C5  UNL     1      -2.267  -2.128  -3.043  1.00  0.00     0.094 A 
HETATM    7  C6  UNL     1      -2.826  -3.478  -3.016  1.00  0.00     0.028 A 
HETATM    8  C7  UNL     1      -3.147  -2.454  -4.147  1.00  0.00     0.028 A 
ENDBRANCH   5   6
BRANCH   5   9
HETATM    9  C8  UNL     1      -1.427  -0.288  -1.521  1.00  0.00     0.012 C 
HETATM   10  C9  UNL     1      -1.485   1.139  -1.871  1.00  0.00     0.056 C 
HETATM   11  C10 UNL     1      -0.921   2.113  -0.917  1.00  0.00     0.025 C 
HETATM   12  C11 UNL     1      -0.758   1.646   0.507  1.00  0.00     0.118 C 
HETATM   13  N5  UNL     1      -0.308   0.307   0.583  1.00  0.00    -0.399 N 
HETATM   14  C22 UNL     1      -1.053  -0.666  -0.129  1.00  0.00     0.170 C 
BRANCH  13  15
HETATM   15  C12 UNL     1       1.113   0.108   0.477  1.00  0.00     0.220 C 
BRANCH  15  16
HETATM   16  C13 UNL     1       1.865   0.589   1.647  1.00  0.00     0.241 C 
HETATM   17  O2  UNL     1       1.255   1.090   2.612  1.00  0.00    -0.271 OA
HETATM   18  N6  UNL     1       3.266   0.489   1.680  1.00  0.00    -0.296 N 
HETATM   19  C14 UNL     1       4.089  -0.045   0.668  1.00  0.00     0.228 C 
ATOM     20  H6  UNL     1       3.733   0.837   2.518  1.00  0.00     0.171 HD
HETATM   21  O3  UNL     1       3.631  -0.524  -0.394  1.00  0.00    -0.273 OA
BRANCH  19  22
HETATM   22  C15 UNL     1       5.562  -0.061   0.825  1.00  0.00     0.078 C 
HETATM   23  C16 UNL     1       6.263  -0.652  -0.372  1.00  0.00     0.014 C 
HETATM   24  C17 UNL     1       7.481   0.162  -0.765  1.00  0.00     0.001 C 
HETATM   25  C18 UNL     1       8.391   0.446   0.391  1.00  0.00     0.000 C 
HETATM   26  C19 UNL     1       8.392  -0.662   1.403  1.00  0.00     0.000 C 
HETATM   27  C20 UNL     1       7.376  -0.329   2.491  1.00  0.00     0.001 C 
HETATM   28  C21 UNL     1       6.015  -0.829   2.051  1.00  0.00     0.014 C 
ENDBRANCH  19  22
ENDBRANCH  15  16
ENDBRANCH  13  15
ENDBRANCH   5   9
BRANCH   1  29
HETATM   29  C3  UNL     1      -5.575   0.180  -0.081  1.00  0.00     0.052 A 
HETATM   30  C2  UNL     1      -6.739  -0.215  -0.682  1.00  0.00     0.119 A 
HETATM   31  N2  UNL     1      -7.958   0.026  -0.106  1.00  0.00    -0.350 N 
HETATM   32  C1  UNL     1      -8.066   0.658   1.069  1.00  0.00     0.114 A 
ATOM     33  H2  UNL     1      -8.804  -0.284  -0.584  1.00  0.00     0.166 HD
HETATM   34  C24 UNL     1      -6.939   1.087   1.735  1.00  0.00     0.093 A 
HETATM   35  C23 UNL     1      -5.729   0.841   1.151  1.00  0.00     0.051 A 
BRANCH  32  36
HETATM   36  N1  UNL     1      -9.214   0.894   1.632  1.00  0.00    -0.385 N 
ATOM     37  H12 UNL     1     -10.048   0.576   1.139  1.00  0.00     0.157 HD
ATOM     38  H11 UNL     1      -9.296   1.376   2.527  1.00  0.00     0.157 HD
ENDBRANCH  32  36
BRANCH  34  39
HETATM   39  C25 UNL     1      -7.046   1.803   3.055  1.00  0.00     0.421 C 
HETATM   40  F1  UNL     1      -7.671   0.983   3.962  1.00  0.00    -0.166 F 
HETATM   41  F2  UNL     1      -7.741   2.982   2.946  1.00  0.00    -0.166 F 
HETATM   42  F3  UNL     1      -5.768   2.039   3.551  1.00  0.00    -0.166 F 
ENDBRANCH  34  39
ENDBRANCH   1  29
TORSDOF 8
