REMARK  9 active torsions:
REMARK  status: ('A' for Active; 'I' for Inactive)
REMARK    1  A    between atoms: C2_2  and  C3_3 
REMARK    2  A    between atoms: C5_5  and  N1_6 
REMARK    3  A    between atoms: N1_6  and  C6_7 
REMARK    4  A    between atoms: C6_7  and  C7_11 
REMARK    5  A    between atoms: C9_14  and  O2_15 
REMARK    6  A    between atoms: C10_17  and  C11_18 
REMARK    7  A    between atoms: C15_24  and  N3_25 
REMARK       I    between atoms: N3_25  and  C16_27 
REMARK    8  A    between atoms: C16_27  and  C17_29 
REMARK    9  A    between atoms: C17_29  and  N4_30 
ROOT
HETATM    1  C7  UNL     1       2.368  -3.585  -1.830  1.00  0.00     0.146 A 
HETATM    2  O1  UNL     1       2.582  -4.733  -2.487  1.00  0.00    -0.314 OA
HETATM    3  C8  UNL     1       1.759  -5.658  -2.072  1.00  0.00     0.180 A 
HETATM    4  C9  UNL     1       0.954  -5.113  -1.092  1.00  0.00     0.102 A 
HETATM    5  C10 UNL     1       1.365  -3.779  -0.955  1.00  0.00     0.054 A 
ENDROOT
BRANCH   1   6
HETATM    6  C6  UNL     1       3.179  -2.388  -2.125  1.00  0.00     0.208 C 
HETATM    7  N2  UNL     1       4.115  -2.526  -3.075  1.00  0.00    -0.372 N 
ATOM      8  H22 UNL     1       4.676  -1.699  -3.279  1.00  0.00     0.158 HD
ATOM      9  H21 UNL     1       4.207  -3.434  -3.531  1.00  0.00     0.158 HD
BRANCH   6  10
HETATM   10  N1  UNL     1       3.061  -1.223  -1.540  1.00  0.00    -0.384 NA
BRANCH  10  11
HETATM   11  C5  UNL     1       2.943  -0.168  -1.022  1.00  0.00     0.127 A 
HETATM   12  C4  UNL     1       3.690   0.152   0.131  1.00  0.00     0.070 A 
HETATM   13  C3  UNL     1       3.558   1.373   0.748  1.00  0.00     0.013 A 
HETATM   14  N7  UNL     1       2.713   2.291   0.262  1.00  0.00    -0.344 N 
HETATM   15  C24 UNL     1       1.966   2.044  -0.846  1.00  0.00     0.135 A 
ATOM     16  H7  UNL     1       2.628   3.192   0.732  1.00  0.00     0.167 HD
HETATM   17  C22 UNL     1       2.091   0.823  -1.470  1.00  0.00     0.067 A 
HETATM   18  N6  UNL     1       1.060   2.756  -1.542  1.00  0.00    -0.285 N 
HETATM   19  C23 UNL     1       1.229   0.828  -2.563  1.00  0.00     0.126 A 
HETATM   20  N5  UNL     1       0.614   2.033  -2.573  1.00  0.00    -0.309 N 
ATOM     21  H5  UNL     1      -0.078   2.340  -3.257  1.00  0.00     0.186 HD
ATOM     22  H6  UNL     1       0.759   3.704  -1.316  1.00  0.00     0.188 HD
BRANCH  13  23
HETATM   23  C2  UNL     1       4.367   1.686   1.960  1.00  0.00     0.052 C 
HETATM   24  C1  UNL     1       5.678   2.342   1.564  1.00  0.00     0.011 C 
ENDBRANCH  13  23
ENDBRANCH  10  11
ENDBRANCH   6  10
ENDBRANCH   1   6
BRANCH   5  25
HETATM   25  C11 UNL     1       0.772  -2.845  -0.023  1.00  0.00     0.062 A 
HETATM   26  C12 UNL     1       1.293  -2.754   1.273  1.00  0.00     0.169 A 
HETATM   27  F1  UNL     1       2.365  -3.533   1.581  1.00  0.00    -0.202 F 
HETATM   28  C13 UNL     1       0.716  -1.897   2.175  1.00  0.00     0.158 A 
HETATM   29  F2  UNL     1       1.252  -1.838   3.425  1.00  0.00    -0.203 F 
HETATM   30  C14 UNL     1      -0.383  -1.120   1.808  1.00  0.00     0.078 A 
HETATM   31  C15 UNL     1      -0.932  -1.173   0.549  1.00  0.00     0.077 A 
HETATM   32  C21 UNL     1      -0.306  -2.060  -0.328  1.00  0.00     0.157 A 
HETATM   33  F3  UNL     1      -0.791  -2.170  -1.593  1.00  0.00    -0.203 F 
BRANCH  31  34
HETATM   34  N3  UNL     1      -2.027  -0.409   0.100  1.00  0.00    -0.323 N 
HETATM   35  C16 UNL     1      -2.850   0.447   0.810  1.00  0.00     0.248 C 
HETATM   36  O3  UNL     1      -2.719   0.659   2.024  1.00  0.00    -0.271 OA
ATOM     37  H3  UNL     1      -2.245  -0.500  -0.892  1.00  0.00     0.169 HD
BRANCH  35  38
HETATM   38  C17 UNL     1      -3.947   1.157   0.111  1.00  0.00     0.338 C 
BRANCH  38  39
HETATM   39  N4  UNL     1      -4.757   2.005   0.903  1.00  0.00    -0.070 N 
HETATM   40  C18 UNL     1      -4.029   2.839   1.823  1.00  0.00     0.272 C 
HETATM   41  C19 UNL     1      -5.797   1.310   1.649  1.00  0.00     0.272 C 
HETATM   42  C20 UNL     1      -5.512   2.853  -0.051  1.00  0.00     0.272 C 
ENDBRANCH  38  39
ENDBRANCH  35  38
ENDBRANCH  31  34
ENDBRANCH   5  25
BRANCH   4  43
HETATM   43  O2  UNL     1      -0.059  -5.662  -0.348  1.00  0.00    -0.358 OA
ATOM     44  H2  UNL     1      -0.613  -5.287   0.326  1.00  0.00     0.217 HD
ENDBRANCH   4  43
TORSDOF 9
