REMARK  9 active torsions:
REMARK  status: ('A' for Active; 'I' for Inactive)
REMARK    1  A    between atoms: N1_2  and  C3_4 
REMARK    2  A    between atoms: C4_5  and  C5_6 
REMARK    3  A    between atoms: C5_6  and  C6_7 
REMARK    4  A    between atoms: C6_7  and  C7_8 
REMARK    5  A    between atoms: C9_12  and  O3_13 
REMARK    6  A    between atoms: C10_15  and  C11_16 
REMARK    7  A    between atoms: C11_16  and  O4_17 
REMARK    8  A    between atoms: C11_16  and  C12_19 
REMARK    9  A    between atoms: C17_26  and  O5_27 
ROOT
HETATM    1  C3  UNL     1      -1.432  -0.463  -1.042  1.00  0.00     0.075 A 
HETATM    2  C4  UNL     1      -1.791   0.564  -0.168  1.00  0.00    -0.025 A 
HETATM    3  C8  UNL     1      -0.764   1.366   0.259  1.00  0.00     0.046 A 
HETATM    4  C9  UNL     1       0.551   1.244  -0.094  1.00  0.00     0.078 A 
HETATM    5  C10 UNL     1       0.875   0.203  -0.972  1.00  0.00     0.049 A 
HETATM    6  C18 UNL     1      -0.118  -0.627  -1.428  1.00  0.00     0.155 A 
HETATM    7  F1  UNL     1       0.190  -1.630  -2.278  1.00  0.00    -0.203 F 
ENDROOT
BRANCH   5   8
HETATM    8  C11 UNL     1       2.298   0.071  -1.384  1.00  0.00     0.193 C 
BRANCH   8   9
HETATM    9  O4  UNL     1       2.709   1.207  -2.075  1.00  0.00    -0.386 OA
ATOM     10  H4  UNL     1       3.618   1.123  -2.338  1.00  0.00     0.210 HD
ENDBRANCH   8   9
BRANCH   8  11
HETATM   11  C12 UNL     1       3.190  -0.244  -0.256  1.00  0.00     0.011 A 
HETATM   12  C13 UNL     1       2.882  -1.264   0.599  1.00  0.00     0.032 A 
HETATM   13  C14 UNL     1       3.680  -1.587   1.668  1.00  0.00     0.013 A 
HETATM   14 BR1  UNL     1       3.245  -3.018   2.878  1.00  0.00    -0.051 Br
HETATM   15  C15 UNL     1       4.847  -0.881   1.925  1.00  0.00     0.041 A 
HETATM   16  C16 UNL     1       5.170   0.153   1.068  1.00  0.00     0.046 A 
HETATM   17 BR2  UNL     1       6.773   1.163   1.382  1.00  0.00    -0.048 Br
HETATM   18  C17 UNL     1       4.361   0.478  -0.013  1.00  0.00     0.092 A 
BRANCH  18  19
HETATM   19  O5  UNL     1       4.659   1.507  -0.890  1.00  0.00    -0.359 OA
ATOM     20  H5  UNL     1       5.455   1.998  -0.725  1.00  0.00     0.217 HD
ENDBRANCH  18  19
ENDBRANCH   8  11
ENDBRANCH   5   8
BRANCH   4  21
HETATM   21  O3  UNL     1       1.550   2.092   0.375  1.00  0.00    -0.360 OA
ATOM     22  H3  UNL     1       2.464   2.007   0.130  1.00  0.00     0.217 HD
ENDBRANCH   4  21
BRANCH   1  23
HETATM   23  N1  UNL     1      -2.417  -1.341  -1.561  1.00  0.00    -0.387 N 
HETATM   24  C1  UNL     1      -3.064  -0.992  -2.801  1.00  0.00     0.149 C 
HETATM   25  C2  UNL     1      -2.764  -2.551  -0.871  1.00  0.00     0.149 C 
ENDBRANCH   1  23
BRANCH   2  26
HETATM   26  C5  UNL     1      -3.205   0.702   0.199  1.00  0.00     0.051 C 
BRANCH  26  27
HETATM   27  C6  UNL     1      -3.488   1.517   1.413  1.00  0.00     0.118 C 
BRANCH  27  28
HETATM   28  C7  UNL     1      -2.839   0.890   2.593  1.00  0.00     0.172 C 
HETATM   29  O1  UNL     1      -2.217  -0.164   2.474  1.00  0.00    -0.648 OA
HETATM   30  O2  UNL     1      -2.944   1.514   3.841  1.00  0.00    -0.648 OA
ENDBRANCH  27  28
ENDBRANCH  26  27
ENDBRANCH   2  26
TORSDOF 9
