REMARK  9 active torsions:
REMARK  status: ('A' for Active; 'I' for Inactive)
REMARK    1  A    between atoms: N1_1  and  C1_4 
REMARK    2  A    between atoms: C2_7  and  N3_8 
REMARK    3  A    between atoms: N3_8  and  C3_10 
REMARK    4  A    between atoms: C6_13  and  O1_14 
REMARK    5  A    between atoms: O1_14  and  C7_15 
REMARK    6  A    between atoms: C15_25  and  N5_26 
REMARK    7  A    between atoms: N5_26  and  C16_28 
REMARK    8  A    between atoms: C19_31  and  O2_32 
REMARK    9  A    between atoms: O2_32  and  C20_33 
ROOT
HETATM    1  C1  UNL     1       1.442  -3.676  -0.267  1.00  0.00     0.705 A 
HETATM    2  N2  UNL     1       0.126  -3.814  -0.042  1.00  0.00    -0.021 N 
ATOM      3  H2  UNL     1      -0.279  -4.739   0.102  1.00  0.00     0.203 HD
HETATM    4  C2  UNL     1      -0.657  -2.710  -0.009  1.00  0.00     0.711 A 
HETATM    5  N4  UNL     1      -0.100  -1.501  -0.200  1.00  0.00    -0.021 N 
ATOM      6  H4  UNL     1      -0.699  -0.676  -0.172  1.00  0.00     0.203 HD
HETATM    7  C15 UNL     1       1.228  -1.335  -0.429  1.00  0.00     0.711 A 
HETATM    8  N6  UNL     1       1.974  -2.457  -0.455  1.00  0.00    -0.021 N 
ATOM      9  H6  UNL     1       2.977  -2.378  -0.623  1.00  0.00     0.203 HD
ENDROOT
BRANCH   4  10
HETATM   10  N3  UNL     1      -1.913  -2.873   0.208  1.00  0.00    -0.191 N 
ATOM     11  H3  UNL     1      -2.294  -3.809   0.348  1.00  0.00     0.184 HD
BRANCH  10  12
HETATM   12  C3  UNL     1      -2.757  -1.748   0.250  1.00  0.00     0.049 A 
HETATM   13  C4  UNL     1      -2.821  -1.006   1.402  1.00  0.00     0.033 A 
HETATM   14  C5  UNL     1      -3.644   0.094   1.446  1.00  0.00     0.039 A 
HETATM   15  C6  UNL     1      -4.388   0.432   0.341  1.00  0.00     0.076 A 
HETATM   16  C13 UNL     1      -4.335  -0.300  -0.817  1.00  0.00     0.039 A 
HETATM   17  C14 UNL     1      -3.519  -1.398  -0.873  1.00  0.00     0.033 A 
BRANCH  15  18
HETATM   18  O1  UNL     1      -5.222   1.538   0.373  1.00  0.00    -0.311 OA
BRANCH  18  19
HETATM   19  C7  UNL     1      -6.537   1.513   0.763  1.00  0.00     0.076 A 
HETATM   20  C8  UNL     1      -7.245   2.695   0.740  1.00  0.00     0.037 A 
HETATM   21  C9  UNL     1      -8.568   2.736   1.119  1.00  0.00     0.003 A 
HETATM   22  C10 UNL     1      -9.224   1.604   1.533  1.00  0.00     0.000 A 
HETATM   23  C11 UNL     1      -8.543   0.412   1.566  1.00  0.00     0.003 A 
HETATM   24  C12 UNL     1      -7.211   0.388   1.181  1.00  0.00     0.037 A 
ENDBRANCH  18  19
ENDBRANCH  15  18
ENDBRANCH  10  12
ENDBRANCH   4  10
BRANCH   1  25
HETATM   25  N1  UNL     1       2.181  -4.718  -0.298  1.00  0.00    -0.234 N 
ATOM     26  H12 UNL     1       1.777  -5.644  -0.155  1.00  0.00     0.174 HD
ATOM     27  H11 UNL     1       3.181  -4.613  -0.469  1.00  0.00     0.174 HD
ENDBRANCH   1  25
BRANCH   7  28
HETATM   28  N5  UNL     1       1.680  -0.144  -0.601  1.00  0.00    -0.191 N 
ATOM     29  H5  UNL     1       1.040   0.650  -0.564  1.00  0.00     0.184 HD
BRANCH  28  30
HETATM   30  C16 UNL     1       3.066   0.077  -0.843  1.00  0.00     0.052 A 
HETATM   31  C17 UNL     1       3.557   0.390  -2.093  1.00  0.00     0.033 A 
HETATM   32  C18 UNL     1       4.906   0.596  -2.274  1.00  0.00     0.043 A 
HETATM   33  C19 UNL     1       5.837   0.503  -1.238  1.00  0.00     0.115 A 
HETATM   34  C24 UNL     1       5.340   0.192  -0.002  1.00  0.00     0.152 A 
HETATM   35  F1  UNL     1       6.153   0.072   1.077  1.00  0.00    -0.203 F 
HETATM   36  C25 UNL     1       3.978  -0.015   0.179  1.00  0.00     0.075 A 
BRANCH  33  37
HETATM   37  O2  UNL     1       7.183   0.716  -1.462  1.00  0.00    -0.300 OA
BRANCH  37  38
HETATM   38  C20 UNL     1       7.871   1.740  -0.808  1.00  0.00     0.117 A 
HETATM   39  C21 UNL     1       7.958   3.062  -1.156  1.00  0.00     0.045 A 
HETATM   40  C22 UNL     1       8.680   3.865  -0.372  1.00  0.00     0.010 A 
HETATM   41  C23 UNL     1       9.282   3.306   0.725  1.00  0.00     0.052 A 
HETATM   42  S1  UNL     1       8.810   1.669   0.615  1.00  0.00    -0.077 SA
ENDBRANCH  37  38
ENDBRANCH  33  37
ENDBRANCH  28  30
ENDBRANCH   7  28
TORSDOF 9
