REMARK  7 active torsions:
REMARK  status: ('A' for Active; 'I' for Inactive)
REMARK    1  A    between atoms: C2_2  and  C3_3 
REMARK    2  A    between atoms: C3_3  and  C4_4 
REMARK    3  A    between atoms: C6_6  and  C7_7 
REMARK    4  A    between atoms: C10_12  and  C11_13 
REMARK    5  A    between atoms: C13_15  and  N2_16 
REMARK    6  A    between atoms: N2_16  and  C14_18 
REMARK    7  A    between atoms: C15_19  and  O1_20 
ROOT
HETATM    1  C11 UNL     1      -1.579  -1.631  -1.531  1.00  0.00     0.004 A 
HETATM    2  C12 UNL     1      -2.827  -1.300  -1.065  1.00  0.00     0.062 A 
HETATM    3  C13 UNL     1      -3.954  -2.043  -1.331  1.00  0.00     0.106 A 
HETATM    4  N5  UNL     1      -3.768  -3.153  -2.101  1.00  0.00    -0.351 N 
ATOM      5  H5  UNL     1      -4.572  -3.738  -2.327  1.00  0.00     0.166 HD
HETATM    6  C20 UNL     1      -2.560  -3.499  -2.571  1.00  0.00     0.114 A 
HETATM    7  C21 UNL     1      -1.427  -2.757  -2.306  1.00  0.00     0.060 A 
HETATM    8 CL1  UNL     1       0.158  -3.190  -2.906  1.00  0.00    -0.082 Cl
ENDROOT
BRANCH   1   9
HETATM    9  C10 UNL     1      -0.378  -0.796  -1.201  1.00  0.00     0.011 A 
HETATM   10  C9  UNL     1       0.602  -1.165  -0.333  1.00  0.00     0.062 A 
HETATM   11  N1  UNL     1       0.885  -2.236   0.474  1.00  0.00    -0.363 N 
HETATM   12  C23 UNL     1       1.622  -0.291  -0.145  1.00  0.00     0.046 A 
HETATM   13  C8  UNL     1       2.058  -2.008   1.136  1.00  0.00     0.103 A 
ATOM     14  H1  UNL     1       0.309  -3.073   0.566  1.00  0.00     0.165 HD
HETATM   15  C7  UNL     1       2.559  -0.786   0.773  1.00  0.00     0.027 A 
HETATM   16  S1  UNL     1       1.221   1.012  -1.157  1.00  0.00    -0.098 SA
HETATM   17  C22 UNL     1      -0.243   0.425  -1.806  1.00  0.00     0.065 A 
BRANCH  15  18
HETATM   18  C6  UNL     1       3.762  -0.084   1.191  1.00  0.00     0.065 A 
HETATM   19  C5  UNL     1       4.138   1.180   0.719  1.00  0.00     0.058 A 
HETATM   20  C4  UNL     1       5.320   1.560   1.322  1.00  0.00     0.028 A 
HETATM   21  N7  UNL     1       5.641   0.538   2.139  1.00  0.00    -0.303 N 
HETATM   22  N6  UNL     1       4.718  -0.422   2.053  1.00  0.00    -0.296 N 
ATOM     23  H7  UNL     1       6.468   0.503   2.735  1.00  0.00     0.186 HD
HETATM   24  C24 UNL     1       4.772  -1.672   2.809  1.00  0.00     0.178 C 
BRANCH  20  25
HETATM   25  C3  UNL     1       6.074   2.831   1.107  1.00  0.00     0.058 C 
BRANCH  25  26
HETATM   26  C2  UNL     1       7.086   2.667  -0.009  1.00  0.00     0.002 C 
HETATM   27  C1  UNL     1       7.797   4.013  -0.136  1.00  0.00     0.005 C 
ENDBRANCH  25  26
ENDBRANCH  20  25
ENDBRANCH  15  18
ENDBRANCH   1   9
BRANCH   3  28
HETATM   28  N2  UNL     1      -5.140  -1.771  -0.907  1.00  0.00    -0.337 N 
ATOM     29  H2  UNL     1      -5.896  -2.401  -1.173  1.00  0.00     0.167 HD
BRANCH  28  30
HETATM   30  C14 UNL     1      -5.465  -0.654  -0.095  1.00  0.00     0.111 A 
HETATM   31  C15 UNL     1      -6.136   0.413  -0.728  1.00  0.00     0.100 A 
HETATM   32  C17 UNL     1      -6.459   1.518   0.081  1.00  0.00     0.056 A 
HETATM   33  C18 UNL     1      -6.123   1.516   1.399  1.00  0.00     0.092 A 
HETATM   34  N3  UNL     1      -5.486   0.488   1.974  1.00  0.00    -0.351 N 
HETATM   35  C19 UNL     1      -5.165  -0.581   1.229  1.00  0.00     0.128 A 
ATOM     36  H3  UNL     1      -5.248   0.517   2.965  1.00  0.00     0.166 HD
HETATM   37  N4  UNL     1      -4.545  -1.591   1.823  1.00  0.00    -0.384 N 
ATOM     38  H42 UNL     1      -4.301  -2.404   1.257  1.00  0.00     0.157 HD
ATOM     39  H41 UNL     1      -4.320  -1.536   2.816  1.00  0.00     0.157 HD
BRANCH  31  40
HETATM   40  O1  UNL     1      -6.453   0.415  -1.972  1.00  0.00    -0.353 OA
HETATM   41  C16 UNL     1      -6.881   0.681  -3.146  1.00  0.00     0.210 C 
ENDBRANCH  31  40
ENDBRANCH  28  30
ENDBRANCH   3  28
TORSDOF 7
