REMARK  12 active torsions:
REMARK  status: ('A' for Active; 'I' for Inactive)
REMARK    1  A    between atoms: N1_2  and  C2_5 
REMARK    2  A    between atoms: C2_5  and  C3_6 
REMARK    3  A    between atoms: N3_9  and  C4_10 
REMARK    4  A    between atoms: C8_16  and  C9_17 
REMARK    5  A    between atoms: C10_18  and  C11_19 
REMARK    6  A    between atoms: C11_19  and  O1_20 
REMARK    7  A    between atoms: C11_19  and  N5_22 
REMARK    8  A    between atoms: N5_22  and  C12_24 
REMARK    9  A    between atoms: C12_24  and  C13_25 
REMARK   10  A    between atoms: C17_29  and  C18_30 
REMARK   11  A    between atoms: C22_34  and  O2_35 
REMARK   12  A    between atoms: C23_37  and  C24_38 
ROOT
HETATM    1  C9  UNL     1       0.137  -0.866   0.043  1.00  0.00     0.018 A 
HETATM    2  C10 UNL     1       1.312  -0.682  -0.651  1.00  0.00     0.028 A 
HETATM    3  C16 UNL     1       2.099  -1.824  -0.903  1.00  0.00     0.027 A 
HETATM    4  C17 UNL     1       1.748  -3.069  -0.493  1.00  0.00    -0.016 A 
HETATM    5  C22 UNL     1       0.576  -3.205   0.196  1.00  0.00     0.080 A 
HETATM    6  C23 UNL     1      -0.274  -2.114   0.492  1.00  0.00    -0.003 A 
ENDROOT
BRANCH   1   7
HETATM    7  C8  UNL     1      -0.706   0.311   0.202  1.00  0.00     0.087 A 
HETATM    8  C3  UNL     1      -1.459   0.827  -0.858  1.00  0.00     0.082 A 
HETATM    9  N2  UNL     1      -2.088   1.905  -0.365  1.00  0.00    -0.284 N 
HETATM   10  N3  UNL     1      -1.779   2.083   0.902  1.00  0.00    -0.225 N 
ATOM     11  H2  UNL     1      -2.718   2.504  -0.898  1.00  0.00     0.188 HD
HETATM   12  N4  UNL     1      -0.949   1.123   1.232  1.00  0.00    -0.281 N 
ATOM     13  H4  UNL     1      -0.540   1.011   2.160  1.00  0.00     0.189 HD
BRANCH   8  14
HETATM   14  C2  UNL     1      -1.606   0.356  -2.257  1.00  0.00     0.292 C 
BRANCH  14  15
HETATM   15  N1  UNL     1      -2.528   1.245  -2.986  1.00  0.00    -0.074 N 
HETATM   16  C1  UNL     1      -2.643   0.757  -4.348  1.00  0.00     0.267 C 
ATOM     17  H12 UNL     1      -2.248   2.225  -2.941  1.00  0.00     0.277 HD
ATOM     18  H11 UNL     1      -3.432   1.339  -2.524  1.00  0.00     0.277 HD
ENDBRANCH  14  15
ENDBRANCH   8  14
BRANCH  10  19
HETATM   19  C4  UNL     1      -2.336   3.177   1.692  1.00  0.00     0.060 C 
HETATM   20  C5  UNL     1      -3.680   2.726   2.267  1.00  0.00     0.041 C 
HETATM   21  C6  UNL     1      -1.468   3.564   2.857  1.00  0.00     0.041 C 
HETATM   22  C7  UNL     1      -2.614   4.390   0.860  1.00  0.00     0.041 C 
ENDBRANCH  10  19
ENDBRANCH   1   7
BRANCH   2  23
HETATM   23  C11 UNL     1       1.897   0.542  -1.102  1.00  0.00     0.147 C 
BRANCH  23  24
HETATM   24  O1  UNL     1       2.501   0.497  -2.260  1.00  0.00    -0.346 OA
ATOM     25  H1  UNL     1       2.890   1.310  -2.560  1.00  0.00     0.219 HD
ENDBRANCH  23  24
BRANCH  23  26
HETATM   26  N5  UNL     1       1.944   1.802  -0.499  1.00  0.00    -0.370 N 
ATOM     27  H5  UNL     1       1.513   1.947   0.414  1.00  0.00     0.161 HD
BRANCH  26  28
HETATM   28  C12 UNL     1       2.620   2.926  -1.187  1.00  0.00     0.125 C 
BRANCH  28  29
HETATM   29  C13 UNL     1       2.586   4.181  -0.366  1.00  0.00    -0.005 C 
HETATM   30  C14 UNL     1       3.290   3.979   0.974  1.00  0.00     0.011 C 
HETATM   31  C15 UNL     1       1.152   4.586  -0.094  1.00  0.00     0.011 C 
ENDBRANCH  28  29
ENDBRANCH  26  28
ENDBRANCH  23  26
ENDBRANCH   2  23
BRANCH   6  32
HETATM   32  C24 UNL     1      -1.463  -2.311   1.284  1.00  0.00    -0.021 C 
HETATM   33  C25 UNL     1      -2.775  -1.843   0.655  1.00  0.00     0.019 C 
HETATM   34  C26 UNL     1      -1.284  -1.676   2.666  1.00  0.00     0.019 C 
HETATM   35  C27 UNL     1      -1.782  -3.776   1.627  1.00  0.00     0.019 C 
ENDBRANCH   6  32
BRANCH   5  36
HETATM   36  O2  UNL     1       0.188  -4.429   0.624  1.00  0.00    -0.359 OA
ATOM     37  H2  UNL     1      -0.627  -4.524   1.103  1.00  0.00     0.217 HD
ENDBRANCH   5  36
BRANCH   4  38
HETATM   38  C18 UNL     1       2.626  -4.210  -0.787  1.00  0.00    -0.021 C 
HETATM   39  C19 UNL     1       3.845  -3.681  -1.571  1.00  0.00     0.019 C 
HETATM   40  C20 UNL     1       3.137  -4.772   0.537  1.00  0.00     0.019 C 
HETATM   41  C21 UNL     1       2.024  -5.273  -1.651  1.00  0.00     0.019 C 
ENDBRANCH   4  38
TORSDOF 12
