REMARK  9 active torsions:
REMARK  status: ('A' for Active; 'I' for Inactive)
REMARK    1  A    between atoms: C2_2  and  C3_3 
REMARK    2  A    between atoms: C3_3  and  C4_4 
REMARK    3  A    between atoms: C4_4  and  C5_5 
REMARK    4  A    between atoms: C5_5  and  C6_6 
REMARK       I    between atoms: C6_6  and  N1_8 
REMARK    5  A    between atoms: N1_8  and  N2_10 
REMARK    6  A    between atoms: C7_11  and  O2_12 
REMARK    7  A    between atoms: C9_17  and  S1_18 
REMARK    8  A    between atoms: S1_18  and  C10_19 
REMARK    9  A    between atoms: C21_33  and  O3_34 
ROOT
HETATM    1  N2  UNL     1      -0.757  -0.556   0.817  1.00  0.00    -0.206 N 
HETATM    2  C7  UNL     1       0.167  -0.877   1.776  1.00  0.00     0.192 A 
HETATM    3  C8  UNL     1       1.386  -0.329   1.436  1.00  0.00     0.103 A 
HETATM    4  N3  UNL     1       2.596  -0.346   2.024  1.00  0.00    -0.346 N 
ATOM      5  H3  UNL     1       2.715  -0.845   2.906  1.00  0.00     0.167 HD
HETATM    6  C9  UNL     1       3.663   0.287   1.469  1.00  0.00     0.084 A 
HETATM    7  C12 UNL     1       3.469   0.956   0.279  1.00  0.00     0.038 A 
HETATM    8  C13 UNL     1       4.292   1.726  -0.554  1.00  0.00     0.006 A 
HETATM    9  C14 UNL     1       5.608   2.061  -0.442  1.00  0.00     0.016 A 
HETATM   10  C15 UNL     1       6.163   2.870  -1.439  1.00  0.00     0.020 A 
HETATM   11  C16 UNL     1       5.431   3.328  -2.510  1.00  0.00     0.013 A 
HETATM   12 BR1  UNL     1       6.274   4.430  -3.826  1.00  0.00    -0.051 Br
HETATM   13  C17 UNL     1       4.105   2.973  -2.596  1.00  0.00     0.049 A 
HETATM   14  C18 UNL     1       3.523   2.179  -1.634  1.00  0.00     0.045 A 
HETATM   15  N4  UNL     1       2.280   1.717  -1.485  1.00  0.00    -0.354 N 
ATOM     16  H4  UNL     1       1.501   1.887  -2.121  1.00  0.00     0.166 HD
HETATM   17  C19 UNL     1       2.226   0.985  -0.347  1.00  0.00     0.064 A 
HETATM   18  C20 UNL     1       1.163   0.323   0.253  1.00  0.00     0.075 A 
HETATM   19  C21 UNL     1      -0.172   0.178  -0.126  1.00  0.00     0.179 A 
ENDROOT
BRANCH   1  20
HETATM   20  N1  UNL     1      -2.076  -0.968   0.887  1.00  0.00    -0.259 N 
HETATM   21  C6  UNL     1      -3.150  -0.756   0.036  1.00  0.00     0.236 C 
HETATM   22  O1  UNL     1      -3.119  -0.117  -1.008  1.00  0.00    -0.272 OA
ATOM     23  H1  UNL     1      -2.298  -1.527   1.711  1.00  0.00     0.190 HD
BRANCH  21  24
HETATM   24  C5  UNL     1      -4.481  -1.368   0.432  1.00  0.00     0.104 C 
BRANCH  24  25
HETATM   25  C4  UNL     1      -5.480  -1.000  -0.629  1.00  0.00     0.009 C 
BRANCH  25  26
HETATM   26  C3  UNL     1      -6.812  -1.614  -0.237  1.00  0.00     0.000 C 
BRANCH  26  27
HETATM   27  C2  UNL     1      -7.879  -1.291  -1.251  1.00  0.00    -0.005 C 
HETATM   28  C1  UNL     1      -8.100   0.194  -1.393  1.00  0.00     0.005 C 
ENDBRANCH  26  27
ENDBRANCH  25  26
ENDBRANCH  24  25
ENDBRANCH  21  24
ENDBRANCH   1  20
BRANCH   2  29
HETATM   29  O2  UNL     1      -0.040  -1.633   2.931  1.00  0.00    -0.343 OA
ATOM     30  H2  UNL     1       0.601  -1.856   3.596  1.00  0.00     0.219 HD
ENDBRANCH   2  29
BRANCH  19  31
HETATM   31  O3  UNL     1      -0.662   0.747  -1.295  1.00  0.00    -0.344 OA
ATOM     32  H3  UNL     1      -0.244   1.271  -1.968  1.00  0.00     0.219 HD
ENDBRANCH  19  31
BRANCH   6  33
HETATM   33  S1  UNL     1       5.241   0.274   2.293  1.00  0.00    -0.112 SA
BRANCH  33  34
HETATM   34  C10 UNL     1       6.104  -1.253   1.908  1.00  0.00     0.076 C 
HETATM   35  C11 UNL     1       6.505  -1.452   0.497  1.00  0.00     0.016 C 
ENDBRANCH  33  34
ENDBRANCH   6  33
TORSDOF 9
