REMARK  7 active torsions:
REMARK  status: ('A' for Active; 'I' for Inactive)
REMARK    1  A    between atoms: O1_2  and  C2_3 
REMARK    2  A    between atoms: C5_7  and  C6_8 
REMARK    3  A    between atoms: C8_12  and  N2_13 
REMARK    4  A    between atoms: C9_16  and  C10_17 
REMARK    5  A    between atoms: C14_25  and  C15_26 
REMARK    6  A    between atoms: C18_29  and  N5_30 
REMARK    7  A    between atoms: C25_39  and  O2_40 
ROOT
HETATM    1  C6  UNL     1      -2.925   1.121  -0.459  1.00  0.00     0.064 A 
HETATM    2  C7  UNL     1      -2.518   2.142  -1.303  1.00  0.00     0.120 A 
HETATM    3  N1  UNL     1      -1.350   2.037  -1.960  1.00  0.00    -0.349 N 
ATOM      4  H1  UNL     1      -1.038   2.780  -2.585  1.00  0.00     0.167 HD
HETATM    5  C8  UNL     1      -0.590   0.923  -1.778  1.00  0.00     0.126 A 
HETATM    6  C9  UNL     1      -0.974  -0.102  -0.944  1.00  0.00     0.087 A 
HETATM    7  N6  UNL     1      -2.159   0.030  -0.294  1.00  0.00    -0.351 N 
ATOM      8  H6  UNL     1      -2.473  -0.713   0.331  1.00  0.00     0.166 HD
ENDROOT
BRANCH   6   9
HETATM    9  C10 UNL     1      -0.171  -1.301  -0.743  1.00  0.00    -0.005 A 
HETATM   10  C11 UNL     1      -0.787  -2.551  -0.792  1.00  0.00     0.016 A 
HETATM   11  C12 UNL     1      -0.104  -3.734  -0.607  1.00  0.00     0.033 A 
HETATM   12  C13 UNL     1       1.251  -3.715  -0.362  1.00  0.00     0.060 A 
HETATM   13  N3  UNL     1       2.149  -4.694  -0.151  1.00  0.00    -0.299 N 
HETATM   14  C23 UNL     1       1.877  -2.488  -0.311  1.00  0.00     0.022 A 
HETATM   15  N4  UNL     1       3.319  -4.120   0.031  1.00  0.00    -0.299 N 
ATOM     16  H3  UNL     1       1.958  -5.696  -0.135  1.00  0.00     0.187 HD
HETATM   17  C14 UNL     1       3.204  -2.764  -0.057  1.00  0.00     0.070 A 
ATOM     18  H4  UNL     1       4.190  -4.619   0.212  1.00  0.00     0.187 HD
HETATM   19  C24 UNL     1       1.185  -1.302  -0.497  1.00  0.00     0.030 A 
BRANCH  17  20
HETATM   20  C15 UNL     1       4.300  -1.813   0.091  1.00  0.00    -0.007 A 
HETATM   21  C16 UNL     1       5.514  -1.999  -0.537  1.00  0.00     0.016 A 
HETATM   22  C17 UNL     1       6.566  -1.115  -0.412  1.00  0.00     0.030 A 
HETATM   23  C18 UNL     1       6.433   0.025   0.374  1.00  0.00     0.029 A 
HETATM   24  C21 UNL     1       5.214   0.210   1.004  1.00  0.00     0.030 A 
HETATM   25  C22 UNL     1       4.163  -0.682   0.873  1.00  0.00     0.016 A 
BRANCH  23  26
HETATM   26  N5  UNL     1       7.476   0.954   0.530  1.00  0.00    -0.390 N 
HETATM   27  C19 UNL     1       8.742   0.762  -0.132  1.00  0.00     0.149 C 
HETATM   28  C20 UNL     1       7.284   2.117   1.359  1.00  0.00     0.149 C 
ENDBRANCH  23  26
ENDBRANCH  17  20
ENDBRANCH   6   9
BRANCH   5  29
HETATM   29  N2  UNL     1       0.520   0.823  -2.410  1.00  0.00    -0.384 N 
ATOM     30  H22 UNL     1       0.805   1.583  -3.028  1.00  0.00     0.157 HD
ATOM     31  H21 UNL     1       1.090  -0.012  -2.274  1.00  0.00     0.157 HD
ENDBRANCH   5  29
BRANCH   1  32
HETATM   32  C5  UNL     1      -4.209   1.288   0.230  1.00  0.00     0.064 A 
HETATM   33  C4  UNL     1      -4.202   1.887   1.458  1.00  0.00     0.134 A 
HETATM   34  C3  UNL     1      -5.398   2.064   2.141  1.00  0.00     0.080 A 
HETATM   35  F1  UNL     1      -3.058   2.318   2.037  1.00  0.00    -0.205 F 
HETATM   36  C2  UNL     1      -6.592   1.645   1.599  1.00  0.00     0.073 A 
HETATM   37  C27 UNL     1      -6.569   1.043   0.359  1.00  0.00     0.074 A 
HETATM   38  C25 UNL     1      -5.385   0.865  -0.324  1.00  0.00     0.086 A 
BRANCH  36  39
HETATM   39  O1  UNL     1      -7.759   1.843   2.318  1.00  0.00    -0.356 OA
HETATM   40  C1  UNL     1      -9.035   1.466   1.884  1.00  0.00     0.210 C 
ENDBRANCH  36  39
BRANCH  38  41
HETATM   41  O2  UNL     1      -5.349   0.263  -1.570  1.00  0.00    -0.355 OA
HETATM   42  C26 UNL     1      -6.557  -0.173  -2.142  1.00  0.00     0.210 C 
ENDBRANCH  38  41
ENDBRANCH   1  32
TORSDOF 7
