REMARK  8 active torsions:
REMARK  status: ('A' for Active; 'I' for Inactive)
REMARK       I    between atoms: N1_2  and  C2_4 
REMARK       I    between atoms: C2_4  and  N2_6 
REMARK    1  A    between atoms: N3_8  and  C3_10 
REMARK    2  A    between atoms: C5_12  and  C6_13 
REMARK    3  A    between atoms: C10_19  and  O2_20 
REMARK    4  A    between atoms: O2_20  and  C11_21 
REMARK    5  A    between atoms: C11_21  and  C12_22 
REMARK    6  A    between atoms: C12_22  and  O3_23 
REMARK    7  A    between atoms: C12_22  and  C13_25 
REMARK    8  A    between atoms: C13_25  and  O4_28 
ROOT
HETATM    1  C6  UNL     1       1.426   1.059   1.437  1.00  0.00     0.004 A 
HETATM    2  C7  UNL     1       0.756   1.667   2.509  1.00  0.00     0.101 A 
HETATM    3  N4  UNL     1      -0.528   1.824   2.160  1.00  0.00    -0.364 N 
ATOM      4  H4  UNL     1      -1.245   2.243   2.753  1.00  0.00     0.165 HD
HETATM    5  C8  UNL     1      -0.739   1.353   0.923  1.00  0.00     0.047 A 
HETATM    6  C9  UNL     1      -1.866   1.286   0.150  1.00  0.00     0.067 A 
HETATM    7  C10 UNL     1      -1.837   0.736  -1.110  1.00  0.00     0.072 A 
HETATM    8  C16 UNL     1      -0.594   0.256  -1.547  1.00  0.00     0.056 A 
HETATM    9  C17 UNL     1       0.535   0.316  -0.792  1.00  0.00     0.027 A 
HETATM   10 BR1  UNL     1       2.185  -0.410  -1.445  1.00  0.00    -0.050 Br
HETATM   11  C18 UNL     1       0.487   0.871   0.468  1.00  0.00     0.021 A 
ENDROOT
BRANCH   1  12
HETATM   12  C5  UNL     1       2.887   0.777   1.435  1.00  0.00    -0.014 A 
HETATM   13  C4  UNL     1       3.484  -0.139   2.219  1.00  0.00     0.051 A 
HETATM   14  C3  UNL     1       4.843  -0.247   2.159  1.00  0.00     0.089 A 
HETATM   15  S1  UNL     1       5.270   0.932   1.010  1.00  0.00    -0.082 SA
HETATM   16  C19 UNL     1       3.722   1.531   0.635  1.00  0.00     0.064 A 
BRANCH  14  17
HETATM   17  N3  UNL     1       5.685  -1.157   2.906  1.00  0.00    -0.290 N 
HETATM   18  N2  UNL     1       6.579  -1.755   2.233  1.00  0.00    -0.251 N 
HETATM   19  C2  UNL     1       6.783  -1.587   0.858  1.00  0.00     0.334 C 
ATOM     20  H2  UNL     1       7.192  -2.403   2.728  1.00  0.00     0.191 HD
HETATM   21  N1  UNL     1       7.930  -0.962   0.296  1.00  0.00    -0.346 N 
HETATM   22  O1  UNL     1       5.900  -2.013   0.071  1.00  0.00    -0.246 OA
HETATM   23  C1  UNL     1       8.088  -0.816  -1.136  1.00  0.00     0.151 C 
ATOM     24  H1  UNL     1       8.659  -0.608   0.916  1.00  0.00     0.163 HD
ATOM     25  H3  UNL     1       5.567  -1.308   3.908  1.00  0.00     0.188 HD
ENDBRANCH  14  17
ENDBRANCH   1  12
BRANCH   7  26
HETATM   26  O2  UNL     1      -2.914   0.629  -1.941  1.00  0.00    -0.348 OA
BRANCH  26  27
HETATM   27  C11 UNL     1      -4.223   0.974  -1.777  1.00  0.00     0.210 C 
BRANCH  27  28
HETATM   28  C12 UNL     1      -5.020   0.265  -0.735  1.00  0.00     0.175 C 
BRANCH  28  29
HETATM   29  O3  UNL     1      -6.341   0.793  -0.685  1.00  0.00    -0.390 OA
ATOM     30  H3  UNL     1      -6.849   0.341  -0.021  1.00  0.00     0.210 HD
ENDBRANCH  28  29
BRANCH  28  31
HETATM   31  C13 UNL     1      -5.248  -1.205  -1.100  1.00  0.00     0.078 C 
HETATM   32  C14 UNL     1      -4.000  -2.019  -1.087  1.00  0.00     0.048 C 
HETATM   33  C15 UNL     1      -6.235  -1.721  -0.063  1.00  0.00     0.048 C 
BRANCH  31  34
HETATM   34  O4  UNL     1      -5.889  -1.260  -2.332  1.00  0.00    -0.388 OA
ATOM     35  H4  UNL     1      -6.030  -2.172  -2.558  1.00  0.00     0.210 HD
ENDBRANCH  31  34
ENDBRANCH  28  31
ENDBRANCH  27  28
ENDBRANCH  26  27
ENDBRANCH   7  26
TORSDOF 8
