REMARK  7 active torsions:
REMARK  status: ('A' for Active; 'I' for Inactive)
REMARK    1  A    between atoms: N1_2  and  C2_4 
REMARK    2  A    between atoms: C2_4  and  C3_5 
REMARK    3  A    between atoms: C3_5  and  C5_7 
REMARK    4  A    between atoms: C13_16  and  C14_17 
REMARK    5  A    between atoms: C14_17  and  C15_18 
REMARK    6  A    between atoms: C21_33  and  C22_34 
REMARK    7  A    between atoms: C22_34  and  C24_36 
ROOT
HETATM    1  C5  UNL     1      -2.283   0.241   0.488  1.00  0.00    -0.048 C 
HETATM    2  C6  UNL     1      -1.473   0.978   1.453  1.00  0.00    -0.011 C 
HETATM    3  C7  UNL     1      -0.075   0.686   1.775  1.00  0.00     0.028 C 
HETATM    4  C8  UNL     1       0.238   1.602   3.004  1.00  0.00     0.018 C 
HETATM    5  C9  UNL     1       0.316  -0.632   2.228  1.00  0.00     0.001 C 
HETATM    6  C10 UNL     1       1.499  -1.173   1.974  1.00  0.00     0.008 C 
HETATM    7 CL1  UNL     1       1.851  -2.803   2.592  1.00  0.00    -0.089 Cl
HETATM    8  C11 UNL     1       2.597  -0.537   1.206  1.00  0.00     0.051 C 
HETATM    9  C12 UNL     1       3.295  -1.640   0.424  1.00  0.00     0.014 C 
HETATM   10  C13 UNL     1       3.987  -1.001  -0.750  1.00  0.00     0.015 C 
HETATM   11  C16 UNL     1       3.590  -1.690  -2.031  1.00  0.00    -0.025 C 
HETATM   12  C17 UNL     1       2.734  -1.253  -2.902  1.00  0.00    -0.021 C 
HETATM   13  C18 UNL     1       1.944  -0.004  -2.874  1.00  0.00     0.129 C 
HETATM   14  C19 UNL     1       0.593  -0.288  -3.422  1.00  0.00     0.221 C 
HETATM   15  O1  UNL     1       0.372  -0.126  -4.670  1.00  0.00    -0.273 OA
HETATM   16  N6  UNL     1      -0.510  -0.739  -2.656  1.00  0.00    -0.357 N 
ATOM     17  H6  UNL     1      -1.282  -1.186  -3.150  1.00  0.00     0.162 HD
HETATM   18  C20 UNL     1      -0.614  -0.607  -1.216  1.00  0.00     0.157 C 
HETATM   19  C21 UNL     1      -1.869   0.156  -0.915  1.00  0.00    -0.051 C 
ENDROOT
BRANCH  10  20
HETATM   20  C14 UNL     1       5.479  -1.196  -0.588  1.00  0.00     0.087 C 
BRANCH  20  21
HETATM   21  C15 UNL     1       5.967  -0.587   0.663  1.00  0.00     0.107 A 
HETATM   22  N2  UNL     1       6.090  -1.172   1.872  1.00  0.00    -0.274 N 
HETATM   23  N3  UNL     1       6.564  -0.256   2.696  1.00  0.00    -0.007 NA
ATOM     24  H2  UNL     1       5.861  -2.138   2.105  1.00  0.00     0.185 HD
HETATM   25  N4  UNL     1       6.751   0.893   2.069  1.00  0.00    -0.007 NA
HETATM   26  N5  UNL     1       6.380   0.680   0.816  1.00  0.00    -0.274 N 
ATOM     27  H5  UNL     1       6.405   1.379   0.074  1.00  0.00     0.185 HD
ENDBRANCH  20  21
ENDBRANCH  10  20
BRANCH   1  28
HETATM   28  C3  UNL     1      -3.011  -0.989   1.067  1.00  0.00     0.052 C 
HETATM   29  C4  UNL     1      -4.007  -0.479   2.082  1.00  0.00     0.020 C 
BRANCH  28  30
HETATM   30  C2  UNL     1      -3.770  -1.651  -0.039  1.00  0.00     0.064 C 
BRANCH  30  31
HETATM   31  N1  UNL     1      -4.608  -2.739   0.275  1.00  0.00    -0.406 N 
HETATM   32  C1  UNL     1      -5.827  -2.593   0.952  1.00  0.00     0.145 C 
ATOM     33  H1  UNL     1      -4.315  -3.676  -0.003  1.00  0.00     0.158 HD
ENDBRANCH  30  31
ENDBRANCH  28  30
ENDBRANCH   1  28
BRANCH  19  34
HETATM   34  C22 UNL     1      -1.939   1.403  -1.749  1.00  0.00     0.026 C 
HETATM   35  C23 UNL     1      -1.152   2.574  -1.372  1.00  0.00     0.016 C 
BRANCH  34  36
HETATM   36  C24 UNL     1      -3.381   1.812  -2.023  1.00  0.00     0.123 C 
HETATM   37 CL2  UNL     1      -3.275   3.301  -3.024  1.00  0.00    -0.130 Cl
ENDBRANCH  34  36
ENDBRANCH  19  34
TORSDOF 7
