REMARK  7 active torsions:
REMARK  status: ('A' for Active; 'I' for Inactive)
REMARK    1  A    between atoms: O1_2  and  C2_3 
REMARK    2  A    between atoms: C7_10  and  C8_11 
REMARK    3  A    between atoms: N3_19  and  C12_21 
REMARK    4  A    between atoms: C12_21  and  C13_22 
REMARK    5  A    between atoms: C13_22  and  C14_23 
REMARK    6  A    between atoms: C14_23  and  C15_24 
REMARK    7  A    between atoms: C15_24  and  O2_25 
ROOT
HETATM    1  C8  UNL     1      -1.979   1.040   1.071  1.00  0.00     0.076 A 
HETATM    2  N1  UNL     1      -2.330   1.729   2.190  1.00  0.00    -0.298 N 
ATOM      3  H1  UNL     1      -3.190   1.587   2.719  1.00  0.00     0.187 HD
HETATM    4  N2  UNL     1      -1.395   2.605   2.488  1.00  0.00    -0.297 N 
ATOM      5  H2  UNL     1      -1.424   3.243   3.284  1.00  0.00     0.187 HD
HETATM    6  C9  UNL     1      -0.383   2.537   1.581  1.00  0.00     0.092 A 
HETATM    7  C10 UNL     1      -0.754   1.554   0.697  1.00  0.00     0.051 A 
HETATM    8  C11 UNL     1       0.315   1.428  -0.318  1.00  0.00     0.057 A 
HETATM    9  N3  UNL     1       0.253   0.607  -1.248  1.00  0.00    -0.388 N 
ATOM     10  H3  UNL     1      -0.599   0.047  -1.226  1.00  0.00     0.159 HD
HETATM   11  C16 UNL     1       1.318   2.411   0.061  1.00  0.00     0.039 A 
HETATM   12  C17 UNL     1       2.550   2.953  -0.271  1.00  0.00     0.123 A 
HETATM   13  N4  UNL     1       2.818   3.888   0.644  1.00  0.00    -0.310 N 
ATOM     14  H4  UNL     1       3.668   4.452   0.645  1.00  0.00     0.186 HD
HETATM   15  N5  UNL     1       1.862   4.001   1.546  1.00  0.00    -0.298 N 
ATOM     16  H5  UNL     1       1.836   4.641   2.340  1.00  0.00     0.187 HD
HETATM   17  C18 UNL     1       0.918   3.086   1.196  1.00  0.00     0.091 A 
ENDROOT
BRANCH   1  18
HETATM   18  C7  UNL     1      -2.740  -0.021   0.434  1.00  0.00     0.029 A 
HETATM   19  C2  UNL     1      -3.060  -1.135   1.176  1.00  0.00     0.098 A 
HETATM   20  C3  UNL     1      -3.791  -2.174   0.646  1.00  0.00     0.046 A 
HETATM   21 BR1  UNL     1      -4.232  -3.714   1.677  1.00  0.00    -0.048 Br
HETATM   22  C4  UNL     1      -4.235  -2.136  -0.668  1.00  0.00     0.041 A 
HETATM   23  C5  UNL     1      -3.916  -1.016  -1.422  1.00  0.00     0.013 A 
HETATM   24 BR2  UNL     1      -4.533  -0.961  -3.235  1.00  0.00    -0.051 Br
HETATM   25  C6  UNL     1      -3.181   0.019  -0.870  1.00  0.00     0.035 A 
BRANCH  19  26
HETATM   26  O1  UNL     1      -2.613  -1.186   2.505  1.00  0.00    -0.354 OA
HETATM   27  C1  UNL     1      -1.319  -1.785   2.682  1.00  0.00     0.210 C 
ENDBRANCH  19  26
ENDBRANCH   1  18
BRANCH   9  28
HETATM   28  C12 UNL     1       1.099   0.276  -2.328  1.00  0.00     0.120 C 
BRANCH  28  29
HETATM   29  C13 UNL     1       1.809  -1.072  -2.115  1.00  0.00     0.022 C 
BRANCH  29  30
HETATM   30  C14 UNL     1       2.627  -0.943  -0.853  1.00  0.00     0.028 C 
BRANCH  30  31
HETATM   31  C15 UNL     1       3.382  -2.236  -0.536  1.00  0.00     0.164 C 
BRANCH  31  32
HETATM   32  O2  UNL     1       4.118  -2.033   0.627  1.00  0.00    -0.401 OA
ATOM     33  H2  UNL     1       4.587  -2.836   0.824  1.00  0.00     0.209 HD
ENDBRANCH  31  32
ENDBRANCH  30  31
ENDBRANCH  29  30
ENDBRANCH  28  29
ENDBRANCH   9  28
TORSDOF 7
