REMARK  8 active torsions:
REMARK  status: ('A' for Active; 'I' for Inactive)
REMARK    1  A    between atoms: N1_2  and  C2_4 
REMARK    2  A    between atoms: C3_7  and  C4_8 
REMARK    3  A    between atoms: N3_10  and  C6_11 
REMARK    4  A    between atoms: C6_11  and  C7_12 
REMARK    5  A    between atoms: C7_12  and  C8_13 
REMARK    6  A    between atoms: C8_13  and  N4_14 
REMARK    7  A    between atoms: N4_14  and  C9_16 
REMARK    8  A    between atoms: C14_27  and  N7_28 
ROOT
HETATM    1  C4  UNL     1      -1.206  -0.235  -0.626  1.00  0.00     0.053 A 
HETATM    2  C5  UNL     1      -0.297  -0.826   0.244  1.00  0.00     0.127 A 
HETATM    3  N3  UNL     1       0.942  -0.807  -0.272  1.00  0.00    -0.301 N 
HETATM    4  N6  UNL     1       0.837  -0.228  -1.427  1.00  0.00    -0.283 N 
ATOM      5  H6  UNL     1       1.623  -0.069  -2.058  1.00  0.00     0.189 HD
HETATM    6  C14 UNL     1      -0.463   0.149  -1.705  1.00  0.00     0.127 A 
ENDROOT
BRANCH   1   7
HETATM    7  C3  UNL     1      -2.626  -0.101  -0.356  1.00  0.00     0.051 A 
HETATM    8  N2  UNL     1      -3.081  -0.598   0.839  1.00  0.00    -0.341 N 
HETATM    9  C2  UNL     1      -4.364  -0.544   1.222  1.00  0.00     0.114 A 
ATOM     10  H2  UNL     1      -2.407  -1.032   1.470  1.00  0.00     0.167 HD
HETATM   11  C17 UNL     1      -5.257   0.046   0.353  1.00  0.00     0.036 A 
HETATM   12  C16 UNL     1      -4.842   0.557  -0.857  1.00  0.00     0.050 A 
HETATM   13  C18 UNL     1      -6.633   0.259   0.443  1.00  0.00     0.034 A 
HETATM   14  C15 UNL     1      -3.492   0.488  -1.233  1.00  0.00     0.061 A 
HETATM   15  N8  UNL     1      -5.899   1.072  -1.509  1.00  0.00    -0.360 N 
HETATM   16  C19 UNL     1      -6.983   0.892  -0.722  1.00  0.00     0.092 A 
HETATM   17  C20 UNL     1      -5.897   1.705  -2.810  1.00  0.00     0.155 C 
BRANCH   9  18
HETATM   18  N1  UNL     1      -4.730  -1.029   2.359  1.00  0.00    -0.380 N 
HETATM   19  C1  UNL     1      -3.761  -1.641   3.243  1.00  0.00     0.147 C 
ATOM     20  H1  UNL     1      -5.710  -0.981   2.638  1.00  0.00     0.160 HD
ENDBRANCH   9  18
ENDBRANCH   1   7
BRANCH   6  21
HETATM   21  N7  UNL     1      -0.802   0.719  -2.753  1.00  0.00    -0.384 N 
ATOM     22  H72 UNL     1      -1.762   0.997  -2.958  1.00  0.00     0.157 HD
ATOM     23  H71 UNL     1      -0.247   1.006  -3.559  1.00  0.00     0.157 HD
ENDBRANCH   6  21
BRANCH   3  24
HETATM   24  C6  UNL     1       2.156  -1.346   0.371  1.00  0.00     0.150 C 
BRANCH  24  25
HETATM   25  C7  UNL     1       2.737  -0.213   1.175  1.00  0.00     0.041 C 
BRANCH  25  26
HETATM   26  C8  UNL     1       4.002  -0.633   1.895  1.00  0.00     0.123 C 
BRANCH  26  27
HETATM   27  N4  UNL     1       5.019  -1.068   0.966  1.00  0.00    -0.375 N 
ATOM     28  H4  UNL     1       5.107  -2.070   0.800  1.00  0.00     0.161 HD
BRANCH  27  29
HETATM   29  C9  UNL     1       5.821  -0.288   0.333  1.00  0.00     0.123 A 
HETATM   30  N5  UNL     1       5.830   1.045   0.444  1.00  0.00    -0.350 N 
HETATM   31  C10 UNL     1       6.700   1.840  -0.246  1.00  0.00     0.109 A 
ATOM     32  H5  UNL     1       5.158   1.487   1.071  1.00  0.00     0.166 HD
HETATM   33  C11 UNL     1       7.628   1.295  -1.108  1.00  0.00     0.028 A 
HETATM   34 BR1  UNL     1       8.853   2.380  -2.083  1.00  0.00    -0.050 Br
HETATM   35  C12 UNL     1       7.637  -0.076  -1.238  1.00  0.00     0.048 A 
HETATM   36  C13 UNL     1       6.748  -0.883  -0.531  1.00  0.00     0.079 A 
HETATM   37 CL1  UNL     1       6.781  -2.603  -0.714  1.00  0.00    -0.080 Cl
ENDBRANCH  27  29
ENDBRANCH  26  27
ENDBRANCH  25  26
ENDBRANCH  24  25
ENDBRANCH   3  24
TORSDOF 8
