REMARK  7 active torsions:
REMARK  status: ('A' for Active; 'I' for Inactive)
REMARK    1  A    between atoms: C3_3  and  C4_4 
REMARK    2  A    between atoms: C4_4  and  O1_5 
REMARK    3  A    between atoms: N1_10  and  C8_11 
REMARK    4  A    between atoms: C8_11  and  C9_12 
REMARK    5  A    between atoms: C9_12  and  C10_13 
REMARK    6  A    between atoms: C10_13  and  N2_14 
REMARK    7  A    between atoms: C16_24  and  C17_25 
ROOT
HETATM    1  C1  UNL     1      -4.675  -0.684   2.650  1.00  0.00     0.013 C 
HETATM    2  C2  UNL     1      -4.648  -0.063   1.624  1.00  0.00    -0.103 C 
HETATM    3  C3  UNL     1      -4.602   0.671   0.366  1.00  0.00     0.070 C 
HETATM    4  C5  UNL     1      -4.580   2.140   0.639  1.00  0.00     0.028 C 
HETATM    5  C6  UNL     1      -3.312   2.722   0.083  1.00  0.00     0.032 C 
HETATM    6  C7  UNL     1      -2.148   1.920   0.631  1.00  0.00     0.272 C 
HETATM    7  N1  UNL     1      -2.212   0.569   0.159  1.00  0.00     0.090 N 
HETATM    8  C24 UNL     1      -3.436   0.219  -0.492  1.00  0.00     0.297 C 
ENDROOT
BRANCH   3   9
HETATM    9  C4  UNL     1      -5.864   0.327  -0.397  1.00  0.00     0.188 C 
BRANCH   9  10
HETATM   10  O1  UNL     1      -7.016   0.666   0.272  1.00  0.00    -0.399 OA
ATOM     11  H1  UNL     1      -7.808   0.450  -0.207  1.00  0.00     0.209 HD
ENDBRANCH   9  10
ENDBRANCH   3   9
BRANCH   7  12
HETATM   12  C8  UNL     1      -1.043   0.204  -0.625  1.00  0.00     0.274 C 
BRANCH  12  13
HETATM   13  C9  UNL     1      -1.109  -1.204  -1.119  1.00  0.00     0.050 C 
BRANCH  13  14
HETATM   14  C10 UNL     1       0.139  -1.503  -1.922  1.00  0.00     0.123 C 
BRANCH  14  15
HETATM   15  N2  UNL     1       1.344  -1.359  -1.165  1.00  0.00    -0.376 N 
HETATM   16  C11 UNL     1       1.847  -2.239  -0.384  1.00  0.00     0.115 A 
HETATM   17  N3  UNL     1       1.286  -3.452  -0.170  1.00  0.00    -0.350 N 
HETATM   18  C16 UNL     1       3.020  -1.920   0.266  1.00  0.00     0.053 A 
HETATM   19  C12 UNL     1       1.838  -4.358   0.657  1.00  0.00     0.112 A 
ATOM     20  H3  UNL     1       0.418  -3.686  -0.651  1.00  0.00     0.166 HD
HETATM   21  C13 UNL     1       3.014  -4.092   1.335  1.00  0.00     0.061 A 
HETATM   22  C14 UNL     1       3.614  -5.054   2.223  1.00  0.00     0.101 C 
HETATM   23  C15 UNL     1       3.587  -2.847   1.114  1.00  0.00     0.043 A 
HETATM   24  N4  UNL     1       4.106  -5.812   2.946  1.00  0.00    -0.191 NA
ATOM     25  H2  UNL     1       1.847  -0.476  -1.256  1.00  0.00     0.161 HD
BRANCH  18  26
HETATM   26  C17 UNL     1       3.637  -0.607   0.041  1.00  0.00     0.120 A 
HETATM   27  N5  UNL     1       3.165   0.362  -0.762  1.00  0.00    -0.340 N 
HETATM   28  C18 UNL     1       3.987   1.428  -0.724  1.00  0.00     0.062 A 
ATOM     29  H5  UNL     1       2.312   0.299  -1.317  1.00  0.00     0.167 HD
HETATM   30  C19 UNL     1       3.986   2.659  -1.334  1.00  0.00     0.057 A 
HETATM   31  C23 UNL     1       5.021   1.125   0.136  1.00  0.00     0.062 A 
HETATM   32  C20 UNL     1       4.978   3.584  -1.109  1.00  0.00     0.058 A 
HETATM   33 CL1  UNL     1       4.948   5.152  -1.905  1.00  0.00    -0.082 Cl
HETATM   34  C21 UNL     1       6.020   3.299  -0.251  1.00  0.00     0.058 A 
HETATM   35 CL2  UNL     1       7.280   4.488   0.028  1.00  0.00    -0.082 Cl
HETATM   36  C22 UNL     1       6.020   2.064   0.360  1.00  0.00     0.057 A 
HETATM   37  N6  UNL     1       4.768  -0.118   0.577  1.00  0.00    -0.340 N 
ATOM     38  H6  UNL     1       5.359  -0.626   1.235  1.00  0.00     0.167 HD
ENDBRANCH  18  26
ENDBRANCH  14  15
ENDBRANCH  13  14
ENDBRANCH  12  13
ENDBRANCH   7  12
TORSDOF 7
