REMARK  6 active torsions:
REMARK  status: ('A' for Active; 'I' for Inactive)
REMARK    1  A    between atoms: C5_6  and  C6_7 
REMARK    2  A    between atoms: C7_8  and  C8_9 
REMARK    3  A    between atoms: C12_15  and  C13_16 
REMARK    4  A    between atoms: C16_19  and  C17_20 
REMARK    5  A    between atoms: C25_33  and  C26_34 
REMARK    6  A    between atoms: C26_34  and  N4_35 
ROOT
HETATM    1  C1  UNL     1      -4.458   5.200  -0.813  1.00  0.00     0.210 C 
HETATM    2  O1  UNL     1      -4.436   3.971  -0.510  1.00  0.00    -0.353 OA
HETATM    3  C2  UNL     1      -4.346   2.703  -0.284  1.00  0.00     0.106 A 
HETATM    4  C3  UNL     1      -3.532   1.853  -1.074  1.00  0.00     0.041 A 
HETATM    5  C4  UNL     1      -3.458   0.511  -0.807  1.00  0.00     0.015 A 
HETATM    6  C5  UNL     1      -4.154  -0.077   0.219  1.00  0.00    -0.017 A 
HETATM    7  C28 UNL     1      -4.947   0.729   0.996  1.00  0.00     0.057 A 
HETATM    8  C29 UNL     1      -5.047   2.071   0.761  1.00  0.00     0.150 A 
HETATM    9  F1  UNL     1      -5.827   2.869   1.523  1.00  0.00    -0.203 F 
ENDROOT
BRANCH   6  10
HETATM   10  C6  UNL     1      -4.024  -1.498   0.437  1.00  0.00     0.045 A 
HETATM   11  C7  UNL     1      -2.803  -2.022   0.798  1.00  0.00     0.058 A 
HETATM   12  N3  UNL     1      -2.719  -3.348   0.991  1.00  0.00    -0.343 N 
HETATM   13  C25 UNL     1      -3.763  -4.165   0.846  1.00  0.00     0.109 A 
ATOM     14  H3  UNL     1      -1.820  -3.747   1.260  1.00  0.00     0.167 HD
HETATM   15  N5  UNL     1      -4.971  -3.694   0.496  1.00  0.00    -0.330 N 
HETATM   16  C27 UNL     1      -5.092  -2.375   0.296  1.00  0.00     0.113 A 
ATOM     17  H5  UNL     1      -5.769  -4.319   0.386  1.00  0.00     0.168 HD
HETATM   18  N6  UNL     1      -6.226  -1.883  -0.040  1.00  0.00    -0.385 N 
ATOM     19  H62 UNL     1      -6.318  -0.879  -0.192  1.00  0.00     0.157 HD
ATOM     20  H61 UNL     1      -7.010  -2.527  -0.144  1.00  0.00     0.157 HD
BRANCH  11  21
HETATM   21  C8  UNL     1      -1.610  -1.241   0.986  1.00  0.00    -0.006 A 
HETATM   22  C9  UNL     1      -1.546  -0.287   1.963  1.00  0.00     0.016 A 
HETATM   23  C10 UNL     1      -0.390   0.443   2.119  1.00  0.00     0.033 A 
HETATM   24  C11 UNL     1       0.707   0.235   1.311  1.00  0.00     0.060 A 
HETATM   25  N1  UNL     1       1.947   0.785   1.230  1.00  0.00    -0.340 N 
HETATM   26  C23 UNL     1       0.653  -0.725   0.321  1.00  0.00     0.061 A 
HETATM   27  C12 UNL     1       2.642   0.215   0.253  1.00  0.00     0.116 A 
ATOM     28  H1  UNL     1       2.294   1.530   1.834  1.00  0.00     0.167 HD
HETATM   29  N2  UNL     1       1.855  -0.715  -0.312  1.00  0.00    -0.340 N 
ATOM     30  H2  UNL     1       2.118  -1.318  -1.092  1.00  0.00     0.167 HD
HETATM   31  C24 UNL     1      -0.519  -1.450   0.181  1.00  0.00     0.045 A 
BRANCH  27  32
HETATM   32  C13 UNL     1       4.010   0.555  -0.119  1.00  0.00     0.008 A 
HETATM   33  C14 UNL     1       4.669  -0.081  -1.149  1.00  0.00     0.016 A 
HETATM   34  C15 UNL     1       5.958   0.241  -1.500  1.00  0.00     0.015 A 
HETATM   35  C16 UNL     1       6.653   1.230  -0.823  1.00  0.00    -0.002 A 
HETATM   36  C21 UNL     1       6.003   1.874   0.211  1.00  0.00     0.015 A 
HETATM   37  C22 UNL     1       4.718   1.537   0.543  1.00  0.00     0.016 A 
BRANCH  35  38
HETATM   38  C17 UNL     1       8.028   1.578  -1.195  1.00  0.00     0.085 A 
HETATM   39  C18 UNL     1       8.785   2.542  -0.579  1.00  0.00     0.040 A 
HETATM   40  C19 UNL     1      10.018   2.544  -1.242  1.00  0.00     0.027 A 
HETATM   41  C20 UNL     1       9.881   1.563  -2.210  1.00  0.00     0.142 A 
HETATM   42  O2  UNL     1       8.692   1.008  -2.158  1.00  0.00    -0.322 OA
ENDBRANCH  35  38
ENDBRANCH  27  32
ENDBRANCH  11  21
BRANCH  13  43
HETATM   43  C26 UNL     1      -3.595  -5.639   1.078  1.00  0.00     0.305 C 
BRANCH  43  44
HETATM   44  N4  UNL     1      -4.866  -6.312   0.879  1.00  0.00    -0.073 N 
ATOM     45  H43 UNL     1      -5.607  -5.914   1.456  1.00  0.00     0.274 HD
ATOM     46  H42 UNL     1      -5.269  -6.110  -0.036  1.00  0.00     0.274 HD
ATOM     47  H41 UNL     1      -4.752  -7.313   1.037  1.00  0.00     0.274 HD
ENDBRANCH  43  44
ENDBRANCH  13  43
ENDBRANCH   6  10
TORSDOF 6
