REMARK  9 active torsions:
REMARK  status: ('A' for Active; 'I' for Inactive)
REMARK    1  A    between atoms: C2_2  and  C4_4 
REMARK    2  A    between atoms: C4_4  and  C5_5 
REMARK    3  A    between atoms: C5_5  and  C7_7 
REMARK    4  A    between atoms: C8_8  and  O1_9 
REMARK    5  A    between atoms: C9_11  and  C10_12 
REMARK    6  A    between atoms: C17_21  and  O4_22 
REMARK    7  A    between atoms: N1_24  and  C18_25 
REMARK    8  A    between atoms: C18_25  and  C19_26 
REMARK    9  A    between atoms: C20_28  and  O5_29 
ROOT
HETATM    1  C7  UNL     1       1.584   0.760   1.191  1.00  0.00    -0.006 A 
HETATM    2  C8  UNL     1       2.527   1.489   1.967  1.00  0.00     0.090 A 
HETATM    3  C9  UNL     1       2.500   2.852   2.102  1.00  0.00     0.077 A 
HETATM    4  C11 UNL     1       1.490   3.569   1.433  1.00  0.00     0.059 A 
HETATM    5  C12 UNL     1       0.589   2.883   0.693  1.00  0.00     0.082 A 
HETATM    6  C13 UNL     1       0.621   1.463   0.572  1.00  0.00     0.015 A 
HETATM    7  C14 UNL     1      -0.562   0.982  -0.093  1.00  0.00    -0.022 C 
HETATM    8  C15 UNL     1      -1.427  -0.089   0.274  1.00  0.00     0.034 A 
HETATM    9  C16 UNL     1      -2.147  -0.734  -0.718  1.00  0.00     0.016 A 
HETATM   10  C17 UNL     1      -2.928  -1.678  -0.099  1.00  0.00     0.152 A 
HETATM   11  N1  UNL     1      -2.716  -1.628   1.222  1.00  0.00    -0.305 N 
HETATM   12  C20 UNL     1      -1.810  -0.669   1.449  1.00  0.00     0.156 A 
HETATM   13  C21 UNL     1      -2.126  -0.372  -2.147  1.00  0.00    -0.015 C 
HETATM   14  C22 UNL     1      -3.622  -0.105  -2.483  1.00  0.00     0.020 C 
HETATM   15  C23 UNL     1      -1.792  -1.598  -2.953  1.00  0.00     0.020 C 
HETATM   16  C24 UNL     1      -1.330   0.829  -2.504  1.00  0.00     0.026 C 
HETATM   17  C25 UNL     1      -0.496   1.476  -1.503  1.00  0.00     0.056 C 
HETATM   18  C26 UNL     1      -0.660   2.997  -1.425  1.00  0.00     0.068 C 
HETATM   19  C27 UNL     1       0.418   3.649  -2.246  1.00  0.00     0.047 C 
HETATM   20  C28 UNL     1      -2.026   3.471  -1.813  1.00  0.00     0.047 C 
HETATM   21  O6  UNL     1      -0.472   3.476  -0.055  1.00  0.00    -0.339 OA
ENDROOT
BRANCH   1  22
HETATM   22  C5  UNL     1       1.785  -0.693   1.087  1.00  0.00     0.019 C 
HETATM   23  C6  UNL     1       2.436  -1.310   2.251  1.00  0.00     0.015 C 
BRANCH  22  24
HETATM   24  C4  UNL     1       2.542  -0.899  -0.206  1.00  0.00     0.013 C 
BRANCH  24  25
HETATM   25  C2  UNL     1       2.796  -2.263  -0.688  1.00  0.00    -0.022 C 
HETATM   26  C1  UNL     1       3.587  -3.194   0.182  1.00  0.00     0.009 C 
HETATM   27  C3  UNL     1       1.629  -2.940  -1.393  1.00  0.00     0.009 C 
ENDBRANCH  24  25
ENDBRANCH  22  24
ENDBRANCH   1  22
BRANCH   2  28
HETATM   28  O1  UNL     1       3.503   0.792   2.595  1.00  0.00    -0.359 OA
ATOM     29  H1  UNL     1       4.133   1.279   3.113  1.00  0.00     0.217 HD
ENDBRANCH   2  28
BRANCH   3  30
HETATM   30  C10 UNL     1       3.409   3.641   2.899  1.00  0.00     0.212 C 
HETATM   31  O2  UNL     1       4.327   3.170   3.559  1.00  0.00    -0.644 OA
HETATM   32  O3  UNL     1       3.280   5.044   2.957  1.00  0.00    -0.644 OA
ENDBRANCH   3  30
BRANCH  12  33
HETATM   33  O5  UNL     1      -1.350  -0.333   2.706  1.00  0.00    -0.345 OA
ATOM     34  H5  UNL     1      -1.617  -0.737   3.524  1.00  0.00     0.219 HD
ENDBRANCH  12  33
BRANCH  10  35
HETATM   35  O4  UNL     1      -3.811  -2.567  -0.719  1.00  0.00    -0.345 OA
ATOM     36  H4  UNL     1      -4.352  -3.220  -0.291  1.00  0.00     0.219 HD
ENDBRANCH  10  35
BRANCH  11  37
HETATM   37  C18 UNL     1      -3.347  -2.414   2.254  1.00  0.00     0.164 C 
BRANCH  37  38
HETATM   38  C19 UNL     1      -2.679  -3.692   2.605  1.00  0.00     0.242 C 
HETATM   39  F1  UNL     1      -1.405  -3.584   3.070  1.00  0.00    -0.254 F 
ENDBRANCH  37  38
ENDBRANCH  11  37
TORSDOF 9
