REMARK  9 active torsions:
REMARK  status: ('A' for Active; 'I' for Inactive)
REMARK    1  A    between atoms: C2_2  and  C3_3 
REMARK    2  A    between atoms: C3_3  and  O1_5 
REMARK    3  A    between atoms: C3_3  and  C5_7 
REMARK    4  A    between atoms: C5_7  and  C6_8 
REMARK    5  A    between atoms: C6_8  and  C8_10 
REMARK    6  A    between atoms: C15_17  and  O2_18 
REMARK    7  A    between atoms: C18_22  and  C19_23 
REMARK    8  A    between atoms: C21_26  and  O4_27 
REMARK    9  A    between atoms: C29_37  and  O5_38 
ROOT
HETATM    1  C8  UNL     1      -2.403   0.554  -0.055  1.00  0.00     0.025 C 
HETATM    2  C9  UNL     1      -2.169   2.006  -0.512  1.00  0.00     0.009 C 
HETATM    3  C10 UNL     1      -0.645   2.211  -0.487  1.00  0.00     0.013 C 
HETATM    4  C11 UNL     1      -0.165   0.804  -0.390  1.00  0.00    -0.008 C 
HETATM    5  C12 UNL     1      -0.414   0.209  -1.743  1.00  0.00     0.019 C 
HETATM    6  C13 UNL     1       1.240   0.558  -0.010  1.00  0.00     0.006 C 
HETATM    7  C14 UNL     1       1.947  -0.479  -0.854  1.00  0.00     0.038 C 
HETATM    8  C15 UNL     1       2.850  -1.397  -0.088  1.00  0.00     0.130 C 
HETATM    9  C16 UNL     1       3.704  -0.690   0.878  1.00  0.00     0.026 C 
HETATM   10  C17 UNL     1       4.515  -1.706   1.651  1.00  0.00     0.022 C 
HETATM   11  C18 UNL     1       4.643   0.317   0.274  1.00  0.00     0.034 C 
HETATM   12  C23 UNL     1       4.991   1.144   1.488  1.00  0.00     0.013 C 
HETATM   13  C24 UNL     1       3.657   1.275   2.189  1.00  0.00     0.045 C 
HETATM   14  C25 UNL     1       2.859   0.041   1.864  1.00  0.00     0.118 C 
HETATM   15  F1  UNL     1       2.781  -0.678   3.068  1.00  0.00    -0.242 F 
HETATM   16  C26 UNL     1       1.440   0.309   1.468  1.00  0.00     0.031 C 
HETATM   17  C27 UNL     1       0.474  -0.707   2.033  1.00  0.00     0.011 C 
HETATM   18  C28 UNL     1      -0.701  -1.003   1.082  1.00  0.00     0.039 C 
HETATM   19  C29 UNL     1      -1.182   0.315   0.669  1.00  0.00     0.069 C 
ENDROOT
BRANCH   1  20
HETATM   20  C6  UNL     1      -3.740   0.315   0.524  1.00  0.00    -0.009 C 
HETATM   21  C7  UNL     1      -4.145   1.009   1.757  1.00  0.00     0.010 C 
BRANCH  20  22
HETATM   22  C5  UNL     1      -4.730   0.658  -0.578  1.00  0.00     0.042 C 
BRANCH  22  23
HETATM   23  C3  UNL     1      -6.129   0.297  -0.354  1.00  0.00     0.054 C 
HETATM   24  C4  UNL     1      -6.919   0.682  -1.624  1.00  0.00     0.045 C 
BRANCH  23  25
HETATM   25  C2  UNL     1      -6.417  -1.156  -0.136  1.00  0.00     0.033 C 
HETATM   26  C1  UNL     1      -5.986  -2.026  -1.293  1.00  0.00     0.008 C 
ENDBRANCH  23  25
BRANCH  23  27
HETATM   27  O1  UNL     1      -6.735   1.025   0.663  1.00  0.00    -0.390 OA
ATOM     28  H1  UNL     1      -6.552   1.947   0.525  1.00  0.00     0.210 HD
ENDBRANCH  23  27
ENDBRANCH  22  23
ENDBRANCH  20  22
ENDBRANCH   1  20
BRANCH  19  29
HETATM   29  O5  UNL     1      -1.150   1.149   1.780  1.00  0.00    -0.389 OA
ATOM     30  H5  UNL     1      -0.344   0.991   2.258  1.00  0.00     0.210 HD
ENDBRANCH  19  29
BRANCH   8  31
HETATM   31  O2  UNL     1       3.595  -2.108  -1.059  1.00  0.00    -0.395 OA
ATOM     32  H2  UNL     1       4.168  -2.690  -0.573  1.00  0.00     0.210 HD
ENDBRANCH   8  31
BRANCH  11  33
HETATM   33  C19 UNL     1       5.772  -0.214  -0.470  1.00  0.00    -0.026 A 
HETATM   34  C20 UNL     1       5.951  -0.171  -1.861  1.00  0.00     0.152 A 
HETATM   35  O3  UNL     1       7.075  -0.722  -2.183  1.00  0.00    -0.300 OA
HETATM   36  C21 UNL     1       7.708  -1.152  -1.124  1.00  0.00     0.183 A 
HETATM   37  C22 UNL     1       6.906  -0.845  -0.017  1.00  0.00     0.073 A 
BRANCH  36  38
HETATM   38  O4  UNL     1       8.940  -1.792  -1.101  1.00  0.00    -0.341 OA
ATOM     39  H4  UNL     1       9.400  -2.105  -0.331  1.00  0.00     0.220 HD
ENDBRANCH  36  38
ENDBRANCH  11  33
TORSDOF 9
