REMARK  10 active torsions:
REMARK  status: ('A' for Active; 'I' for Inactive)
REMARK    1  A    between atoms: C4_4  and  C5_5 
REMARK    2  A    between atoms: C5_5  and  C6_6 
REMARK    3  A    between atoms: C6_6  and  C7_7 
REMARK    4  A    between atoms: C8_8  and  C9_9 
REMARK    5  A    between atoms: C9_9  and  O1_10 
REMARK    6  A    between atoms: O1_10  and  C10_11 
REMARK    7  A    between atoms: C10_11  and  C11_12 
REMARK    8  A    between atoms: C13_15  and  O3_16 
REMARK    9  A    between atoms: C16_21  and  O5_22 
REMARK   10  A    between atoms: C20_27  and  O6_28 
ROOT
HETATM    1  C6  UNL     1      -0.079   0.201  -0.613  1.00  0.00     0.006 C 
HETATM    2  C15 UNL     1      -0.310  -1.298  -0.394  1.00  0.00     0.185 C 
HETATM    3  O4  UNL     1      -1.699  -1.587  -0.531  1.00  0.00    -0.360 OA
HETATM    4  C16 UNL     1      -2.266  -1.283   0.739  1.00  0.00     0.265 C 
HETATM    5  C17 UNL     1      -1.717   0.043   1.224  1.00  0.00     0.079 C 
HETATM    6  C18 UNL     1      -2.764   0.813   1.960  1.00  0.00    -0.040 A 
HETATM    7  C19 UNL     1      -3.148   0.404   3.238  1.00  0.00     0.046 A 
HETATM    8  C20 UNL     1      -4.107   1.066   3.959  1.00  0.00     0.083 A 
HETATM    9  C21 UNL     1      -4.749   2.176   3.456  1.00  0.00     0.044 A 
HETATM   10 BR1  UNL     1      -6.102   3.114   4.431  1.00  0.00    -0.048 Br
HETATM   11  C22 UNL     1      -4.376   2.584   2.196  1.00  0.00     0.029 A 
HETATM   12  C23 UNL     1      -3.394   1.919   1.441  1.00  0.00    -0.050 A 
HETATM   13  C24 UNL     1      -3.069   2.434   0.082  1.00  0.00     0.039 C 
HETATM   14  C25 UNL     1      -2.398   1.286  -0.722  1.00  0.00     0.011 C 
HETATM   15  C26 UNL     1      -1.197   0.909   0.045  1.00  0.00     0.014 C 
ENDROOT
BRANCH   1  16
HETATM   16  C5  UNL     1       0.184   0.402  -2.062  1.00  0.00     0.043 C 
BRANCH  16  17
HETATM   17  C4  UNL     1       0.573   1.751  -2.462  1.00  0.00    -0.024 C 
HETATM   18  C2  UNL     1       0.138   2.474  -3.468  1.00  0.00    -0.091 C 
HETATM   19  C1  UNL     1       0.720   3.855  -3.641  1.00  0.00     0.042 C 
HETATM   20  C3  UNL     1      -0.850   1.937  -4.426  1.00  0.00     0.042 C 
ENDBRANCH  16  17
ENDBRANCH   1  16
BRANCH   1  21
HETATM   21  C7  UNL     1       1.182   0.594   0.088  1.00  0.00    -0.016 C 
HETATM   22  C8  UNL     1       2.213  -0.003   0.514  1.00  0.00    -0.004 C 
BRANCH  22  23
HETATM   23  C9  UNL     1       2.676  -1.397   0.522  1.00  0.00     0.195 C 
BRANCH  23  24
HETATM   24  O1  UNL     1       2.858  -1.838   1.843  1.00  0.00    -0.383 OA
BRANCH  24  25
HETATM   25  C10 UNL     1       3.286  -3.138   1.895  1.00  0.00     0.208 C 
BRANCH  25  26
HETATM   26  C11 UNL     1       4.578  -3.389   1.213  1.00  0.00    -0.007 A 
HETATM   27  C12 UNL     1       5.849  -3.196   1.671  1.00  0.00     0.154 A 
HETATM   28  O2  UNL     1       6.718  -3.549   0.765  1.00  0.00    -0.300 OA
HETATM   29  C13 UNL     1       6.106  -3.993  -0.331  1.00  0.00     0.183 A 
HETATM   30  C14 UNL     1       4.763  -3.905  -0.083  1.00  0.00     0.075 A 
BRANCH  29  31
HETATM   31  O3  UNL     1       6.804  -4.440  -1.464  1.00  0.00    -0.341 OA
ATOM     32  H3  UNL     1       6.367  -4.757  -2.246  1.00  0.00     0.220 HD
ENDBRANCH  29  31
ENDBRANCH  25  26
ENDBRANCH  24  25
ENDBRANCH  23  24
ENDBRANCH  22  23
ENDBRANCH   1  21
BRANCH   4  33
HETATM   33  O5  UNL     1      -3.630  -1.366   0.686  1.00  0.00    -0.371 OA
ATOM     34  H5  UNL     1      -4.008  -1.163   1.533  1.00  0.00     0.212 HD
ENDBRANCH   4  33
BRANCH   8  35
HETATM   35  O6  UNL     1      -4.500   0.666   5.239  1.00  0.00    -0.359 OA
ATOM     36  H6  UNL     1      -5.165   1.125   5.739  1.00  0.00     0.217 HD
ENDBRANCH   8  35
TORSDOF 10
