REMARK  6 active torsions:
REMARK  status: ('A' for Active; 'I' for Inactive)
REMARK    1  A    between atoms: O1_2  and  C2_3 
REMARK    2  A    between atoms: C11_14  and  O2_15 
REMARK    3  A    between atoms: C13_17  and  O3_18 
REMARK    4  A    between atoms: C16_21  and  C17_22 
REMARK    5  A    between atoms: C17_22  and  N2_23 
REMARK    6  A    between atoms: N2_23  and  C18_26 
ROOT
HETATM    1  C2  UNL     1       6.518   1.535   1.357  1.00  0.00     0.092 A 
HETATM    2  C3  UNL     1       5.862   0.328   1.302  1.00  0.00     0.070 A 
HETATM    3  C4  UNL     1       4.487   0.292   1.124  1.00  0.00     0.063 A 
HETATM    4  N1  UNL     1       3.619  -0.707   1.033  1.00  0.00    -0.340 N 
ATOM      5  H1  UNL     1       3.873  -1.693   1.090  1.00  0.00     0.167 HD
HETATM    6  C5  UNL     1       2.331  -0.248   0.852  1.00  0.00     0.121 A 
HETATM    7  C6  UNL     1       1.238  -1.162   0.673  1.00  0.00     0.063 A 
HETATM    8  C7  UNL     1       0.021  -0.862   0.183  1.00  0.00     0.002 A 
HETATM    9  C8  UNL     1      -0.298   0.437  -0.364  1.00  0.00    -0.021 A 
HETATM   10  C9  UNL     1       0.183   0.815  -1.620  1.00  0.00     0.015 A 
HETATM   11  C10 UNL     1      -0.159   2.035  -2.139  1.00  0.00     0.040 A 
HETATM   12  C11 UNL     1      -0.978   2.934  -1.466  1.00  0.00     0.101 A 
HETATM   13  C13 UNL     1      -1.463   2.571  -0.215  1.00  0.00     0.102 A 
HETATM   14  C15 UNL     1      -1.115   1.351   0.296  1.00  0.00     0.052 A 
HETATM   15  C16 UNL     1      -0.989  -1.851   0.107  1.00  0.00     0.002 A 
HETATM   16  C22 UNL     1      -0.766  -3.130   0.526  1.00  0.00     0.015 A 
HETATM   17  C23 UNL     1      -1.746  -4.224   0.543  1.00  0.00     0.069 C 
HETATM   18  N3  UNL     1       0.460  -3.419   1.013  1.00  0.00    -0.345 N 
ATOM     19  H3  UNL     1       0.650  -4.370   1.329  1.00  0.00     0.167 HD
HETATM   20  C24 UNL     1       1.426  -2.514   1.096  1.00  0.00     0.114 A 
HETATM   21  N4  UNL     1       2.567  -2.838   1.567  1.00  0.00    -0.385 N 
ATOM     22  H41 UNL     1       2.701  -3.803   1.869  1.00  0.00     0.157 HD
ATOM     23  H42 UNL     1       3.310  -2.142   1.631  1.00  0.00     0.157 HD
HETATM   24  N5  UNL     1       2.453   1.064   0.838  1.00  0.00    -0.340 N 
ATOM     25  H5  UNL     1       1.674   1.712   0.721  1.00  0.00     0.167 HD
HETATM   26  C25 UNL     1       3.754   1.446   1.000  1.00  0.00     0.062 A 
HETATM   27  C26 UNL     1       4.438   2.625   1.059  1.00  0.00     0.058 A 
HETATM   28  C27 UNL     1       5.802   2.694   1.235  1.00  0.00     0.069 A 
HETATM   29 CL1  UNL     1       6.650   4.237   1.307  1.00  0.00    -0.081 Cl
ENDROOT
BRANCH  15  30
HETATM   30  C17 UNL     1      -2.274  -1.399  -0.412  1.00  0.00     0.274 C 
BRANCH  30  31
HETATM   31  N2  UNL     1      -3.216  -2.460  -0.598  1.00  0.00    -0.063 N 
ATOM     32  H22 UNL     1      -2.884  -3.151  -1.271  1.00  0.00     0.278 HD
ATOM     33  H21 UNL     1      -3.275  -3.065   0.221  1.00  0.00     0.278 HD
BRANCH  31  34
HETATM   34  C18 UNL     1      -4.538  -1.909  -0.976  1.00  0.00     0.115 C 
HETATM   35  C19 UNL     1      -4.381  -1.192  -2.288  1.00  0.00     0.045 C 
HETATM   36  C20 UNL     1      -5.473  -3.068  -1.119  1.00  0.00     0.045 C 
HETATM   37  C21 UNL     1      -5.052  -0.993   0.091  1.00  0.00     0.045 C 
ENDBRANCH  31  34
ENDBRANCH  30  31
ENDBRANCH  15  30
BRANCH  13  38
HETATM   38  O3  UNL     1      -2.282   3.396   0.528  1.00  0.00    -0.353 OA
HETATM   39  C14 UNL     1      -2.764   3.020   1.786  1.00  0.00     0.210 C 
ENDBRANCH  13  38
BRANCH   1  40
HETATM   40  O1  UNL     1       7.895   1.607   1.535  1.00  0.00    -0.354 OA
HETATM   41  C1  UNL     1       8.740   0.494   1.672  1.00  0.00     0.210 C 
ENDBRANCH   1  40
BRANCH  12  42
HETATM   42  O2  UNL     1      -1.324   4.155  -1.978  1.00  0.00    -0.353 OA
HETATM   43  C12 UNL     1      -0.928   4.696  -3.202  1.00  0.00     0.210 C 
ENDBRANCH  12  42
TORSDOF 6
