REMARK  12 active torsions:
REMARK  status: ('A' for Active; 'I' for Inactive)
REMARK    1  A    between atoms: C2_2  and  C3_3 
REMARK    2  A    between atoms: C3_3  and  C4_4 
REMARK    3  A    between atoms: C4_4  and  C5_5 
REMARK    4  A    between atoms: C5_5  and  C6_6 
REMARK    5  A    between atoms: C6_6  and  O1_7 
REMARK    6  A    between atoms: C6_6  and  C7_9 
REMARK    7  A    between atoms: C8_10  and  O2_11 
REMARK    8  A    between atoms: C9_13  and  C10_14 
REMARK    9  A    between atoms: C17_21  and  O3_22 
REMARK   10  A    between atoms: C21_27  and  O4_28 
REMARK   11  A    between atoms: C25_34  and  C26_35 
REMARK   12  A    between atoms: C30_40  and  O6_41 
ROOT
HETATM    1  C7  UNL     1       2.341   0.017   0.490  1.00  0.00     0.064 C 
HETATM    2  C8  UNL     1       1.253   0.899   0.417  1.00  0.00     0.091 C 
HETATM    3  C9  UNL     1       0.127   0.931   1.298  1.00  0.00     0.021 C 
HETATM    4  C24 UNL     1       0.181   0.588   2.613  1.00  0.00     0.140 C 
HETATM    5  F1  UNL     1      -0.757   1.179   3.449  1.00  0.00    -0.204 F 
HETATM    6  C25 UNL     1       0.996  -0.286   3.324  1.00  0.00     0.058 C 
HETATM    7  C29 UNL     1       1.841  -1.161   2.687  1.00  0.00     0.219 C 
HETATM    8  O5  UNL     1       2.013  -2.247   3.284  1.00  0.00    -0.284 OA
HETATM    9  C30 UNL     1       2.514  -0.960   1.470  1.00  0.00     0.132 C 
ENDROOT
BRANCH   3  10
HETATM   10  C10 UNL     1      -1.133   1.413   0.755  1.00  0.00     0.036 C 
HETATM   11  C11 UNL     1      -2.379   0.935   1.471  1.00  0.00     0.016 C 
HETATM   12  C12 UNL     1      -3.081   0.991   0.155  1.00  0.00     0.006 C 
HETATM   13  C13 UNL     1      -4.050  -0.044  -0.235  1.00  0.00    -0.036 C 
HETATM   14  C22 UNL     1      -1.718   0.868  -0.511  1.00  0.00    -0.006 C 
HETATM   15  C14 UNL     1      -4.272  -1.162   0.749  1.00  0.00     0.016 C 
HETATM   16  C15 UNL     1      -5.412   0.652  -0.391  1.00  0.00     0.012 C 
HETATM   17  C19 UNL     1      -3.749  -0.638  -1.594  1.00  0.00    -0.001 C 
HETATM   18  C16 UNL     1      -6.459  -0.167  -1.035  1.00  0.00     0.032 C 
HETATM   19  C17 UNL     1      -6.047  -0.886  -2.283  1.00  0.00     0.118 C 
HETATM   20  C18 UNL     1      -4.796  -1.692  -1.914  1.00  0.00     0.037 C 
HETATM   21  C20 UNL     1      -2.390  -1.225  -1.718  1.00  0.00     0.038 C 
HETATM   22  C21 UNL     1      -1.339  -0.506  -0.926  1.00  0.00     0.127 C 
HETATM   23  C23 UNL     1      -1.680   1.873  -1.674  1.00  0.00     0.019 C 
BRANCH  19  24
HETATM   24  O3  UNL     1      -5.703   0.055  -3.244  1.00  0.00    -0.396 OA
ATOM     25  H3  UNL     1      -5.442  -0.401  -4.035  1.00  0.00     0.210 HD
ENDBRANCH  19  24
BRANCH  22  26
HETATM   26  O4  UNL     1      -0.958  -1.362   0.106  1.00  0.00    -0.395 OA
ATOM     27  H4  UNL     1      -0.292  -0.907   0.608  1.00  0.00     0.210 HD
ENDBRANCH  22  26
ENDBRANCH   3  10
BRANCH   2  28
HETATM   28  O2  UNL     1       1.192   1.805  -0.522  1.00  0.00    -0.359 OA
ATOM     29  H2  UNL     1       0.455   2.402  -0.571  1.00  0.00     0.217 HD
ENDBRANCH   2  28
BRANCH   1  30
HETATM   30  C6  UNL     1       3.353   0.124  -0.509  1.00  0.00     0.059 C 
BRANCH  30  31
HETATM   31  C5  UNL     1       4.613  -0.581  -0.771  1.00  0.00     0.065 C 
BRANCH  31  32
HETATM   32  C4  UNL     1       5.257  -0.010  -2.048  1.00  0.00     0.006 C 
BRANCH  32  33
HETATM   33  C3  UNL     1       6.545  -0.721  -2.341  1.00  0.00     0.000 C 
BRANCH  33  34
HETATM   34  C2  UNL     1       7.161  -0.123  -3.622  1.00  0.00    -0.005 C 
HETATM   35  C1  UNL     1       8.457  -0.779  -3.936  1.00  0.00     0.005 C 
ENDBRANCH  33  34
ENDBRANCH  32  33
ENDBRANCH  31  32
ENDBRANCH  30  31
BRANCH  30  36
HETATM   36  O1  UNL     1       3.118   1.055  -1.398  1.00  0.00    -0.364 OA
ATOM     37  H1  UNL     1       2.302   1.511  -1.228  1.00  0.00     0.217 HD
ENDBRANCH  30  36
ENDBRANCH   1  30
BRANCH   6  38
HETATM   38  C26 UNL     1       1.026  -0.135   4.795  1.00  0.00    -0.070 C 
HETATM   39  C27 UNL     1       0.281  -1.141   5.578  1.00  0.00     0.044 C 
HETATM   40  C28 UNL     1       1.030   1.287   5.245  1.00  0.00     0.044 C 
ENDBRANCH   6  38
BRANCH   9  41
HETATM   41  O6  UNL     1       3.498  -1.889   1.222  1.00  0.00    -0.356 OA
ATOM     42  H6  UNL     1       3.616  -2.555   1.890  1.00  0.00     0.218 HD
ENDBRANCH   9  41
TORSDOF 12
