REMARK  8 active torsions:
REMARK  status: ('A' for Active; 'I' for Inactive)
REMARK    1  A    between atoms: C4_5  and  C5_6 
REMARK    2  A    between atoms: N2_7  and  N3_9 
REMARK    3  A    between atoms: N3_9  and  C6_11 
REMARK    4  A    between atoms: C7_14  and  C8_15 
REMARK    5  A    between atoms: C8_15  and  C9_16 
REMARK    6  A    between atoms: C17_26  and  C18_27 
REMARK    7  A    between atoms: C21_30  and  N6_31 
REMARK    8  A    between atoms: C28_41  and  O3_42 
ROOT
HETATM    1  N1  UNL     1       6.931   1.427   2.519  1.00  0.00    -0.191 NA
HETATM    2  C1  UNL     1       6.516   1.148   1.472  1.00  0.00     0.102 C 
HETATM    3  C2  UNL     1       6.002   0.824   0.162  1.00  0.00     0.078 A 
HETATM    4  C3  UNL     1       4.751   0.293   0.054  1.00  0.00     0.038 A 
HETATM    5  C4  UNL     1       4.278  -0.011  -1.213  1.00  0.00    -0.018 A 
HETATM    6  C26 UNL     1       5.079   0.231  -2.309  1.00  0.00     0.015 A 
HETATM    7  C27 UNL     1       6.340   0.772  -2.149  1.00  0.00     0.039 A 
HETATM    8  C28 UNL     1       6.830   1.081  -0.902  1.00  0.00     0.086 A 
ENDROOT
BRANCH   8   9
HETATM    9  O3  UNL     1       8.082   1.617  -0.748  1.00  0.00    -0.359 OA
ATOM     10  H3  UNL     1       8.655   1.795  -1.484  1.00  0.00     0.217 HD
ENDBRANCH   8   9
BRANCH   5  11
HETATM   11  C5  UNL     1       2.957  -0.562  -1.406  1.00  0.00     0.118 C 
HETATM   12  N2  UNL     1       2.193  -0.735  -0.387  1.00  0.00    -0.309 N 
ATOM     13  H2  UNL     1       2.573  -0.464   0.520  1.00  0.00     0.186 HD
BRANCH  12  14
HETATM   14  N3  UNL     1       0.950  -1.234  -0.391  1.00  0.00    -0.285 N 
ATOM     15  H3  UNL     1       0.927  -2.194  -0.735  1.00  0.00     0.188 HD
BRANCH  14  16
HETATM   16  C6  UNL     1      -0.200  -0.819  -0.078  1.00  0.00     0.142 A 
HETATM   17  N4  UNL     1      -1.268  -1.683  -0.239  1.00  0.00    -0.342 N 
HETATM   18  C7  UNL     1      -2.489  -1.263   0.084  1.00  0.00     0.036 A 
ATOM     19  H4  UNL     1      -1.122  -2.626  -0.599  1.00  0.00     0.167 HD
HETATM   20  C15 UNL     1      -2.770  -0.006   0.578  1.00  0.00     0.080 A 
HETATM   21  C16 UNL     1      -4.117   0.408   0.917  1.00  0.00     0.102 C 
HETATM   22  C17 UNL     1      -1.690   0.829   0.728  1.00  0.00     0.021 A 
HETATM   23  N5  UNL     1      -5.188   0.738   1.210  1.00  0.00    -0.191 NA
HETATM   24  C24 UNL     1      -0.385   0.445   0.405  1.00  0.00     0.102 A 
HETATM   25  C25 UNL     1       0.707   1.376   0.596  1.00  0.00     0.104 C 
HETATM   26  N7  UNL     1       1.559   2.139   0.762  1.00  0.00    -0.191 NA
BRANCH  18  27
HETATM   27  C8  UNL     1      -3.615  -2.199  -0.091  1.00  0.00     0.097 C 
BRANCH  27  28
HETATM   28  C9  UNL     1      -3.256  -3.489  -0.654  1.00  0.00    -0.052 A 
HETATM   29  C10 UNL     1      -3.315  -3.662  -2.025  1.00  0.00     0.010 A 
HETATM   30  C11 UNL     1      -2.980  -4.869  -2.610  1.00  0.00     0.043 A 
HETATM   31  C12 UNL     1      -2.574  -5.952  -1.859  1.00  0.00     0.116 A 
HETATM   32  F1  UNL     1      -2.254  -7.119  -2.457  1.00  0.00    -0.206 F 
HETATM   33  C13 UNL     1      -2.514  -5.785  -0.486  1.00  0.00     0.043 A 
HETATM   34  C14 UNL     1      -2.850  -4.575   0.092  1.00  0.00     0.010 A 
ENDBRANCH  27  28
ENDBRANCH  18  27
BRANCH  22  35
HETATM   35  C18 UNL     1      -1.865   2.176   1.230  1.00  0.00    -0.023 A 
HETATM   36  C19 UNL     1      -1.995   2.394   2.577  1.00  0.00     0.015 A 
HETATM   37  C20 UNL     1      -2.158   3.682   3.039  1.00  0.00     0.037 A 
HETATM   38  C21 UNL     1      -2.196   4.779   2.188  1.00  0.00     0.102 A 
HETATM   39  C22 UNL     1      -2.061   4.497   0.844  1.00  0.00     0.037 A 
HETATM   40  C23 UNL     1      -1.897   3.223   0.346  1.00  0.00     0.015 A 
BRANCH  38  41
HETATM   41  N6  UNL     1      -2.362   6.103   2.667  1.00  0.00    -0.116 N 
HETATM   42  O1  UNL     1      -2.484   6.357   3.870  1.00  0.00    -0.532 OA
HETATM   43  O2  UNL     1      -2.388   7.130   1.764  1.00  0.00    -0.532 OA
ENDBRANCH  38  41
ENDBRANCH  22  35
ENDBRANCH  14  16
ENDBRANCH  12  14
ENDBRANCH   5  11
TORSDOF 8
