REMARK  7 active torsions:
REMARK  status: ('A' for Active; 'I' for Inactive)
REMARK    1  A    between atoms: N1_2  and  C2_4 
REMARK    2  A    between atoms: C5_11  and  O1_12 
REMARK    3  A    between atoms: O1_12  and  C6_13 
REMARK    4  A    between atoms: N5_20  and  C11_22 
REMARK    5  A    between atoms: C11_22  and  C12_23 
REMARK    6  A    between atoms: C14_25  and  O2_26 
REMARK    7  A    between atoms: C18_30  and  N6_31 
ROOT
HETATM    1  C6  UNL     1      -2.214  -1.994   0.552  1.00  0.00     0.079 A 
HETATM    2  C7  UNL     1      -2.044  -2.302  -0.806  1.00  0.00     0.040 A 
HETATM    3  C8  UNL     1      -0.792  -2.305  -1.380  1.00  0.00     0.035 A 
HETATM    4  C9  UNL     1       0.346  -2.012  -0.671  1.00  0.00     0.069 A 
HETATM    5  N4  UNL     1       1.663  -1.935  -0.942  1.00  0.00    -0.320 N 
ATOM      6  H4  UNL     1       2.096  -2.106  -1.850  1.00  0.00     0.169 HD
HETATM    7  C10 UNL     1       2.314  -1.593   0.190  1.00  0.00     0.225 A 
HETATM    8  N5  UNL     1       3.603  -1.420   0.331  1.00  0.00    -0.352 N 
ATOM      9  H5  UNL     1       3.983  -1.161   1.241  1.00  0.00     0.163 HD
HETATM   10  O5  UNL     1       1.403  -1.468   1.119  1.00  0.00    -0.277 OA
HETATM   11  C19 UNL     1       0.199  -1.707   0.664  1.00  0.00     0.108 A 
HETATM   12  C20 UNL     1      -1.071  -1.703   1.255  1.00  0.00     0.077 A 
ENDROOT
BRANCH   1  13
HETATM   13  O1  UNL     1      -3.490  -2.007   1.080  1.00  0.00    -0.308 OA
BRANCH  13  14
HETATM   14  C5  UNL     1      -4.438  -0.999   0.948  1.00  0.00     0.116 A 
HETATM   15  C4  UNL     1      -5.655  -1.276   0.338  1.00  0.00     0.072 A 
HETATM   16  C3  UNL     1      -6.591  -0.284   0.206  1.00  0.00     0.065 A 
HETATM   17  N3  UNL     1      -7.847  -0.264  -0.338  1.00  0.00    -0.298 N 
HETATM   18  C23 UNL     1      -6.396   1.014   0.654  1.00  0.00     0.040 A 
HETATM   19  N2  UNL     1      -8.380   0.938  -0.235  1.00  0.00    -0.285 N 
ATOM     20  H3  UNL     1      -8.307  -1.068  -0.764  1.00  0.00     0.187 HD
HETATM   21  C2  UNL     1      -7.518   1.769   0.375  1.00  0.00     0.128 A 
ATOM     22  H2  UNL     1      -9.308   1.198  -0.569  1.00  0.00     0.188 HD
HETATM   23  C22 UNL     1      -5.180   1.255   1.254  1.00  0.00     0.062 A 
HETATM   24  C21 UNL     1      -4.206   0.268   1.404  1.00  0.00     0.151 A 
HETATM   25  F1  UNL     1      -3.046   0.615   2.008  1.00  0.00    -0.203 F 
BRANCH  21  26
HETATM   26  N1  UNL     1      -7.644   3.023   0.670  1.00  0.00    -0.379 N 
HETATM   27  C1  UNL     1      -8.815   3.784   0.371  1.00  0.00     0.147 C 
ATOM     28  H1  UNL     1      -6.869   3.491   1.139  1.00  0.00     0.160 HD
ENDBRANCH  21  26
ENDBRANCH  13  14
ENDBRANCH   1  13
BRANCH   8  29
HETATM   29  C11 UNL     1       4.500  -1.595  -0.805  1.00  0.00     0.164 C 
BRANCH  29  30
HETATM   30  C12 UNL     1       5.629  -0.646  -0.633  1.00  0.00    -0.005 A 
HETATM   31  C13 UNL     1       5.695   0.168   0.502  1.00  0.00     0.048 A 
HETATM   32  C14 UNL     1       6.716   1.060   0.739  1.00  0.00     0.068 A 
HETATM   33  C16 UNL     1       7.720   1.148  -0.198  1.00  0.00     0.039 A 
HETATM   34  C17 UNL     1       7.711   0.376  -1.333  1.00  0.00     0.039 A 
HETATM   35  C18 UNL     1       6.652  -0.529  -1.548  1.00  0.00     0.111 A 
BRANCH  32  36
HETATM   36  O2  UNL     1       6.717   1.845   1.900  1.00  0.00    -0.356 OA
HETATM   37  C15 UNL     1       7.777   2.754   2.120  1.00  0.00     0.210 C 
ENDBRANCH  32  36
BRANCH  35  38
HETATM   38  N6  UNL     1       6.662  -1.294  -2.741  1.00  0.00    -0.115 N 
HETATM   39  O3  UNL     1       6.191  -2.432  -2.750  1.00  0.00    -0.532 OA
HETATM   40  O4  UNL     1       7.212  -0.768  -3.918  1.00  0.00    -0.532 OA
ENDBRANCH  35  38
ENDBRANCH  29  30
ENDBRANCH   8  29
TORSDOF 7
