REMARK  9 active torsions:
REMARK  status: ('A' for Active; 'I' for Inactive)
REMARK    1  A    between atoms: C2_2  and  C22_31 
REMARK    2  A    between atoms: C3_3  and  C4_4 
REMARK    3  A    between atoms: C5_5  and  C6_6 
REMARK    4  A    between atoms: C9_9  and  C10_10 
REMARK    5  A    between atoms: C19_22  and  O3_23 
REMARK    6  A    between atoms: C19_22  and  C20_25 
REMARK    7  A    between atoms: C20_25  and  O4_26 
REMARK    8  A    between atoms: C20_25  and  C21_28 
REMARK    9  A    between atoms: C21_28  and  O5_29 
ROOT
HETATM    1  C6  UNL     1      -0.581  -0.536   0.343  1.00  0.00     0.026 C 
HETATM    2  C7  UNL     1      -0.100  -0.402   1.753  1.00  0.00     0.018 C 
HETATM    3  C8  UNL     1      -0.311   1.073   2.103  1.00  0.00     0.011 C 
HETATM    4  C9  UNL     1      -1.693   1.275   1.533  1.00  0.00     0.030 C 
HETATM    5  C14 UNL     1      -1.645   0.536   0.231  1.00  0.00    -0.021 C 
HETATM    6  C15 UNL     1      -1.265   1.408  -0.954  1.00  0.00     0.017 C 
HETATM    7  C16 UNL     1      -3.021   0.027  -0.055  1.00  0.00     0.018 C 
HETATM    8  C17 UNL     1      -3.108  -0.889  -1.257  1.00  0.00     0.082 C 
HETATM    9  C18 UNL     1      -1.989  -1.850  -1.135  1.00  0.00     0.165 C 
HETATM   10  O2  UNL     1      -1.724  -2.559  -2.074  1.00  0.00    -0.294 OA
HETATM   11  C19 UNL     1      -1.228  -1.919   0.118  1.00  0.00     0.157 C 
ENDROOT
BRANCH  11  12
HETATM   12  O3  UNL     1      -2.006  -2.185   1.251  1.00  0.00    -0.378 OA
ATOM     13  H3  UNL     1      -2.404  -3.036   1.113  1.00  0.00     0.211 HD
ENDBRANCH  11  12
BRANCH  11  14
HETATM   14  C20 UNL     1      -0.193  -2.985   0.047  1.00  0.00     0.184 C 
BRANCH  14  15
HETATM   15  O4  UNL     1       0.614  -2.821  -1.080  1.00  0.00    -0.390 OA
ATOM     16  H4  UNL     1       1.275  -3.502  -1.125  1.00  0.00     0.210 HD
ENDBRANCH  14  15
BRANCH  14  17
HETATM   17  C21 UNL     1      -0.746  -4.390   0.001  1.00  0.00     0.199 C 
BRANCH  17  18
HETATM   18  O5  UNL     1       0.387  -5.240   0.021  1.00  0.00    -0.398 OA
ATOM     19  H5  UNL     1       0.039  -6.124  -0.008  1.00  0.00     0.209 HD
ENDBRANCH  17  18
ENDBRANCH  14  17
ENDBRANCH  11  14
BRANCH   1  20
HETATM   20  C5  UNL     1       0.538  -0.300  -0.583  1.00  0.00    -0.013 C 
HETATM   21  C4  UNL     1       1.747   0.087  -0.310  1.00  0.00    -0.003 C 
BRANCH  21  22
HETATM   22  C3  UNL     1       2.785   0.291  -1.308  1.00  0.00     0.003 C 
HETATM   23  C2  UNL     1       3.994   0.685  -0.976  1.00  0.00    -0.074 C 
HETATM   24  C1  UNL     1       4.335   0.936   0.464  1.00  0.00     0.044 C 
BRANCH  23  25
HETATM   25  C22 UNL     1       5.058   0.895  -1.989  1.00  0.00     0.119 C 
HETATM   26  S1  UNL     1       6.455  -0.205  -1.637  1.00  0.00    -0.093 SA
ENDBRANCH  23  25
ENDBRANCH  21  22
ENDBRANCH   1  20
BRANCH   4  27
HETATM   27  C10 UNL     1      -2.112   2.672   1.459  1.00  0.00    -0.028 A 
HETATM   28  C11 UNL     1      -3.286   3.195   2.010  1.00  0.00     0.150 A 
HETATM   29  O1  UNL     1      -3.327   4.478   1.754  1.00  0.00    -0.315 OA
HETATM   30  C12 UNL     1      -2.281   4.876   1.076  1.00  0.00     0.121 A 
HETATM   31 BR1  UNL     1      -1.917   6.675   0.480  1.00  0.00    -0.023 Br
HETATM   32  C13 UNL     1      -1.501   3.761   0.877  1.00  0.00     0.054 A 
ENDBRANCH   4  27
TORSDOF 9
