REMARK  8 active torsions:
REMARK  status: ('A' for Active; 'I' for Inactive)
REMARK    1  A    between atoms: C4_4  and  C5_5 
REMARK    2  A    between atoms: C5_5  and  O1_6 
REMARK    3  A    between atoms: O1_6  and  C6_7 
REMARK    4  A    between atoms: C11_12  and  O2_13 
REMARK    5  A    between atoms: N1_15  and  C12_16 
REMARK    6  A    between atoms: C12_16  and  C14_18 
REMARK    7  A    between atoms: C24_32  and  C25_33 
REMARK    8  A    between atoms: C25_33  and  C26_34 
ROOT
HETATM    1  C6  UNL     1       2.849  -1.796  -0.729  1.00  0.00     0.104 A 
HETATM    2  C7  UNL     1       2.572  -0.466  -0.657  1.00  0.00     0.071 A 
HETATM    3  C8  UNL     1       1.385   0.038  -0.129  1.00  0.00     0.059 A 
HETATM    4  C9  UNL     1       0.441  -0.825   0.343  1.00  0.00     0.071 A 
HETATM    5  C10 UNL     1       0.692  -2.155   0.289  1.00  0.00     0.071 A 
HETATM    6  C11 UNL     1       1.890  -2.658  -0.244  1.00  0.00     0.101 A 
HETATM    7  N1  UNL     1      -0.785  -0.400   0.999  1.00  0.00    -0.282 N 
HETATM    8  C23 UNL     1      -0.833   1.047   1.074  1.00  0.00     0.251 C 
HETATM    9  O3  UNL     1      -1.384   1.604   2.027  1.00  0.00    -0.270 OA
HETATM   10  C24 UNL     1      -0.216   1.917   0.001  1.00  0.00     0.175 C 
HETATM   11  N4  UNL     1       1.154   1.453  -0.135  1.00  0.00    -0.375 N 
ATOM     12  H4  UNL     1       1.926   2.112  -0.232  1.00  0.00     0.160 HD
ENDROOT
BRANCH   7  13
HETATM   13  C12 UNL     1      -1.770  -1.245   1.575  1.00  0.00     0.029 C 
HETATM   14  C13 UNL     1      -1.539  -1.870   2.915  1.00  0.00     0.070 C 
BRANCH  13  15
HETATM   15  C14 UNL     1      -2.983  -1.588   0.815  1.00  0.00     0.028 A 
HETATM   16  C15 UNL     1      -3.958  -0.586   0.599  1.00  0.00     0.047 A 
HETATM   17  C16 UNL     1      -5.051  -0.787  -0.262  1.00  0.00     0.047 A 
HETATM   18  C17 UNL     1      -5.201  -1.990  -0.926  1.00  0.00     0.019 A 
HETATM   19  N3  UNL     1      -6.088   0.033  -0.611  1.00  0.00    -0.359 N 
HETATM   20  C18 UNL     1      -4.259  -2.935  -0.701  1.00  0.00     0.059 A 
HETATM   21  C20 UNL     1      -6.353  -1.891  -1.685  1.00  0.00     0.074 A 
HETATM   22  C19 UNL     1      -3.202  -2.746   0.127  1.00  0.00     0.129 A 
HETATM   23  F1  UNL     1      -2.417  -3.811   0.326  1.00  0.00    -0.205 F 
HETATM   24  N2  UNL     1      -6.868  -2.893  -2.539  1.00  0.00    -0.100 NA
HETATM   25  C21 UNL     1      -6.866  -0.637  -1.465  1.00  0.00     0.118 A 
HETATM   26  C22 UNL     1      -6.286   1.407  -0.098  1.00  0.00     0.156 C 
ENDBRANCH  13  15
ENDBRANCH   7  13
BRANCH  10  27
HETATM   27  C25 UNL     1      -0.244   3.317   0.494  1.00  0.00     0.038 C 
BRANCH  27  28
HETATM   28  C26 UNL     1       0.156   4.420  -0.384  1.00  0.00    -0.020 C 
HETATM   29  C27 UNL     1       1.513   4.457  -0.977  1.00  0.00     0.009 C 
HETATM   30  C28 UNL     1      -0.082   5.724   0.433  1.00  0.00     0.009 C 
ENDBRANCH  27  28
ENDBRANCH  10  27
BRANCH   6  31
HETATM   31  O2  UNL     1       2.121  -4.003  -0.276  1.00  0.00    -0.358 OA
ATOM     32  H2  UNL     1       1.460  -4.597   0.058  1.00  0.00     0.217 HD
ENDBRANCH   6  31
BRANCH   1  33
HETATM   33  O1  UNL     1       4.036  -2.345  -1.250  1.00  0.00    -0.345 OA
BRANCH  33  34
HETATM   34  C5  UNL     1       5.132  -1.420  -1.612  1.00  0.00     0.203 C 
BRANCH  34  35
HETATM   35  C4  UNL     1       5.599  -0.958  -0.275  1.00  0.00     0.001 C 
HETATM   36  C2  UNL     1       6.805  -1.107   0.208  1.00  0.00    -0.089 C 
HETATM   37  C1  UNL     1       7.931  -1.744  -0.464  1.00  0.00     0.042 C 
HETATM   38  C3  UNL     1       7.063  -0.596   1.624  1.00  0.00     0.042 C 
ENDBRANCH  34  35
ENDBRANCH  33  34
ENDBRANCH   1  33
TORSDOF 8
