REMARK  9 active torsions:
REMARK  status: ('A' for Active; 'I' for Inactive)
REMARK    1  A    between atoms: O1_1  and  C1_3 
REMARK    2  A    between atoms: C1_3  and  C2_4 
REMARK    3  A    between atoms: C2_4  and  O2_5 
REMARK    4  A    between atoms: O2_5  and  C3_6 
REMARK    5  A    between atoms: C6_9  and  N1_10 
REMARK    6  A    between atoms: C7_13  and  C8_14 
REMARK    7  A    between atoms: C11_19  and  N4_20 
REMARK    8  A    between atoms: N4_20  and  C12_22 
REMARK    9  A    between atoms: C21_35  and  C22_36 
ROOT
HETATM    1  N1  UNL     1      -1.700  -0.933   0.453  1.00  0.00    -0.255 N 
HETATM    2  N2  UNL     1      -0.488  -0.312   0.345  1.00  0.00    -0.293 N 
ATOM      3  H2  UNL     1      -0.353   0.696   0.264  1.00  0.00     0.187 HD
HETATM    4  C7  UNL     1       0.484  -1.206   0.360  1.00  0.00     0.061 A 
HETATM    5  C20 UNL     1      -0.146  -2.424   0.481  1.00  0.00     0.064 A 
HETATM    6  C21 UNL     1      -1.544  -2.240   0.540  1.00  0.00     0.069 A 
ENDROOT
BRANCH   4   7
HETATM    7  C8  UNL     1       1.930  -1.037   0.273  1.00  0.00    -0.003 A 
HETATM    8  C9  UNL     1       2.788  -2.114   0.307  1.00  0.00     0.031 A 
HETATM    9  C10 UNL     1       4.151  -1.999   0.229  1.00  0.00     0.090 A 
HETATM   10  N3  UNL     1       4.670  -0.775   0.113  1.00  0.00    -0.352 N 
HETATM   11  C11 UNL     1       3.893   0.325   0.073  1.00  0.00     0.106 A 
ATOM     12  H3  UNL     1       5.683  -0.669   0.053  1.00  0.00     0.166 HD
HETATM   13  C19 UNL     1       2.506   0.212   0.153  1.00  0.00     0.062 A 
BRANCH  11  14
HETATM   14  N4  UNL     1       4.370   1.512  -0.039  1.00  0.00    -0.342 N 
ATOM     15  H4  UNL     1       3.715   2.293  -0.063  1.00  0.00     0.167 HD
BRANCH  14  16
HETATM   16  C12 UNL     1       5.754   1.798  -0.131  1.00  0.00     0.034 A 
HETATM   17  C13 UNL     1       6.629   1.714   0.931  1.00  0.00     0.032 A 
HETATM   18  C14 UNL     1       7.973   1.996   0.823  1.00  0.00     0.034 A 
HETATM   19  C15 UNL     1       8.472   2.380  -0.404  1.00  0.00     0.059 A 
HETATM   20  N5  UNL     1       9.696   2.722  -0.863  1.00  0.00    -0.300 N 
HETATM   21  C17 UNL     1       7.632   2.473  -1.476  1.00  0.00     0.011 A 
HETATM   22  N6  UNL     1       9.649   3.015  -2.145  1.00  0.00    -0.311 N 
ATOM     23  H5  UNL     1      10.542   2.749  -0.293  1.00  0.00     0.187 HD
HETATM   24  C16 UNL     1       8.383   2.870  -2.554  1.00  0.00     0.120 A 
ATOM     25  H6  UNL     1      10.438   3.302  -2.724  1.00  0.00     0.186 HD
HETATM   26  C18 UNL     1       6.281   2.186  -1.350  1.00  0.00     0.044 A 
ENDBRANCH  14  16
ENDBRANCH  11  14
ENDBRANCH   4   7
BRANCH   1  27
HETATM   27  C6  UNL     1      -2.862  -0.122   0.452  1.00  0.00     0.057 A 
HETATM   28  C5  UNL     1      -3.512   0.227  -0.737  1.00  0.00     0.034 A 
HETATM   29  C4  UNL     1      -4.615   1.051  -0.778  1.00  0.00     0.039 A 
HETATM   30  C3  UNL     1      -5.137   1.579   0.384  1.00  0.00     0.069 A 
HETATM   31  C29 UNL     1      -4.511   1.248   1.567  1.00  0.00     0.039 A 
HETATM   32  C28 UNL     1      -3.408   0.425   1.621  1.00  0.00     0.034 A 
BRANCH  30  33
HETATM   33  O2  UNL     1      -6.243   2.412   0.399  1.00  0.00    -0.349 OA
BRANCH  33  34
HETATM   34  C2  UNL     1      -6.951   2.813  -0.729  1.00  0.00     0.201 C 
BRANCH  34  35
HETATM   35  C1  UNL     1      -8.084   3.715  -0.298  1.00  0.00     0.190 C 
BRANCH  35  36
HETATM   36  O1  UNL     1      -7.504   4.815   0.350  1.00  0.00    -0.399 OA
ATOM     37  H1  UNL     1      -8.216   5.382   0.621  1.00  0.00     0.209 HD
ENDBRANCH  35  36
ENDBRANCH  34  35
ENDBRANCH  33  34
ENDBRANCH  30  33
ENDBRANCH   1  27
BRANCH   6  38
HETATM   38  C22 UNL     1      -2.520  -3.304   0.666  1.00  0.00    -0.007 A 
HETATM   39  C23 UNL     1      -2.055  -4.628   0.730  1.00  0.00     0.017 A 
HETATM   40  C24 UNL     1      -2.876  -5.714   0.850  1.00  0.00     0.043 A 
HETATM   41  C25 UNL     1      -4.221  -5.547   0.915  1.00  0.00     0.116 A 
HETATM   42  F1  UNL     1      -5.015  -6.641   1.035  1.00  0.00    -0.206 F 
HETATM   43  C26 UNL     1      -4.730  -4.270   0.857  1.00  0.00     0.043 A 
HETATM   44  C27 UNL     1      -3.871  -3.163   0.733  1.00  0.00     0.017 A 
ENDBRANCH   6  38
TORSDOF 9
