REMARK  11 active torsions:
REMARK  status: ('A' for Active; 'I' for Inactive)
REMARK    1  A    between atoms: C2_2  and  S1_4 
REMARK    2  A    between atoms: S1_4  and  N1_7 
REMARK    3  A    between atoms: N1_7  and  C4_9 
REMARK    4  A    between atoms: C4_9  and  C5_13 
REMARK    5  A    between atoms: C5_13  and  C6_14 
REMARK    6  A    between atoms: C5_13  and  N3_19 
REMARK    7  A    between atoms: C6_14  and  C7_15 
REMARK       I    between atoms: N3_19  and  C11_20 
REMARK    8  A    between atoms: C11_20  and  O4_22 
REMARK    9  A    between atoms: O4_22  and  C12_23 
REMARK   10  A    between atoms: C16_28  and  S2_29 
REMARK   11  A    between atoms: S2_29  and  C17_30 
ROOT
HETATM    1  C5  UNL     1      -2.947  -0.731   0.206  1.00  0.00     0.237 C 
ENDROOT
BRANCH   1   2
HETATM    2  C4  UNL     1      -3.272   0.632  -0.471  1.00  0.00     0.121 C 
HETATM    3  N2  UNL     1      -3.432   0.601  -1.724  1.00  0.00    -0.386 N 
ATOM      4  H22 UNL     1      -3.645   1.494  -2.168  1.00  0.00     0.157 HD
ATOM      5  H21 UNL     1      -3.379  -0.223  -2.322  1.00  0.00     0.157 HD
BRANCH   2   6
HETATM    6  N1  UNL     1      -3.346   1.777   0.360  1.00  0.00    -0.271 N 
ATOM      7  H1  UNL     1      -2.479   2.246   0.621  1.00  0.00     0.180 HD
BRANCH   6   8
HETATM    8  S1  UNL     1      -4.834   2.413   0.949  1.00  0.00     0.235 S 
HETATM    9  O1  UNL     1      -4.848   2.516   2.453  1.00  0.00    -0.205 OA
HETATM   10  O2  UNL     1      -5.917   1.458   0.509  1.00  0.00    -0.205 OA
BRANCH   8  11
HETATM   11  C2  UNL     1      -5.091   4.023   0.284  1.00  0.00     0.121 C 
HETATM   12  C1  UNL     1      -5.198   3.958  -1.213  1.00  0.00     0.027 C 
HETATM   13  C3  UNL     1      -3.968   4.971   0.640  1.00  0.00     0.027 C 
ENDBRANCH   8  11
ENDBRANCH   6   8
ENDBRANCH   2   6
ENDBRANCH   1   2
BRANCH   1  14
HETATM   14  C6  UNL     1      -3.322  -1.776  -0.826  1.00  0.00     0.056 C 
BRANCH  14  15
HETATM   15  C7  UNL     1      -3.157  -3.187  -0.442  1.00  0.00    -0.048 C 
HETATM   16  C8  UNL     1      -1.780  -3.651  -0.083  1.00  0.00     0.014 C 
HETATM   17  C9  UNL     1      -4.061  -3.597   0.716  1.00  0.00     0.014 C 
HETATM   18  C10 UNL     1      -3.595  -4.081  -1.620  1.00  0.00     0.014 C 
ENDBRANCH  14  15
ENDBRANCH   1  14
BRANCH   1  19
HETATM   19  N3  UNL     1      -1.607  -0.735   0.501  1.00  0.00    -0.377 NA
HETATM   20  C11 UNL     1      -0.271  -0.739   0.796  1.00  0.00     0.440 C 
HETATM   21  O3  UNL     1       0.263  -0.527   1.902  1.00  0.00    -0.221 OA
BRANCH  20  22
HETATM   22  O4  UNL     1       0.697  -1.011  -0.226  1.00  0.00    -0.250 OA
BRANCH  22  23
HETATM   23  C12 UNL     1       2.054  -1.030   0.031  1.00  0.00     0.085 A 
HETATM   24  C13 UNL     1       2.577  -2.164   0.619  1.00  0.00     0.061 A 
HETATM   25  C14 UNL     1       3.923  -2.220   0.886  1.00  0.00     0.038 A 
HETATM   26 CL1  UNL     1       4.572  -3.661   1.633  1.00  0.00    -0.084 Cl
HETATM   27  C15 UNL     1       4.755  -1.139   0.565  1.00  0.00     0.042 A 
HETATM   28  C16 UNL     1       4.242  -0.012  -0.018  1.00  0.00     0.005 A 
HETATM   29  C21 UNL     1       2.897   0.042  -0.283  1.00  0.00     0.056 A 
BRANCH  28  30
HETATM   30  S2  UNL     1       5.272   1.357  -0.450  1.00  0.00    -0.121 SA
BRANCH  30  31
HETATM   31  C17 UNL     1       7.006   1.138  -0.088  1.00  0.00     0.002 C 
HETATM   32  C18 UNL     1       7.595   0.017  -0.949  1.00  0.00     0.026 C 
HETATM   33  C19 UNL     1       7.329   0.833   1.338  1.00  0.00     0.026 C 
HETATM   34  C20 UNL     1       7.719   2.435  -0.499  1.00  0.00     0.026 C 
ENDBRANCH  30  31
ENDBRANCH  28  30
ENDBRANCH  22  23
ENDBRANCH  20  22
ENDBRANCH   1  19
TORSDOF 11
