REMARK  10 active torsions:
REMARK  status: ('A' for Active; 'I' for Inactive)
REMARK    1  A    between atoms: C2_2  and  C3_3 
REMARK    2  A    between atoms: C3_3  and  C4_4 
REMARK    3  A    between atoms: C7_7  and  O1_8 
REMARK    4  A    between atoms: C9_10  and  O2_11 
REMARK    5  A    between atoms: C11_13  and  O3_14 
REMARK    6  A    between atoms: C14_17  and  C15_18 
REMARK    7  A    between atoms: C15_18  and  S1_19 
REMARK    8  A    between atoms: S1_19  and  C16_20 
REMARK    9  A    between atoms: C20_26  and  N2_27 
REMARK   10  A    between atoms: N4_35  and  C24_36 
ROOT
HETATM    1  C4  UNL     1      -2.438   1.208  -0.570  1.00  0.00     0.042 A 
HETATM    2  C5  UNL     1      -2.335  -0.133  -0.037  1.00  0.00     0.007 A 
HETATM    3  C6  UNL     1      -3.532  -0.801   0.228  1.00  0.00     0.054 A 
HETATM    4  C7  UNL     1      -3.549  -2.022   0.888  1.00  0.00     0.105 A 
HETATM    5  C9  UNL     1      -2.378  -2.591   1.291  1.00  0.00     0.136 A 
HETATM    6  C11 UNL     1      -1.173  -1.891   1.015  1.00  0.00     0.116 A 
HETATM    7  C13 UNL     1      -1.116  -0.703   0.381  1.00  0.00     0.021 A 
HETATM    8  C14 UNL     1       0.129   0.056   0.301  1.00  0.00    -0.019 A 
HETATM    9  C23 UNL     1       0.016   1.298  -0.182  1.00  0.00     0.100 A 
HETATM   10  N4  UNL     1      -1.148   1.917  -0.613  1.00  0.00    -0.348 N 
ENDROOT
BRANCH   8  11
HETATM   11  C15 UNL     1       1.404  -0.434   0.844  1.00  0.00     0.120 C 
BRANCH  11  12
HETATM   12  S1  UNL     1       2.389  -1.412  -0.256  1.00  0.00    -0.125 SA
BRANCH  12  13
HETATM   13  C16 UNL     1       4.021  -0.741  -0.466  1.00  0.00     0.003 A 
HETATM   14  C17 UNL     1       4.810  -1.274  -1.487  1.00  0.00     0.021 A 
HETATM   15  C18 UNL     1       6.120  -0.892  -1.669  1.00  0.00     0.034 A 
HETATM   16  C19 UNL     1       6.648   0.051  -0.799  1.00  0.00     0.076 A 
HETATM   17  N1  UNL     1       7.914   0.553  -0.768  1.00  0.00    -0.190 N 
HETATM   18  C21 UNL     1       5.900   0.595   0.213  1.00  0.00     0.077 A 
HETATM   19  C20 UNL     1       7.929   1.418   0.287  1.00  0.00     0.676 A 
ATOM     20  H1  UNL     1       8.685   0.330  -1.398  1.00  0.00     0.184 HD
HETATM   21  N3  UNL     1       6.724   1.432   0.860  1.00  0.00    -0.190 N 
ATOM     22  H3  UNL     1       6.468   1.996   1.670  1.00  0.00     0.184 HD
HETATM   23  C22 UNL     1       4.596   0.199   0.373  1.00  0.00     0.051 A 
BRANCH  19  24
HETATM   24  N2  UNL     1       9.005   2.074   0.615  1.00  0.00    -0.234 N 
ATOM     25  H22 UNL     1       9.926   2.063   0.177  1.00  0.00     0.174 HD
ATOM     26  H21 UNL     1       9.016   2.721   1.404  1.00  0.00     0.174 HD
ENDBRANCH  19  24
ENDBRANCH  12  13
ENDBRANCH  11  12
ENDBRANCH   8  11
BRANCH   6  27
HETATM   27  O3  UNL     1      -0.089  -2.592   1.499  1.00  0.00    -0.352 OA
HETATM   28  C12 UNL     1       0.320  -3.830   0.846  1.00  0.00     0.210 C 
ENDBRANCH   6  27
BRANCH  10  29
HETATM   29  C24 UNL     1      -1.164   3.253  -1.148  1.00  0.00     0.126 A 
HETATM   30  C25 UNL     1       0.073   4.121  -0.957  1.00  0.00     0.068 A 
HETATM   31  C26 UNL     1      -1.241   4.471  -0.344  1.00  0.00     0.195 A 
HETATM   32  F1  UNL     1      -1.323   4.384   1.024  1.00  0.00    -0.247 F 
ENDBRANCH  10  29
BRANCH   1  33
HETATM   33  C3  UNL     1      -3.446   1.752  -1.187  1.00  0.00     0.003 C 
BRANCH  33  34
HETATM   34  C2  UNL     1      -4.772   1.350  -1.614  1.00  0.00     0.025 C 
HETATM   35  C1  UNL     1      -5.080   1.935  -3.023  1.00  0.00     0.009 C 
ENDBRANCH  33  34
ENDBRANCH   1  33
BRANCH   5  36
HETATM   36  O2  UNL     1      -2.416  -3.802   1.935  1.00  0.00    -0.351 OA
HETATM   37  C10 UNL     1      -2.543  -4.032   3.291  1.00  0.00     0.210 C 
ENDBRANCH   5  36
BRANCH   4  38
HETATM   38  O1  UNL     1      -4.723  -2.667   1.145  1.00  0.00    -0.353 OA
HETATM   39  C8  UNL     1      -6.026  -2.309   0.850  1.00  0.00     0.210 C 
ENDBRANCH   4  38
TORSDOF 10
