REMARK  12 active torsions:
REMARK  status: ('A' for Active; 'I' for Inactive)
REMARK    1  A    between atoms: O1_2  and  C2_3 
REMARK    2  A    between atoms: C2_3  and  C3_4 
REMARK    3  A    between atoms: C3_4  and  O2_5 
REMARK    4  A    between atoms: C3_4  and  C4_7 
REMARK    5  A    between atoms: C4_7  and  N1_8 
REMARK    6  A    between atoms: N1_8  and  C5_10 
REMARK    7  A    between atoms: C7_12  and  C8_13 
REMARK    8  A    between atoms: C12_20  and  C13_21 
REMARK    9  A    between atoms: C16_24  and  C17_25 
REMARK   10  A    between atoms: C18_26  and  C19_27 
REMARK   11  A    between atoms: C24_32  and  C25_33 
REMARK   12  A    between atoms: C28_36  and  N3_37 
ROOT
HETATM    1  C8  UNL     1       2.205   2.974  -1.756  1.00  0.00     0.057 A 
HETATM    2  N2  UNL     1       3.158   3.909  -2.008  1.00  0.00    -0.332 N 
ATOM      3  H2  UNL     1       4.119   3.590  -2.130  1.00  0.00     0.168 HD
HETATM    4  C9  UNL     1       2.917   5.220  -2.106  1.00  0.00     0.188 A 
HETATM    5  F1  UNL     1       3.877   6.137  -2.358  1.00  0.00    -0.186 F 
HETATM    6  C10 UNL     1       1.631   5.663  -1.945  1.00  0.00     0.062 A 
HETATM    7  C11 UNL     1       0.633   4.764  -1.690  1.00  0.00     0.020 A 
HETATM    8  C12 UNL     1       0.926   3.396  -1.594  1.00  0.00     0.018 A 
ENDROOT
BRANCH   8   9
HETATM    9  C13 UNL     1      -0.164   2.459  -1.320  1.00  0.00     0.046 A 
HETATM   10  C14 UNL     1      -1.230   2.319  -2.203  1.00  0.00     0.032 A 
HETATM   11  C15 UNL     1      -2.276   1.451  -1.973  1.00  0.00     0.027 A 
HETATM   12  C16 UNL     1      -2.297   0.670  -0.823  1.00  0.00     0.061 A 
HETATM   13  C28 UNL     1      -1.228   0.832   0.032  1.00  0.00     0.118 A 
HETATM   14  N4  UNL     1      -0.220   1.688  -0.219  1.00  0.00    -0.341 N 
ATOM     15  H4  UNL     1       0.539   1.755   0.459  1.00  0.00     0.167 HD
BRANCH  12  16
HETATM   16  C17 UNL     1      -3.378  -0.243  -0.557  1.00  0.00    -0.058 C 
HETATM   17  C18 UNL     1      -4.300  -0.992  -0.339  1.00  0.00    -0.061 C 
BRANCH  17  18
HETATM   18  C19 UNL     1      -5.400  -1.876  -0.107  1.00  0.00     0.024 A 
HETATM   19  C20 UNL     1      -5.762  -2.917  -0.928  1.00  0.00     0.021 A 
HETATM   20  C21 UNL     1      -6.839  -3.753  -0.660  1.00  0.00     0.002 A 
HETATM   21  C22 UNL     1      -7.568  -3.519   0.482  1.00  0.00     0.001 A 
HETATM   22  C23 UNL     1      -7.239  -2.489   1.330  1.00  0.00     0.009 A 
HETATM   23  C24 UNL     1      -6.177  -1.682   1.045  1.00  0.00    -0.036 A 
BRANCH  23  24
HETATM   24  C25 UNL     1      -5.819  -0.561   1.953  1.00  0.00     0.012 C 
HETATM   25  C26 UNL     1      -6.693  -0.657   3.186  1.00  0.00     0.015 C 
HETATM   26  C27 UNL     1      -6.125   0.772   1.277  1.00  0.00     0.015 C 
ENDBRANCH  23  24
ENDBRANCH  17  18
ENDBRANCH  12  16
BRANCH  13  27
HETATM   27  N3  UNL     1      -1.239   0.103   1.116  1.00  0.00    -0.384 N 
ATOM     28  H32 UNL     1      -2.003  -0.546   1.306  1.00  0.00     0.157 HD
ATOM     29  H31 UNL     1      -0.448   0.223   1.749  1.00  0.00     0.157 HD
ENDBRANCH  13  27
ENDBRANCH   8   9
BRANCH   1  30
HETATM   30  C7  UNL     1       2.531   1.563  -1.662  1.00  0.00    -0.004 A 
HETATM   31  C6  UNL     1       3.393   1.098  -0.684  1.00  0.00     0.062 A 
HETATM   32  C5  UNL     1       3.710  -0.260  -0.601  1.00  0.00     0.101 A 
HETATM   33  N5  UNL     1       3.196  -1.157  -1.455  1.00  0.00    -0.353 N 
HETATM   34  C30 UNL     1       2.360  -0.725  -2.408  1.00  0.00     0.090 A 
ATOM     35  H5  UNL     1       3.436  -2.146  -1.381  1.00  0.00     0.166 HD
HETATM   36  C29 UNL     1       2.022   0.617  -2.523  1.00  0.00     0.031 A 
BRANCH  32  37
HETATM   37  N1  UNL     1       4.513  -0.664   0.317  1.00  0.00    -0.374 N 
ATOM     38  H1  UNL     1       4.913   0.004   0.976  1.00  0.00     0.161 HD
BRANCH  37  39
HETATM   39  C4  UNL     1       4.845  -2.052   0.413  1.00  0.00     0.155 C 
BRANCH  39  40
HETATM   40  C3  UNL     1       5.767  -2.335   1.585  1.00  0.00     0.159 C 
BRANCH  40  41
HETATM   41  C2  UNL     1       7.102  -1.615   1.398  1.00  0.00     0.200 C 
BRANCH  41  42
HETATM   42  O1  UNL     1       7.912  -1.988   2.462  1.00  0.00    -0.393 OA
HETATM   43  C1  UNL     1       9.166  -1.392   2.404  1.00  0.00     0.201 C 
ENDBRANCH  41  42
ENDBRANCH  40  41
BRANCH  40  44
HETATM   44  O2  UNL     1       5.184  -1.974   2.777  1.00  0.00    -0.392 OA
ATOM     45  H2  UNL     1       4.354  -2.422   2.893  1.00  0.00     0.210 HD
ENDBRANCH  40  44
ENDBRANCH  39  40
ENDBRANCH  37  39
ENDBRANCH  32  37
ENDBRANCH   1  30
TORSDOF 12
