REMARK  10 active torsions:
REMARK  status: ('A' for Active; 'I' for Inactive)
REMARK    1  A    between atoms: C2_2  and  C3_3 
REMARK    2  A    between atoms: C3_3  and  C4_4 
REMARK    3  A    between atoms: C4_4  and  N1_6 
REMARK    4  A    between atoms: N1_6  and  C6_9 
REMARK    5  A    between atoms: C6_9  and  C7_10 
REMARK    6  A    between atoms: C7_10  and  O1_11 
REMARK    7  A    between atoms: C7_10  and  C8_13 
REMARK    8  A    between atoms: C23_28  and  O2_29 
REMARK    9  A    between atoms: C25_32  and  O3_33 
REMARK       I    between atoms: N2_37  and  C27_38 
REMARK   10  A    between atoms: C27_38  and  C28_40 
ROOT
HETATM    1  C8  UNL     1       1.339  -1.273  -0.196  1.00  0.00     0.121 C 
HETATM    2  C9  UNL     1       0.685  -0.181  -1.023  1.00  0.00     0.029 C 
HETATM    3  C10 UNL     1       0.212   0.845  -0.044  1.00  0.00     0.017 C 
HETATM    4  C11 UNL     1      -0.890   0.312   0.844  1.00  0.00     0.021 C 
HETATM    5  C12 UNL     1      -0.560   0.888   2.253  1.00  0.00     0.021 C 
HETATM    6  C13 UNL     1      -2.148   0.993   0.392  1.00  0.00     0.038 C 
HETATM    7  C14 UNL     1      -2.377   2.318   1.089  1.00  0.00     0.036 C 
HETATM    8  C15 UNL     1      -3.718   2.868   0.726  1.00  0.00    -0.023 C 
HETATM    9  C16 UNL     1      -4.656   2.208   0.146  1.00  0.00    -0.072 C 
HETATM   10  C17 UNL     1      -5.959   2.864  -0.171  1.00  0.00     0.034 C 
HETATM   11  C18 UNL     1      -6.098   2.775  -1.678  1.00  0.00     0.004 C 
HETATM   12  C19 UNL     1      -5.760   1.452  -2.263  1.00  0.00     0.001 C 
HETATM   13  C20 UNL     1      -4.498   0.811  -1.775  1.00  0.00     0.017 C 
HETATM   14  C21 UNL     1      -4.535   0.796  -0.260  1.00  0.00     0.011 C 
HETATM   15  C22 UNL     1      -5.784  -0.000   0.115  1.00  0.00     0.023 C 
HETATM   16  C23 UNL     1      -3.374   0.138   0.394  1.00  0.00     0.076 C 
HETATM   17  C24 UNL     1      -3.014  -1.084  -0.458  1.00  0.00     0.076 C 
HETATM   18  C25 UNL     1      -1.913  -1.890   0.158  1.00  0.00     0.182 C 
HETATM   19  C26 UNL     1      -0.927  -1.132   0.986  1.00  0.00     0.214 C 
HETATM   20  F1  UNL     1      -1.246  -1.446   2.327  1.00  0.00    -0.215 F 
HETATM   21  N2  UNL     1       0.384  -1.773   0.758  1.00  0.00    -0.306 N 
HETATM   22  C27 UNL     1       0.698  -2.974   1.473  1.00  0.00     0.222 C 
HETATM   23  O4  UNL     1      -0.172  -3.399   2.305  1.00  0.00    -0.273 OA
ENDROOT
BRANCH   1  24
HETATM   24  C7  UNL     1       2.691  -0.955   0.292  1.00  0.00     0.166 C 
BRANCH  24  25
HETATM   25  C6  UNL     1       3.441  -0.234  -0.871  1.00  0.00     0.266 C 
BRANCH  25  26
HETATM   26  N1  UNL     1       4.838  -0.049  -0.453  1.00  0.00    -0.069 N 
ATOM     27  H12 UNL     1       5.298  -0.917  -0.178  1.00  0.00     0.277 HD
ATOM     28  H11 UNL     1       4.934   0.432   0.441  1.00  0.00     0.277 HD
BRANCH  26  29
HETATM   29  C4  UNL     1       5.498   0.632  -1.548  1.00  0.00     0.182 C 
HETATM   30  C5  UNL     1       5.448  -0.282  -2.758  1.00  0.00     0.040 C 
BRANCH  29  31
HETATM   31  C3  UNL     1       6.890   1.083  -1.245  1.00  0.00     0.032 C 
BRANCH  31  32
HETATM   32  C2  UNL     1       7.000   1.998  -0.052  1.00  0.00    -0.002 C 
HETATM   33  C1  UNL     1       6.530   1.401   1.236  1.00  0.00     0.005 C 
ENDBRANCH  31  32
ENDBRANCH  29  31
ENDBRANCH  26  29
ENDBRANCH  25  26
ENDBRANCH  24  25
BRANCH  24  34
HETATM   34  O1  UNL     1       2.807  -0.070   1.339  1.00  0.00    -0.392 OA
ATOM     35  H1  UNL     1       2.350  -0.509   2.047  1.00  0.00     0.210 HD
ENDBRANCH  24  34
ENDBRANCH   1  24
BRANCH  22  36
HETATM   36  C28 UNL     1       1.902  -3.786   1.364  1.00  0.00     0.098 C 
HETATM   37  C29 UNL     1       1.657  -5.132   2.077  1.00  0.00     0.014 C 
ENDBRANCH  22  36
BRANCH  18  38
HETATM   38  O3  UNL     1      -2.550  -2.883   0.902  1.00  0.00    -0.390 OA
ATOM     39  H3  UNL     1      -1.851  -3.394   1.293  1.00  0.00     0.210 HD
ENDBRANCH  18  38
BRANCH  16  40
HETATM   40  O2  UNL     1      -3.776  -0.234   1.676  1.00  0.00    -0.388 OA
ATOM     41  H2  UNL     1      -4.555  -0.777   1.677  1.00  0.00     0.210 HD
ENDBRANCH  16  40
TORSDOF 10
