REMARK  10 active torsions:
REMARK  status: ('A' for Active; 'I' for Inactive)
REMARK    1  A    between atoms: C2_2  and  N1_3 
REMARK    2  A    between atoms: N1_3  and  C3_5 
REMARK    3  A    between atoms: C9_14  and  C10_15 
REMARK    4  A    between atoms: C10_15  and  C11_16 
REMARK    5  A    between atoms: C16_23  and  N4_24 
REMARK    6  A    between atoms: N4_24  and  C17_26 
REMARK    7  A    between atoms: C20_31  and  N6_32 
REMARK    8  A    between atoms: N6_32  and  C21_34 
REMARK    9  A    between atoms: C21_34  and  C22_35 
REMARK   10  A    between atoms: C22_35  and  O1_36 
ROOT
HETATM    1  C11 UNL     1      -2.065  -0.562  -0.243  1.00  0.00    -0.045 A 
HETATM    2  C12 UNL     1      -2.517  -0.997   0.983  1.00  0.00     0.017 A 
HETATM    3  C13 UNL     1      -1.686  -1.455   1.985  1.00  0.00    -0.032 A 
HETATM    4  C14 UNL     1      -2.187  -1.923   3.305  1.00  0.00     0.050 C 
HETATM    5  C15 UNL     1      -0.327  -1.482   1.754  1.00  0.00     0.083 A 
HETATM    6  N3  UNL     1       0.757  -1.851   2.465  1.00  0.00    -0.189 N 
ATOM      7  H3  UNL     1       0.738  -2.218   3.416  1.00  0.00     0.184 HD
HETATM    8  C16 UNL     1       1.872  -1.661   1.727  1.00  0.00     0.684 A 
HETATM    9  N8  UNL     1       1.518  -1.170   0.537  1.00  0.00    -0.189 N 
ATOM     10  H8  UNL     1       2.151  -0.929  -0.226  1.00  0.00     0.184 HD
HETATM   11  C24 UNL     1       0.174  -1.049   0.522  1.00  0.00     0.083 A 
HETATM   12  C25 UNL     1      -0.703  -0.596  -0.455  1.00  0.00    -0.026 A 
HETATM   13  C26 UNL     1      -0.164  -0.137  -1.761  1.00  0.00     0.051 C 
ENDROOT
BRANCH   8  14
HETATM   14  N4  UNL     1       3.081  -1.912   2.103  1.00  0.00    -0.176 N 
ATOM     15  H4  UNL     1       3.256  -2.289   3.035  1.00  0.00     0.186 HD
BRANCH  14  16
HETATM   16  C17 UNL     1       4.185  -1.662   1.211  1.00  0.00     0.138 A 
HETATM   17  C18 UNL     1       4.322  -2.366   0.039  1.00  0.00     0.067 A 
HETATM   18  C19 UNL     1       5.390  -2.091  -0.773  1.00  0.00     0.110 A 
HETATM   19  N5  UNL     1       6.275  -1.138  -0.400  1.00  0.00    -0.202 N 
HETATM   20  C20 UNL     1       6.170  -0.430   0.739  1.00  0.00     0.679 A 
ATOM     21  H5  UNL     1       7.065  -0.946  -1.016  1.00  0.00     0.183 HD
HETATM   22  N7  UNL     1       5.097  -0.737   1.510  1.00  0.00    -0.176 N 
ATOM     23  H7  UNL     1       4.979  -0.222   2.383  1.00  0.00     0.186 HD
BRANCH  20  24
HETATM   24  N6  UNL     1       7.004   0.484   1.113  1.00  0.00    -0.224 N 
ATOM     25  H6  UNL     1       6.840   0.969   1.995  1.00  0.00     0.177 HD
BRANCH  24  26
HETATM   26  C21 UNL     1       8.157   0.842   0.328  1.00  0.00     0.164 C 
BRANCH  26  27
HETATM   27  C22 UNL     1       7.843   1.842  -0.741  1.00  0.00     0.187 C 
BRANCH  27  28
HETATM   28  O1  UNL     1       8.937   2.179  -1.494  1.00  0.00    -0.394 OA
HETATM   29  C23 UNL     1       9.990   2.747  -0.841  1.00  0.00     0.201 C 
ENDBRANCH  27  28
ENDBRANCH  26  27
ENDBRANCH  24  26
ENDBRANCH  20  24
ENDBRANCH  14  16
ENDBRANCH   8  14
BRANCH   1  30
HETATM   30  C10 UNL     1      -2.922  -0.070  -1.330  1.00  0.00     0.082 C 
BRANCH  30  31
HETATM   31  C9  UNL     1      -4.343  -0.050  -1.051  1.00  0.00    -0.003 A 
HETATM   32  C3  UNL     1      -4.888   0.926  -0.255  1.00  0.00     0.108 A 
HETATM   33  N2  UNL     1      -6.220   0.950   0.015  1.00  0.00    -0.344 N 
HETATM   34  C4  UNL     1      -7.047   0.019  -0.489  1.00  0.00     0.029 A 
ATOM     35  H2  UNL     1      -6.598   1.687   0.610  1.00  0.00     0.167 HD
HETATM   36  C5  UNL     1      -8.511   0.064  -0.179  1.00  0.00     0.070 C 
HETATM   37  C6  UNL     1      -6.556  -0.975  -1.288  1.00  0.00     0.062 A 
HETATM   38 CL1  UNL     1      -7.617  -2.180  -1.942  1.00  0.00    -0.082 Cl
HETATM   39  C7  UNL     1      -5.183  -1.002  -1.568  1.00  0.00    -0.028 A 
HETATM   40  C8  UNL     1      -4.682  -2.076  -2.425  1.00  0.00     0.050 C 
BRANCH  32  41
HETATM   41  N1  UNL     1      -4.160   1.855   0.263  1.00  0.00    -0.376 N 
ATOM     42  H1  UNL     1      -3.161   1.836   0.059  1.00  0.00     0.161 HD
BRANCH  41  43
HETATM   43  C2  UNL     1      -4.638   2.909   1.099  1.00  0.00     0.116 C 
HETATM   44  C1  UNL     1      -3.526   3.944   1.209  1.00  0.00     0.026 C 
ENDBRANCH  41  43
ENDBRANCH  32  41
ENDBRANCH  30  31
ENDBRANCH   1  30
TORSDOF 10
