REMARK  9 active torsions:
REMARK  status: ('A' for Active; 'I' for Inactive)
REMARK    1  A    between atoms: C5_5  and  C6_6 
REMARK    2  A    between atoms: C6_6  and  C7_8 
REMARK    3  A    between atoms: C7_8  and  C8_9 
REMARK    4  A    between atoms: C8_9  and  O2_10 
REMARK    5  A    between atoms: C9_12  and  C10_13 
REMARK    6  A    between atoms: C10_13  and  C11_14 
REMARK    7  A    between atoms: C15_20  and  O5_21 
REMARK    8  A    between atoms: C22_30  and  C23_31 
REMARK    9  A    between atoms: C24_32  and  O7_33 
ROOT
HETATM    1  C1  UNL     1       1.378   0.525  -3.066  1.00  0.00     0.016 C 
HETATM    2  C2  UNL     1       0.966  -0.260  -1.810  1.00  0.00    -0.036 C 
HETATM    3  C3  UNL     1       2.168  -1.221  -1.650  1.00  0.00     0.011 C 
HETATM    4  C4  UNL     1       3.390  -0.396  -1.340  1.00  0.00     0.013 C 
HETATM    5  C5  UNL     1       3.138   0.143   0.039  1.00  0.00     0.061 C 
HETATM    6  C9  UNL     1       1.743   0.435   0.439  1.00  0.00     0.016 C 
HETATM    7  C12 UNL     1       0.731   0.587  -0.634  1.00  0.00    -0.025 C 
HETATM    8  C13 UNL     1       0.796   2.087  -0.968  1.00  0.00     0.017 C 
HETATM    9  C14 UNL     1      -0.699   0.320  -0.069  1.00  0.00     0.033 C 
HETATM   10  C15 UNL     1      -0.781  -0.919   0.750  1.00  0.00     0.124 C 
HETATM   11  C16 UNL     1      -1.979  -1.770   0.654  1.00  0.00     0.042 C 
HETATM   12  C17 UNL     1      -3.296  -1.023   0.413  1.00  0.00    -0.023 C 
HETATM   13  C18 UNL     1      -4.025  -1.072   1.697  1.00  0.00     0.016 C 
HETATM   14  C19 UNL     1      -4.147  -1.948  -0.490  1.00  0.00     0.088 C 
HETATM   15  C20 UNL     1      -4.527  -1.148  -1.660  1.00  0.00     0.128 C 
HETATM   16  O6  UNL     1      -4.892  -1.537  -2.749  1.00  0.00    -0.298 OA
HETATM   17  C21 UNL     1      -4.353   0.189  -1.172  1.00  0.00     0.093 C 
HETATM   18  C22 UNL     1      -3.093   0.273  -0.263  1.00  0.00     0.001 C 
HETATM   19  C25 UNL     1      -1.806   0.387  -1.068  1.00  0.00    -0.025 C 
HETATM   20  C26 UNL     1      -1.982   1.626  -1.858  1.00  0.00     0.016 C 
HETATM   21  C27 UNL     1      -1.526  -0.651  -2.101  1.00  0.00     0.011 C 
HETATM   22  C28 UNL     1      -0.125  -1.174  -2.209  1.00  0.00     0.011 C 
ENDROOT
BRANCH   5  23
HETATM   23  C6  UNL     1       3.795  -0.876   0.937  1.00  0.00     0.133 C 
HETATM   24  O1  UNL     1       3.102  -1.487   1.695  1.00  0.00    -0.297 OA
BRANCH  23  25
HETATM   25  C7  UNL     1       5.241  -1.143   0.909  1.00  0.00     0.104 C 
BRANCH  25  26
HETATM   26  C8  UNL     1       5.653  -2.204   1.909  1.00  0.00     0.171 C 
BRANCH  26  27
HETATM   27  O2  UNL     1       5.340  -1.836   3.220  1.00  0.00    -0.400 OA
ATOM     28  H2  UNL     1       5.598  -2.501   3.847  1.00  0.00     0.209 HD
ENDBRANCH  26  27
ENDBRANCH  25  26
ENDBRANCH  23  25
ENDBRANCH   5  23
BRANCH   6  29
HETATM   29  C10 UNL     1       1.842   1.673   1.343  1.00  0.00     0.119 C 
BRANCH  29  30
HETATM   30  C11 UNL     1       2.643   1.472   2.558  1.00  0.00     0.172 C 
HETATM   31  O3  UNL     1       2.079   1.031   3.586  1.00  0.00    -0.648 OA
HETATM   32  O4  UNL     1       3.985   1.752   2.614  1.00  0.00    -0.648 OA
ENDBRANCH  29  30
ENDBRANCH   6  29
BRANCH  10  33
HETATM   33  O5  UNL     1      -0.609  -0.710   2.147  1.00  0.00    -0.395 OA
ATOM     34  H5  UNL     1      -0.661  -1.501   2.670  1.00  0.00     0.210 HD
ENDBRANCH  10  33
BRANCH  18  35
HETATM   35  C23 UNL     1      -3.383   1.568   0.395  1.00  0.00     0.009 C 
HETATM   36  C24 UNL     1      -2.880   2.212   1.570  1.00  0.00     0.128 C 
BRANCH  36  37
HETATM   37  O7  UNL     1      -3.031   1.618   2.821  1.00  0.00    -0.373 OA
ATOM     38  H7  UNL     1      -2.697   2.045   3.601  1.00  0.00     0.216 HD
ENDBRANCH  36  37
ENDBRANCH  18  35
TORSDOF 9
