REMARK  12 active torsions:
REMARK  status: ('A' for Active; 'I' for Inactive)
REMARK    1  A    between atoms: C3_3  and  C5_5 
REMARK    2  A    between atoms: C5_5  and  O1_6 
REMARK    3  A    between atoms: C14_16  and  O2_17 
REMARK    4  A    between atoms: C18_22  and  C19_23 
REMARK    5  A    between atoms: C19_23  and  C21_25 
REMARK    6  A    between atoms: C21_25  and  C22_26 
REMARK    7  A    between atoms: C23_27  and  C25_29 
REMARK    8  A    between atoms: C25_29  and  O3_30 
REMARK    9  A    between atoms: C26_32  and  C27_33 
REMARK   10  A    between atoms: C27_33  and  C28_34 
REMARK   11  A    between atoms: C32_39  and  O4_40 
REMARK   12  A    between atoms: C33_42  and  O5_43 
ROOT
HETATM    1  C5  UNL     1      -3.346   1.265   0.147  1.00  0.00     0.133 C 
HETATM    2  C6  UNL     1      -2.270   0.293  -0.193  1.00  0.00    -0.033 C 
HETATM    3  C7  UNL     1      -2.622  -0.859  -0.689  1.00  0.00    -0.019 C 
HETATM    4  C8  UNL     1      -1.622  -1.915  -1.069  1.00  0.00     0.034 C 
HETATM    5  C9  UNL     1      -0.389  -1.677  -0.252  1.00  0.00     0.015 C 
HETATM    6  C10 UNL     1       0.463  -2.854  -0.266  1.00  0.00    -0.015 C 
HETATM    7  C11 UNL     1       0.008  -3.949  -1.205  1.00  0.00     0.020 C 
HETATM    8  C12 UNL     1       0.469  -3.605   1.094  1.00  0.00     0.016 C 
HETATM    9  C13 UNL     1       1.267  -4.881   0.964  1.00  0.00     0.033 C 
HETATM   10  C14 UNL     1       2.633  -4.756   0.396  1.00  0.00     0.122 C 
HETATM   11  C15 UNL     1       2.757  -3.767  -0.756  1.00  0.00     0.066 C 
HETATM   12  C16 UNL     1       1.910  -2.586  -0.406  1.00  0.00    -0.069 C 
HETATM   13  C17 UNL     1       2.350  -1.393  -0.143  1.00  0.00     0.007 C 
HETATM   14  C18 UNL     1       1.450  -0.309   0.299  1.00  0.00    -0.065 C 
HETATM   15  C26 UNL     1       0.189  -0.286  -0.443  1.00  0.00     0.001 C 
HETATM   16  C29 UNL     1      -0.845   0.708   0.145  1.00  0.00    -0.003 C 
HETATM   17  C30 UNL     1      -0.638   2.054  -0.445  1.00  0.00     0.021 C 
HETATM   18  C31 UNL     1      -0.928   0.694   1.630  1.00  0.00     0.049 C 
HETATM   19  C32 UNL     1      -1.876   1.779   2.109  1.00  0.00     0.151 C 
HETATM   20  C33 UNL     1      -3.293   1.596   1.621  1.00  0.00     0.190 C 
ENDROOT
BRANCH  14  21
HETATM   21  C19 UNL     1       2.271   0.833   0.676  1.00  0.00     0.015 C 
HETATM   22  C20 UNL     1       3.183   0.301   1.827  1.00  0.00     0.015 C 
BRANCH  21  23
HETATM   23  C21 UNL     1       3.318   1.388  -0.225  1.00  0.00     0.036 C 
BRANCH  23  24
HETATM   24  C22 UNL     1       3.975   2.536   0.421  1.00  0.00    -0.022 C 
HETATM   25  C23 UNL     1       4.009   3.776   0.032  1.00  0.00    -0.064 C 
HETATM   26  C24 UNL     1       4.752   4.800   0.857  1.00  0.00     0.045 C 
BRANCH  25  27
HETATM   27  C25 UNL     1       3.353   4.280  -1.179  1.00  0.00     0.197 C 
BRANCH  27  28
HETATM   28  O3  UNL     1       4.278   4.848  -2.078  1.00  0.00    -0.397 OA
ATOM     29  H3  UNL     1       3.853   5.174  -2.862  1.00  0.00     0.209 HD
ENDBRANCH  27  28
ENDBRANCH  25  27
ENDBRANCH  23  24
ENDBRANCH  21  23
ENDBRANCH  14  21
BRANCH  15  30
HETATM   30  C27 UNL     1       0.210   0.020  -1.889  1.00  0.00     0.030 C 
BRANCH  30  31
HETATM   31  C28 UNL     1       0.932  -0.709  -2.913  1.00  0.00     0.116 C 
HETATM   32 CL1  UNL     1       0.576   0.173  -4.483  1.00  0.00    -0.130 Cl
ENDBRANCH  30  31
ENDBRANCH  15  30
BRANCH  10  33
HETATM   33  O2  UNL     1       3.609  -4.519   1.374  1.00  0.00    -0.395 OA
ATOM     34  H2  UNL     1       4.483  -4.439   1.011  1.00  0.00     0.210 HD
ENDBRANCH  10  33
BRANCH   1  35
HETATM   35  C3  UNL     1      -4.722   0.873  -0.205  1.00  0.00    -0.047 C 
HETATM   36  C2  UNL     1      -5.690   0.625   0.680  1.00  0.00    -0.025 C 
HETATM   37  C1  UNL     1      -7.042   0.243   0.126  1.00  0.00     0.036 C 
HETATM   38  C4  UNL     1      -5.151   0.726  -1.655  1.00  0.00     0.046 C 
ENDBRANCH   1  35
BRANCH   1  39
HETATM   39  O1  UNL     1      -3.226   2.483  -0.583  1.00  0.00    -0.378 OA
ATOM     40  H1  UNL     1      -2.339   2.736  -0.356  1.00  0.00     0.211 HD
ENDBRANCH   1  39
BRANCH  19  41
HETATM   41  O4  UNL     1      -1.889   1.571   3.523  1.00  0.00    -0.393 OA
ATOM     42  H4  UNL     1      -2.482   2.250   3.823  1.00  0.00     0.210 HD
ENDBRANCH  19  41
BRANCH  20  43
HETATM   43  O5  UNL     1      -3.990   2.764   1.846  1.00  0.00    -0.389 OA
ATOM     44  H5  UNL     1      -3.957   2.972   2.772  1.00  0.00     0.210 HD
ENDBRANCH  20  43
TORSDOF 12
