REMARK  12 active torsions:
REMARK  status: ('A' for Active; 'I' for Inactive)
REMARK    1  A    between atoms: C2_2  and  O1_4 
REMARK    2  A    between atoms: C2_2  and  C4_6 
REMARK    3  A    between atoms: C4_6  and  C5_7 
REMARK    4  A    between atoms: C5_7  and  C6_8 
REMARK    5  A    between atoms: C6_8  and  C7_9 
REMARK    6  A    between atoms: C7_9  and  N1_10 
REMARK    7  A    between atoms: N1_10  and  C8_13 
REMARK    8  A    between atoms: C8_13  and  C9_14 
REMARK    9  A    between atoms: C11_17  and  C12_18 
REMARK   10  A    between atoms: C21_28  and  O3_29 
REMARK   11  A    between atoms: C24_33  and  O4_34 
REMARK   12  A    between atoms: C30_42  and  O5_43 
ROOT
HETATM    1  C9  UNL     1      -0.203  -0.899  -0.115  1.00  0.00     0.089 C 
HETATM    2  C10 UNL     1       0.525  -0.676   1.247  1.00  0.00     0.048 C 
HETATM    3  O2  UNL     1       0.000  -2.250  -0.303  1.00  0.00    -0.371 OA
HETATM    4  C11 UNL     1      -0.191  -3.131   0.675  1.00  0.00     0.145 C 
HETATM    5  C15 UNL     1      -1.642  -3.591   0.877  1.00  0.00     0.035 C 
HETATM    6  C16 UNL     1      -2.601  -2.471   0.865  1.00  0.00     0.012 C 
HETATM    7  C17 UNL     1      -2.554  -1.594  -0.364  1.00  0.00    -0.030 C 
HETATM    8  C18 UNL     1      -2.274  -2.315  -1.636  1.00  0.00     0.016 C 
HETATM    9  C19 UNL     1      -4.018  -1.137  -0.504  1.00  0.00     0.003 C 
HETATM   10  C20 UNL     1      -4.691  -0.686   0.689  1.00  0.00     0.070 C 
HETATM   11  C21 UNL     1      -4.923   0.826   0.857  1.00  0.00     0.047 C 
HETATM   12  C22 UNL     1      -3.684   1.501   1.206  1.00  0.00    -0.037 C 
HETATM   13  C23 UNL     1      -3.984   2.676   2.152  1.00  0.00     0.069 C 
HETATM   14  C24 UNL     1      -4.274   3.955   1.497  1.00  0.00     0.122 C 
HETATM   15  C25 UNL     1      -3.725   4.166   0.145  1.00  0.00     0.033 C 
HETATM   16  C26 UNL     1      -2.636   3.282  -0.294  1.00  0.00     0.020 C 
HETATM   17  C27 UNL     1      -2.601   1.911   0.348  1.00  0.00     0.021 C 
HETATM   18  C28 UNL     1      -1.438   2.136   1.363  1.00  0.00     0.024 C 
HETATM   19  C29 UNL     1      -2.067   0.857  -0.660  1.00  0.00     0.147 C 
HETATM   20  F1  UNL     1      -1.113   1.668  -1.286  1.00  0.00    -0.238 F 
HETATM   21  C30 UNL     1      -3.104   0.785  -1.799  1.00  0.00     0.160 C 
HETATM   22  C31 UNL     1      -4.101  -0.291  -1.720  1.00  0.00     0.041 C 
HETATM   23  C32 UNL     1      -1.608  -0.406  -0.110  1.00  0.00     0.073 C 
ENDROOT
BRANCH   1  24
HETATM   24  C8  UNL     1       0.755  -0.208  -1.030  1.00  0.00     0.270 C 
BRANCH  24  25
HETATM   25  N1  UNL     1       2.152  -0.605  -0.637  1.00  0.00    -0.072 N 
ATOM     26  H12 UNL     1       2.337  -1.602  -0.748  1.00  0.00     0.277 HD
ATOM     27  H11 UNL     1       2.319  -0.558   0.368  1.00  0.00     0.277 HD
BRANCH  25  28
HETATM   28  C7  UNL     1       3.053   0.244  -1.417  1.00  0.00     0.232 C 
BRANCH  28  29
HETATM   29  C6  UNL     1       4.502   0.140  -0.911  1.00  0.00     0.027 C 
BRANCH  29  30
HETATM   30  C5  UNL     1       5.329   1.059  -1.749  1.00  0.00     0.004 C 
BRANCH  30  31
HETATM   31  C4  UNL     1       6.763   1.196  -1.514  1.00  0.00     0.037 C 
BRANCH  31  32
HETATM   32  C2  UNL     1       7.267   1.695  -0.205  1.00  0.00     0.051 C 
HETATM   33  C1  UNL     1       6.946   0.832   0.982  1.00  0.00     0.045 C 
HETATM   34  C3  UNL     1       8.784   1.863  -0.250  1.00  0.00     0.045 C 
BRANCH  32  35
HETATM   35  O1  UNL     1       6.788   3.021   0.031  1.00  0.00    -0.391 OA
ATOM     36  H1  UNL     1       6.991   3.567  -0.720  1.00  0.00     0.210 HD
ENDBRANCH  32  35
ENDBRANCH  31  32
ENDBRANCH  30  31
ENDBRANCH  29  30
ENDBRANCH  28  29
ENDBRANCH  25  28
ENDBRANCH  24  25
ENDBRANCH   1  24
BRANCH   4  37
HETATM   37  C12 UNL     1       0.587  -4.417   0.598  1.00  0.00     0.056 C 
HETATM   38  C13 UNL     1       2.082  -4.303   0.610  1.00  0.00     0.035 C 
HETATM   39  C14 UNL     1       0.243  -5.302   1.813  1.00  0.00     0.035 C 
HETATM   40 CL1  UNL     1       0.186  -5.440  -0.799  1.00  0.00    -0.117 Cl
ENDBRANCH   4  37
BRANCH  21  41
HETATM   41  O5  UNL     1      -2.472   0.825  -3.062  1.00  0.00    -0.392 OA
ATOM     42  H5  UNL     1      -3.111   0.781  -3.764  1.00  0.00     0.210 HD
ENDBRANCH  21  41
BRANCH  11  43
HETATM   43  O3  UNL     1      -5.889   1.355   0.124  1.00  0.00    -0.365 OA
ATOM     44  H3  UNL     1      -6.032   2.288   0.228  1.00  0.00     0.217 HD
ENDBRANCH  11  43
BRANCH  14  45
HETATM   45  O4  UNL     1      -3.795   4.987   2.344  1.00  0.00    -0.395 OA
ATOM     46  H4  UNL     1      -3.983   5.816   1.920  1.00  0.00     0.210 HD
ENDBRANCH  14  45
TORSDOF 12
