REMARK  10 active torsions:
REMARK  status: ('A' for Active; 'I' for Inactive)
REMARK    1  A    between atoms: C2_2  and  C3_3 
REMARK    2  A    between atoms: C2_2  and  C11_15 
REMARK    3  A    between atoms: C3_3  and  C4_4 
REMARK    4  A    between atoms: C5_5  and  C6_6 
REMARK    5  A    between atoms: C6_6  and  C8_8 
REMARK    6  A    between atoms: C6_6  and  C9_11 
REMARK    7  A    between atoms: C9_11  and  O3_13 
REMARK    8  A    between atoms: C16_20  and  O4_21 
REMARK    9  A    between atoms: C22_28  and  O5_29 
REMARK   10  A    between atoms: C24_32  and  O6_33 
ROOT
HETATM    1  C11 UNL     1       1.518  -0.584   0.460  1.00  0.00     0.005 C 
HETATM    2  C12 UNL     1       1.617  -1.146  -0.906  1.00  0.00     0.006 C 
HETATM    3  C13 UNL     1       0.173  -0.775  -1.358  1.00  0.00     0.007 C 
HETATM    4  C14 UNL     1      -0.610  -1.455  -0.251  1.00  0.00     0.010 C 
HETATM    5  C15 UNL     1      -2.029  -1.142  -0.194  1.00  0.00     0.044 C 
HETATM    6  C16 UNL     1      -2.461  -0.510  -1.501  1.00  0.00     0.124 C 
HETATM    7  C17 UNL     1      -3.999  -0.502  -1.460  1.00  0.00     0.038 C 
HETATM    8  C18 UNL     1      -4.342   0.593  -0.463  1.00  0.00     0.011 C 
HETATM    9  C19 UNL     1      -5.771   0.927  -0.627  1.00  0.00    -0.017 C 
HETATM   10  C20 UNL     1      -6.169   2.294  -0.111  1.00  0.00     0.018 C 
HETATM   11  C21 UNL     1      -6.066   0.982  -2.139  1.00  0.00     0.018 C 
HETATM   12  C22 UNL     1      -6.701  -0.163  -0.107  1.00  0.00     0.128 C 
HETATM   13  C23 UNL     1      -6.347  -0.420   1.313  1.00  0.00     0.065 C 
HETATM   14  C24 UNL     1      -4.938  -0.822   1.518  1.00  0.00     0.131 C 
HETATM   15  C25 UNL     1      -3.917   0.148   0.902  1.00  0.00     0.009 C 
HETATM   16  C26 UNL     1      -3.974   1.326   1.897  1.00  0.00     0.020 C 
HETATM   17  C27 UNL     1      -2.547  -0.395   1.003  1.00  0.00     0.060 C 
HETATM   18 CL1  UNL     1      -2.611  -1.501   2.437  1.00  0.00    -0.117 Cl
HETATM   19  C28 UNL     1      -1.453   0.581   1.377  1.00  0.00     0.106 C 
HETATM   20  C29 UNL     1      -0.368  -0.321   1.937  1.00  0.00     0.137 C 
HETATM   21  O7  UNL     1      -0.038  -0.285   3.086  1.00  0.00    -0.297 OA
HETATM   22  C30 UNL     1       0.253  -1.249   0.967  1.00  0.00     0.025 C 
HETATM   23  C31 UNL     1       0.631  -2.569   1.561  1.00  0.00     0.024 C 
ENDROOT
BRANCH   1  24
HETATM   24  C2  UNL     1       2.662  -0.455   1.317  1.00  0.00    -0.010 C 
HETATM   25  C1  UNL     1       3.497  -1.625   1.697  1.00  0.00     0.010 C 
BRANCH  24  26
HETATM   26  C3  UNL     1       3.556   0.708   0.997  1.00  0.00     0.031 C 
BRANCH  26  27
HETATM   27  C4  UNL     1       4.541   0.508  -0.076  1.00  0.00    -0.029 C 
HETATM   28  C5  UNL     1       5.855   0.617   0.187  1.00  0.00    -0.008 C 
BRANCH  28  29
HETATM   29  C6  UNL     1       6.917   0.437  -0.811  1.00  0.00     0.087 C 
HETATM   30  C7  UNL     1       6.529   0.975  -2.169  1.00  0.00     0.034 C 
BRANCH  29  31
HETATM   31  C8  UNL     1       7.359  -0.951  -0.963  1.00  0.00     0.188 C 
HETATM   32  O1  UNL     1       7.264  -1.546  -2.063  1.00  0.00    -0.647 OA
HETATM   33  O2  UNL     1       7.908  -1.683   0.106  1.00  0.00    -0.647 OA
ENDBRANCH  29  31
BRANCH  29  34
HETATM   34  C9  UNL     1       8.138   1.246  -0.369  1.00  0.00     0.136 C 
HETATM   35  C10 UNL     1       7.806   2.715  -0.258  1.00  0.00     0.041 C 
BRANCH  34  36
HETATM   36  O3  UNL     1       8.654   0.746   0.822  1.00  0.00    -0.394 OA
ATOM     37  H3  UNL     1       9.412   1.248   1.096  1.00  0.00     0.210 HD
ENDBRANCH  34  36
ENDBRANCH  29  34
ENDBRANCH  28  29
ENDBRANCH  26  27
ENDBRANCH  24  26
ENDBRANCH   1  24
BRANCH   6  38
HETATM   38  O4  UNL     1      -2.126   0.805  -1.665  1.00  0.00    -0.395 OA
ATOM     39  H4  UNL     1      -2.397   1.201  -2.485  1.00  0.00     0.210 HD
ENDBRANCH   6  38
BRANCH  14  40
HETATM   40  O6  UNL     1      -4.724  -2.129   1.117  1.00  0.00    -0.395 OA
ATOM     41  H6  UNL     1      -3.819  -2.387   1.249  1.00  0.00     0.210 HD
ENDBRANCH  14  40
BRANCH  12  42
HETATM   42  O5  UNL     1      -7.999   0.260  -0.255  1.00  0.00    -0.395 OA
ATOM     43  H5  UNL     1      -8.579  -0.419   0.069  1.00  0.00     0.210 HD
ENDBRANCH  12  42
TORSDOF 10
