REMARK  8 active torsions:
REMARK  status: ('A' for Active; 'I' for Inactive)
REMARK    1  A    between atoms: C2_2  and  C3_3 
REMARK    2  A    between atoms: C3_3  and  C4_4 
REMARK    3  A    between atoms: C4_4  and  O2_6 
REMARK    4  A    between atoms: O2_6  and  C5_7 
REMARK    5  A    between atoms: C22_26  and  O4_27 
REMARK    6  A    between atoms: N2_29  and  C23_30 
REMARK    7  A    between atoms: C23_30  and  C24_31 
REMARK    8  A    between atoms: C25_33  and  O5_34 
ROOT
HETATM    1  C5  UNL     1       2.973   0.810  -1.074  1.00  0.00     0.188 C 
HETATM    2  C6  UNL     1       4.008   1.531  -1.897  1.00  0.00     0.084 C 
HETATM    3  C7  UNL     1       2.832   1.414   0.297  1.00  0.00     0.044 C 
HETATM    4  C8  UNL     1       1.691   1.385   0.959  1.00  0.00    -0.067 C 
HETATM    5  C9  UNL     1       1.658   2.008   2.302  1.00  0.00     0.044 C 
HETATM    6  C10 UNL     1       0.495   0.741   0.364  1.00  0.00     0.038 C 
HETATM    7  C11 UNL     1      -0.014  -0.235   1.399  1.00  0.00     0.052 C 
HETATM    8  C12 UNL     1      -0.952  -1.249   0.769  1.00  0.00     0.282 C 
HETATM    9  N1  UNL     1      -2.304  -0.862   0.904  1.00  0.00     0.157 N 
HETATM   10  C13 UNL     1      -2.762   0.209   0.124  1.00  0.00     0.404 C 
HETATM   11  O3  UNL     1      -2.866  -0.663  -0.953  1.00  0.00    -0.312 OA
HETATM   12  C14 UNL     1      -3.185  -1.648   0.021  1.00  0.00     0.266 C 
HETATM   13  C15 UNL     1      -4.585  -1.590   0.484  1.00  0.00     0.072 C 
HETATM   14  C16 UNL     1      -5.356  -2.836   0.595  1.00  0.00     0.005 C 
HETATM   15  C17 UNL     1      -4.839  -4.006  -0.172  1.00  0.00     0.000 C 
HETATM   16  C18 UNL     1      -3.369  -4.157   0.243  1.00  0.00     0.005 C 
HETATM   17  C19 UNL     1      -2.686  -2.961  -0.422  1.00  0.00     0.072 C 
HETATM   18  C20 UNL     1      -1.939   1.395  -0.009  1.00  0.00     0.063 A 
HETATM   19  C21 UNL     1      -0.597   1.703   0.076  1.00  0.00     0.023 A 
HETATM   20  C22 UNL     1      -0.440   3.057  -0.157  1.00  0.00     0.152 A 
HETATM   21  N2  UNL     1      -1.630   3.595  -0.381  1.00  0.00    -0.306 N 
HETATM   22  C25 UNL     1      -2.553   2.628  -0.300  1.00  0.00     0.155 A 
HETATM   23  C26 UNL     1       0.863   0.066  -0.944  1.00  0.00     0.191 C 
HETATM   24  O6  UNL     1       1.692   0.943  -1.642  1.00  0.00    -0.350 OA
ENDROOT
BRANCH  20  25
HETATM   25  O4  UNL     1       0.805   3.705  -0.146  1.00  0.00    -0.345 OA
ATOM     26  H4  UNL     1       0.913   4.635  -0.306  1.00  0.00     0.219 HD
ENDBRANCH  20  25
BRANCH   1  27
HETATM   27  O2  UNL     1       3.277  -0.550  -1.036  1.00  0.00    -0.280 OA
BRANCH  27  28
HETATM   28  C4  UNL     1       4.429  -1.092  -0.540  1.00  0.00     0.261 C 
HETATM   29  O1  UNL     1       5.304  -0.330  -0.073  1.00  0.00    -0.265 OA
BRANCH  28  30
HETATM   30  C3  UNL     1       4.626  -2.546  -0.559  1.00  0.00     0.111 C 
BRANCH  30  31
HETATM   31  C2  UNL     1       5.955  -2.962   0.029  1.00  0.00     0.005 C 
HETATM   32  C1  UNL     1       6.052  -2.515   1.454  1.00  0.00     0.005 C 
ENDBRANCH  30  31
ENDBRANCH  28  30
ENDBRANCH  27  28
ENDBRANCH   1  27
BRANCH  22  33
HETATM   33  O5  UNL     1      -3.933   2.845  -0.485  1.00  0.00    -0.345 OA
ATOM     34  H5  UNL     1      -4.347   3.677  -0.681  1.00  0.00     0.219 HD
ENDBRANCH  22  33
BRANCH  21  35
HETATM   35  C23 UNL     1      -1.918   4.990  -0.668  1.00  0.00     0.148 C 
BRANCH  35  36
HETATM   36  C24 UNL     1      -1.866   5.194  -2.165  1.00  0.00     0.135 C 
HETATM   37 CL1  UNL     1      -2.228   6.927  -2.460  1.00  0.00    -0.129 Cl
ENDBRANCH  35  36
ENDBRANCH  21  35
TORSDOF 8
