REMARK  5 active torsions:
REMARK  status: ('A' for Active; 'I' for Inactive)
REMARK    1  A    between atoms: N1_4  and  C4_5 
REMARK    2  A    between atoms: C4_5  and  C5_6 
REMARK    3  A    between atoms: C5_6  and  C6_7 
REMARK    4  A    between atoms: C6_7  and  C7_8 
REMARK    5  A    between atoms: C7_8  and  N2_9 
ROOT
HETATM    1  C1  UNL     1      -3.329   3.486  -0.154  1.00  0.00     0.041 C 
HETATM    2  C2  UNL     1      -3.274   2.005  -0.489  1.00  0.00     0.200 C 
HETATM    3  C3  UNL     1      -1.838   1.599  -0.542  1.00  0.00     0.157 C 
HETATM    4  N1  UNL     1      -1.588   0.203  -0.635  1.00  0.00    -0.364 N 
HETATM    5  C13 UNL     1      -2.289  -1.012  -0.432  1.00  0.00     0.127 A 
HETATM    6  N4  UNL     1      -1.321  -1.949  -0.249  1.00  0.00    -0.337 N 
ATOM      7  H4  UNL     1      -0.340  -1.671  -0.284  1.00  0.00     0.167 HD
HETATM    8  C14 UNL     1      -1.637  -3.237  -0.022  1.00  0.00     0.087 A 
HETATM    9  C15 UNL     1      -0.911  -4.392   0.197  1.00  0.00     0.058 A 
HETATM   10  C16 UNL     1      -1.823  -5.410   0.367  1.00  0.00     0.147 A 
HETATM   11  O1  UNL     1      -3.001  -4.876   0.253  1.00  0.00    -0.304 OA
HETATM   12  C17 UNL     1      -2.955  -3.585   0.022  1.00  0.00     0.174 A 
HETATM   13  N5  UNL     1      -3.915  -2.635  -0.163  1.00  0.00    -0.335 N 
ATOM     14  H5  UNL     1      -4.894  -2.917  -0.127  1.00  0.00     0.168 HD
HETATM   15  C18 UNL     1      -3.626  -1.342  -0.391  1.00  0.00     0.058 A 
HETATM   16  C19 UNL     1      -4.927  -0.652  -0.540  1.00  0.00     0.099 C 
HETATM   17  C20 UNL     1      -5.086   0.608   0.230  1.00  0.00     0.124 C 
HETATM   18  C21 UNL     1      -5.975   1.523  -0.632  1.00  0.00     0.046 C 
HETATM   19  C22 UNL     1      -5.883   0.412   1.528  1.00  0.00     0.046 C 
HETATM   20  N6  UNL     1      -3.873   1.266   0.605  1.00  0.00    -0.061 N 
ATOM     21  H61 UNL     1      -4.019   1.868   1.416  1.00  0.00     0.278 HD
ATOM     22  H62 UNL     1      -3.208   0.605   1.007  1.00  0.00     0.278 HD
ENDROOT
BRANCH   4  23
HETATM   23  C4  UNL     1      -0.209  -0.060  -1.054  1.00  0.00     0.124 C 
BRANCH  23  24
HETATM   24  C5  UNL     1       0.667   0.364   0.096  1.00  0.00     0.021 C 
BRANCH  24  25
HETATM   25  C6  UNL     1       2.135   0.133  -0.222  1.00  0.00     0.021 C 
BRANCH  25  26
HETATM   26  C7  UNL     1       2.901   0.583   1.009  1.00  0.00     0.117 C 
BRANCH  26  27
HETATM   27  N2  UNL     1       4.309   0.431   0.894  1.00  0.00    -0.409 N 
HETATM   28  C8  UNL     1       4.798  -0.907   0.843  1.00  0.00     0.147 C 
HETATM   29  C9  UNL     1       6.325  -0.835   0.813  1.00  0.00     0.291 C 
HETATM   30  N3  UNL     1       6.708  -0.298  -0.461  1.00  0.00     0.087 N 
HETATM   31  C10 UNL     1       8.130  -0.009  -0.522  1.00  0.00     0.310 C 
HETATM   32  C11 UNL     1       5.901   0.780  -0.940  1.00  0.00     0.291 C 
HETATM   33  C12 UNL     1       5.007   1.390   0.114  1.00  0.00     0.147 C 
ENDBRANCH  26  27
ENDBRANCH  25  26
ENDBRANCH  24  25
ENDBRANCH  23  24
ENDBRANCH   4  23
TORSDOF 5
