REMARK  6 active torsions:
REMARK  status: ('A' for Active; 'I' for Inactive)
REMARK    1  A    between atoms: C3_3  and  C4_4 
REMARK    2  A    between atoms: C7_9  and  C8_10 
REMARK    3  A    between atoms: C16_23  and  N4_24 
REMARK    4  A    between atoms: N4_24  and  C17_26 
REMARK    5  A    between atoms: C17_26  and  C18_27 
REMARK    6  A    between atoms: C18_27  and  N5_28 
ROOT
HETATM    1  C1  UNL     1       1.652   3.220   0.320  1.00  0.00     0.054 C 
HETATM    2  C2  UNL     1       0.378   2.429   0.289  1.00  0.00     0.005 A 
HETATM    3  C3  UNL     1      -0.838   3.091   0.283  1.00  0.00     0.024 A 
HETATM    4  N1  UNL     1      -1.984   2.422   0.255  1.00  0.00    -0.343 N 
ATOM      5  H1  UNL     1      -2.854   2.954   0.252  1.00  0.00     0.167 HD
HETATM    6  C7  UNL     1      -2.060   1.052   0.230  1.00  0.00     0.137 A 
HETATM    7  N3  UNL     1      -0.907   0.427   0.235  1.00  0.00    -0.326 N 
ATOM      8  H3  UNL     1      -0.918  -0.593   0.216  1.00  0.00     0.169 HD
HETATM    9  C16 UNL     1       0.332   1.064   0.264  1.00  0.00     0.110 A 
ENDROOT
BRANCH   6  10
HETATM   10  C8  UNL     1      -3.397   0.469   0.247  1.00  0.00     0.107 A 
HETATM   11  N2  UNL     1      -4.541   1.250   0.213  1.00  0.00    -0.257 N 
HETATM   12  O1  UNL     1      -5.584   0.499   0.234  1.00  0.00    -0.241 OA
ATOM     13  H2  UNL     1      -4.554   2.269   0.177  1.00  0.00     0.195 HD
HETATM   14  C9  UNL     1      -5.282  -0.747   0.280  1.00  0.00     0.085 A 
HETATM   15  C10 UNL     1      -3.875  -0.804   0.292  1.00  0.00     0.006 A 
HETATM   16  C15 UNL     1      -6.184  -1.928   0.312  1.00  0.00     0.068 C 
HETATM   17  C11 UNL     1      -3.097  -2.032   0.368  1.00  0.00     0.044 C 
HETATM   18  C12 UNL     1      -3.160  -2.699  -1.000  1.00  0.00     0.005 C 
HETATM   19  C13 UNL     1      -4.596  -2.730  -1.493  1.00  0.00     0.001 C 
HETATM   20  C14 UNL     1      -5.578  -3.094  -0.436  1.00  0.00     0.007 C 
ENDBRANCH   6  10
BRANCH   3  21
HETATM   21  C4  UNL     1      -0.837   4.568   0.316  1.00  0.00     0.036 A 
HETATM   22  C5  UNL     1      -2.231   5.249   0.174  1.00  0.00     0.011 A 
HETATM   23  C6  UNL     1      -1.153   5.413  -0.836  1.00  0.00     0.011 A 
ENDBRANCH   3  21
BRANCH   9  24
HETATM   24  N4  UNL     1       1.353   0.331   0.266  1.00  0.00    -0.374 N 
ATOM     25  H4  UNL     1       1.069  -0.648   0.245  1.00  0.00     0.161 HD
BRANCH  24  26
HETATM   26  C17 UNL     1       2.721   0.409   0.287  1.00  0.00     0.151 C 
BRANCH  26  27
HETATM   27  C18 UNL     1       3.274  -0.993   0.606  1.00  0.00     0.292 C 
BRANCH  27  28
HETATM   28  N5  UNL     1       4.728  -0.959   0.639  1.00  0.00     0.094 N 
HETATM   29  C19 UNL     1       5.151  -2.331   0.949  1.00  0.00     0.298 C 
HETATM   30  C20 UNL     1       6.647  -2.445   1.037  1.00  0.00     0.198 C 
HETATM   31  O2  UNL     1       7.262  -1.766  -0.008  1.00  0.00    -0.388 OA
HETATM   32  C21 UNL     1       6.373  -1.611  -1.060  1.00  0.00     0.198 C 
HETATM   33  C22 UNL     1       5.219  -0.702  -0.721  1.00  0.00     0.298 C 
ENDBRANCH  27  28
ENDBRANCH  26  27
ENDBRANCH  24  26
ENDBRANCH   9  24
TORSDOF 6
