REMARK  11 active torsions:
REMARK  status: ('A' for Active; 'I' for Inactive)
REMARK    1  A    between atoms: O1_1  and  N1_3 
REMARK    2  A    between atoms: C1_5  and  O2_6 
REMARK    3  A    between atoms: C1_5  and  C2_8 
REMARK    4  A    between atoms: C3_9  and  C4_10 
REMARK    5  A    between atoms: C4_10  and  C5_11 
REMARK    6  A    between atoms: C5_11  and  C6_12 
REMARK    7  A    between atoms: C6_12  and  O3_13 
REMARK    8  A    between atoms: O3_13  and  C7_14 
REMARK    9  A    between atoms: C7_14  and  C8_15 
REMARK   10  A    between atoms: C8_15  and  N2_16 
REMARK   11  A    between atoms: N2_16  and  C9_17 
ROOT
HETATM    1  C9  UNL     1      -0.288   0.066   0.244  1.00  0.00     0.209 A 
HETATM    2  C10 UNL     1      -1.409   0.877   0.001  1.00  0.00     0.025 A 
HETATM    3  C11 UNL     1      -2.214   1.272   1.065  1.00  0.00     0.022 A 
HETATM    4  N3  UNL     1      -1.884   0.861   2.286  1.00  0.00    -0.344 N 
ATOM      5  H3  UNL     1      -2.464   1.144   3.076  1.00  0.00     0.167 HD
HETATM    6  C12 UNL     1      -0.801   0.078   2.515  1.00  0.00     0.131 A 
HETATM    7  C13 UNL     1      -0.270  -0.471   3.691  1.00  0.00     0.069 A 
HETATM    8  C14 UNL     1       0.848  -1.194   3.351  1.00  0.00     0.111 A 
HETATM    9  N4  UNL     1       0.983  -1.087   2.038  1.00  0.00    -0.301 N 
ATOM     10  H4  UNL     1       1.724  -1.517   1.485  1.00  0.00     0.186 HD
HETATM   11  N5  UNL     1      -0.006  -0.326   1.549  1.00  0.00    -0.211 N 
HETATM   12  C15 UNL     1      -3.424   2.115   0.911  1.00  0.00     0.058 C 
HETATM   13  C16 UNL     1      -4.523   1.856   1.878  1.00  0.00     0.006 C 
HETATM   14  C17 UNL     1      -5.831   1.384   1.204  1.00  0.00     0.000 C 
HETATM   15  C18 UNL     1      -5.404   0.478   0.117  1.00  0.00     0.000 C 
HETATM   16  C19 UNL     1      -6.240  -0.740  -0.161  1.00  0.00     0.000 C 
HETATM   17  C20 UNL     1      -5.225  -1.737  -0.774  1.00  0.00     0.000 C 
HETATM   18  C21 UNL     1      -4.473  -1.154  -1.912  1.00  0.00     0.000 C 
HETATM   19  C22 UNL     1      -3.029  -0.841  -1.683  1.00  0.00     0.000 C 
HETATM   20  C23 UNL     1      -2.631   0.504  -2.179  1.00  0.00     0.005 C 
HETATM   21  C24 UNL     1      -1.710   1.321  -1.381  1.00  0.00     0.046 C 
ENDROOT
BRANCH   1  22
HETATM   22  N2  UNL     1       0.485  -0.327  -0.625  1.00  0.00    -0.399 NA
BRANCH  22  23
HETATM   23  C8  UNL     1       1.057  -0.529  -1.818  1.00  0.00     0.183 C 
BRANCH  23  24
HETATM   24  C7  UNL     1       2.075   0.464  -2.338  1.00  0.00     0.226 C 
BRANCH  24  25
HETATM   25  O3  UNL     1       3.175   0.728  -1.690  1.00  0.00    -0.385 OA
BRANCH  25  26
HETATM   26  C6  UNL     1       4.187  -0.044  -1.343  1.00  0.00     0.168 C 
BRANCH  26  27
HETATM   27  C5  UNL     1       3.955  -1.163  -0.363  1.00  0.00     0.030 C 
BRANCH  27  28
HETATM   28  C4  UNL     1       5.278  -1.915  -0.105  1.00  0.00     0.029 C 
BRANCH  28  29
HETATM   29  C3  UNL     1       6.295  -1.013   0.449  1.00  0.00    -0.022 C 
HETATM   30  C2  UNL     1       7.417  -0.820  -0.187  1.00  0.00     0.053 C 
BRANCH  30  31
HETATM   31  C1  UNL     1       8.425   0.091   0.388  1.00  0.00     0.159 C 
HETATM   32  N1  UNL     1       9.543   0.311  -0.202  1.00  0.00    -0.248 N 
ATOM     33  H1  UNL     1       9.747  -0.150  -1.089  1.00  0.00     0.196 HD
BRANCH  32  34
HETATM   34  O1  UNL     1      10.452   1.149   0.342  1.00  0.00    -0.288 OA
ATOM     35  H1  UNL     1      11.280   1.312  -0.095  1.00  0.00     0.244 HD
ENDBRANCH  32  34
BRANCH  31  36
HETATM   36  O2  UNL     1       8.178   0.733   1.593  1.00  0.00    -0.345 OA
ATOM     37  H2  UNL     1       7.350   0.570   2.030  1.00  0.00     0.219 HD
ENDBRANCH  31  36
ENDBRANCH  30  31
ENDBRANCH  28  29
ENDBRANCH  27  28
ENDBRANCH  26  27
ENDBRANCH  25  26
ENDBRANCH  24  25
ENDBRANCH  23  24
ENDBRANCH  22  23
ENDBRANCH   1  22
TORSDOF 11
