REMARK  11 active torsions:
REMARK  status: ('A' for Active; 'I' for Inactive)
REMARK    1  A    between atoms: C2_2  and  C3_4 
REMARK    2  A    between atoms: C3_4  and  C4_5 
REMARK    3  A    between atoms: C3_4  and  C24_33 
REMARK    4  A    between atoms: C5_6  and  C6_7 
REMARK    5  A    between atoms: C9_10  and  O2_11 
REMARK    6  A    between atoms: C14_18  and  C15_19 
REMARK    7  A    between atoms: C15_19  and  C16_20 
REMARK    8  A    between atoms: C22_26  and  O4_27 
REMARK    9  A    between atoms: O4_27  and  C23_28 
REMARK   10  A    between atoms: C23_28  and  O5_29 
REMARK   11  A    between atoms: C23_28  and  O6_31 
ROOT
HETATM    1  C6  UNL     1       0.737  -0.619  -0.563  1.00  0.00     0.067 C 
HETATM    2  C7  UNL     1      -0.340  -0.766   0.460  1.00  0.00    -0.059 C 
HETATM    3  C8  UNL     1      -0.051  -1.382   1.601  1.00  0.00     0.009 C 
HETATM    4  C9  UNL     1      -0.960  -1.632   2.734  1.00  0.00     0.148 C 
HETATM    5  C10 UNL     1      -2.372  -1.335   2.419  1.00  0.00     0.052 C 
HETATM    6  C11 UNL     1      -3.267  -2.436   2.990  1.00  0.00     0.016 C 
HETATM    7  C12 UNL     1      -2.634  -1.242   0.969  1.00  0.00     0.100 A 
HETATM    8  C13 UNL     1      -3.927  -1.614   0.457  1.00  0.00     0.208 A 
HETATM    9  O3  UNL     1      -2.778  -2.434   0.261  1.00  0.00    -0.373 OA
HETATM   10  C14 UNL     1      -1.724  -0.261   0.225  1.00  0.00     0.021 C 
HETATM   11  C20 UNL     1      -2.134  -0.256  -1.196  1.00  0.00     0.020 C 
HETATM   12  C21 UNL     1      -1.013  -0.182  -2.189  1.00  0.00     0.034 C 
HETATM   13  C22 UNL     1       0.091  -1.125  -1.861  1.00  0.00     0.138 C 
ENDROOT
BRANCH   1  14
HETATM   14  C5  UNL     1       1.289   0.718  -0.707  1.00  0.00    -0.018 C 
HETATM   15  C4  UNL     1       2.545   1.039  -0.520  1.00  0.00    -0.018 C 
BRANCH  15  16
HETATM   16  C3  UNL     1       3.678   0.178  -0.131  1.00  0.00     0.080 C 
BRANCH  16  17
HETATM   17  C2  UNL     1       4.680   0.040  -1.200  1.00  0.00     0.131 C 
HETATM   18  C1  UNL     1       5.429   1.141  -1.844  1.00  0.00     0.091 C 
HETATM   19  O1  UNL     1       4.933  -1.101  -1.613  1.00  0.00    -0.298 OA
ENDBRANCH  16  17
BRANCH  16  20
HETATM   20  C24 UNL     1       4.268   0.701   1.169  1.00  0.00    -0.008 C 
HETATM   21  C25 UNL     1       3.122   0.790   2.182  1.00  0.00     0.010 C 
HETATM   22  C26 UNL     1       4.875   2.061   1.054  1.00  0.00     0.010 C 
ENDBRANCH  16  20
ENDBRANCH  15  16
ENDBRANCH   1  14
BRANCH  13  23
HETATM   23  O4  UNL     1       0.998  -1.316  -2.860  1.00  0.00    -0.333 OA
BRANCH  23  24
HETATM   24  C23 UNL     1       1.061  -2.678  -3.224  1.00  0.00     0.408 C 
BRANCH  24  25
HETATM   25  O5  UNL     1       2.344  -3.169  -3.168  1.00  0.00    -0.350 OA
ATOM     26  H5  UNL     1       2.386  -4.086  -3.413  1.00  0.00     0.215 HD
ENDBRANCH  24  25
BRANCH  24  27
HETATM   27  O6  UNL     1       0.613  -2.834  -4.548  1.00  0.00    -0.350 OA
ATOM     28  H6  UNL     1       0.655  -3.751  -4.793  1.00  0.00     0.215 HD
ENDBRANCH  24  27
ENDBRANCH  23  24
ENDBRANCH  13  23
BRANCH  10  29
HETATM   29  C15 UNL     1      -1.916   1.079   0.890  1.00  0.00     0.044 C 
BRANCH  29  30
HETATM   30  C16 UNL     1      -3.300   1.580   0.664  1.00  0.00    -0.024 C 
HETATM   31  C17 UNL     1      -3.550   2.725   0.049  1.00  0.00    -0.091 C 
HETATM   32  C18 UNL     1      -2.422   3.550  -0.436  1.00  0.00     0.042 C 
HETATM   33  C19 UNL     1      -4.938   3.202  -0.164  1.00  0.00     0.042 C 
ENDBRANCH  29  30
ENDBRANCH  10  29
BRANCH   4  34
HETATM   34  O2  UNL     1      -0.802  -2.998   3.116  1.00  0.00    -0.391 OA
ATOM     35  H2  UNL     1      -1.388  -3.159   3.846  1.00  0.00     0.210 HD
ENDBRANCH   4  34
TORSDOF 11
