REMARK  11 active torsions:
REMARK  status: ('A' for Active; 'I' for Inactive)
REMARK    1  A    between atoms: C2_2  and  C3_3 
REMARK    2  A    between atoms: C10_10  and  C11_11 
REMARK    3  A    between atoms: C11_11  and  O1_12 
REMARK    4  A    between atoms: N1_14  and  O2_16 
REMARK    5  A    between atoms: C12_18  and  N2_19 
REMARK       I    between atoms: N2_19  and  C13_21 
REMARK    6  A    between atoms: C13_21  and  C14_23 
REMARK    7  A    between atoms: C14_23  and  C15_24 
REMARK    8  A    between atoms: C15_24  and  C16_25 
REMARK    9  A    between atoms: C16_25  and  O5_27 
REMARK   10  A    between atoms: O5_27  and  C17_28 
REMARK   11  A    between atoms: N3_31  and  C20_32 
ROOT
HETATM    1  C3  UNL     1      -4.308   1.363   0.345  1.00  0.00     0.009 C 
HETATM    2  C4  UNL     1      -5.569   0.548   0.353  1.00  0.00     0.016 C 
HETATM    3  C5  UNL     1      -5.366  -0.900  -0.007  1.00  0.00    -0.039 C 
HETATM    4  C6  UNL     1      -5.116  -1.171  -1.461  1.00  0.00     0.010 C 
HETATM    5  C7  UNL     1      -6.613  -1.335  -1.623  1.00  0.00     0.002 C 
HETATM    6  C8  UNL     1      -6.651  -1.688  -0.131  1.00  0.00     0.010 C 
HETATM    7  C9  UNL     1      -4.327  -1.502   0.870  1.00  0.00     0.024 C 
HETATM    8  C10 UNL     1      -3.865  -0.473   1.934  1.00  0.00     0.086 C 
HETATM    9  C12 UNL     1      -3.270   0.703   1.258  1.00  0.00     0.100 C 
ENDROOT
BRANCH   9  10
HETATM   10  N2  UNL     1      -2.007   0.471   0.652  1.00  0.00    -0.355 N 
HETATM   11  C13 UNL     1      -1.027   1.434   0.324  1.00  0.00     0.218 C 
HETATM   12  O3  UNL     1      -1.187   2.660   0.521  1.00  0.00    -0.274 OA
ATOM     13  H2  UNL     1      -1.782  -0.499   0.429  1.00  0.00     0.162 HD
BRANCH  11  14
HETATM   14  C14 UNL     1       0.264   1.013  -0.272  1.00  0.00     0.112 C 
BRANCH  14  15
HETATM   15  C15 UNL     1       0.934   2.122  -1.043  1.00  0.00     0.120 C 
BRANCH  15  16
HETATM   16  C16 UNL     1       2.260   1.671  -1.557  1.00  0.00     0.259 C 
HETATM   17  O4  UNL     1       2.642   2.092  -2.655  1.00  0.00    -0.265 OA
BRANCH  16  18
HETATM   18  O5  UNL     1       3.028   0.794  -0.786  1.00  0.00    -0.316 OA
BRANCH  18  19
HETATM   19  C17 UNL     1       4.300   0.312  -1.192  1.00  0.00     0.135 C 
HETATM   20  C18 UNL     1       4.256  -1.163  -1.298  1.00  0.00     0.052 C 
HETATM   21  C19 UNL     1       5.523  -1.911  -1.030  1.00  0.00     0.119 C 
HETATM   22  N3  UNL     1       6.631  -1.104  -0.684  1.00  0.00    -0.409 N 
HETATM   23  C23 UNL     1       6.355  -0.057   0.222  1.00  0.00     0.119 C 
HETATM   24  C24 UNL     1       5.293   0.898  -0.238  1.00  0.00     0.052 C 
BRANCH  22  25
HETATM   25  C20 UNL     1       7.656  -0.938  -1.644  1.00  0.00     0.070 C 
HETATM   26  C21 UNL     1       8.310  -2.274  -1.917  1.00  0.00     0.031 C 
HETATM   27  C22 UNL     1       8.723   0.043  -1.270  1.00  0.00     0.031 C 
ENDBRANCH  22  25
ENDBRANCH  18  19
ENDBRANCH  16  18
ENDBRANCH  15  16
ENDBRANCH  14  15
ENDBRANCH  11  14
ENDBRANCH   9  10
BRANCH   1  28
HETATM   28  C2  UNL     1      -4.666   2.755   0.824  1.00  0.00     0.002 C 
HETATM   29  C1  UNL     1      -5.205   2.829   2.206  1.00  0.00     0.005 C 
ENDBRANCH   1  28
BRANCH   8  30
HETATM   30  C11 UNL     1      -2.993  -1.174   2.898  1.00  0.00     0.141 C 
HETATM   31  N1  UNL     1      -3.294  -1.083   4.148  1.00  0.00    -0.251 N 
ATOM     32  H1  UNL     1      -2.711  -1.556   4.839  1.00  0.00     0.196 HD
BRANCH  30  33
HETATM   33  O1  UNL     1      -1.877  -1.920   2.554  1.00  0.00    -0.348 OA
ATOM     34  H1  UNL     1      -1.316  -2.371   3.174  1.00  0.00     0.219 HD
ENDBRANCH  30  33
BRANCH  31  35
HETATM   35  O2  UNL     1      -4.389  -0.358   4.569  1.00  0.00    -0.288 OA
ATOM     36  H2  UNL     1      -4.611  -0.291   5.490  1.00  0.00     0.244 HD
ENDBRANCH  31  35
ENDBRANCH   8  30
TORSDOF 11
