REMARK  2 active torsions:
REMARK  status: ('A' for Active; 'I' for Inactive)
REMARK       I    between atoms: C1_2  and  N2_4 
REMARK    1  A    between atoms: N2_4  and  C2_5 
REMARK    2  A    between atoms: C2_5  and  N3_6 
ROOT
HETATM    1  C2  UNL     1       0.362  -0.348   0.209  1.00  0.00     0.419 C 
HETATM    2  C3  UNL     1       1.279  -0.441  -1.001  1.00  0.00     0.317 C 
HETATM    3  O2  UNL     1       1.000  -1.063  -2.048  1.00  0.00    -0.265 OA
HETATM    4  N4  UNL     1       2.464   0.268  -0.754  1.00  0.00    -0.262 N 
ATOM      5  H4  UNL     1       3.334   0.177  -1.278  1.00  0.00     0.190 HD
HETATM    6  N5  UNL     1       2.246   1.134   0.350  1.00  0.00    -0.262 N 
ATOM      7  H5  UNL     1       2.926   1.772   0.764  1.00  0.00     0.190 HD
HETATM    8  C4  UNL     1       0.910   0.945   0.767  1.00  0.00     0.317 C 
HETATM    9  O3  UNL     1       0.254   1.711   1.491  1.00  0.00    -0.265 OA
ENDROOT
BRANCH   1  10
HETATM   10  N2  UNL     1      -0.963  -0.270  -0.126  1.00  0.00    -0.339 NA
HETATM   11  C1  UNL     1      -2.279  -0.191  -0.459  1.00  0.00     0.404 C 
HETATM   12  N1  UNL     1      -3.094   0.961  -0.140  1.00  0.00    -0.025 NA
HETATM   13  O1  UNL     1      -2.949  -1.085  -1.076  1.00  0.00    -0.234 OA
ENDBRANCH   1  10
BRANCH   1  14
HETATM   14  N3  UNL     1       0.818  -1.465   1.020  1.00  0.00    -0.022 N 
ATOM     15  H33 UNL     1       0.260  -1.501   1.873  1.00  0.00     0.279 HD
ATOM     16  H32 UNL     1       0.542  -2.335   0.566  1.00  0.00     0.279 HD
ATOM     17  H31 UNL     1       1.805  -1.523   1.270  1.00  0.00     0.279 HD
ENDBRANCH   1  14
TORSDOF 2
