REMARK  2 active torsions:
REMARK  status: ('A' for Active; 'I' for Inactive)
REMARK    1  A    between atoms: N2_3  and  N3_5 
REMARK       I    between atoms: N3_5  and  C2_7 
REMARK       I    between atoms: C2_7  and  N4_8 
REMARK    2  A    between atoms: N5_11  and  N6_13 
ROOT
HETATM    1  N6  UNL     1      -0.093   1.220   1.168  1.00  0.00    -0.117 N 
ATOM      2  H6  UNL     1      -0.174   1.956   1.870  1.00  0.00     0.206 HD
HETATM    3  C3  UNL     1      -1.096   0.452   1.092  1.00  0.00     0.705 A 
HETATM    4  N7  UNL     1      -2.124   0.723   1.962  1.00  0.00    -0.139 N 
ATOM      5  H7  UNL     1      -2.070   1.499   2.622  1.00  0.00     0.189 HD
HETATM    6  C4  UNL     1      -3.195  -0.070   1.909  1.00  0.00     0.342 A 
HETATM    7  O1  UNL     1      -4.169   0.149   2.706  1.00  0.00    -0.246 OA
HETATM    8  N8  UNL     1      -3.335  -1.103   1.072  1.00  0.00    -0.260 N 
ATOM      9  H8  UNL     1      -4.172  -1.686   1.064  1.00  0.00     0.175 HD
HETATM   10  C5  UNL     1      -2.278  -1.329   0.224  1.00  0.00     0.342 A 
HETATM   11  O2  UNL     1      -2.378  -2.279  -0.569  1.00  0.00    -0.246 OA
HETATM   12  N9  UNL     1      -1.177  -0.564   0.234  1.00  0.00    -0.139 N 
ATOM     13  H9  UNL     1      -0.409  -0.758  -0.409  1.00  0.00     0.189 HD
ENDROOT
BRANCH   1  14
HETATM   14  N5  UNL     1       1.040   1.228   0.491  1.00  0.00    -0.117 N 
HETATM   15  C2  UNL     1       1.232   1.612  -0.699  1.00  0.00     0.705 C 
HETATM   16  N3  UNL     1       2.639   1.487  -1.147  1.00  0.00    -0.131 N 
HETATM   17  N4  UNL     1       0.284   1.925  -1.631  1.00  0.00    -0.232 N 
ATOM     18  H3  UNL     1       3.184   2.228  -1.588  1.00  0.00     0.205 HD
ATOM     19  H42 UNL     1       0.439   2.235  -2.590  1.00  0.00     0.174 HD
ATOM     20  H41 UNL     1      -0.684   2.011  -1.323  1.00  0.00     0.174 HD
ATOM     21  H5  UNL     1       1.861   0.882   0.988  1.00  0.00     0.206 HD
BRANCH  16  22
HETATM   22  N2  UNL     1       3.102   0.208  -0.875  1.00  0.00    -0.284 N 
HETATM   23  C1  UNL     1       2.668  -0.910  -1.119  1.00  0.00     0.207 C 
HETATM   24  N1  UNL     1       3.426  -2.054  -0.683  1.00  0.00    -0.095 NA
ATOM     25  H2  UNL     1       3.986   0.197  -0.367  1.00  0.00     0.187 HD
ENDBRANCH  16  22
ENDBRANCH   1  14
TORSDOF 2
