REMARK  4 active torsions:
REMARK  status: ('A' for Active; 'I' for Inactive)
REMARK       I    between atoms: C1_4  and  N2_5 
REMARK       I    between atoms: C1_4  and  N5_14 
REMARK       I    between atoms: N2_5  and  C2_7 
REMARK       I    between atoms: C2_7  and  N3_9 
REMARK    1  A    between atoms: N3_9  and  N4_11 
REMARK    2  A    between atoms: N4_11  and  O2_12 
REMARK    3  A    between atoms: N5_14  and  S1_16 
REMARK    4  A    between atoms: S1_16  and  N6_17 
ROOT
HETATM    1  N1  UNL     1       1.085  -1.714  -1.600  1.00  0.00    -0.234 N 
ATOM      2  H11 UNL     1       2.045  -2.029  -1.458  1.00  0.00     0.174 HD
ATOM      3  H12 UNL     1       0.520  -1.837  -2.440  1.00  0.00     0.174 HD
HETATM    4  C1  UNL     1       0.475  -1.076  -0.616  1.00  0.00     0.690 C 
HETATM    5  N2  UNL     1      -0.832  -0.647  -0.810  1.00  0.00    -0.140 N 
ATOM      6  H2  UNL     1      -1.298  -0.832  -1.698  1.00  0.00     0.189 HD
HETATM    7  C2  UNL     1      -1.524   0.045   0.213  1.00  0.00     0.351 C 
HETATM    8  O1  UNL     1      -1.001   0.296   1.316  1.00  0.00    -0.245 OA
HETATM    9  N3  UNL     1      -2.858   0.475  -0.006  1.00  0.00    -0.229 N 
ATOM     10  H3  UNL     1      -3.301   0.274  -0.903  1.00  0.00     0.189 HD
HETATM   11  N5  UNL     1       1.254  -0.906   0.541  1.00  0.00    -0.100 N 
ATOM     12  H5  UNL     1       0.901  -1.254   1.433  1.00  0.00     0.199 HD
ENDROOT
BRANCH  11  13
HETATM   13  S1  UNL     1       2.784  -0.129   0.494  1.00  0.00     0.330 S 
HETATM   14  O3  UNL     1       3.662  -0.730   1.539  1.00  0.00    -0.182 OA
HETATM   15  O4  UNL     1       3.426  -0.258  -0.862  1.00  0.00    -0.182 OA
BRANCH  13  16
HETATM   16  N6  UNL     1       2.635   1.561   0.833  1.00  0.00    -0.311 N 
ATOM     17  H62 UNL     1       1.747   2.021   1.033  1.00  0.00     0.170 HD
ATOM     18  H61 UNL     1       3.544   2.023   0.805  1.00  0.00     0.170 HD
ENDBRANCH  13  16
ENDBRANCH  11  13
BRANCH   9  19
HETATM   19  N4  UNL     1      -3.588   1.169   0.973  1.00  0.00     0.022 NA
BRANCH  19  20
HETATM   20  O2  UNL     1      -3.529   0.444   2.129  1.00  0.00    -0.277 OA
ATOM     21  H2  UNL     1      -4.023   0.913   2.791  1.00  0.00     0.240 HD
ENDBRANCH  19  20
ENDBRANCH   9  19
TORSDOF 4
