REMARK  11 active torsions:
REMARK  status: ('A' for Active; 'I' for Inactive)
REMARK    1  A    between atoms: O1_2  and  C2_3 
REMARK    2  A    between atoms: C4_5  and  N1_6 
REMARK    3  A    between atoms: C11_14  and  N2_15 
REMARK    4  A    between atoms: N2_15  and  C12_17 
REMARK    5  A    between atoms: C13_20  and  N4_21 
REMARK    6  A    between atoms: N4_21  and  C14_23 
REMARK    7  A    between atoms: C14_23  and  C15_24 
REMARK    8  A    between atoms: C19_31  and  N6_32 
REMARK    9  A    between atoms: N6_32  and  C20_34 
REMARK   10  A    between atoms: C20_34  and  C21_35 
REMARK   11  A    between atoms: C25_39  and  N7_40 
ROOT
HETATM    1  C12 UNL     1      -0.201   1.420  -0.699  1.00  0.00     0.712 A 
HETATM    2  N3  UNL     1      -1.042   2.430  -1.016  1.00  0.00    -0.021 N 
ATOM      3  H3  UNL     1      -0.656   3.305  -1.371  1.00  0.00     0.203 HD
HETATM    4  C13 UNL     1      -2.370   2.311  -0.875  1.00  0.00     0.707 A 
HETATM    5  N5  UNL     1      -2.855   1.128  -0.397  1.00  0.00    -0.022 N 
ATOM      6  H5  UNL     1      -3.864   1.027  -0.287  1.00  0.00     0.203 HD
HETATM    7  C19 UNL     1      -2.073   0.096  -0.066  1.00  0.00     0.707 A 
HETATM    8  N8  UNL     1      -0.740   0.269  -0.228  1.00  0.00    -0.021 N 
ATOM      9  H8  UNL     1      -0.115  -0.500   0.015  1.00  0.00     0.203 HD
ENDROOT
BRANCH   1  10
HETATM   10  N2  UNL     1       1.034   1.640  -0.870  1.00  0.00    -0.188 N 
ATOM     11  H2  UNL     1       1.324   2.551  -1.226  1.00  0.00     0.184 HD
BRANCH  10  12
HETATM   12  C11 UNL     1       2.013   0.687  -0.591  1.00  0.00     0.082 A 
HETATM   13  C2  UNL     1       2.923   0.928   0.416  1.00  0.00     0.097 A 
HETATM   14  C3  UNL     1       3.897  -0.004   0.690  1.00  0.00     0.068 A 
HETATM   15  C4  UNL     1       3.990  -1.200  -0.030  1.00  0.00     0.040 A 
HETATM   16  C9  UNL     1       3.056  -1.385  -1.023  1.00  0.00     0.032 A 
HETATM   17  C10 UNL     1       2.066  -0.479  -1.330  1.00  0.00     0.035 A 
BRANCH  13  18
HETATM   18  O1  UNL     1       2.870   2.117   1.168  1.00  0.00    -0.354 OA
HETATM   19  C1  UNL     1       3.806   2.342   2.185  1.00  0.00     0.210 C 
ENDBRANCH  13  18
BRANCH  15  20
HETATM   20  N1  UNL     1       4.992  -2.153   0.247  1.00  0.00    -0.318 N 
HETATM   21  C5  UNL     1       5.342  -2.641   1.562  1.00  0.00     0.133 C 
HETATM   22  C6  UNL     1       6.798  -2.950   1.473  1.00  0.00     0.029 C 
HETATM   23  C7  UNL     1       7.063  -3.284   0.041  1.00  0.00     0.105 C 
HETATM   24  C8  UNL     1       5.852  -2.814  -0.669  1.00  0.00     0.224 C 
HETATM   25  O2  UNL     1       5.625  -2.978  -1.897  1.00  0.00    -0.273 OA
ENDBRANCH  15  20
ENDBRANCH  10  12
ENDBRANCH   1  10
BRANCH   4  26
HETATM   26  N4  UNL     1      -3.225   3.226  -1.157  1.00  0.00    -0.223 N 
ATOM     27  H4  UNL     1      -4.220   3.049  -1.018  1.00  0.00     0.177 HD
BRANCH  26  28
HETATM   28  C14 UNL     1      -2.793   4.497  -1.666  1.00  0.00     0.170 C 
BRANCH  28  29
HETATM   29  C15 UNL     1      -3.976   5.436  -1.846  1.00  0.00     0.139 C 
HETATM   30  C16 UNL     1      -4.686   5.710  -0.566  1.00  0.00     0.035 C 
HETATM   31  C17 UNL     1      -4.321   7.159  -0.267  1.00  0.00     0.029 C 
HETATM   32  C18 UNL     1      -3.162   7.381  -1.240  1.00  0.00     0.168 C 
HETATM   33  O3  UNL     1      -3.612   6.669  -2.334  1.00  0.00    -0.384 OA
ENDBRANCH  28  29
ENDBRANCH  26  28
ENDBRANCH   4  26
BRANCH   7  34
HETATM   34  N6  UNL     1      -2.542  -1.022   0.375  1.00  0.00    -0.225 N 
ATOM     35  H6  UNL     1      -3.556  -1.092   0.463  1.00  0.00     0.177 HD
BRANCH  34  36
HETATM   36  C20 UNL     1      -1.783  -2.169   0.751  1.00  0.00     0.144 C 
BRANCH  36  37
HETATM   37  C21 UNL     1      -2.735  -3.362   0.690  1.00  0.00     0.034 C 
HETATM   38  C22 UNL     1      -3.279  -3.528  -0.709  1.00  0.00     0.008 C 
HETATM   39  C23 UNL     1      -3.403  -5.025  -0.905  1.00  0.00     0.002 C 
HETATM   40  C24 UNL     1      -3.034  -5.662   0.416  1.00  0.00     0.033 C 
HETATM   41  C25 UNL     1      -2.095  -4.651   1.088  1.00  0.00     0.189 C 
BRANCH  41  42
HETATM   42  N7  UNL     1      -0.775  -4.862   0.580  1.00  0.00    -0.075 N 
ATOM     43  H73 UNL     1      -0.772  -4.769  -0.436  1.00  0.00     0.274 HD
ATOM     44  H72 UNL     1      -0.173  -4.079   0.834  1.00  0.00     0.274 HD
ATOM     45  H71 UNL     1      -0.338  -5.743   0.852  1.00  0.00     0.274 HD
ENDBRANCH  41  42
ENDBRANCH  36  37
ENDBRANCH  34  36
ENDBRANCH   7  34
TORSDOF 11
