REMARK  8 active torsions:
REMARK  status: ('A' for Active; 'I' for Inactive)
REMARK    1  A    between atoms: N1_1  and  C1_5 
REMARK    2  A    between atoms: C1_5  and  C2_6 
REMARK    3  A    between atoms: C2_6  and  S1_7 
REMARK    4  A    between atoms: S1_7  and  N2_10 
REMARK    5  A    between atoms: N2_10  and  C3_12 
REMARK    6  A    between atoms: C3_12  and  C4_13 
REMARK    7  A    between atoms: C4_13  and  C5_14 
REMARK    8  A    between atoms: C5_14  and  N3_15 
ROOT
HETATM    1  N3  UNL     1       0.450   0.119  -0.071  1.00  0.00    -0.280 N 
HETATM    2  C6  UNL     1      -0.070  -0.014   1.146  1.00  0.00     0.261 A 
HETATM    3  O3  UNL     1       0.512  -0.634   2.080  1.00  0.00    -0.267 OA
HETATM    4  C7  UNL     1      -1.330   0.640   1.181  1.00  0.00     0.051 A 
HETATM    5  C8  UNL     1      -2.069   0.750   2.336  1.00  0.00     0.022 C 
HETATM    6  C9  UNL     1      -3.425   0.997   2.385  1.00  0.00    -0.061 A 
HETATM    7  C10 UNL     1      -4.341   0.488   1.628  1.00  0.00     0.060 A 
HETATM    8  C11 UNL     1      -4.821   1.370   2.574  1.00  0.00     0.051 A 
HETATM    9  C12 UNL     1      -6.106   1.181   2.104  1.00  0.00    -0.008 A 
HETATM   10  C13 UNL     1      -5.551   0.310   1.183  1.00  0.00    -0.040 A 
HETATM   11  C14 UNL     1      -5.883  -0.545   0.099  1.00  0.00    -0.003 A 
HETATM   12  C15 UNL     1      -6.876  -1.484   0.377  1.00  0.00     0.014 A 
HETATM   13  C16 UNL     1      -7.288  -2.410  -0.557  1.00  0.00     0.001 A 
HETATM   14  C17 UNL     1      -6.677  -2.367  -1.774  1.00  0.00     0.002 A 
HETATM   15  C18 UNL     1      -5.708  -1.448  -2.047  1.00  0.00     0.030 A 
HETATM   16  C19 UNL     1      -5.248  -0.474  -1.126  1.00  0.00     0.043 A 
HETATM   17  N4  UNL     1      -4.350   0.397  -1.569  1.00  0.00    -0.349 N 
ATOM     18  H4  UNL     1      -3.963   0.101  -2.465  1.00  0.00     0.166 HD
HETATM   19  C20 UNL     1      -3.815   1.543  -1.175  1.00  0.00     0.129 A 
HETATM   20  C21 UNL     1      -4.083   2.923  -1.295  1.00  0.00     0.275 A 
HETATM   21  O4  UNL     1      -4.989   3.691  -1.760  1.00  0.00    -0.266 OA
HETATM   22  N5  UNL     1      -2.938   3.233  -0.694  1.00  0.00    -0.319 N 
ATOM     23  H5  UNL     1      -2.472   4.104  -0.439  1.00  0.00     0.169 HD
HETATM   24  C22 UNL     1      -2.640   1.900  -0.557  1.00  0.00     0.084 A 
HETATM   25  C23 UNL     1      -1.561   1.172  -0.064  1.00  0.00     0.077 A 
HETATM   26  C24 UNL     1      -0.401   0.820  -0.827  1.00  0.00     0.264 A 
HETATM   27  O5  UNL     1      -0.116   1.081  -2.033  1.00  0.00    -0.267 OA
ENDROOT
BRANCH   1  28
HETATM   28  C5  UNL     1       1.747  -0.425  -0.490  1.00  0.00     0.137 C 
BRANCH  28  29
HETATM   29  C4  UNL     1       2.801   0.624  -0.214  1.00  0.00     0.041 C 
BRANCH  29  30
HETATM   30  C3  UNL     1       4.180   0.143  -0.619  1.00  0.00     0.133 C 
BRANCH  30  31
HETATM   31  N2  UNL     1       4.545  -1.062   0.121  1.00  0.00    -0.319 N 
ATOM     32  H2  UNL     1       3.945  -1.510   0.813  1.00  0.00     0.172 HD
BRANCH  31  33
HETATM   33  S1  UNL     1       6.096  -1.631  -0.311  1.00  0.00     0.228 S 
HETATM   34  O1  UNL     1       6.089  -1.939  -1.790  1.00  0.00    -0.206 OA
HETATM   35  O2  UNL     1       6.400  -2.843   0.510  1.00  0.00    -0.206 OA
BRANCH  33  36
HETATM   36  C2  UNL     1       7.365  -0.425   0.059  1.00  0.00     0.190 C 
BRANCH  36  37
HETATM   37  C1  UNL     1       8.704  -0.998  -0.350  1.00  0.00     0.246 C 
BRANCH  37  38
HETATM   38  N1  UNL     1       9.739  -0.029  -0.055  1.00  0.00    -0.078 N 
ATOM     39  H13 UNL     1       9.556   0.878  -0.484  1.00  0.00     0.274 HD
ATOM     40  H12 UNL     1       9.725   0.270   0.920  1.00  0.00     0.274 HD
ATOM     41  H11 UNL     1      10.642  -0.415  -0.331  1.00  0.00     0.274 HD
ENDBRANCH  37  38
ENDBRANCH  36  37
ENDBRANCH  33  36
ENDBRANCH  31  33
ENDBRANCH  30  31
ENDBRANCH  29  30
ENDBRANCH  28  29
ENDBRANCH   1  28
TORSDOF 8
