REMARK  9 active torsions:
REMARK  status: ('A' for Active; 'I' for Inactive)
REMARK    1  A    between atoms: C4_5  and  O1_6 
REMARK    2  A    between atoms: N2_8  and  S1_9 
REMARK    3  A    between atoms: S1_9  and  C5_12 
REMARK    4  A    between atoms: C5_12  and  C6_13 
REMARK    5  A    between atoms: C6_13  and  C7_14 
REMARK    6  A    between atoms: C7_14  and  C8_15 
REMARK    7  A    between atoms: C8_15  and  C9_16 
REMARK    8  A    between atoms: C9_16  and  C10_17 
REMARK    9  A    between atoms: C10_17  and  N3_18 
ROOT
HETATM    1  C1  UNL     1      -3.595  -3.850   2.681  1.00  0.00     0.014 C 
HETATM    2  C2  UNL     1      -2.342  -3.198   2.214  1.00  0.00     0.032 C 
HETATM    3  C3  UNL     1      -1.394  -3.961   1.399  1.00  0.00     0.134 C 
HETATM    4  N1  UNL     1      -1.100  -2.697   0.723  1.00  0.00    -0.332 N 
HETATM    5  C4  UNL     1      -0.066  -2.033   0.032  1.00  0.00     0.232 C 
HETATM    6  N2  UNL     1       0.156  -0.649  -0.119  1.00  0.00    -0.235 N 
HETATM    7  C11 UNL     1      -0.865   0.349  -0.397  1.00  0.00     0.197 C 
HETATM    8  C12 UNL     1      -0.928   1.372   0.687  1.00  0.00    -0.001 C 
HETATM    9  N4  UNL     1      -0.574   0.986   1.849  1.00  0.00    -0.404 N 
ATOM     10  H41 UNL     1      -0.617   1.685   2.590  1.00  0.00     0.155 HD
ATOM     11  H42 UNL     1      -0.273   0.021   1.987  1.00  0.00     0.155 HD
HETATM   12  C13 UNL     1      -1.361   2.758   0.488  1.00  0.00     0.054 C 
HETATM   13  C14 UNL     1      -2.122   3.014  -0.761  1.00  0.00     0.006 C 
HETATM   14  C15 UNL     1      -3.475   3.631  -0.464  1.00  0.00     0.002 C 
HETATM   15  C16 UNL     1      -4.205   2.948   0.646  1.00  0.00     0.020 C 
HETATM   16  C17 UNL     1      -5.575   2.442   0.193  1.00  0.00     0.122 C 
HETATM   17  N5  UNL     1      -5.470   1.739  -1.060  1.00  0.00    -0.360 N 
ATOM     18  H5  UNL     1      -5.786   2.217  -1.904  1.00  0.00     0.162 HD
HETATM   19  C18 UNL     1      -4.955   0.425  -1.194  1.00  0.00     0.235 C 
HETATM   20  O4  UNL     1      -4.513   0.134  -2.359  1.00  0.00    -0.272 OA
HETATM   21  C19 UNL     1      -4.919  -0.565  -0.079  1.00  0.00     0.225 C 
HETATM   22  N6  UNL     1      -4.348  -1.775  -0.588  1.00  0.00    -0.351 N 
ATOM     23  H6  UNL     1      -4.578  -2.010  -1.554  1.00  0.00     0.163 HD
HETATM   24  C20 UNL     1      -3.499  -2.686   0.094  1.00  0.00     0.241 C 
HETATM   25  O5  UNL     1      -3.725  -3.903  -0.157  1.00  0.00    -0.271 OA
HETATM   26  C21 UNL     1      -2.423  -2.290   1.030  1.00  0.00     0.185 C 
ENDROOT
BRANCH   6  27
HETATM   27  S1  UNL     1       1.763   0.057  -0.002  1.00  0.00     0.235 S 
HETATM   28  O2  UNL     1       1.759   1.523  -0.145  1.00  0.00    -0.205 OA
HETATM   29  O3  UNL     1       2.320  -0.281   1.341  1.00  0.00    -0.205 OA
BRANCH  27  30
HETATM   30  C5  UNL     1       2.841  -0.600  -1.250  1.00  0.00     0.163 C 
BRANCH  30  31
HETATM   31  C6  UNL     1       4.191   0.098  -1.035  1.00  0.00     0.017 C 
BRANCH  31  32
HETATM   32  C7  UNL     1       5.184  -0.406  -2.064  1.00  0.00     0.001 C 
BRANCH  32  33
HETATM   33  C8  UNL     1       6.529   0.234  -1.913  1.00  0.00     0.002 C 
BRANCH  33  34
HETATM   34  C9  UNL     1       7.142  -0.031  -0.558  1.00  0.00     0.027 C 
BRANCH  34  35
HETATM   35  C10 UNL     1       8.497   0.652  -0.498  1.00  0.00     0.229 C 
BRANCH  35  36
HETATM   36  N3  UNL     1       9.132   0.433   0.778  1.00  0.00    -0.079 N 
ATOM     37  H33 UNL     1       8.532   0.721   1.551  1.00  0.00     0.274 HD
ATOM     38  H32 UNL     1       9.202  -0.561   0.997  1.00  0.00     0.274 HD
ATOM     39  H31 UNL     1      10.042   0.892   0.818  1.00  0.00     0.274 HD
ENDBRANCH  35  36
ENDBRANCH  34  35
ENDBRANCH  33  34
ENDBRANCH  32  33
ENDBRANCH  31  32
ENDBRANCH  30  31
ENDBRANCH  27  30
ENDBRANCH   6  27
BRANCH   5  40
HETATM   40  O1  UNL     1       0.856  -2.720  -0.580  1.00  0.00    -0.332 OA
ATOM     41  H1  UNL     1       1.553  -2.273  -1.046  1.00  0.00     0.221 HD
ENDBRANCH   5  40
TORSDOF 9
