REMARK  11 active torsions:
REMARK  status: ('A' for Active; 'I' for Inactive)
REMARK    1  A    between atoms: C2_2  and  C3_3 
REMARK    2  A    between atoms: C3_3  and  C4_4 
REMARK    3  A    between atoms: C13_14  and  O1_15 
REMARK    4  A    between atoms: C14_17  and  O2_18 
REMARK    5  A    between atoms: C16_21  and  O3_22 
REMARK    6  A    between atoms: C18_25  and  O4_26 
REMARK    7  A    between atoms: C19_29  and  C20_30 
REMARK    8  A    between atoms: C20_30  and  C21_31 
REMARK    9  A    between atoms: C24_34  and  C25_35 
REMARK   10  A    between atoms: C25_35  and  C27_37 
REMARK   11  A    between atoms: C27_37  and  O6_39 
ROOT
HETATM    1  C4  UNL     1      -3.437   2.185  -0.411  1.00  0.00     0.064 C 
HETATM    2  N1  UNL     1      -2.850   0.954  -0.479  1.00  0.00    -0.355 N 
HETATM    3  C5  UNL     1      -3.480  -0.128  -1.145  1.00  0.00     0.099 C 
HETATM    4  C6  UNL     1      -2.344  -0.947  -1.650  1.00  0.00     0.037 C 
HETATM    5  C7  UNL     1      -1.405  -1.621  -0.781  1.00  0.00    -0.020 A 
HETATM    6  C8  UNL     1      -0.330  -2.149  -1.667  1.00  0.00     0.018 C 
HETATM    7  C9  UNL     1       0.844  -2.116  -0.658  1.00  0.00     0.016 C 
HETATM    8  C10 UNL     1       0.087  -3.215   0.150  1.00  0.00     0.013 C 
HETATM    9  C11 UNL     1      -1.006  -2.209   0.447  1.00  0.00     0.011 A 
HETATM   10  C12 UNL     1      -2.288  -2.204   0.111  1.00  0.00     0.038 A 
HETATM   11  C13 UNL     1      -3.371  -3.175  -0.140  1.00  0.00     0.160 C 
HETATM   12  C14 UNL     1      -4.561  -2.285  -0.421  1.00  0.00     0.157 C 
HETATM   13  C15 UNL     1      -4.170  -0.880  -0.047  1.00  0.00     0.081 C 
HETATM   14  C16 UNL     1      -2.934  -0.998   0.857  1.00  0.00     0.120 C 
HETATM   15  C17 UNL     1      -2.281   0.313   0.675  1.00  0.00     0.080 C 
HETATM   16  C18 UNL     1      -0.849   0.571   0.780  1.00  0.00     0.307 C 
HETATM   17  O5  UNL     1       0.073   0.171  -0.105  1.00  0.00    -0.350 OA
HETATM   18  C19 UNL     1       0.930  -0.847   0.101  1.00  0.00     0.129 C 
ENDROOT
BRANCH  18  19
HETATM   19  C20 UNL     1       2.322  -0.247  -0.221  1.00  0.00     0.037 C 
BRANCH  19  20
HETATM   20  C21 UNL     1       3.454  -1.100   0.164  1.00  0.00    -0.008 C 
HETATM   21  C22 UNL     1       3.576  -1.452   1.638  1.00  0.00     0.005 C 
HETATM   22  C23 UNL     1       4.378  -0.142   1.743  1.00  0.00     0.006 C 
HETATM   23  C24 UNL     1       4.811  -0.476   0.326  1.00  0.00    -0.004 C 
BRANCH  23  24
HETATM   24  C25 UNL     1       5.250   0.625  -0.528  1.00  0.00     0.014 C 
HETATM   25  C26 UNL     1       4.491   1.897  -0.524  1.00  0.00     0.013 C 
BRANCH  24  26
HETATM   26  C27 UNL     1       6.702   0.960  -0.150  1.00  0.00     0.118 C 
HETATM   27  C28 UNL     1       7.237   2.080  -0.977  1.00  0.00     0.040 C 
BRANCH  26  28
HETATM   28  O6  UNL     1       6.750   1.328   1.195  1.00  0.00    -0.396 OA
ATOM     29  H6  UNL     1       7.647   1.535   1.429  1.00  0.00     0.210 HD
ENDBRANCH  26  28
ENDBRANCH  24  26
ENDBRANCH  23  24
ENDBRANCH  19  20
ENDBRANCH  18  19
BRANCH  16  30
HETATM   30  O4  UNL     1      -0.741   1.995   0.772  1.00  0.00    -0.366 OA
ATOM     31  H4  UNL     1       0.192   2.163   0.840  1.00  0.00     0.213 HD
ENDBRANCH  16  30
BRANCH  14  32
HETATM   32  O3  UNL     1      -3.264  -1.339   2.149  1.00  0.00    -0.382 OA
ATOM     33  H3  UNL     1      -3.658  -0.604   2.604  1.00  0.00     0.211 HD
ENDBRANCH  14  32
BRANCH  11  34
HETATM   34  O1  UNL     1      -3.638  -4.049   0.886  1.00  0.00    -0.392 OA
ATOM     35  H1  UNL     1      -4.335  -4.674   0.724  1.00  0.00     0.210 HD
ENDBRANCH  11  34
BRANCH   1  36
HETATM   36  C3  UNL     1      -4.679   2.425   0.379  1.00  0.00     0.044 C 
BRANCH  36  37
HETATM   37  C2  UNL     1      -5.089   3.887   0.269  1.00  0.00     0.001 C 
HETATM   38  C1  UNL     1      -4.062   4.842   0.777  1.00  0.00     0.005 C 
ENDBRANCH  36  37
ENDBRANCH   1  36
BRANCH  12  39
HETATM   39  O2  UNL     1      -5.039  -2.410  -1.705  1.00  0.00    -0.392 OA
ATOM     40  H2  UNL     1      -5.787  -1.851  -1.882  1.00  0.00     0.210 HD
ENDBRANCH  12  39
TORSDOF 11
