REMARK  9 active torsions:
REMARK  status: ('A' for Active; 'I' for Inactive)
REMARK    1  A    between atoms: C7_8  and  N2_9 
REMARK    2  A    between atoms: N2_9  and  C8_11 
REMARK    3  A    between atoms: C11_16  and  N4_17 
REMARK    4  A    between atoms: N4_17  and  C12_19 
REMARK    5  A    between atoms: C12_19  and  C13_20 
REMARK    6  A    between atoms: C13_20  and  N5_21 
REMARK    7  A    between atoms: C18_31  and  C19_32 
REMARK    8  A    between atoms: C19_32  and  C20_33 
REMARK    9  A    between atoms: C20_33  and  N7_34 
ROOT
HETATM    1  C1  UNL     1      -2.205   3.207   0.790  1.00  0.00     0.149 C 
HETATM    2  N1  UNL     1      -0.864   3.586   0.447  1.00  0.00    -0.384 N 
HETATM    3  C2  UNL     1      -0.443   4.922   0.069  1.00  0.00     0.123 C 
HETATM    4  C3  UNL     1       0.975   5.180   0.514  1.00  0.00     0.024 C 
HETATM    5  C4  UNL     1       1.403   4.328   1.691  1.00  0.00     0.042 C 
HETATM    6  C5  UNL     1       1.328   2.914   1.270  1.00  0.00    -0.028 A 
HETATM    7  C6  UNL     1       2.280   2.002   1.523  1.00  0.00     0.039 A 
HETATM    8  C7  UNL     1       2.077   0.697   1.045  1.00  0.00     0.050 A 
HETATM    9  C14 UNL     1       0.940   0.383   0.340  1.00  0.00     0.046 A 
HETATM   10  C15 UNL     1      -0.067   1.337   0.065  1.00  0.00     0.020 A 
HETATM   11  C16 UNL     1      -1.200   0.914  -0.695  1.00  0.00     0.045 A 
HETATM   12  C17 UNL     1      -1.728  -0.345  -0.477  1.00  0.00     0.038 A 
HETATM   13  C18 UNL     1      -2.786  -0.805  -1.195  1.00  0.00    -0.050 A 
HETATM   14  C25 UNL     1      -3.321   0.024  -2.154  1.00  0.00     0.024 A 
HETATM   15  C26 UNL     1      -2.792   1.292  -2.376  1.00  0.00     0.089 A 
HETATM   16  N9  UNL     1      -1.754   1.663  -1.625  1.00  0.00    -0.365 N 
ATOM     17  H9  UNL     1      -1.362   2.592  -1.782  1.00  0.00     0.165 HD
HETATM   18  C27 UNL     1       0.151   2.567   0.539  1.00  0.00     0.049 A 
ENDROOT
BRANCH   8  19
HETATM   19  N2  UNL     1       3.089  -0.262   1.322  1.00  0.00    -0.192 N 
ATOM     20  H2  UNL     1       2.964  -0.897   2.110  1.00  0.00     0.184 HD
BRANCH  19  21
HETATM   21  C8  UNL     1       4.156  -0.356   0.613  1.00  0.00     0.684 A 
HETATM   22  N3  UNL     1       4.310   0.483  -0.423  1.00  0.00    -0.202 N 
HETATM   23  C9  UNL     1       5.377   0.487  -1.232  1.00  0.00     0.110 A 
ATOM     24  H3  UNL     1       3.569   1.159  -0.605  1.00  0.00     0.183 HD
HETATM   25  C10 UNL     1       6.379  -0.459  -0.952  1.00  0.00     0.066 A 
HETATM   26  C11 UNL     1       6.243  -1.328   0.100  1.00  0.00     0.118 A 
HETATM   27  N6  UNL     1       5.130  -1.237   0.842  1.00  0.00    -0.177 N 
ATOM     28  H6  UNL     1       5.022  -1.879   1.627  1.00  0.00     0.186 HD
BRANCH  26  29
HETATM   29  N4  UNL     1       7.154  -2.182   0.343  1.00  0.00    -0.374 N 
ATOM     30  H4  UNL     1       6.975  -2.789   1.143  1.00  0.00     0.161 HD
BRANCH  29  31
HETATM   31  C12 UNL     1       8.377  -2.418  -0.326  1.00  0.00     0.148 C 
BRANCH  31  32
HETATM   32  C13 UNL     1       8.766  -3.885  -0.364  1.00  0.00     0.249 C 
BRANCH  32  33
HETATM   33  N5  UNL     1      10.028  -4.048  -1.065  1.00  0.00    -0.078 N 
ATOM     34  H53 UNL     1      10.003  -3.635  -1.997  1.00  0.00     0.274 HD
ATOM     35  H52 UNL     1      10.765  -3.468  -0.664  1.00  0.00     0.274 HD
ATOM     36  H51 UNL     1      10.289  -5.034  -1.091  1.00  0.00     0.274 HD
ENDBRANCH  32  33
ENDBRANCH  31  32
ENDBRANCH  29  31
ENDBRANCH  26  29
ENDBRANCH  19  21
ENDBRANCH   8  19
BRANCH  13  37
HETATM   37  C19 UNL     1      -3.387  -2.141  -1.003  1.00  0.00     0.083 C 
BRANCH  37  38
HETATM   38  C20 UNL     1      -4.461  -2.197   0.010  1.00  0.00     0.062 C 
BRANCH  38  39
HETATM   39  N7  UNL     1      -5.613  -1.414  -0.161  1.00  0.00    -0.390 N 
HETATM   40  C21 UNL     1      -6.510  -1.728  -1.207  1.00  0.00     0.149 C 
HETATM   41  C22 UNL     1      -7.733  -2.495  -0.815  1.00  0.00     0.252 C 
HETATM   42  N8  UNL     1      -8.357  -2.059   0.397  1.00  0.00    -0.072 N 
HETATM   43  C23 UNL     1      -7.374  -2.031   1.441  1.00  0.00     0.252 C 
ATOM     44  H82 UNL     1      -8.835  -1.165   0.289  1.00  0.00     0.277 HD
ATOM     45  H81 UNL     1      -9.169  -2.625   0.642  1.00  0.00     0.277 HD
HETATM   46  C24 UNL     1      -6.270  -1.079   1.056  1.00  0.00     0.149 C 
ENDBRANCH  38  39
ENDBRANCH  37  38
ENDBRANCH  13  37
TORSDOF 9
