REMARK  9 active torsions:
REMARK  status: ('A' for Active; 'I' for Inactive)
REMARK    1  A    between atoms: N1_2  and  S1_4 
REMARK    2  A    between atoms: S1_4  and  C2_7 
REMARK    3  A    between atoms: C5_10  and  O3_11 
REMARK    4  A    between atoms: O3_11  and  C6_12 
REMARK    5  A    between atoms: C9_15  and  S2_16 
REMARK    6  A    between atoms: S2_16  and  N2_19 
REMARK    7  A    between atoms: N2_19  and  C10_21 
REMARK    8  A    between atoms: C20_33  and  C21_34 
REMARK    9  A    between atoms: C21_34  and  O6_35 
ROOT
HETATM    1  C6  UNL     1      -0.997   0.476   0.182  1.00  0.00     0.084 A 
HETATM    2  C7  UNL     1      -0.016   1.368  -0.273  1.00  0.00     0.039 A 
HETATM    3  C8  UNL     1       1.030   0.960  -1.057  1.00  0.00     0.028 A 
HETATM    4  C9  UNL     1       1.100  -0.360  -1.393  1.00  0.00     0.080 A 
HETATM    5  C19 UNL     1       0.165  -1.262  -0.971  1.00  0.00     0.037 A 
HETATM    6  C20 UNL     1      -0.901  -0.849  -0.171  1.00  0.00     0.001 A 
ENDROOT
BRANCH   4   7
HETATM    7  S2  UNL     1       2.425  -0.926  -2.394  1.00  0.00     0.264 S 
HETATM    8  O4  UNL     1       2.797   0.139  -3.404  1.00  0.00    -0.200 OA
HETATM    9  O5  UNL     1       1.926  -2.134  -3.193  1.00  0.00    -0.200 OA
BRANCH   7  10
HETATM   10  N2  UNL     1       3.741  -1.479  -1.471  1.00  0.00    -0.266 N 
ATOM     11  H2  UNL     1       3.771  -2.484  -1.297  1.00  0.00     0.180 HD
BRANCH  10  12
HETATM   12  C10 UNL     1       4.691  -0.802  -0.971  1.00  0.00     0.115 A 
HETATM   13  C11 UNL     1       4.826   0.557  -1.097  1.00  0.00     0.050 A 
HETATM   14  C12 UNL     1       5.911   1.201  -0.506  1.00  0.00     0.017 A 
HETATM   15  C13 UNL     1       6.853   0.499   0.203  1.00  0.00    -0.009 A 
HETATM   16  C14 UNL     1       7.925   1.135   0.787  1.00  0.00     0.013 A 
HETATM   17  C18 UNL     1       6.681  -0.867   0.306  1.00  0.00     0.043 A 
HETATM   18  C15 UNL     1       8.854   0.405   1.493  1.00  0.00     0.001 A 
HETATM   19  C16 UNL     1       8.712  -0.946   1.612  1.00  0.00     0.002 A 
HETATM   20  C17 UNL     1       7.637  -1.567   1.024  1.00  0.00     0.030 A 
HETATM   21  N3  UNL     1       5.646  -1.472  -0.259  1.00  0.00    -0.341 N 
ATOM     22  H3  UNL     1       5.558  -2.483  -0.158  1.00  0.00     0.167 HD
ENDBRANCH  10  12
ENDBRANCH   7  10
ENDBRANCH   4   7
BRANCH   6  23
HETATM   23  C21 UNL     1      -1.847  -1.903   0.280  1.00  0.00     0.205 C 
BRANCH  23  24
HETATM   24  O6  UNL     1      -1.459  -3.146  -0.240  1.00  0.00    -0.396 OA
ATOM     25  H6  UNL     1      -2.064  -3.820   0.048  1.00  0.00     0.209 HD
ENDBRANCH  23  24
ENDBRANCH   6  23
BRANCH   1  26
HETATM   26  O3  UNL     1      -1.986   0.965   0.951  1.00  0.00    -0.310 OA
BRANCH  26  27
HETATM   27  C5  UNL     1      -3.324   1.122   0.768  1.00  0.00     0.076 A 
HETATM   28  C4  UNL     1      -3.929   1.067  -0.463  1.00  0.00     0.039 A 
HETATM   29  C3  UNL     1      -5.284   1.222  -0.674  1.00  0.00     0.028 A 
HETATM   30  C2  UNL     1      -6.111   1.448   0.405  1.00  0.00     0.079 A 
HETATM   31  C23 UNL     1      -5.541   1.510   1.658  1.00  0.00     0.028 A 
HETATM   32  C22 UNL     1      -4.185   1.353   1.851  1.00  0.00     0.039 A 
BRANCH  30  33
HETATM   33  S1  UNL     1      -7.833   1.649   0.169  1.00  0.00     0.258 S 
HETATM   34  O1  UNL     1      -8.376   2.470   1.319  1.00  0.00    -0.201 OA
HETATM   35  O2  UNL     1      -8.147   2.363  -1.095  1.00  0.00    -0.201 OA
BRANCH  33  36
HETATM   36  N1  UNL     1      -8.593   0.100   0.270  1.00  0.00    -0.320 N 
HETATM   37  C1  UNL     1      -8.091  -0.787  -0.783  1.00  0.00     0.159 C 
ATOM     38  H1  UNL     1      -9.293  -0.160   0.965  1.00  0.00     0.171 HD
ENDBRANCH  33  36
ENDBRANCH  30  33
ENDBRANCH  26  27
ENDBRANCH   1  26
TORSDOF 9
