REMARK  7 active torsions:
REMARK  status: ('A' for Active; 'I' for Inactive)
REMARK    1  A    between atoms: C1_2  and  C2_4 
REMARK    2  A    between atoms: C5_7  and  N2_8 
REMARK    3  A    between atoms: N2_8  and  S1_10 
REMARK    4  A    between atoms: S1_10  and  C6_13 
REMARK    5  A    between atoms: C12_20  and  N3_21 
REMARK    6  A    between atoms: N3_21  and  S2_23 
REMARK    7  A    between atoms: S2_23  and  C13_26 
ROOT
HETATM    1  C6  UNL     1       1.254  -0.665   0.421  1.00  0.00     0.091 A 
HETATM    2  C7  UNL     1       1.674  -1.009  -0.848  1.00  0.00     0.026 A 
HETATM    3  C8  UNL     1       0.981  -0.748  -2.008  1.00  0.00     0.003 A 
HETATM    4  C9  UNL     1      -0.212  -0.105  -1.943  1.00  0.00     0.016 A 
HETATM    5  C10 UNL     1      -0.694   0.268  -0.729  1.00  0.00     0.028 A 
HETATM    6  C11 UNL     1      -1.917   0.910  -0.885  1.00  0.00     0.210 C 
HETATM    7  O4  UNL     1      -2.422   0.938  -2.026  1.00  0.00    -0.285 OA
HETATM    8  C12 UNL     1      -2.685   1.548   0.088  1.00  0.00     0.093 C 
HETATM    9  C19 UNL     1      -2.235   1.908   1.322  1.00  0.00     0.034 C 
HETATM   10  C20 UNL     1      -1.306   1.246   2.110  1.00  0.00     0.003 C 
HETATM   11  C21 UNL     1      -0.363   0.322   1.675  1.00  0.00     0.014 C 
HETATM   12  C22 UNL     1       0.014  -0.003   0.413  1.00  0.00     0.001 A 
ENDROOT
BRANCH   1  13
HETATM   13  S1  UNL     1       2.115  -1.017   1.862  1.00  0.00     0.264 S 
HETATM   14  O2  UNL     1       1.443  -2.114   2.692  1.00  0.00    -0.200 OA
HETATM   15  O3  UNL     1       2.440   0.169   2.730  1.00  0.00    -0.200 OA
BRANCH  13  16
HETATM   16  N2  UNL     1       3.644  -1.708   1.474  1.00  0.00    -0.281 N 
ATOM     17  H2  UNL     1       3.814  -2.656   1.809  1.00  0.00     0.179 HD
BRANCH  16  18
HETATM   18  C5  UNL     1       4.688  -1.100   0.741  1.00  0.00     0.042 A 
HETATM   19  C4  UNL     1       5.490  -1.795  -0.170  1.00  0.00     0.031 A 
HETATM   20  C3  UNL     1       6.520  -1.246  -0.860  1.00  0.00     0.019 A 
HETATM   21  C2  UNL     1       6.805   0.094  -0.656  1.00  0.00     0.029 A 
HETATM   22  C24 UNL     1       6.052   0.832   0.228  1.00  0.00     0.019 A 
HETATM   23  C23 UNL     1       4.994   0.224   0.923  1.00  0.00     0.031 A 
BRANCH  21  24
HETATM   24  C1  UNL     1       7.909   0.706  -1.388  1.00  0.00     0.264 C 
HETATM   25  N1  UNL     1       8.685  -0.056  -2.299  1.00  0.00    -0.057 NA
HETATM   26  O1  UNL     1       8.201   1.915  -1.234  1.00  0.00    -0.271 OA
ENDBRANCH  21  24
ENDBRANCH  16  18
ENDBRANCH  13  16
ENDBRANCH   1  13
BRANCH   8  27
HETATM   27  N3  UNL     1      -4.009   1.852  -0.237  1.00  0.00    -0.277 N 
ATOM     28  H3  UNL     1      -4.250   2.056  -1.207  1.00  0.00     0.179 HD
BRANCH  27  29
HETATM   29  S2  UNL     1      -5.236   1.890   0.955  1.00  0.00     0.263 S 
HETATM   30  O5  UNL     1      -5.971   3.190   0.825  1.00  0.00    -0.200 OA
HETATM   31  O6  UNL     1      -4.724   1.799   2.353  1.00  0.00    -0.200 OA
BRANCH  29  32
HETATM   32  C13 UNL     1      -6.349   0.566   0.638  1.00  0.00     0.079 A 
HETATM   33  C14 UNL     1      -7.421   0.818  -0.189  1.00  0.00     0.025 A 
HETATM   34  C15 UNL     1      -8.328  -0.202  -0.468  1.00  0.00     0.002 A 
HETATM   35  C16 UNL     1      -8.128  -1.446   0.095  1.00  0.00     0.000 A 
HETATM   36  C17 UNL     1      -7.054  -1.699   0.923  1.00  0.00     0.002 A 
HETATM   37  C18 UNL     1      -6.169  -0.680   1.187  1.00  0.00     0.025 A 
ENDBRANCH  29  32
ENDBRANCH  27  29
ENDBRANCH   8  27
TORSDOF 7
