REMARK  10 active torsions:
REMARK  status: ('A' for Active; 'I' for Inactive)
REMARK    1  A    between atoms: N1_1  and  S1_4 
REMARK    2  A    between atoms: S1_4  and  C1_7 
REMARK    3  A    between atoms: C4_10  and  N2_11 
REMARK    4  A    between atoms: N2_11  and  C5_13 
REMARK    5  A    between atoms: C6_16  and  N4_17 
REMARK    6  A    between atoms: N4_17  and  C7_19 
REMARK    7  A    between atoms: C7_19  and  C8_20 
REMARK    8  A    between atoms: C8_20  and  C9_21 
REMARK    9  A    between atoms: C9_21  and  C10_22 
REMARK   10  A    between atoms: C10_22  and  N5_23 
ROOT
HETATM    1  C5  UNL     1       4.609  -0.290  -0.457  1.00  0.00     0.262 A 
HETATM    2  N3  UNL     1       3.478  -0.201  -1.190  1.00  0.00    -0.152 N 
ATOM      3  H3  UNL     1       3.388   0.304  -2.072  1.00  0.00     0.188 HD
HETATM    4  C6  UNL     1       2.490  -0.878  -0.583  1.00  0.00     0.701 A 
HETATM    5  N6  UNL     1       3.058  -1.382   0.543  1.00  0.00    -0.088 N 
ATOM      6  H6  UNL     1       2.588  -1.954   1.245  1.00  0.00     0.214 HD
HETATM    7  O3  UNL     1       4.311  -1.007   0.573  1.00  0.00    -0.185 OA
ENDROOT
BRANCH   4   8
HETATM    8  N4  UNL     1       1.254  -1.015  -0.993  1.00  0.00    -0.224 N 
ATOM      9  H4  UNL     1       0.588  -1.558  -0.443  1.00  0.00     0.177 HD
BRANCH   8  10
HETATM   10  C7  UNL     1       0.846  -0.400  -2.214  1.00  0.00     0.138 C 
BRANCH  10  11
HETATM   11  C8  UNL     1       0.026   0.816  -1.951  1.00  0.00     0.022 C 
BRANCH  11  12
HETATM   12  C9  UNL     1      -1.269   0.547  -1.306  1.00  0.00     0.021 C 
BRANCH  12  13
HETATM   13  C10 UNL     1      -1.307  -0.145   0.014  1.00  0.00     0.122 C 
BRANCH  13  14
HETATM   14  N5  UNL     1      -2.689  -0.184   0.427  1.00  0.00    -0.393 N 
HETATM   15  C11 UNL     1      -3.311   1.006   0.799  1.00  0.00     0.059 C 
HETATM   16  C12 UNL     1      -4.621   1.147   0.042  1.00  0.00     0.058 C 
HETATM   17  C13 UNL     1      -5.421  -0.115   0.296  1.00  0.00    -0.007 C 
HETATM   18  C14 UNL     1      -5.781  -0.254   1.749  1.00  0.00     0.019 C 
HETATM   19  C21 UNL     1      -6.721  -0.005  -0.370  1.00  0.00    -0.043 A 
HETATM   20  C22 UNL     1      -4.677  -1.331  -0.195  1.00  0.00     0.034 C 
HETATM   21  C15 UNL     1      -6.890   0.807   1.846  1.00  0.00     0.040 C 
HETATM   22  C16 UNL     1      -7.599   0.559   0.551  1.00  0.00    -0.051 A 
HETATM   23  C17 UNL     1      -8.894   0.770   0.142  1.00  0.00     0.007 A 
HETATM   24  C18 UNL     1      -9.363   0.455  -1.120  1.00  0.00     0.001 A 
HETATM   25  C19 UNL     1      -8.494  -0.105  -2.035  1.00  0.00     0.001 A 
HETATM   26  C20 UNL     1      -7.190  -0.324  -1.641  1.00  0.00     0.008 A 
HETATM   27  C23 UNL     1      -3.324  -1.417   0.528  1.00  0.00     0.123 C 
ENDBRANCH  13  14
ENDBRANCH  12  13
ENDBRANCH  11  12
ENDBRANCH  10  11
ENDBRANCH   8  10
ENDBRANCH   4   8
BRANCH   1  28
HETATM   28  N2  UNL     1       5.720   0.240  -0.762  1.00  0.00    -0.320 N 
ATOM     29  H2  UNL     1       5.731   0.769  -1.634  1.00  0.00     0.169 HD
BRANCH  28  30
HETATM   30  C4  UNL     1       6.933   0.199  -0.066  1.00  0.00     0.035 A 
HETATM   31  C3  UNL     1       7.657   1.402   0.037  1.00  0.00     0.031 A 
HETATM   32  C2  UNL     1       8.847   1.394   0.704  1.00  0.00     0.027 A 
HETATM   33  C1  UNL     1       9.390   0.276   1.287  1.00  0.00     0.079 A 
HETATM   34  C25 UNL     1       8.673  -0.898   1.180  1.00  0.00     0.027 A 
HETATM   35  C24 UNL     1       7.466  -0.934   0.515  1.00  0.00     0.031 A 
BRANCH  33  36
HETATM   36  S1  UNL     1      10.919   0.400   2.117  1.00  0.00     0.256 S 
HETATM   37  O1  UNL     1      10.984  -0.634   3.185  1.00  0.00    -0.201 OA
HETATM   38  O2  UNL     1      11.022   1.771   2.726  1.00  0.00    -0.201 OA
BRANCH  36  39
HETATM   39  N1  UNL     1      12.221   0.139   0.987  1.00  0.00    -0.324 N 
ATOM     40  H12 UNL     1      12.911  -0.609   1.060  1.00  0.00     0.169 HD
ATOM     41  H11 UNL     1      12.176   0.848   0.255  1.00  0.00     0.169 HD
ENDBRANCH  36  39
ENDBRANCH  33  36
ENDBRANCH  28  30
ENDBRANCH   1  28
TORSDOF 10
