REMARK  8 active torsions:
REMARK  status: ('A' for Active; 'I' for Inactive)
REMARK       I    between atoms: C1_2  and  N1_3 
REMARK    1  A    between atoms: C1_2  and  C11_22 
REMARK    2  A    between atoms: N1_3  and  C2_5 
REMARK    3  A    between atoms: C5_8  and  S1_9 
REMARK    4  A    between atoms: S1_9  and  N2_12 
REMARK    5  A    between atoms: N2_12  and  C6_14 
REMARK    6  A    between atoms: C15_26  and  S2_27 
REMARK    7  A    between atoms: S2_27  and  N4_30 
REMARK    8  A    between atoms: N4_30  and  C16_32 
ROOT
HETATM    1  O1  UNL     1       0.502  -0.602   1.317  1.00  0.00    -0.267 OA
HETATM    2  C1  UNL     1       0.012   0.185   0.451  1.00  0.00     0.256 C 
HETATM    3  N1  UNL     1       0.752   0.490  -0.698  1.00  0.00    -0.323 N 
ATOM      4  H1  UNL     1       0.304   1.122  -1.361  1.00  0.00     0.169 HD
ENDROOT
BRANCH   2   5
HETATM    5  C11 UNL     1      -1.320   0.739   0.705  1.00  0.00     0.033 A 
HETATM    6  C12 UNL     1      -1.797   1.822   0.043  1.00  0.00     0.017 A 
HETATM    7  C13 UNL     1      -3.082   2.313   0.314  1.00  0.00     0.003 A 
HETATM    8  C14 UNL     1      -3.847   1.676   1.261  1.00  0.00     0.025 A 
HETATM    9  C15 UNL     1      -3.383   0.573   1.948  1.00  0.00     0.080 A 
HETATM   10  C22 UNL     1      -2.117   0.106   1.667  1.00  0.00     0.042 A 
BRANCH   9  11
HETATM   11  S2  UNL     1      -4.430  -0.171   3.132  1.00  0.00     0.263 S 
HETATM   12  O5  UNL     1      -5.296   0.913   3.711  1.00  0.00    -0.200 OA
HETATM   13  O6  UNL     1      -3.577  -0.786   4.232  1.00  0.00    -0.200 OA
BRANCH  11  14
HETATM   14  N4  UNL     1      -5.332  -1.406   2.361  1.00  0.00    -0.281 N 
ATOM     15  H4  UNL     1      -5.231  -2.373   2.670  1.00  0.00     0.179 HD
BRANCH  14  16
HETATM   16  C16 UNL     1      -6.218  -1.099   1.297  1.00  0.00     0.042 A 
HETATM   17  C17 UNL     1      -7.119  -0.059   1.355  1.00  0.00     0.030 A 
HETATM   18  C18 UNL     1      -7.968   0.205   0.305  1.00  0.00     0.002 A 
HETATM   19  C19 UNL     1      -7.920  -0.585  -0.830  1.00  0.00     0.000 A 
HETATM   20  C20 UNL     1      -7.023  -1.626  -0.898  1.00  0.00     0.002 A 
HETATM   21  C21 UNL     1      -6.187  -1.887   0.136  1.00  0.00     0.030 A 
ENDBRANCH  14  16
ENDBRANCH  11  14
ENDBRANCH   9  11
ENDBRANCH   2   5
BRANCH   3  22
HETATM   22  C2  UNL     1       2.036   0.035  -1.054  1.00  0.00     0.035 A 
HETATM   23  C3  UNL     1       2.921  -0.549  -0.193  1.00  0.00     0.031 A 
HETATM   24  C4  UNL     1       4.180  -0.995  -0.641  1.00  0.00     0.027 A 
HETATM   25  C5  UNL     1       4.571  -0.864  -1.951  1.00  0.00     0.080 A 
HETATM   26  C9  UNL     1       3.693  -0.280  -2.825  1.00  0.00     0.027 A 
HETATM   27  C10 UNL     1       2.466   0.155  -2.390  1.00  0.00     0.031 A 
BRANCH  25  28
HETATM   28  S1  UNL     1       6.134  -1.424  -2.484  1.00  0.00     0.265 S 
HETATM   29  O2  UNL     1       6.506  -2.624  -1.675  1.00  0.00    -0.200 OA
HETATM   30  O3  UNL     1       6.065  -1.869  -3.928  1.00  0.00    -0.200 OA
BRANCH  28  31
HETATM   31  N2  UNL     1       7.316  -0.199  -2.347  1.00  0.00    -0.245 N 
ATOM     32  H2  UNL     1       7.525   0.356  -3.177  1.00  0.00     0.182 HD
BRANCH  31  33
HETATM   33  C6  UNL     1       7.958   0.070  -1.271  1.00  0.00     0.237 A 
HETATM   34  N3  UNL     1       7.883  -0.491  -0.056  1.00  0.00    -0.330 N 
HETATM   35  C7  UNL     1       8.754   0.136   0.742  1.00  0.00     0.116 A 
ATOM     36  H3  UNL     1       7.270  -1.260   0.213  1.00  0.00     0.168 HD
HETATM   37  C8  UNL     1       9.365   1.097  -0.018  1.00  0.00     0.162 A 
HETATM   38  O4  UNL     1       8.868   1.031  -1.212  1.00  0.00    -0.290 OA
ENDBRANCH  31  33
ENDBRANCH  28  31
ENDBRANCH  25  28
ENDBRANCH   3  22
TORSDOF 8
