REMARK  11 active torsions:
REMARK  status: ('A' for Active; 'I' for Inactive)
REMARK    1  A    between atoms: C3_5  and  C4_6 
REMARK    2  A    between atoms: C4_6  and  C5_7 
REMARK    3  A    between atoms: C5_7  and  C6_8 
REMARK    4  A    between atoms: C16_18  and  N3_19 
REMARK    5  A    between atoms: N4_22  and  C17_23 
REMARK    6  A    between atoms: C17_23  and  C18_24 
REMARK    7  A    between atoms: C18_24  and  C19_25 
REMARK    8  A    between atoms: C19_25  and  C20_26 
REMARK    9  A    between atoms: C20_26  and  C21_27 
REMARK   10  A    between atoms: C21_27  and  C22_28 
REMARK   11  A    between atoms: C22_28  and  N5_29 
REMARK       I    between atoms: N5_29  and  C23_31 
REMARK       I    between atoms: C23_31  and  N6_33 
ROOT
HETATM    1  C1  UNL     1      -0.930   0.728   4.656  1.00  0.00     0.162 C 
HETATM    2  N1  UNL     1      -0.994   0.270   3.271  1.00  0.00    -0.290 N 
HETATM    3  C2  UNL     1      -2.198   0.288   2.671  1.00  0.00     0.144 A 
HETATM    4  N2  UNL     1      -3.385   0.729   3.326  1.00  0.00    -0.081 NA
HETATM    5  C3  UNL     1      -2.286  -0.141   1.360  1.00  0.00     0.102 A 
HETATM    6  C16 UNL     1      -1.141  -0.567   0.724  1.00  0.00     0.127 A 
HETATM    7  N4  UNL     1       0.065  -0.579   1.344  1.00  0.00    -0.284 N 
HETATM    8  C28 UNL     1       0.105  -0.155   2.616  1.00  0.00     0.331 A 
HETATM    9  O2  UNL     1       1.174  -0.127   3.281  1.00  0.00    -0.246 OA
ENDROOT
BRANCH   7  10
HETATM   10  C17 UNL     1       1.242  -1.036   0.671  1.00  0.00     0.135 C 
BRANCH  10  11
HETATM   11  C18 UNL     1       1.987  -0.009  -0.110  1.00  0.00     0.020 C 
BRANCH  11  12
HETATM   12  C19 UNL     1       2.496   1.158   0.662  1.00  0.00     0.002 C 
BRANCH  12  13
HETATM   13  C20 UNL     1       3.228   2.136  -0.221  1.00  0.00     0.002 C 
BRANCH  13  14
HETATM   14  C21 UNL     1       4.400   1.519  -0.900  1.00  0.00     0.020 C 
BRANCH  14  15
HETATM   15  C22 UNL     1       5.379   0.997   0.116  1.00  0.00     0.124 C 
BRANCH  15  16
HETATM   16  N5  UNL     1       6.538   0.401  -0.534  1.00  0.00    -0.343 N 
HETATM   17  C23 UNL     1       7.589  -0.155   0.230  1.00  0.00     0.318 C 
HETATM   18  O1  UNL     1       7.501  -0.125   1.494  1.00  0.00    -0.247 OA
HETATM   19  N6  UNL     1       8.705  -0.728  -0.433  1.00  0.00    -0.334 N 
HETATM   20  C24 UNL     1       8.909  -0.817  -1.844  1.00  0.00     0.127 C 
HETATM   21  C27 UNL     1       9.848  -1.331   0.202  1.00  0.00     0.127 C 
HETATM   22  C25 UNL     1      10.397  -0.588  -2.012  1.00  0.00     0.022 C 
HETATM   23  C26 UNL     1      10.978  -1.234  -0.797  1.00  0.00     0.022 C 
ATOM     24  H5  UNL     1       6.592   0.385  -1.552  1.00  0.00     0.164 HD
ENDBRANCH  15  16
ENDBRANCH  14  15
ENDBRANCH  13  14
ENDBRANCH  12  13
ENDBRANCH  11  12
ENDBRANCH  10  11
ENDBRANCH   7  10
BRANCH   6  25
HETATM   25  N3  UNL     1      -1.203  -0.973  -0.506  1.00  0.00    -0.384 N 
ATOM     26  H32 UNL     1      -2.110  -0.964  -0.972  1.00  0.00     0.157 HD
ATOM     27  H31 UNL     1      -0.355  -1.288  -0.977  1.00  0.00     0.157 HD
ENDBRANCH   6  25
BRANCH   5  28
HETATM   28  C4  UNL     1      -3.542  -0.152   0.645  1.00  0.00    -0.059 C 
BRANCH  28  29
HETATM   29  C5  UNL     1      -4.605  -0.164   0.062  1.00  0.00    -0.091 C 
BRANCH  29  30
HETATM   30  C6  UNL     1      -5.904  -0.169  -0.627  1.00  0.00     0.025 C 
HETATM   31  C7  UNL     1      -6.567  -1.505  -0.428  1.00  0.00     0.027 C 
HETATM   32  C8  UNL     1      -7.927  -1.480  -1.074  1.00  0.00    -0.012 C 
HETATM   33  C9  UNL     1      -8.802  -0.388  -0.544  1.00  0.00     0.009 C 
HETATM   34  C13 UNL     1      -7.717  -1.223  -2.556  1.00  0.00     0.009 C 
HETATM   35  C10 UNL     1      -8.106   0.930  -0.768  1.00  0.00    -0.012 C 
HETATM   36  C11 UNL     1      -7.861   1.199  -2.228  1.00  0.00     0.009 C 
HETATM   37  C15 UNL     1      -6.802   0.915  -0.032  1.00  0.00     0.027 C 
HETATM   38  C12 UNL     1      -7.016   0.086  -2.787  1.00  0.00    -0.012 C 
HETATM   39  C14 UNL     1      -5.658   0.094  -2.077  1.00  0.00     0.027 C 
ENDBRANCH  29  30
ENDBRANCH  28  29
ENDBRANCH   5  28
TORSDOF 11
