REMARK  8 active torsions:
REMARK  status: ('A' for Active; 'I' for Inactive)
REMARK    1  A    between atoms: C2_3  and  C3_4 
REMARK    2  A    between atoms: C3_4  and  N2_5 
REMARK    3  A    between atoms: C5_7  and  C6_8 
REMARK    4  A    between atoms: C7_11  and  N4_12 
REMARK    5  A    between atoms: N6_21  and  S2_22 
REMARK    6  A    between atoms: S2_22  and  N7_25 
REMARK    7  A    between atoms: C16_31  and  C17_32 
REMARK    8  A    between atoms: C17_32  and  C18_33 
ROOT
HETATM    1  N1  UNL     1       3.553  -0.378   3.269  1.00  0.00    -0.197 NA
HETATM    2  C1  UNL     1       3.309  -1.131   2.446  1.00  0.00     0.061 C 
HETATM    3  C2  UNL     1       2.984  -2.075   1.389  1.00  0.00     0.156 C 
ENDROOT
BRANCH   3   4
HETATM    4  C3  UNL     1       2.922  -1.367   0.048  1.00  0.00     0.065 C 
HETATM    5  C9  UNL     1       2.306  -2.291  -0.928  1.00  0.00     0.049 C 
HETATM    6  C10 UNL     1       0.802  -1.966  -0.887  1.00  0.00     0.111 C 
HETATM    7  N6  UNL     1       0.618  -0.952   0.067  1.00  0.00    -0.191 NA
HETATM    8  C22 UNL     1       1.875  -0.247   0.212  1.00  0.00     0.141 C 
BRANCH   4   9
HETATM    9  N2  UNL     1       4.155  -0.746  -0.308  1.00  0.00    -0.321 N 
HETATM   10  C4  UNL     1       4.321   0.576  -0.121  1.00  0.00     0.115 A 
HETATM   11  C5  UNL     1       5.493   1.273  -0.435  1.00  0.00     0.088 A 
HETATM   12  C7  UNL     1       6.527   0.542  -0.965  1.00  0.00     0.117 A 
HETATM   13  N5  UNL     1       6.313  -0.812  -1.139  1.00  0.00    -0.319 N 
HETATM   14  C8  UNL     1       5.198  -1.445  -0.835  1.00  0.00     0.180 A 
ATOM     15  H5  UNL     1       7.076  -1.363  -1.532  1.00  0.00     0.170 HD
HETATM   16  S1  UNL     1       4.990  -3.044  -1.053  1.00  0.00    -0.040 SA
BRANCH  11  17
HETATM   17  C6  UNL     1       5.591   2.697  -0.205  1.00  0.00     0.270 C 
HETATM   18  N3  UNL     1       6.707   3.510  -0.463  1.00  0.00    -0.057 NA
HETATM   19  O1  UNL     1       4.567   3.300   0.282  1.00  0.00    -0.271 OA
ENDBRANCH  11  17
BRANCH  12  20
HETATM   20  N4  UNL     1       7.646   1.000  -1.304  1.00  0.00    -0.385 N 
ATOM     21  H42 UNL     1       7.804   1.999  -1.176  1.00  0.00     0.157 HD
ATOM     22  H41 UNL     1       8.414   0.457  -1.698  1.00  0.00     0.157 HD
ENDBRANCH  12  20
ENDBRANCH   4   9
BRANCH   7  23
HETATM   23  S2  UNL     1      -0.738   0.056  -0.054  1.00  0.00     0.304 S 
HETATM   24  O2  UNL     1      -0.660   0.770  -1.415  1.00  0.00    -0.188 OA
HETATM   25  O3  UNL     1      -0.541   1.157   0.971  1.00  0.00    -0.188 OA
BRANCH  23  26
HETATM   26  N7  UNL     1      -2.230  -0.697   0.083  1.00  0.00    -0.273 N 
HETATM   27  C11 UNL     1      -2.598  -1.669  -0.860  1.00  0.00     0.077 C 
HETATM   28  C12 UNL     1      -2.919  -3.032  -0.305  1.00  0.00     0.045 C 
HETATM   29  C13 UNL     1      -3.707  -3.076   0.934  1.00  0.00     0.005 C 
HETATM   30  C14 UNL     1      -3.984  -1.797   1.627  1.00  0.00     0.002 C 
HETATM   31  C15 UNL     1      -4.512  -0.711   0.740  1.00  0.00     0.026 C 
HETATM   32  C16 UNL     1      -3.334   0.168   0.378  1.00  0.00     0.102 C 
BRANCH  32  33
HETATM   33  C17 UNL     1      -3.645   1.145  -0.726  1.00  0.00     0.031 C 
BRANCH  33  34
HETATM   34  C18 UNL     1      -4.819   2.037  -0.367  1.00  0.00    -0.013 C 
HETATM   35  C19 UNL     1      -4.541   2.845   0.885  1.00  0.00     0.005 C 
HETATM   36  C20 UNL     1      -4.848   4.117   0.128  1.00  0.00     0.001 C 
HETATM   37  C21 UNL     1      -4.789   3.326  -1.156  1.00  0.00     0.005 C 
ENDBRANCH  33  34
ENDBRANCH  32  33
ENDBRANCH  23  26
ENDBRANCH   7  23
ENDBRANCH   3   4
TORSDOF 8
