REMARK  10 active torsions:
REMARK  status: ('A' for Active; 'I' for Inactive)
REMARK    1  A    between atoms: O1_2  and  C2_3 
REMARK    2  A    between atoms: C5_6  and  N1_7 
REMARK    3  A    between atoms: N1_7  and  C6_9 
REMARK    4  A    between atoms: C9_15  and  N3_16 
REMARK    5  A    between atoms: N3_16  and  C10_18 
REMARK    6  A    between atoms: C10_18  and  C11_19 
REMARK    7  A    between atoms: C11_19  and  C12_20 
REMARK    8  A    between atoms: C12_20  and  N4_21 
REMARK    9  A    between atoms: C19_31  and  C20_32 
REMARK   10  A    between atoms: N8_41  and  O2_42 
ROOT
HETATM    1  N1  UNL     1      -1.654  -1.023  -1.252  1.00  0.00    -0.192 N 
ATOM      2  H1  UNL     1      -1.340  -0.590  -2.121  1.00  0.00     0.184 HD
ENDROOT
BRANCH   1   3
HETATM    3  C5  UNL     1      -3.031  -1.437  -1.104  1.00  0.00     0.050 A 
HETATM    4  C4  UNL     1      -3.393  -2.752  -1.265  1.00  0.00     0.033 A 
HETATM    5  C3  UNL     1      -4.713  -3.107  -1.116  1.00  0.00     0.040 A 
HETATM    6  C2  UNL     1      -5.697  -2.146  -0.802  1.00  0.00     0.082 A 
HETATM    7  C19 UNL     1      -5.356  -0.851  -0.640  1.00  0.00     0.046 A 
HETATM    8  C18 UNL     1      -4.000  -0.520  -0.799  1.00  0.00     0.048 A 
BRANCH   6   9
HETATM    9  O1  UNL     1      -7.004  -2.577  -0.675  1.00  0.00    -0.355 OA
HETATM   10  C1  UNL     1      -7.305  -3.939  -0.857  1.00  0.00     0.210 C 
ENDBRANCH   6   9
BRANCH   7  11
HETATM   11  C20 UNL     1      -6.276   0.231  -0.244  1.00  0.00     0.147 A 
HETATM   12  N7  UNL     1      -5.972   1.560  -0.397  1.00  0.00    -0.338 N 
HETATM   13  C21 UNL     1      -6.941   2.336   0.086  1.00  0.00     0.063 A 
ATOM     14  H7  UNL     1      -5.115   1.909  -0.825  1.00  0.00     0.167 HD
HETATM   15  C22 UNL     1      -7.119   3.719   0.172  1.00  0.00     0.032 A 
HETATM   16  C26 UNL     1      -7.911   1.507   0.570  1.00  0.00     0.091 A 
HETATM   17  C23 UNL     1      -8.253   4.250   0.736  1.00  0.00     0.002 A 
HETATM   18  C24 UNL     1      -9.221   3.398   1.220  1.00  0.00     0.002 A 
HETATM   19  C25 UNL     1      -9.056   2.021   1.140  1.00  0.00     0.034 A 
HETATM   20  N8  UNL     1      -7.459   0.226   0.347  1.00  0.00    -0.205 N 
BRANCH  20  21
HETATM   21  O2  UNL     1      -8.209  -0.845   0.762  1.00  0.00    -0.281 OA
ATOM     22  H2  UNL     1      -9.059  -0.849   1.187  1.00  0.00     0.245 HD
ENDBRANCH  20  21
ENDBRANCH   7  11
ENDBRANCH   1   3
BRANCH   1  23
HETATM   23  C6  UNL     1      -0.821  -1.204  -0.277  1.00  0.00     0.684 A 
HETATM   24  N2  UNL     1      -1.173  -1.770   0.893  1.00  0.00    -0.200 N 
HETATM   25  C7  UNL     1      -0.263  -1.939   1.889  1.00  0.00     0.133 A 
ATOM     26  H2  UNL     1      -2.136  -2.076   1.034  1.00  0.00     0.183 HD
HETATM   27  C8  UNL     1       1.048  -1.543   1.747  1.00  0.00     0.094 A 
HETATM   28 CL1  UNL     1       2.214  -1.765   3.035  1.00  0.00    -0.079 Cl
HETATM   29  C9  UNL     1       1.398  -0.957   0.527  1.00  0.00     0.140 A 
HETATM   30  N6  UNL     1       0.457  -0.815  -0.423  1.00  0.00    -0.175 N 
ATOM     31  H6  UNL     1       0.730  -0.386  -1.307  1.00  0.00     0.186 HD
BRANCH  29  32
HETATM   32  N3  UNL     1       2.609  -0.592   0.399  1.00  0.00    -0.374 N 
ATOM     33  H3  UNL     1       3.217  -0.759   1.200  1.00  0.00     0.161 HD
BRANCH  32  34
HETATM   34  C10 UNL     1       3.218   0.027  -0.740  1.00  0.00     0.123 C 
BRANCH  34  35
HETATM   35  C11 UNL     1       4.362   0.948  -0.352  1.00  0.00     0.050 C 
BRANCH  35  36
HETATM   36  C12 UNL     1       5.448   0.192   0.376  1.00  0.00     0.274 C 
BRANCH  36  37
HETATM   37  N4  UNL     1       6.543   1.018   0.769  1.00  0.00     0.091 N 
HETATM   38  C13 UNL     1       7.581   0.287   1.464  1.00  0.00     0.302 C 
HETATM   39  C14 UNL     1       8.567  -0.351   0.523  1.00  0.00     0.302 C 
HETATM   40  N5  UNL     1       8.859   0.386  -0.652  1.00  0.00     0.087 N 
HETATM   41  C15 UNL     1       9.995   1.272  -0.524  1.00  0.00     0.310 C 
HETATM   42  C16 UNL     1       7.727   1.027  -1.275  1.00  0.00     0.302 C 
HETATM   43  C17 UNL     1       7.061   1.895  -0.233  1.00  0.00     0.302 C 
ENDBRANCH  36  37
ENDBRANCH  35  36
ENDBRANCH  34  35
ENDBRANCH  32  34
ENDBRANCH  29  32
ENDBRANCH   1  23
TORSDOF 10
