REMARK  9 active torsions:
REMARK  status: ('A' for Active; 'I' for Inactive)
REMARK    1  A    between atoms: C2_5  and  O2_6 
REMARK    2  A    between atoms: C3_8  and  C4_9 
REMARK    3  A    between atoms: N2_10  and  C5_12 
REMARK    4  A    between atoms: C5_12  and  C6_13 
REMARK    5  A    between atoms: C5_12  and  C13_22 
REMARK    6  A    between atoms: C6_13  and  O3_14 
REMARK    7  A    between atoms: O3_14  and  C7_15 
REMARK    8  A    between atoms: C13_22  and  O4_23 
REMARK    9  A    between atoms: O4_23  and  C14_24 
ROOT
HETATM    1  C5  UNL     1      -0.721  -0.722   0.863  1.00  0.00     0.129 C 
ENDROOT
BRANCH   1   2
HETATM    2  N2  UNL     1      -1.601  -1.858   0.689  1.00  0.00    -0.389 N 
HETATM    3  C4  UNL     1      -1.304  -3.002   1.200  1.00  0.00     0.105 C 
ATOM      4  H2  UNL     1      -2.464  -1.751   0.157  1.00  0.00     0.159 HD
BRANCH   3   5
HETATM    5  C3  UNL     1      -2.226  -4.124   0.997  1.00  0.00     0.098 A 
HETATM    6  C2  UNL     1      -3.382  -3.962   0.278  1.00  0.00     0.161 A 
HETATM    7  N1  UNL     1      -4.239  -4.962   0.077  1.00  0.00    -0.288 N 
HETATM    8  C1  UNL     1      -3.934  -6.161   0.610  1.00  0.00     0.329 A 
ATOM      9  H1  UNL     1      -5.095  -4.825  -0.461  1.00  0.00     0.172 HD
HETATM   10  O1  UNL     1      -4.761  -7.102   0.408  1.00  0.00    -0.247 OA
HETATM   11  N3  UNL     1      -2.820  -6.375   1.320  1.00  0.00    -0.275 N 
HETATM   12  C24 UNL     1      -1.954  -5.369   1.524  1.00  0.00     0.265 A 
ATOM     13  H3  UNL     1      -2.629  -7.300   1.705  1.00  0.00     0.173 HD
HETATM   14  O5  UNL     1      -0.906  -5.568   2.192  1.00  0.00    -0.267 OA
BRANCH   6  15
HETATM   15  O2  UNL     1      -3.656  -2.714  -0.251  1.00  0.00    -0.345 OA
ATOM     16  H2  UNL     1      -3.045  -2.001  -0.108  1.00  0.00     0.219 HD
ENDBRANCH   6  15
ENDBRANCH   3   5
ENDBRANCH   1   2
BRANCH   1  17
HETATM   17  C6  UNL     1      -1.474   0.504   0.465  1.00  0.00     0.203 C 
BRANCH  17  18
HETATM   18  O3  UNL     1      -0.747   1.688   0.581  1.00  0.00    -0.349 OA
BRANCH  18  19
HETATM   19  C7  UNL     1      -1.375   2.876   0.230  1.00  0.00     0.068 A 
HETATM   20  C8  UNL     1      -0.702   4.077   0.326  1.00  0.00     0.038 A 
HETATM   21  C9  UNL     1      -1.312   5.271  -0.020  1.00  0.00     0.022 A 
HETATM   22  C10 UNL     1      -2.616   5.308  -0.473  1.00  0.00     0.011 A 
HETATM   23 BR1  UNL     1      -3.443   6.970  -0.946  1.00  0.00    -0.051 Br
HETATM   24  C11 UNL     1      -3.288   4.109  -0.569  1.00  0.00     0.022 A 
HETATM   25  C12 UNL     1      -2.679   2.919  -0.224  1.00  0.00     0.038 A 
ENDBRANCH  18  19
ENDBRANCH  17  18
ENDBRANCH   1  17
BRANCH   1  26
HETATM   26  C13 UNL     1       0.500  -0.964  -0.000  1.00  0.00     0.203 C 
BRANCH  26  27
HETATM   27  O4  UNL     1       1.407   0.141   0.140  1.00  0.00    -0.348 OA
BRANCH  27  28
HETATM   28  C14 UNL     1       2.610   0.168  -0.549  1.00  0.00     0.080 A 
HETATM   29  C15 UNL     1       2.972  -0.863  -1.388  1.00  0.00     0.037 A 
HETATM   30  C16 UNL     1       4.180  -0.784  -2.049  1.00  0.00     0.004 A 
HETATM   31  C17 UNL     1       5.015   0.301  -1.878  1.00  0.00     0.012 A 
HETATM   32  C18 UNL     1       4.616   1.310  -1.030  1.00  0.00    -0.023 A 
HETATM   33  C19 UNL     1       5.421   2.414  -0.830  1.00  0.00     0.012 A 
HETATM   34  C23 UNL     1       3.417   1.287  -0.341  1.00  0.00     0.007 A 
HETATM   35  C20 UNL     1       5.045   3.431   0.010  1.00  0.00     0.001 A 
HETATM   36  C21 UNL     1       3.848   3.396   0.690  1.00  0.00     0.001 A 
HETATM   37  C22 UNL     1       3.028   2.303   0.505  1.00  0.00     0.015 A 
ENDBRANCH  27  28
ENDBRANCH  26  27
ENDBRANCH   1  26
TORSDOF 9
