REMARK  10 active torsions:
REMARK  status: ('A' for Active; 'I' for Inactive)
REMARK    1  A    between atoms: C4_4  and  C5_5 
REMARK    2  A    between atoms: C5_5  and  C6_6 
REMARK    3  A    between atoms: C6_6  and  N1_7 
REMARK       I    between atoms: N1_7  and  C7_9 
REMARK    4  A    between atoms: C7_9  and  C8_11 
REMARK    5  A    between atoms: C10_15  and  N3_16 
REMARK    6  A    between atoms: N3_16  and  C11_17 
REMARK    7  A    between atoms: C14_20  and  N4_21 
REMARK    8  A    between atoms: N4_21  and  C15_23 
REMARK    9  A    between atoms: C24_37  and  O2_38 
REMARK   10  A    between atoms: C26_42  and  N8_43 
ROOT
HETATM    1  C1  UNL     1       8.326   1.446   1.863  1.00  0.00     0.017 C 
HETATM    2  C2  UNL     1       7.970   1.603   0.720  1.00  0.00    -0.090 C 
HETATM    3  C3  UNL     1       7.516   1.773  -0.648  1.00  0.00     0.059 C 
HETATM    4  C4  UNL     1       7.716   0.825  -1.527  1.00  0.00    -0.016 C 
ENDROOT
BRANCH   4   5
HETATM    5  C5  UNL     1       7.281   0.912  -2.966  1.00  0.00     0.047 C 
BRANCH   5   6
HETATM    6  C6  UNL     1       6.350  -0.230  -3.284  1.00  0.00     0.126 C 
BRANCH   6   7
HETATM    7  N1  UNL     1       5.121  -0.272  -2.572  1.00  0.00    -0.356 N 
HETATM    8  C7  UNL     1       4.064   0.657  -2.649  1.00  0.00     0.256 C 
HETATM    9  O1  UNL     1       4.154   1.647  -3.412  1.00  0.00    -0.267 OA
ATOM     10  H1  UNL     1       4.990  -1.059  -1.937  1.00  0.00     0.162 HD
BRANCH   8  11
HETATM   11  C8  UNL     1       2.867   0.474  -1.863  1.00  0.00     0.091 A 
HETATM   12  C9  UNL     1       1.681   0.205  -2.497  1.00  0.00     0.113 A 
HETATM   13  N2  UNL     1       0.596  -0.039  -1.771  1.00  0.00    -0.325 N 
HETATM   14  C10 UNL     1       0.590  -0.036  -0.424  1.00  0.00     0.261 A 
ATOM     15  H2  UNL     1      -0.277  -0.239  -2.258  1.00  0.00     0.169 HD
HETATM   16  N7  UNL     1       1.794   0.241   0.175  1.00  0.00    -0.301 N 
HETATM   17  C26 UNL     1       2.919   0.491  -0.497  1.00  0.00     0.121 A 
ATOM     18  H7  UNL     1       1.830   0.257   1.194  1.00  0.00     0.171 HD
BRANCH  14  19
HETATM   19  N3  UNL     1      -0.343  -0.309   0.243  1.00  0.00    -0.368 NA
BRANCH  19  20
HETATM   20  C11 UNL     1      -1.439  -0.632   0.894  1.00  0.00     0.145 A 
HETATM   21  C12 UNL     1      -2.704  -0.247   0.518  1.00  0.00     0.065 A 
HETATM   22  C13 UNL     1      -3.851  -0.584   1.189  1.00  0.00     0.038 A 
HETATM   23  C14 UNL     1      -5.110  -0.191   0.791  1.00  0.00     0.119 A 
HETATM   24  C22 UNL     1      -3.730  -1.366   2.323  1.00  0.00     0.050 A 
HETATM   25  N5  UNL     1      -6.174  -0.580   1.515  1.00  0.00    -0.338 N 
HETATM   26  C21 UNL     1      -6.054  -1.343   2.618  1.00  0.00     0.182 A 
ATOM     27  H5  UNL     1      -7.105  -0.287   1.218  1.00  0.00     0.168 HD
HETATM   28  N6  UNL     1      -4.832  -1.720   3.001  1.00  0.00    -0.351 N 
ATOM     29  H6  UNL     1      -4.733  -2.296   3.837  1.00  0.00     0.166 HD
HETATM   30  C23 UNL     1      -2.473  -1.778   2.739  1.00  0.00     0.070 A 
HETATM   31  C24 UNL     1      -1.336  -1.431   2.055  1.00  0.00     0.111 A 
BRANCH  23  32
HETATM   32  N4  UNL     1      -5.231   0.532  -0.266  1.00  0.00    -0.342 N 
ATOM     33  H4  UNL     1      -4.412   0.811  -0.805  1.00  0.00     0.167 HD
BRANCH  32  34
HETATM   34  C15 UNL     1      -6.533   0.931  -0.662  1.00  0.00     0.036 A 
HETATM   35  C16 UNL     1      -7.024   0.616  -1.908  1.00  0.00     0.029 A 
HETATM   36  C17 UNL     1      -8.299   0.985  -2.319  1.00  0.00     0.005 A 
HETATM   37  C18 UNL     1      -9.121   1.690  -1.472  1.00  0.00     0.042 A 
HETATM   38  C19 UNL     1      -8.650   2.014  -0.229  1.00  0.00     0.118 A 
HETATM   39  F1  UNL     1      -9.463   2.708   0.595  1.00  0.00    -0.206 F 
HETATM   40  C20 UNL     1      -7.380   1.643   0.171  1.00  0.00     0.071 A 
ENDBRANCH  32  34
ENDBRANCH  23  32
BRANCH  31  41
HETATM   41  O2  UNL     1      -0.095  -1.860   2.500  1.00  0.00    -0.352 OA
HETATM   42  C25 UNL     1      -0.034  -2.661   3.658  1.00  0.00     0.210 C 
ENDBRANCH  31  41
ENDBRANCH  19  20
ENDBRANCH  14  19
BRANCH  17  43
HETATM   43  N8  UNL     1       4.033   0.738   0.156  1.00  0.00    -0.380 N 
HETATM   44  C27 UNL     1       3.972   0.734   1.601  1.00  0.00     0.147 C 
ATOM     45  H8  UNL     1       4.906   0.925  -0.337  1.00  0.00     0.160 HD
ENDBRANCH  17  43
ENDBRANCH   8  11
ENDBRANCH   6   7
ENDBRANCH   5   6
ENDBRANCH   4   5
TORSDOF 10
