REMARK  13 active torsions:
REMARK  status: ('A' for Active; 'I' for Inactive)
REMARK    1  A    between atoms: O1_1  and  C1_3 
REMARK    2  A    between atoms: C1_3  and  C2_4 
REMARK    3  A    between atoms: C2_4  and  O2_5 
REMARK    4  A    between atoms: C2_4  and  C3_7 
REMARK    5  A    between atoms: C3_7  and  N1_8 
REMARK    6  A    between atoms: N2_11  and  C6_12 
REMARK    7  A    between atoms: C6_12  and  C7_13 
REMARK    8  A    between atoms: C7_13  and  N3_14 
REMARK    9  A    between atoms: N3_14  and  C8_15 
REMARK   10  A    between atoms: C9_18  and  C10_19 
REMARK   11  A    between atoms: C19_31  and  C20_32 
REMARK   12  A    between atoms: C20_32  and  C21_33 
REMARK   13  A    between atoms: C21_33  and  C22_34 
ROOT
HETATM    1  C8  UNL     1      -1.523  -1.175   0.490  1.00  0.00     0.186 A 
HETATM    2  N4  UNL     1      -1.211  -2.523   0.548  1.00  0.00    -0.316 N 
ATOM      3  H4  UNL     1      -0.232  -2.799   0.476  1.00  0.00     0.170 HD
HETATM    4  C9  UNL     1      -2.126  -3.470   0.693  1.00  0.00     0.118 A 
HETATM    5  N5  UNL     1      -3.411  -3.074   0.784  1.00  0.00    -0.341 N 
ATOM      6  H5  UNL     1      -4.129  -3.790   0.896  1.00  0.00     0.167 HD
HETATM    7  C16 UNL     1      -3.798  -1.795   0.736  1.00  0.00     0.050 A 
HETATM    8  C17 UNL     1      -5.144  -1.443   0.831  1.00  0.00     0.056 A 
HETATM    9  C18 UNL     1      -5.529  -0.122   0.775  1.00  0.00     0.055 A 
HETATM   10 CL1  UNL     1      -7.225   0.332   0.893  1.00  0.00    -0.083 Cl
HETATM   11  C19 UNL     1      -4.600   0.886   0.625  1.00  0.00     0.040 A 
HETATM   12  C26 UNL     1      -3.282   0.505   0.535  1.00  0.00     0.041 A 
HETATM   13  C27 UNL     1      -2.864  -0.816   0.588  1.00  0.00     0.050 A 
ENDROOT
BRANCH   1  14
HETATM   14  N3  UNL     1      -0.655  -0.345   0.351  1.00  0.00    -0.428 NA
BRANCH  14  15
HETATM   15  C7  UNL     1       0.001   0.826   0.212  1.00  0.00     0.239 C 
BRANCH  15  16
HETATM   16  C6  UNL     1       1.528   0.673   0.426  1.00  0.00     0.150 C 
BRANCH  16  17
HETATM   17  N2  UNL     1       2.093  -0.234  -0.499  1.00  0.00    -0.407 N 
HETATM   18  C5  UNL     1       2.151   0.148  -1.861  1.00  0.00     0.147 C 
HETATM   19  C4  UNL     1       3.425   0.755  -2.337  1.00  0.00     0.291 C 
HETATM   20  N1  UNL     1       4.627   0.116  -1.797  1.00  0.00     0.094 N 
HETATM   21  C29 UNL     1       4.302  -1.071  -1.099  1.00  0.00     0.291 C 
HETATM   22  C28 UNL     1       3.280  -0.842   0.007  1.00  0.00     0.147 C 
BRANCH  20  23
HETATM   23  C3  UNL     1       5.394   1.114  -1.160  1.00  0.00     0.306 C 
BRANCH  23  24
HETATM   24  C2  UNL     1       6.706   0.758  -0.571  1.00  0.00     0.170 C 
BRANCH  24  25
HETATM   25  C1  UNL     1       7.319   2.010   0.077  1.00  0.00     0.197 C 
BRANCH  25  26
HETATM   26  O1  UNL     1       8.568   1.683   0.612  1.00  0.00    -0.398 OA
ATOM     27  H1  UNL     1       8.947   2.457   1.012  1.00  0.00     0.209 HD
ENDBRANCH  25  26
ENDBRANCH  24  25
BRANCH  24  28
HETATM   28  O2  UNL     1       6.588  -0.176   0.437  1.00  0.00    -0.392 OA
ATOM     29  H2  UNL     1       6.209  -0.950   0.037  1.00  0.00     0.210 HD
ENDBRANCH  24  28
ENDBRANCH  23  24
ENDBRANCH  20  23
ENDBRANCH  16  17
ENDBRANCH  15  16
ENDBRANCH  14  15
ENDBRANCH   1  14
BRANCH   4  30
HETATM   30  C10 UNL     1      -1.782  -4.899   0.759  1.00  0.00     0.008 A 
HETATM   31  C11 UNL     1      -0.499  -5.363   0.678  1.00  0.00     0.015 A 
HETATM   32  C12 UNL     1      -0.202  -6.730   0.743  1.00  0.00     0.001 A 
HETATM   33  C13 UNL     1      -1.221  -7.647   0.892  1.00  0.00     0.000 A 
HETATM   34  C14 UNL     1      -2.517  -7.185   0.974  1.00  0.00     0.001 A 
HETATM   35  C15 UNL     1      -2.787  -5.821   0.907  1.00  0.00     0.015 A 
ENDBRANCH   4  30
BRANCH  11  36
HETATM   36  C20 UNL     1      -4.968   2.270   0.558  1.00  0.00    -0.065 C 
BRANCH  36  37
HETATM   37  C21 UNL     1      -5.304   3.433   0.505  1.00  0.00    -0.096 C 
BRANCH  37  38
HETATM   38  C22 UNL     1      -5.731   4.834   0.425  1.00  0.00     0.065 C 
HETATM   39  C23 UNL     1      -5.290   5.575   1.644  1.00  0.00     0.017 C 
HETATM   40  C24 UNL     1      -4.678   6.612   0.744  1.00  0.00     0.002 C 
HETATM   41  C25 UNL     1      -4.895   5.714  -0.470  1.00  0.00     0.017 C 
ENDBRANCH  37  38
ENDBRANCH  36  37
ENDBRANCH  11  36
TORSDOF 13
