REMARK  10 active torsions:
REMARK  status: ('A' for Active; 'I' for Inactive)
REMARK    1  A    between atoms: N1_4  and  C3_5 
REMARK    2  A    between atoms: C3_5  and  C4_6 
REMARK    3  A    between atoms: C8_10  and  C9_11 
REMARK    4  A    between atoms: C9_11  and  N2_12 
REMARK    5  A    between atoms: N2_12  and  C10_14 
REMARK    6  A    between atoms: C14_20  and  N4_21 
REMARK    7  A    between atoms: N4_21  and  C15_23 
REMARK    8  A    between atoms: C18_28  and  O2_29 
REMARK    9  A    between atoms: O2_29  and  C19_30 
REMARK   10  A    between atoms: C28_40  and  O3_41 
ROOT
HETATM    1  C10 UNL     1       0.442   1.219  -0.429  1.00  0.00     0.116 A 
HETATM    2  N3  UNL     1      -0.103   2.429  -0.559  1.00  0.00    -0.352 N 
ATOM      3  H3  UNL     1      -1.094   2.536  -0.775  1.00  0.00     0.166 HD
HETATM    4  C11 UNL     1       0.698   3.518  -0.396  1.00  0.00     0.090 A 
HETATM    5  C12 UNL     1       2.037   3.423  -0.104  1.00  0.00     0.033 A 
HETATM    6  C13 UNL     1       2.591   2.184   0.024  1.00  0.00     0.023 A 
HETATM    7  C14 UNL     1       3.972   2.047   0.322  1.00  0.00     0.114 A 
HETATM    8  N5  UNL     1       4.461   0.809   0.440  1.00  0.00    -0.322 N 
ATOM      9  H5  UNL     1       5.453   0.711   0.655  1.00  0.00     0.169 HD
HETATM   10  C18 UNL     1       3.719  -0.351   0.292  1.00  0.00     0.150 A 
HETATM   11  C25 UNL     1       2.374  -0.164  -0.001  1.00  0.00     0.072 A 
HETATM   12  C26 UNL     1       1.805   1.087  -0.135  1.00  0.00     0.026 A 
ENDROOT
BRANCH   1  13
HETATM   13  N2  UNL     1      -0.203   0.164  -0.593  1.00  0.00    -0.351 N 
ATOM     14  H2  UNL     1       0.364  -0.671  -0.450  1.00  0.00     0.166 HD
BRANCH  13  15
HETATM   15  C9  UNL     1      -1.505  -0.128  -0.923  1.00  0.00     0.104 C 
BRANCH  15  16
HETATM   16  C8  UNL     1      -2.423  -0.628   0.137  1.00  0.00     0.018 A 
HETATM   17  C7  UNL     1      -2.065  -0.642   1.444  1.00  0.00     0.016 A 
HETATM   18  C6  UNL     1      -3.018  -1.044   2.379  1.00  0.00     0.002 A 
HETATM   19  C5  UNL     1      -4.288  -1.410   1.956  1.00  0.00     0.012 A 
HETATM   20  C4  UNL     1      -4.663  -1.405   0.657  1.00  0.00    -0.001 A 
HETATM   21  C27 UNL     1      -3.666  -0.998  -0.252  1.00  0.00     0.136 A 
HETATM   22  F1  UNL     1      -4.010  -0.963  -1.597  1.00  0.00    -0.205 F 
BRANCH  20  23
HETATM   23  C3  UNL     1      -5.937  -1.903   0.051  1.00  0.00     0.168 C 
BRANCH  23  24
HETATM   24  N1  UNL     1      -7.079  -1.069   0.172  1.00  0.00    -0.333 N 
HETATM   25  C2  UNL     1      -8.036  -1.024  -0.996  1.00  0.00     0.231 C 
HETATM   26  C1  UNL     1      -7.694   0.426  -1.439  1.00  0.00     0.254 C 
HETATM   27  O1  UNL     1      -7.287   0.638  -2.545  1.00  0.00    -0.270 OA
HETATM   28  N7  UNL     1      -7.912   1.394  -0.425  1.00  0.00    -0.266 N 
HETATM   29  N6  UNL     1      -7.735   1.064   0.910  1.00  0.00    -0.263 N 
ATOM     30  H7  UNL     1      -8.201   2.339  -0.680  1.00  0.00     0.190 HD
HETATM   31  C28 UNL     1      -7.325  -0.174   1.245  1.00  0.00     0.235 C 
ATOM     32  H6  UNL     1      -7.915   1.757   1.636  1.00  0.00     0.190 HD
BRANCH  31  33
HETATM   33  O3  UNL     1      -7.173  -0.511   2.571  1.00  0.00    -0.331 OA
ATOM     34  H3  UNL     1      -7.338   0.088   3.289  1.00  0.00     0.221 HD
ENDBRANCH  31  33
ENDBRANCH  23  24
ENDBRANCH  20  23
ENDBRANCH  15  16
ENDBRANCH  13  15
ENDBRANCH   1  13
BRANCH   7  35
HETATM   35  N4  UNL     1       4.580   3.089   0.460  1.00  0.00    -0.371 N 
ATOM     36  H4  UNL     1       3.842   3.775   0.301  1.00  0.00     0.161 HD
BRANCH  35  37
HETATM   37  C15 UNL     1       5.640   3.887   0.696  1.00  0.00     0.083 A 
HETATM   38  C16 UNL     1       6.747   4.116  -0.371  1.00  0.00     0.027 A 
HETATM   39  C17 UNL     1       5.809   5.212  -0.037  1.00  0.00     0.027 A 
ENDBRANCH  35  37
ENDBRANCH   7  35
BRANCH  10  40
HETATM   40  O2  UNL     1       4.283  -1.523   0.427  1.00  0.00    -0.294 OA
BRANCH  40  41
HETATM   41  C19 UNL     1       4.385  -2.795   0.134  1.00  0.00     0.077 A 
HETATM   42  C20 UNL     1       3.634  -3.531  -0.761  1.00  0.00     0.037 A 
HETATM   43  C21 UNL     1       3.880  -4.894  -0.955  1.00  0.00     0.003 A 
HETATM   44  C22 UNL     1       4.863  -5.540  -0.274  1.00  0.00     0.000 A 
HETATM   45  C23 UNL     1       5.639  -4.848   0.632  1.00  0.00     0.003 A 
HETATM   46  C24 UNL     1       5.393  -3.525   0.816  1.00  0.00     0.037 A 
ENDBRANCH  40  41
ENDBRANCH  10  40
TORSDOF 10
