REMARK  9 active torsions:
REMARK  status: ('A' for Active; 'I' for Inactive)
REMARK    1  A    between atoms: N1_2  and  C3_4 
REMARK    2  A    between atoms: C3_4  and  C4_5 
REMARK    3  A    between atoms: C6_7  and  C7_8 
REMARK    4  A    between atoms: N3_14  and  C10_15 
REMARK    5  A    between atoms: C10_15  and  C11_16 
REMARK    6  A    between atoms: C11_16  and  C12_17 
REMARK    7  A    between atoms: C12_17  and  O2_18 
REMARK    8  A    between atoms: N4_28  and  C20_29 
REMARK    9  A    between atoms: C29_39  and  O5_40 
ROOT
HETATM    1  C7  UNL     1       1.769  -0.581   0.530  1.00  0.00     0.140 A 
HETATM    2  C8  UNL     1       2.280   0.017   1.819  1.00  0.00     0.054 C 
HETATM    3  N2  UNL     1       1.651  -2.025   0.658  1.00  0.00    -0.321 N 
ATOM      4  H2  UNL     1       2.382  -2.659   0.979  1.00  0.00     0.165 HD
HETATM    5  C9  UNL     1       0.343  -2.397   0.259  1.00  0.00     0.326 A 
HETATM    6  O1  UNL     1      -0.083  -3.578   0.176  1.00  0.00    -0.247 OA
HETATM    7  N3  UNL     1      -0.437  -1.263  -0.041  1.00  0.00    -0.268 N 
HETATM    8  C26 UNL     1       0.414  -0.148   0.180  1.00  0.00     0.260 A 
HETATM    9  O4  UNL     1       0.042   1.050   0.084  1.00  0.00    -0.270 OA
ENDROOT
BRANCH   7  10
HETATM   10  C10 UNL     1      -1.834  -1.203  -0.487  1.00  0.00     0.142 C 
BRANCH  10  11
HETATM   11  C11 UNL     1      -2.678  -1.123   0.740  1.00  0.00     0.087 C 
BRANCH  11  12
HETATM   12  C12 UNL     1      -4.160  -1.044   0.491  1.00  0.00     0.172 A 
HETATM   13  C13 UNL     1      -4.796  -1.140   1.852  1.00  0.00     0.013 A 
HETATM   14  C14 UNL     1      -4.699  -2.146   2.818  1.00  0.00     0.013 A 
HETATM   15  C18 UNL     1      -5.559  -0.043   2.099  1.00  0.00     0.043 A 
HETATM   16  C15 UNL     1      -5.381  -2.001   4.001  1.00  0.00     0.001 A 
HETATM   17  C16 UNL     1      -6.149  -0.883   4.235  1.00  0.00     0.001 A 
HETATM   18  C17 UNL     1      -6.256   0.108   3.306  1.00  0.00     0.018 A 
HETATM   19  C19 UNL     1      -5.485   0.824   0.947  1.00  0.00     0.261 A 
HETATM   20  O3  UNL     1      -6.084   1.931   0.857  1.00  0.00    -0.267 OA
HETATM   21  N4  UNL     1      -4.627   0.192  -0.031  1.00  0.00    -0.276 N 
BRANCH  12  22
HETATM   22  O2  UNL     1      -4.584  -2.173  -0.211  1.00  0.00    -0.366 OA
ATOM     23  H2  UNL     1      -5.520  -2.123  -0.368  1.00  0.00     0.213 HD
ENDBRANCH  12  22
BRANCH  21  24
HETATM   24  C20 UNL     1      -4.392   0.837  -1.267  1.00  0.00     0.041 A 
HETATM   25  C21 UNL     1      -3.874   2.111  -1.265  1.00  0.00     0.030 A 
HETATM   26  C22 UNL     1      -3.627   2.799  -2.454  1.00  0.00     0.002 A 
HETATM   27  C23 UNL     1      -3.903   2.197  -3.658  1.00  0.00     0.000 A 
HETATM   28  C24 UNL     1      -4.419   0.930  -3.674  1.00  0.00     0.002 A 
HETATM   29  C25 UNL     1      -4.656   0.268  -2.489  1.00  0.00     0.030 A 
ENDBRANCH  21  24
ENDBRANCH  11  12
ENDBRANCH  10  11
ENDBRANCH   7  10
BRANCH   1  30
HETATM   30  C6  UNL     1       2.753  -0.305  -0.550  1.00  0.00    -0.020 A 
HETATM   31  C5  UNL     1       3.992   0.290  -0.285  1.00  0.00     0.022 A 
HETATM   32  C4  UNL     1       4.914   0.548  -1.257  1.00  0.00     0.004 A 
HETATM   33  C29 UNL     1       4.616   0.205  -2.579  1.00  0.00     0.073 A 
HETATM   34  C28 UNL     1       3.396  -0.378  -2.824  1.00  0.00     0.038 A 
HETATM   35  C27 UNL     1       2.469  -0.636  -1.837  1.00  0.00     0.013 A 
BRANCH  32  36
HETATM   36  C3  UNL     1       6.196   1.189  -0.976  1.00  0.00     0.312 C 
BRANCH  36  37
HETATM   37  N1  UNL     1       6.412   1.473   0.420  1.00  0.00     0.084 N 
HETATM   38  C1  UNL     1       7.688   2.226   0.499  1.00  0.00     0.309 C 
HETATM   39  C2  UNL     1       6.729   0.204   1.113  1.00  0.00     0.309 C 
ENDBRANCH  36  37
ENDBRANCH  32  36
BRANCH  33  40
HETATM   40  O5  UNL     1       5.528   0.448  -3.620  1.00  0.00    -0.360 OA
ATOM     41  H5  UNL     1       5.325   0.215  -4.518  1.00  0.00     0.217 HD
ENDBRANCH  33  40
ENDBRANCH   1  30
TORSDOF 9
