REMARK  7 active torsions:
REMARK  status: ('A' for Active; 'I' for Inactive)
REMARK       I    between atoms: C1_2  and  N1_3 
REMARK    1  A    between atoms: C1_2  and  C12_24 
REMARK    2  A    between atoms: N1_3  and  C2_5 
REMARK    3  A    between atoms: C5_8  and  S1_9 
REMARK    4  A    between atoms: S1_9  and  N2_12 
REMARK    5  A    between atoms: C17_29  and  N5_30 
REMARK    6  A    between atoms: N5_30  and  S2_32 
REMARK    7  A    between atoms: S2_32  and  C18_35 
ROOT
HETATM    1  O1  UNL     1      -0.890   0.668  -0.186  1.00  0.00    -0.267 OA
HETATM    2  C1  UNL     1      -0.875  -0.532   0.162  1.00  0.00     0.258 C 
HETATM    3  N1  UNL     1       0.268  -1.329   0.024  1.00  0.00    -0.323 N 
ATOM      4  H1  UNL     1       0.188  -2.296   0.340  1.00  0.00     0.169 HD
ENDROOT
BRANCH   3   5
HETATM    5  C2  UNL     1       1.525  -0.941  -0.506  1.00  0.00     0.035 A 
HETATM    6  C3  UNL     1       2.650  -1.739  -0.281  1.00  0.00     0.031 A 
HETATM    7  C4  UNL     1       3.893  -1.438  -0.777  1.00  0.00     0.027 A 
HETATM    8  C5  UNL     1       4.082  -0.308  -1.534  1.00  0.00     0.080 A 
HETATM    9  C10 UNL     1       3.003   0.507  -1.781  1.00  0.00     0.027 A 
HETATM   10  C11 UNL     1       1.734   0.181  -1.263  1.00  0.00     0.031 A 
BRANCH   8  11
HETATM   11  S1  UNL     1       5.667   0.086  -2.173  1.00  0.00     0.276 S 
HETATM   12  O2  UNL     1       6.374  -1.137  -2.639  1.00  0.00    -0.200 OA
HETATM   13  O3  UNL     1       5.414   0.912  -3.433  1.00  0.00    -0.200 OA
BRANCH  11  14
HETATM   14  N2  UNL     1       6.535   1.060  -1.092  1.00  0.00    -0.112 N 
HETATM   15  C6  UNL     1       7.250   0.732  -0.105  1.00  0.00     0.691 A 
HETATM   16  N3  UNL     1       7.836   1.755   0.594  1.00  0.00    -0.201 N 
HETATM   17  N4  UNL     1       7.430  -0.540   0.244  1.00  0.00    -0.201 N 
HETATM   18  C7  UNL     1       8.604   1.488   1.646  1.00  0.00     0.107 A 
ATOM     19  H3  UNL     1       7.683   2.722   0.307  1.00  0.00     0.183 HD
HETATM   20  C8  UNL     1       8.819   0.185   2.045  1.00  0.00     0.035 A 
HETATM   21  C9  UNL     1       8.203  -0.824   1.305  1.00  0.00     0.107 A 
ATOM     22  H4  UNL     1       6.987  -1.289  -0.287  1.00  0.00     0.183 HD
ATOM     23  H2  UNL     1       6.470   2.063  -1.265  1.00  0.00     0.197 HD
ENDBRANCH  11  14
ENDBRANCH   8  11
ENDBRANCH   3   5
BRANCH   2  24
HETATM   24  C12 UNL     1      -2.100  -1.125   0.734  1.00  0.00     0.059 A 
HETATM   25  C13 UNL     1      -2.181  -2.447   1.111  1.00  0.00     0.019 A 
HETATM   26  C14 UNL     1      -3.349  -2.961   1.620  1.00  0.00     0.001 A 
HETATM   27  C15 UNL     1      -4.441  -2.138   1.749  1.00  0.00     0.002 A 
HETATM   28  C16 UNL     1      -4.353  -0.816   1.371  1.00  0.00     0.031 A 
HETATM   29  C17 UNL     1      -3.196  -0.282   0.861  1.00  0.00     0.058 A 
BRANCH  29  30
HETATM   30  N5  UNL     1      -3.156   1.071   0.529  1.00  0.00    -0.280 N 
ATOM     31  H5  UNL     1      -2.547   1.658   1.099  1.00  0.00     0.179 HD
BRANCH  30  32
HETATM   32  S2  UNL     1      -4.011   1.859  -0.723  1.00  0.00     0.263 S 
HETATM   33  O4  UNL     1      -3.591   1.373  -2.088  1.00  0.00    -0.200 OA
HETATM   34  O5  UNL     1      -3.640   3.334  -0.709  1.00  0.00    -0.200 OA
BRANCH  32  35
HETATM   35  C18 UNL     1      -5.735   1.739  -0.514  1.00  0.00     0.079 A 
HETATM   36  C19 UNL     1      -6.427   0.729  -1.187  1.00  0.00     0.025 A 
HETATM   37  C20 UNL     1      -7.793   0.585  -1.060  1.00  0.00     0.002 A 
HETATM   38  C21 UNL     1      -8.504   1.459  -0.246  1.00  0.00     0.000 A 
HETATM   39  C22 UNL     1      -7.854   2.458   0.425  1.00  0.00     0.002 A 
HETATM   40  C23 UNL     1      -6.482   2.577   0.277  1.00  0.00     0.025 A 
ENDBRANCH  32  35
ENDBRANCH  30  32
ENDBRANCH  29  30
ENDBRANCH   2  24
TORSDOF 7
