REMARK  10 active torsions:
REMARK  status: ('A' for Active; 'I' for Inactive)
REMARK    1  A    between atoms: C2_2  and  N1_3 
REMARK    2  A    between atoms: C2_2  and  C3_7 
REMARK    3  A    between atoms: N1_3  and  N2_4 
REMARK    4  A    between atoms: C3_7  and  N3_8 
REMARK    5  A    between atoms: N6_13  and  N7_15 
REMARK    6  A    between atoms: N8_17  and  N9_19 
REMARK    7  A    between atoms: N9_19  and  N10_20 
REMARK    8  A    between atoms: N9_19  and  N11_23 
REMARK    9  A    between atoms: C6_25  and  N12_26 
REMARK   10  A    between atoms: N12_26  and  N13_27 
ROOT
HETATM    1  N7  UNL     1       0.146   0.935  -1.068  1.00  0.00    -0.224 N 
ATOM      2  H7  UNL     1       0.700   1.596  -1.613  1.00  0.00     0.210 HD
HETATM    3  N8  UNL     1       0.782   0.096  -0.381  1.00  0.00    -0.196 N 
ATOM      4  H8  UNL     1       0.287  -0.592   0.187  1.00  0.00     0.213 HD
ENDROOT
BRANCH   1   5
HETATM    5  N6  UNL     1      -1.219   1.051  -1.158  1.00  0.00    -0.272 N 
HETATM    6  C3  UNL     1      -2.084   0.533  -0.393  1.00  0.00     0.120 C 
ATOM      7  H6  UNL     1      -1.576   1.618  -1.927  1.00  0.00     0.190 HD
BRANCH   6   8
HETATM    8  C2  UNL     1      -3.521   0.767  -0.642  1.00  0.00     0.163 C 
HETATM    9  C1  UNL     1      -3.682   1.638  -1.842  1.00  0.00     0.038 C 
BRANCH   8  10
HETATM   10  N1  UNL     1      -4.209   1.295   0.513  1.00  0.00    -0.136 NA
BRANCH  10  11
HETATM   11  N2  UNL     1      -3.774   2.546   0.901  1.00  0.00    -0.348 N 
ATOM     12  H22 UNL     1      -3.032   3.040   0.406  1.00  0.00     0.172 HD
ATOM     13  H21 UNL     1      -4.260   2.919   1.717  1.00  0.00     0.172 HD
ENDBRANCH  10  11
ENDBRANCH   8  10
ENDBRANCH   6   8
BRANCH   6  14
HETATM   14  N3  UNL     1      -1.695  -0.269   0.698  1.00  0.00    -0.320 N 
HETATM   15  C4  UNL     1      -1.765  -1.554   0.726  1.00  0.00     0.202 C 
HETATM   16  N4  UNL     1      -1.329  -2.202   1.909  1.00  0.00    -0.066 NA
HETATM   17  N5  UNL     1      -2.262  -2.303  -0.389  1.00  0.00    -0.066 NA
ATOM     18  H3  UNL     1      -1.331   0.203   1.526  1.00  0.00     0.169 HD
ENDBRANCH   6  14
ENDBRANCH   1   5
BRANCH   3  19
HETATM   19  N9  UNL     1       2.173   0.123  -0.409  1.00  0.00    -0.141 N 
BRANCH  19  20
HETATM   20  N10 UNL     1       2.817   1.327  -0.549  1.00  0.00    -0.312 N 
ATOM     21 2H10 UNL     1       2.301   2.203  -0.633  1.00  0.00     0.180 HD
ATOM     22 1H10 UNL     1       3.837   1.347  -0.570  1.00  0.00     0.180 HD
ENDBRANCH  19  20
BRANCH  19  23
HETATM   23  N11 UNL     1       2.867  -1.056  -0.296  1.00  0.00    -0.168 NA
HETATM   24  C5  UNL     1       3.002  -1.706   0.989  1.00  0.00     0.160 A 
HETATM   25  C6  UNL     1       4.162  -1.143   0.286  1.00  0.00     0.210 A 
BRANCH  25  26
HETATM   26  N12 UNL     1       4.795   0.022   0.863  1.00  0.00    -0.125 NA
BRANCH  26  27
HETATM   27  N13 UNL     1       6.043  -0.251   1.378  1.00  0.00    -0.347 N 
ATOM     28 2H13 UNL     1       6.462  -1.181   1.348  1.00  0.00     0.172 HD
ATOM     29 1H13 UNL     1       6.490   0.571   1.785  1.00  0.00     0.172 HD
ENDBRANCH  26  27
ENDBRANCH  25  26
ENDBRANCH  19  23
ENDBRANCH   3  19
TORSDOF 10
