REMARK  12 active torsions:
REMARK  status: ('A' for Active; 'I' for Inactive)
REMARK    1  A    between atoms: N1_1  and  C1_5 
REMARK    2  A    between atoms: C1_5  and  C2_6 
REMARK    3  A    between atoms: N2_7  and  C3_9 
REMARK    4  A    between atoms: C3_9  and  C4_10 
REMARK    5  A    between atoms: C5_14  and  O1_15 
REMARK    6  A    between atoms: C6_17  and  C7_18 
REMARK    7  A    between atoms: C7_18  and  N4_19 
REMARK    8  A    between atoms: N4_19  and  C8_21 
REMARK    9  A    between atoms: C8_21  and  C9_22 
REMARK   10  A    between atoms: C9_22  and  N5_23 
REMARK   11  A    between atoms: N6_27  and  N7_29 
REMARK   12  A    between atoms: N7_29  and  N8_31 
ROOT
HETATM    1  C4  UNL     1       1.721   0.411  -0.422  1.00  0.00     0.342 C 
HETATM    2  N3  UNL     1       1.420   1.207   0.755  1.00  0.00    -0.019 N 
ATOM      3  H31 UNL     1       1.766   2.166   0.738  1.00  0.00     0.283 HD
ATOM      4  H32 UNL     1       1.925   0.948   1.603  1.00  0.00     0.283 HD
HETATM    5  C5  UNL     1      -0.037   1.061   0.817  1.00  0.00     0.352 C 
HETATM    6  C6  UNL     1      -0.199  -0.386   0.403  1.00  0.00     0.198 C 
HETATM    7  O2  UNL     1       0.902  -0.696  -0.363  1.00  0.00    -0.346 OA
ENDROOT
BRANCH   6   8
HETATM    8  C7  UNL     1      -1.500  -0.612  -0.339  1.00  0.00     0.157 C 
BRANCH   8   9
HETATM    9  N4  UNL     1      -2.632  -0.277   0.496  1.00  0.00    -0.375 N 
ATOM     10  H4  UNL     1      -2.439   0.068   1.436  1.00  0.00     0.160 HD
BRANCH   9  11
HETATM   11  C8  UNL     1      -3.986  -0.391   0.108  1.00  0.00     0.118 C 
HETATM   12  N6  UNL     1      -4.904   0.060   0.870  1.00  0.00    -0.274 N 
ATOM     13  H6  UNL     1      -5.882  -0.022   0.594  1.00  0.00     0.190 HD
BRANCH  11  14
HETATM   14  C9  UNL     1      -4.363  -1.027  -1.171  1.00  0.00     0.306 C 
BRANCH  14  15
HETATM   15  N5  UNL     1      -3.857  -0.322  -2.309  1.00  0.00    -0.073 N 
ATOM     16  H53 UNL     1      -4.142   0.657  -2.289  1.00  0.00     0.274 HD
ATOM     17  H52 UNL     1      -2.846  -0.201  -2.245  1.00  0.00     0.274 HD
ATOM     18  H51 UNL     1      -4.117  -0.761  -3.192  1.00  0.00     0.274 HD
ENDBRANCH  14  15
ENDBRANCH  11  14
BRANCH  12  19
HETATM   19  N7  UNL     1      -4.571   0.662   2.076  1.00  0.00    -0.248 N 
ATOM     20  H7  UNL     1      -4.021   1.520   2.104  1.00  0.00     0.207 HD
BRANCH  19  21
HETATM   21  N8  UNL     1      -5.021   0.044   3.262  1.00  0.00    -0.331 N 
ATOM     22  H82 UNL     1      -5.570  -0.814   3.218  1.00  0.00     0.178 HD
ATOM     23  H81 UNL     1      -4.776   0.486   4.148  1.00  0.00     0.178 HD
ENDBRANCH  19  21
ENDBRANCH  12  19
ENDBRANCH   9  11
ENDBRANCH   8   9
ENDBRANCH   6   8
BRANCH   5  24
HETATM   24  O1  UNL     1      -0.612   1.938  -0.100  1.00  0.00    -0.368 OA
ATOM     25  H1  UNL     1      -1.556   1.843  -0.060  1.00  0.00     0.212 HD
ENDBRANCH   5  24
BRANCH   1  26
HETATM   26  C3  UNL     1       3.191   0.055  -0.363  1.00  0.00     0.180 C 
BRANCH  26  27
HETATM   27  N2  UNL     1       3.568  -0.788  -1.441  1.00  0.00    -0.396 N 
HETATM   28  C2  UNL     1       4.814  -0.846  -1.767  1.00  0.00     0.082 C 
ATOM     29  H2  UNL     1       2.870  -1.335  -1.945  1.00  0.00     0.158 HD
BRANCH  28  30
HETATM   30  C1  UNL     1       5.857  -0.074  -1.068  1.00  0.00     0.273 C 
BRANCH  30  31
HETATM   31  N1  UNL     1       5.942  -0.437   0.346  1.00  0.00    -0.075 N 
ATOM     32  H13 UNL     1       5.038  -0.345   0.809  1.00  0.00     0.274 HD
ATOM     33  H12 UNL     1       6.080  -1.441   0.465  1.00  0.00     0.274 HD
ATOM     34  H11 UNL     1       6.664   0.097   0.830  1.00  0.00     0.274 HD
ENDBRANCH  30  31
ENDBRANCH  28  30
ENDBRANCH  26  27
ENDBRANCH   1  26
TORSDOF 12
