REMARK  10 active torsions:
REMARK  status: ('A' for Active; 'I' for Inactive)
REMARK    1  A    between atoms: N1_1  and  C1_4 
REMARK    2  A    between atoms: N3_9  and  C3_10 
REMARK    3  A    between atoms: C3_10  and  C4_11 
REMARK    4  A    between atoms: C4_11  and  N4_12 
REMARK       I    between atoms: N4_12  and  C5_14 
REMARK       I    between atoms: C5_14  and  N6_16 
REMARK    5  A    between atoms: N6_16  and  C6_18 
REMARK    6  A    between atoms: C6_18  and  C7_19 
REMARK    7  A    between atoms: C7_19  and  C8_20 
REMARK    8  A    between atoms: C8_20  and  N7_21 
REMARK    9  A    between atoms: C9_25  and  N8_26 
REMARK   10  A    between atoms: N8_26  and  N9_28 
ROOT
HETATM    1  C1  UNL     1      -4.648   1.968  -0.492  1.00  0.00     0.694 A 
HETATM    2  N2  UNL     1      -3.471   2.569  -0.740  1.00  0.00    -0.140 N 
ATOM      3  H2  UNL     1      -3.413   3.586  -0.794  1.00  0.00     0.189 HD
HETATM    4  C2  UNL     1      -2.377   1.820  -0.915  1.00  0.00     0.355 A 
HETATM    5  O1  UNL     1      -1.300   2.393  -1.142  1.00  0.00    -0.245 OA
HETATM    6  N3  UNL     1      -2.404   0.449  -0.852  1.00  0.00    -0.129 N 
HETATM    7  C9  UNL     1      -3.562  -0.127  -0.609  1.00  0.00     0.717 A 
HETATM    8  N10 UNL     1      -4.698   0.656  -0.428  1.00  0.00    -0.021 N 
ATOM      9  H10 UNL     1      -5.591   0.201  -0.241  1.00  0.00     0.203 HD
ENDROOT
BRANCH   6  10
HETATM   10  C3  UNL     1      -1.181  -0.252  -1.053  1.00  0.00     0.172 C 
BRANCH  10  11
HETATM   11  C4  UNL     1      -0.393  -0.512   0.208  1.00  0.00     0.143 C 
BRANCH  11  12
HETATM   12  N4  UNL     1       0.826  -1.237  -0.094  1.00  0.00    -0.363 N 
HETATM   13  C5  UNL     1       1.758  -1.616   0.900  1.00  0.00     0.184 C 
HETATM   14  N5  UNL     1       1.295  -2.141   2.160  1.00  0.00    -0.064 NA
HETATM   15  N6  UNL     1       3.020  -1.498   0.697  1.00  0.00    -0.365 N 
ATOM     16  H6  UNL     1       3.681  -1.774   1.423  1.00  0.00     0.162 HD
ATOM     17  H4  UNL     1       1.020  -1.484  -1.065  1.00  0.00     0.162 HD
BRANCH  15  18
HETATM   18  C6  UNL     1       3.500  -0.977  -0.551  1.00  0.00     0.124 C 
BRANCH  18  19
HETATM   19  C7  UNL     1       3.327   0.520  -0.668  1.00  0.00     0.047 C 
BRANCH  19  20
HETATM   20  C8  UNL     1       4.118   1.144   0.472  1.00  0.00     0.231 C 
BRANCH  20  21
HETATM   21  N7  UNL     1       5.502   0.747   0.303  1.00  0.00    -0.079 N 
ATOM     22  H73 UNL     1       5.622  -0.264   0.240  1.00  0.00     0.274 HD
ATOM     23  H72 UNL     1       5.875   0.982  -0.617  1.00  0.00     0.274 HD
ATOM     24  H71 UNL     1       6.032   1.165   1.067  1.00  0.00     0.274 HD
ENDBRANCH  20  21
ENDBRANCH  19  20
ENDBRANCH  18  19
ENDBRANCH  15  18
ENDBRANCH  11  12
ENDBRANCH  10  11
ENDBRANCH   6  10
BRANCH   7  25
HETATM   25  N8  UNL     1      -3.765  -1.353  -0.513  1.00  0.00    -0.138 N 
ATOM     26  H8  UNL     1      -4.741  -1.580  -0.321  1.00  0.00     0.205 HD
BRANCH  25  27
HETATM   27  N9  UNL     1      -2.988  -2.436  -0.606  1.00  0.00    -0.331 N 
ATOM     28  H92 UNL     1      -2.018  -2.186  -0.798  1.00  0.00     0.177 HD
ATOM     29  H91 UNL     1      -3.154  -3.439  -0.527  1.00  0.00     0.177 HD
ENDBRANCH  25  27
ENDBRANCH   7  25
BRANCH   1  30
HETATM   30  N1  UNL     1      -5.679   2.730  -0.330  1.00  0.00    -0.234 N 
ATOM     31  H12 UNL     1      -5.640   3.748  -0.380  1.00  0.00     0.174 HD
ATOM     32  H11 UNL     1      -6.572   2.274  -0.142  1.00  0.00     0.174 HD
ENDBRANCH   1  30
TORSDOF 10
