REMARK  6 active torsions:
REMARK  status: ('A' for Active; 'I' for Inactive)
REMARK    1  A    between atoms: C2_2  and  C3_3 
REMARK    2  A    between atoms: C3_3  and  N1_4 
REMARK    3  A    between atoms: C8_10  and  C9_11 
REMARK    4  A    between atoms: C9_11  and  C10_12 
REMARK    5  A    between atoms: C10_12  and  C11_13 
REMARK    6  A    between atoms: C11_13  and  C12_14 
ROOT
HETATM    1  C9  UNL     1      -0.472  -0.337  -1.158  1.00  0.00     0.057 C 
ENDROOT
BRANCH   1   2
HETATM    2  C8  UNL     1       0.660   0.107  -0.321  1.00  0.00     0.011 A 
HETATM    3  C7  UNL     1       0.719   1.206   0.456  1.00  0.00     0.025 A 
HETATM    4  C6  UNL     1       1.835   1.550   1.221  1.00  0.00     0.006 A 
HETATM    5  C5  UNL     1       2.931   0.721   1.177  1.00  0.00     0.048 A 
HETATM    6  C4  UNL     1       2.884  -0.405   0.388  1.00  0.00     0.101 A 
HETATM    7  N1  UNL     1       3.916  -1.165   0.353  1.00  0.00    -0.373 N 
HETATM    8  N4  UNL     1       1.784  -0.691  -0.330  1.00  0.00    -0.346 N 
ATOM      9  H1  UNL     1       3.857  -1.993  -0.240  1.00  0.00     0.161 HD
ATOM     10  H4  UNL     1       1.781  -1.533  -0.905  1.00  0.00     0.167 HD
BRANCH   7  11
HETATM   11  C3  UNL     1       5.134  -0.968   1.059  1.00  0.00     0.147 C 
BRANCH  11  12
HETATM   12  C2  UNL     1       6.025  -0.077   0.267  1.00  0.00    -0.018 C 
HETATM   13  C1  UNL     1       5.696   0.412  -0.901  1.00  0.00     0.008 C 
ENDBRANCH  11  12
ENDBRANCH   7  11
ENDBRANCH   1   2
BRANCH   1  14
HETATM   14  C10 UNL     1      -1.420  -1.281  -0.579  1.00  0.00     0.011 C 
BRANCH  14  15
HETATM   15  C11 UNL     1      -2.411  -0.982   0.452  1.00  0.00     0.046 C 
BRANCH  15  16
HETATM   16  C12 UNL     1      -3.582  -0.194   0.120  1.00  0.00     0.025 A 
HETATM   17  C13 UNL     1      -4.753  -0.934  -0.158  1.00  0.00     0.105 A 
HETATM   18  N2  UNL     1      -5.886  -0.313  -0.503  1.00  0.00    -0.318 N 
HETATM   19  C14 UNL     1      -5.949   1.033  -0.597  1.00  0.00     0.326 A 
ATOM     20  H2  UNL     1      -6.720  -0.867  -0.699  1.00  0.00     0.170 HD
HETATM   21  O1  UNL     1      -7.038   1.568  -0.926  1.00  0.00    -0.247 OA
HETATM   22  N3  UNL     1      -4.859   1.763  -0.341  1.00  0.00    -0.275 N 
HETATM   23  C15 UNL     1      -3.686   1.139   0.016  1.00  0.00     0.257 A 
ATOM     24  H3  UNL     1      -4.897   2.780  -0.410  1.00  0.00     0.173 HD
HETATM   25  O2  UNL     1      -2.747   1.945   0.229  1.00  0.00    -0.267 OA
ENDBRANCH  15  16
ENDBRANCH  14  15
ENDBRANCH   1  14
TORSDOF 6
