REMARK  9 active torsions:
REMARK  status: ('A' for Active; 'I' for Inactive)
REMARK    1  A    between atoms: C3_5  and  N2_6 
REMARK    2  A    between atoms: N2_6  and  C4_8 
REMARK    3  A    between atoms: C4_8  and  C5_9 
REMARK    4  A    between atoms: C5_9  and  O1_10 
REMARK    5  A    between atoms: C6_14  and  N4_15 
REMARK    6  A    between atoms: C7_18  and  C8_19 
REMARK    7  A    between atoms: C8_19  and  C9_20 
REMARK    8  A    between atoms: C9_20  and  C10_21 
REMARK    9  A    between atoms: C10_21  and  N5_22 
ROOT
HETATM    1  C1  UNL     1       0.363   1.331   2.701  1.00  0.00     0.069 C 
HETATM    2  C2  UNL     1       1.079   0.457   1.742  1.00  0.00     0.032 A 
HETATM    3  N1  UNL     1       2.298   0.831   1.266  1.00  0.00    -0.195 N 
ATOM      4  H1  UNL     1       2.720   1.710   1.567  1.00  0.00     0.184 HD
HETATM    5  C3  UNL     1       2.946   0.029   0.391  1.00  0.00     0.679 A 
HETATM    6  N3  UNL     1       2.379  -1.110   0.012  1.00  0.00    -0.177 N 
ATOM      7  H3  UNL     1       2.874  -1.709  -0.648  1.00  0.00     0.186 HD
HETATM    8  C6  UNL     1       1.178  -1.502   0.466  1.00  0.00     0.122 A 
HETATM    9  C7  UNL     1       0.483  -0.717   1.359  1.00  0.00     0.009 A 
ENDROOT
BRANCH   9  10
HETATM   10  C8  UNL     1      -0.818  -1.116   1.869  1.00  0.00     0.046 C 
BRANCH  10  11
HETATM   11  C9  UNL     1      -1.999  -0.405   1.271  1.00  0.00     0.025 C 
BRANCH  11  12
HETATM   12  C10 UNL     1      -2.117  -0.590  -0.208  1.00  0.00     0.128 C 
BRANCH  12  13
HETATM   13  N5  UNL     1      -3.294   0.143  -0.655  1.00  0.00    -0.366 N 
HETATM   14  C11 UNL     1      -4.508  -0.435  -0.704  1.00  0.00     0.090 A 
HETATM   15  C12 UNL     1      -5.651   0.232  -1.125  1.00  0.00     0.017 A 
HETATM   16  C13 UNL     1      -5.565   1.552  -1.517  1.00  0.00     0.003 A 
HETATM   17  C14 UNL     1      -4.322   2.148  -1.468  1.00  0.00     0.017 A 
HETATM   18  C15 UNL     1      -3.223   1.433  -1.041  1.00  0.00     0.090 A 
ENDBRANCH  12  13
ENDBRANCH  11  12
ENDBRANCH  10  11
ENDBRANCH   9  10
BRANCH   8  19
HETATM   19  N4  UNL     1       0.644  -2.607   0.091  1.00  0.00    -0.385 N 
ATOM     20  H42 UNL     1       1.159  -3.188  -0.570  1.00  0.00     0.157 HD
ATOM     21  H41 UNL     1      -0.269  -2.905   0.436  1.00  0.00     0.157 HD
ENDBRANCH   8  19
BRANCH   5  22
HETATM   22  N2  UNL     1       4.102   0.372  -0.065  1.00  0.00    -0.224 N 
ATOM     23  H2  UNL     1       4.528   1.249   0.234  1.00  0.00     0.177 HD
BRANCH  22  24
HETATM   24  C4  UNL     1       4.790  -0.481  -0.995  1.00  0.00     0.164 C 
BRANCH  24  25
HETATM   25  C5  UNL     1       6.219  -0.016  -1.181  1.00  0.00     0.184 C 
BRANCH  25  26
HETATM   26  O1  UNL     1       6.237   1.278  -1.669  1.00  0.00    -0.399 OA
ATOM     27  H1  UNL     1       7.134   1.570  -1.786  1.00  0.00     0.209 HD
ENDBRANCH  25  26
ENDBRANCH  24  25
ENDBRANCH  22  24
ENDBRANCH   5  22
TORSDOF 9
