REMARK  7 active torsions:
REMARK  status: ('A' for Active; 'I' for Inactive)
REMARK    1  A    between atoms: C4_8  and  C5_9 
REMARK    2  A    between atoms: C5_9  and  C6_10 
REMARK    3  A    between atoms: C6_10  and  C7_11 
REMARK    4  A    between atoms: C7_11  and  C8_12 
REMARK    5  A    between atoms: C13_19  and  C14_20 
REMARK    6  A    between atoms: C14_20  and  C15_21 
REMARK    7  A    between atoms: C15_21  and  N4_22 
ROOT
HETATM    1  C8  UNL     1      -1.890   0.470  -0.210  1.00  0.00     0.015 A 
HETATM    2  N3  UNL     1      -2.183   1.784  -0.461  1.00  0.00    -0.363 N 
ATOM      3  H3  UNL     1      -1.424   2.405  -0.741  1.00  0.00     0.165 HD
HETATM    4  C9  UNL     1      -3.416   2.294  -0.357  1.00  0.00     0.005 A 
HETATM    5  C10 UNL     1      -3.709   3.728  -0.639  1.00  0.00     0.068 C 
HETATM    6  C11 UNL     1      -4.474   1.498   0.019  1.00  0.00     0.025 A 
HETATM    7  C12 UNL     1      -4.234   0.174   0.282  1.00  0.00     0.011 A 
HETATM    8  C13 UNL     1      -2.927  -0.324   0.159  1.00  0.00    -0.034 A 
ENDROOT
BRANCH   1   9
HETATM    9  C7  UNL     1      -0.509  -0.010  -0.280  1.00  0.00     0.058 C 
BRANCH   9  10
HETATM   10  C6  UNL     1       0.187  -0.057   1.051  1.00  0.00     0.010 C 
BRANCH  10  11
HETATM   11  C5  UNL     1       1.584  -0.582   0.874  1.00  0.00     0.030 C 
BRANCH  11  12
HETATM   12  C4  UNL     1       2.401   0.283   0.021  1.00  0.00     0.008 C 
HETATM   13  C3  UNL     1       3.734   0.214  -0.006  1.00  0.00     0.096 A 
HETATM   14  N2  UNL     1       4.506  -0.616   0.708  1.00  0.00    -0.297 N 
HETATM   15  C16 UNL     1       4.560   0.981  -0.768  1.00  0.00     0.226 A 
HETATM   16  N1  UNL     1       5.790  -0.395   0.420  1.00  0.00    -0.297 N 
ATOM     17  H2  UNL     1       4.164  -1.311   1.371  1.00  0.00     0.187 HD
HETATM   18  C2  UNL     1       5.851   0.589  -0.491  1.00  0.00     0.091 A 
ATOM     19  H1  UNL     1       6.587  -0.888   0.822  1.00  0.00     0.187 HD
HETATM   20  C1  UNL     1       6.938   1.095  -1.031  1.00  0.00     0.049 C 
HETATM   21  O1  UNL     1       4.217   1.885  -1.579  1.00  0.00    -0.283 OA
ENDBRANCH  11  12
ENDBRANCH  10  11
ENDBRANCH   9  10
ENDBRANCH   1   9
BRANCH   8  22
HETATM   22  C14 UNL     1      -2.757  -1.773   0.380  1.00  0.00     0.068 C 
BRANCH  22  23
HETATM   23  C15 UNL     1      -2.800  -2.579  -0.905  1.00  0.00     0.234 C 
BRANCH  23  24
HETATM   24  N4  UNL     1      -2.619  -3.981  -0.625  1.00  0.00    -0.079 N 
ATOM     25  H43 UNL     1      -1.765  -4.155  -0.096  1.00  0.00     0.274 HD
ATOM     26  H42 UNL     1      -3.294  -4.322   0.060  1.00  0.00     0.274 HD
ATOM     27  H41 UNL     1      -2.648  -4.523  -1.489  1.00  0.00     0.274 HD
ENDBRANCH  23  24
ENDBRANCH  22  23
ENDBRANCH   8  22
TORSDOF 7
