REMARK  7 active torsions:
REMARK  status: ('A' for Active; 'I' for Inactive)
REMARK    1  A    between atoms: C1_2  and  C2_7 
REMARK    2  A    between atoms: N2_3  and  O1_5 
REMARK    3  A    between atoms: N3_10  and  C5_11 
REMARK    4  A    between atoms: C5_11  and  C6_12 
REMARK    5  A    between atoms: C6_12  and  C7_13 
REMARK    6  A    between atoms: C7_13  and  C8_14 
REMARK    7  A    between atoms: C8_14  and  N4_15 
ROOT
HETATM    1  C2  UNL     1       4.628  -0.002   0.094  1.00  0.00     0.009 A 
HETATM    2  C3  UNL     1       3.922   1.055  -0.421  1.00  0.00     0.032 A 
HETATM    3  C4  UNL     1       2.594   1.266  -0.029  1.00  0.00     0.091 A 
HETATM    4  N3  UNL     1       1.956   0.476   0.840  1.00  0.00    -0.366 N 
HETATM    5  C14 UNL     1       2.658  -0.553   1.334  1.00  0.00     0.091 A 
HETATM    6  C15 UNL     1       3.951  -0.826   1.005  1.00  0.00     0.032 A 
ENDROOT
BRANCH   4   7
HETATM    7  C5  UNL     1       0.567   0.721   1.230  1.00  0.00     0.128 C 
BRANCH   7   8
HETATM    8  C6  UNL     1      -0.290  -0.047   0.246  1.00  0.00     0.022 C 
BRANCH   8   9
HETATM    9  C7  UNL     1      -1.756   0.112   0.523  1.00  0.00     0.022 C 
BRANCH   9  10
HETATM   10  C8  UNL     1      -2.502  -0.701  -0.526  1.00  0.00     0.129 C 
BRANCH  10  11
HETATM   11  N4  UNL     1      -3.932  -0.563  -0.277  1.00  0.00    -0.345 N 
HETATM   12  C9  UNL     1      -4.531  -1.437   0.534  1.00  0.00     0.092 A 
HETATM   13  C10 UNL     1      -5.896  -1.358   0.811  1.00  0.00     0.017 A 
HETATM   14  C11 UNL     1      -6.603  -0.339   0.213  1.00  0.00     0.005 A 
HETATM   15  C12 UNL     1      -5.985   0.573  -0.632  1.00  0.00     0.045 A 
HETATM   16  C13 UNL     1      -4.616   0.416  -0.851  1.00  0.00     0.118 A 
HETATM   17  N5  UNL     1      -3.944   1.326  -1.707  1.00  0.00    -0.083 NA
ENDBRANCH  10  11
ENDBRANCH   9  10
ENDBRANCH   8   9
ENDBRANCH   7   8
ENDBRANCH   4   7
BRANCH   1  18
HETATM   18  C1  UNL     1       6.003  -0.310  -0.242  1.00  0.00     0.146 C 
HETATM   19  N1  UNL     1       6.584  -1.472   0.404  1.00  0.00    -0.080 NA
HETATM   20  N2  UNL     1       6.716   0.333  -1.030  1.00  0.00    -0.255 N 
ATOM     21  H2  UNL     1       7.657  -0.048  -1.130  1.00  0.00     0.195 HD
BRANCH  20  22
HETATM   22  O1  UNL     1       6.504   1.406  -1.762  1.00  0.00    -0.288 OA
ATOM     23  H1  UNL     1       7.049   1.898  -2.365  1.00  0.00     0.244 HD
ENDBRANCH  20  22
ENDBRANCH   1  18
TORSDOF 7
