REMARK  5 active torsions:
REMARK  status: ('A' for Active; 'I' for Inactive)
REMARK    1  A    between atoms: C2_2  and  N1_3 
REMARK    2  A    between atoms: N1_3  and  C3_5 
REMARK    3  A    between atoms: N3_9  and  C5_11 
REMARK    4  A    between atoms: C5_11  and  C6_12 
REMARK    5  A    between atoms: N5_24  and  C14_25 
ROOT
HETATM    1  C3  UNL     1      -2.774   0.752  -0.543  1.00  0.00     0.681 A 
HETATM    2  N2  UNL     1      -1.479   1.040  -0.409  1.00  0.00    -0.175 N 
ATOM      3  H2  UNL     1      -1.194   2.018  -0.348  1.00  0.00     0.186 HD
HETATM    4  C4  UNL     1      -0.534   0.080  -0.352  1.00  0.00     0.147 A 
HETATM    5  N3  UNL     1       0.718   0.373  -0.222  1.00  0.00    -0.373 N 
ATOM      6  H3  UNL     1       0.964   1.361  -0.164  1.00  0.00     0.161 HD
HETATM    7  C12 UNL     1      -0.941  -1.223  -0.438  1.00  0.00     0.124 A 
HETATM    8  N4  UNL     1      -0.272  -2.393  -0.415  1.00  0.00    -0.326 N 
ATOM      9  H4  UNL     1       0.738  -2.502  -0.322  1.00  0.00     0.168 HD
HETATM   10  C13 UNL     1      -1.172  -3.400  -0.537  1.00  0.00     0.183 A 
HETATM   11 CL1  UNL     1      -0.718  -5.107  -0.554  1.00  0.00    -0.044 Cl
HETATM   12  N5  UNL     1      -2.391  -2.857  -0.635  1.00  0.00    -0.307 N 
HETATM   13  C16 UNL     1      -2.276  -1.535  -0.577  1.00  0.00     0.156 A 
HETATM   14  N6  UNL     1      -3.175  -0.528  -0.627  1.00  0.00    -0.174 N 
ATOM     15  H6  UNL     1      -4.167  -0.741  -0.729  1.00  0.00     0.186 HD
ENDROOT
BRANCH   5  16
HETATM   16  C5  UNL     1       1.790  -0.577  -0.153  1.00  0.00     0.126 C 
BRANCH  16  17
HETATM   17  C6  UNL     1       3.081   0.245  -0.010  1.00  0.00     0.005 C 
HETATM   18  C7  UNL     1       2.939   1.042   1.254  1.00  0.00     0.008 C 
HETATM   19  C8  UNL     1       3.966   2.102   1.433  1.00  0.00     0.027 C 
HETATM   20  C9  UNL     1       4.950   2.209   0.313  1.00  0.00     0.167 C 
HETATM   21  O1  UNL     1       5.828   1.166   0.219  1.00  0.00    -0.391 OA
HETATM   22  C10 UNL     1       5.423   0.007   0.836  1.00  0.00     0.168 C 
HETATM   23  C11 UNL     1       4.271  -0.668   0.146  1.00  0.00     0.032 C 
ENDBRANCH  16  17
ENDBRANCH   5  16
BRANCH   1  24
HETATM   24  N1  UNL     1      -3.697   1.664  -0.599  1.00  0.00    -0.226 N 
ATOM     25  H1  UNL     1      -4.666   1.362  -0.703  1.00  0.00     0.177 HD
BRANCH  24  26
HETATM   26  C2  UNL     1      -3.432   3.072  -0.523  1.00  0.00     0.133 C 
HETATM   27  C1  UNL     1      -4.742   3.791  -0.261  1.00  0.00     0.027 C 
ENDBRANCH  24  26
ENDBRANCH   1  24
BRANCH  12  28
HETATM   28  C14 UNL     1      -3.630  -3.584  -0.779  1.00  0.00     0.129 C 
HETATM   29  C15 UNL     1      -4.229  -3.906   0.584  1.00  0.00     0.027 C 
ENDBRANCH  12  28
TORSDOF 5
