REMARK  6 active torsions:
REMARK  status: ('A' for Active; 'I' for Inactive)
REMARK    1  A    between atoms: C3_3  and  C4_4 
REMARK    2  A    between atoms: C4_4  and  C5_6 
REMARK    3  A    between atoms: N1_12  and  C10_13 
REMARK    4  A    between atoms: C12_15  and  O2_16 
REMARK    5  A    between atoms: C13_18  and  C14_19 
REMARK    6  A    between atoms: C14_19  and  O3_20 
ROOT
HETATM    1  C1  UNL     1      -0.406  -0.221   1.705  1.00  0.00     0.069 C 
HETATM    2  C2  UNL     1      -0.595  -0.393   0.252  1.00  0.00     0.025 A 
HETATM    3  C3  UNL     1      -1.849  -0.563  -0.345  1.00  0.00     0.051 A 
HETATM    4  C8  UNL     1      -1.602  -0.686  -1.678  1.00  0.00     0.042 A 
HETATM    5 BR1  UNL     1      -2.896  -0.949  -3.059  1.00  0.00    -0.049 Br
HETATM    6  C9  UNL     1      -0.238  -0.589  -1.850  1.00  0.00     0.114 A 
HETATM    7  N1  UNL     1       0.365  -0.410  -0.659  1.00  0.00    -0.331 N 
ENDROOT
BRANCH   7   8
HETATM    8  C10 UNL     1       1.773  -0.271  -0.473  1.00  0.00     0.230 C 
HETATM    9  C11 UNL     1       2.439  -1.519   0.050  1.00  0.00     0.088 C 
HETATM   10  C12 UNL     1       3.812  -0.956   0.434  1.00  0.00     0.153 C 
HETATM   11  C13 UNL     1       3.486   0.492   0.657  1.00  0.00     0.176 C 
HETATM   12  O4  UNL     1       2.141   0.670   0.457  1.00  0.00    -0.356 OA
BRANCH  10  13
HETATM   13  O2  UNL     1       4.726  -1.146  -0.599  1.00  0.00    -0.393 OA
ATOM     14  H2  UNL     1       5.577  -0.797  -0.361  1.00  0.00     0.210 HD
ENDBRANCH  10  13
BRANCH  11  15
HETATM   15  C14 UNL     1       4.352   1.406  -0.168  1.00  0.00     0.198 C 
BRANCH  15  16
HETATM   16  O3  UNL     1       5.684   1.126   0.127  1.00  0.00    -0.398 OA
ATOM     17  H3  UNL     1       6.231   1.703  -0.394  1.00  0.00     0.209 HD
ENDBRANCH  15  16
ENDBRANCH  11  15
ENDBRANCH   7   8
BRANCH   3  18
HETATM   18  C4  UNL     1      -3.116  -0.599   0.365  1.00  0.00     0.166 C 
HETATM   19  O1  UNL     1      -3.531  -1.737   0.762  1.00  0.00    -0.292 OA
BRANCH  18  20
HETATM   20  C5  UNL     1      -3.954   0.578   0.663  1.00  0.00     0.052 C 
HETATM   21  C6  UNL     1      -4.392   1.289  -0.594  1.00  0.00     0.018 C 
HETATM   22  C7  UNL     1      -5.181   0.235   1.448  1.00  0.00     0.018 C 
ENDBRANCH  18  20
ENDBRANCH   3  18
TORSDOF 6
