REMARK  5 active torsions:
REMARK  status: ('A' for Active; 'I' for Inactive)
REMARK    1  A    between atoms: N1_1  and  C1_4 
REMARK    2  A    between atoms: C2_7  and  N3_8 
REMARK    3  A    between atoms: N4_12  and  C6_13 
REMARK    4  A    between atoms: C12_20  and  O1_21 
REMARK    5  A    between atoms: O1_21  and  C13_22 
ROOT
HETATM    1  C1  UNL     1       0.667   2.221   0.767  1.00  0.00     0.679 A 
HETATM    2  N2  UNL     1      -0.543   1.680   0.606  1.00  0.00    -0.174 N 
ATOM      3  H2  UNL     1      -1.373   2.226   0.836  1.00  0.00     0.186 HD
HETATM    4  C2  UNL     1      -0.681   0.424   0.145  1.00  0.00     0.162 A 
HETATM    5  C11 UNL     1       0.437  -0.291  -0.158  1.00  0.00     0.211 A 
HETATM    6  F1  UNL     1       0.355  -1.560  -0.630  1.00  0.00    -0.197 F 
HETATM    7  C12 UNL     1       1.731   0.245  -0.002  1.00  0.00     0.201 A 
HETATM    8  N5  UNL     1       1.778   1.503   0.464  1.00  0.00    -0.167 N 
ATOM      9  H5  UNL     1       2.690   1.939   0.596  1.00  0.00     0.186 HD
ENDROOT
BRANCH   4  10
HETATM   10  N3  UNL     1      -2.005  -0.131  -0.016  1.00  0.00    -0.362 N 
HETATM   11  C3  UNL     1      -2.239  -1.290   0.807  1.00  0.00     0.126 C 
HETATM   12  C4  UNL     1      -3.220  -0.999   1.926  1.00  0.00     0.050 C 
HETATM   13  C5  UNL     1      -4.186   0.056   1.374  1.00  0.00     0.274 C 
HETATM   14  N4  UNL     1      -4.706  -0.507   0.140  1.00  0.00     0.094 N 
HETATM   15  C9  UNL     1      -4.237   0.159  -1.034  1.00  0.00     0.292 C 
HETATM   16  C10 UNL     1      -2.810   0.580  -0.956  1.00  0.00     0.154 C 
BRANCH  14  17
HETATM   17  C6  UNL     1      -6.130  -0.603   0.227  1.00  0.00     0.223 A 
HETATM   18  C7  UNL     1      -6.842   0.719   0.381  1.00  0.00     0.038 A 
HETATM   19  C8  UNL     1      -7.052  -0.133  -0.815  1.00  0.00     0.038 A 
ENDBRANCH  14  17
ENDBRANCH   4  10
BRANCH   1  20
HETATM   20  N1  UNL     1       0.815   3.430   1.211  1.00  0.00    -0.234 N 
ATOM     21  H12 UNL     1      -0.020   3.970   1.439  1.00  0.00     0.174 HD
ATOM     22  H11 UNL     1       1.739   3.843   1.334  1.00  0.00     0.174 HD
ENDBRANCH   1  20
BRANCH   7  23
HETATM   23  O1  UNL     1       2.823  -0.513  -0.320  1.00  0.00    -0.327 OA
BRANCH  23  24
HETATM   24  C13 UNL     1       4.124  -0.078  -0.204  1.00  0.00     0.135 C 
HETATM   25  C14 UNL     1       4.840  -0.065  -1.571  1.00  0.00     0.037 C 
HETATM   26  C15 UNL     1       6.130  -0.741  -1.244  1.00  0.00    -0.012 C 
HETATM   27  C16 UNL     1       6.854   0.090  -0.218  1.00  0.00     0.005 C 
HETATM   28  C19 UNL     1       5.603  -1.886  -0.358  1.00  0.00     0.012 C 
HETATM   29  C17 UNL     1       6.172  -0.182   1.124  1.00  0.00     0.007 C 
HETATM   30  C18 UNL     1       4.970  -0.966   0.692  1.00  0.00     0.015 C 
ENDBRANCH  23  24
ENDBRANCH   7  23
TORSDOF 5
