REMARK  7 active torsions:
REMARK  status: ('A' for Active; 'I' for Inactive)
REMARK    1  A    between atoms: C2_2  and  C3_3 
REMARK    2  A    between atoms: C3_3  and  N1_4 
REMARK    3  A    between atoms: C7_14  and  C8_15 
REMARK    4  A    between atoms: C8_15  and  N4_16 
REMARK    5  A    between atoms: C12_20  and  C13_21 
REMARK    6  A    between atoms: C13_21  and  C14_22 
REMARK    7  A    between atoms: C14_22  and  C15_23 
ROOT
HETATM    1  N1  UNL     1       2.708   1.265   0.719  1.00  0.00    -0.308 N 
HETATM    2  C4  UNL     1       2.981   2.569   0.892  1.00  0.00     0.182 A 
HETATM    3  S1  UNL     1       4.383   2.998   1.649  1.00  0.00    -0.040 SA
HETATM    4  N2  UNL     1       2.170   3.549   0.479  1.00  0.00    -0.298 N 
ATOM      5  H2  UNL     1       2.415   4.527   0.631  1.00  0.00     0.171 HD
HETATM    6  C5  UNL     1       1.029   3.217  -0.138  1.00  0.00     0.278 A 
HETATM    7  O1  UNL     1       0.241   4.107  -0.540  1.00  0.00    -0.265 OA
HETATM    8  C6  UNL     1       0.723   1.868  -0.329  1.00  0.00     0.147 A 
HETATM    9  N3  UNL     1      -0.322   1.244  -0.900  1.00  0.00    -0.334 N 
ATOM     10  H3  UNL     1      -1.123   1.718  -1.318  1.00  0.00     0.168 HD
HETATM   11  C7  UNL     1      -0.169  -0.082  -0.846  1.00  0.00     0.118 A 
HETATM   12  N5  UNL     1       1.021  -0.299  -0.215  1.00  0.00    -0.326 N 
ATOM     13  H5  UNL     1       1.425  -1.214  -0.018  1.00  0.00     0.169 HD
HETATM   14  C16 UNL     1       1.576   0.878   0.106  1.00  0.00     0.144 A 
ENDROOT
BRANCH  11  15
HETATM   15  C8  UNL     1      -1.085  -1.162  -1.353  1.00  0.00     0.109 C 
BRANCH  15  16
HETATM   16  N4  UNL     1      -1.710  -1.774  -0.257  1.00  0.00    -0.274 NA
HETATM   17  C9  UNL     1      -2.619  -2.857  -0.565  1.00  0.00     0.096 C 
HETATM   18  C10 UNL     1      -3.505  -3.062   0.621  1.00  0.00     0.017 C 
HETATM   19  C11 UNL     1      -3.216  -1.907   1.535  1.00  0.00     0.034 C 
HETATM   20  C12 UNL     1      -2.365  -0.947   0.708  1.00  0.00     0.142 C 
BRANCH  20  21
HETATM   21  C13 UNL     1      -3.294  -0.035   0.061  1.00  0.00    -0.084 C 
BRANCH  21  22
HETATM   22  C14 UNL     1      -4.063   0.719  -0.486  1.00  0.00    -0.074 C 
BRANCH  22  23
HETATM   23  C15 UNL     1      -5.021   1.622  -1.158  1.00  0.00     0.315 C 
HETATM   24  F1  UNL     1      -5.163   2.809  -0.441  1.00  0.00    -0.242 F 
ENDBRANCH  22  23
ENDBRANCH  21  22
ENDBRANCH  20  21
ENDBRANCH  15  16
ENDBRANCH  11  15
BRANCH   1  25
HETATM   25  C3  UNL     1       3.659   0.298   1.206  1.00  0.00     0.133 C 
BRANCH  25  26
HETATM   26  C2  UNL     1       4.637   0.022   0.084  1.00  0.00     0.016 C 
HETATM   27  C1  UNL     1       5.686  -1.001   0.522  1.00  0.00     0.006 C 
ENDBRANCH  25  26
ENDBRANCH   1  25
TORSDOF 7
