REMARK  5 active torsions:
REMARK  status: ('A' for Active; 'I' for Inactive)
REMARK    1  A    between atoms: C2_2  and  N1_3 
REMARK    2  A    between atoms: C2_2  and  C16_29 
REMARK    3  A    between atoms: N1_3  and  C3_5 
REMARK    4  A    between atoms: N3_9  and  C5_11 
REMARK    5  A    between atoms: N6_23  and  C12_24 
ROOT
HETATM    1  C3  UNL     1      -0.952  -0.121   0.209  1.00  0.00     0.148 A 
HETATM    2  N2  UNL     1      -0.367   1.091   0.019  1.00  0.00    -0.175 N 
ATOM      3  H2  UNL     1      -0.926   1.934   0.150  1.00  0.00     0.186 HD
HETATM    4  C4  UNL     1       0.924   1.217  -0.336  1.00  0.00     0.681 A 
HETATM    5  N3  UNL     1       1.433   2.407  -0.505  1.00  0.00    -0.217 N 
ATOM      6  H3  UNL     1       2.413   2.491  -0.775  1.00  0.00     0.178 HD
HETATM    7  N4  UNL     1       1.706   0.137  -0.522  1.00  0.00    -0.174 N 
ATOM      8  H4  UNL     1       2.684   0.240  -0.791  1.00  0.00     0.186 HD
HETATM    9  C9  UNL     1       1.164  -1.085  -0.344  1.00  0.00     0.155 A 
HETATM   10  C10 UNL     1      -0.171  -1.236   0.024  1.00  0.00     0.123 A 
HETATM   11  N5  UNL     1      -0.428  -2.550   0.127  1.00  0.00    -0.346 N 
ATOM     12  H5  UNL     1      -1.325  -2.962   0.382  1.00  0.00     0.167 HD
HETATM   13  C11 UNL     1       0.705  -3.238  -0.165  1.00  0.00     0.185 A 
HETATM   14  N6  UNL     1       1.661  -2.341  -0.448  1.00  0.00    -0.322 N 
ENDROOT
BRANCH   1  15
HETATM   15  N1  UNL     1      -2.168  -0.146   0.540  1.00  0.00    -0.369 N 
ATOM     16  H1  UNL     1      -2.609   0.769   0.636  1.00  0.00     0.161 HD
BRANCH  15  17
HETATM   17  C2  UNL     1      -3.019  -1.255   0.800  1.00  0.00     0.083 C 
HETATM   18  C1  UNL     1      -2.738  -1.750   2.225  1.00  0.00     0.032 C 
BRANCH  17  19
HETATM   19  C16 UNL     1      -4.457  -0.719   0.762  1.00  0.00     0.008 A 
HETATM   20  C17 UNL     1      -4.960  -0.179  -0.530  1.00  0.00     0.007 A 
HETATM   21  C18 UNL     1      -5.480  -1.516  -0.022  1.00  0.00     0.007 A 
ENDBRANCH  17  19
ENDBRANCH  15  17
ENDBRANCH   1  15
BRANCH   5  22
HETATM   22  C5  UNL     1       0.662   3.595  -0.324  1.00  0.00     0.151 C 
HETATM   23  C6  UNL     1      -0.237   3.993  -1.456  1.00  0.00     0.196 C 
HETATM   24  O1  UNL     1       0.796   4.754  -1.991  1.00  0.00    -0.382 OA
HETATM   25  C7  UNL     1       1.452   4.810  -0.770  1.00  0.00     0.142 C 
HETATM   26  C8  UNL     1       1.134   6.067   0.021  1.00  0.00     0.042 C 
ENDBRANCH   5  22
BRANCH  14  27
HETATM   27  C12 UNL     1       3.052  -2.576  -0.820  1.00  0.00     0.097 C 
HETATM   28  C13 UNL     1       3.954  -2.095   0.296  1.00  0.00     0.063 C 
HETATM   29  C14 UNL     1       4.613  -3.447   0.309  1.00  0.00     0.174 C 
HETATM   30  F1  UNL     1       5.862  -3.387  -0.247  1.00  0.00    -0.249 F 
HETATM   31  C15 UNL     1       3.537  -3.976  -0.638  1.00  0.00     0.063 C 
ENDBRANCH  14  27
TORSDOF 5
