REMARK  5 active torsions:
REMARK  status: ('A' for Active; 'I' for Inactive)
REMARK    1  A    between atoms: C2_2  and  C3_3 
REMARK    2  A    between atoms: C3_3  and  O1_5 
REMARK    3  A    between atoms: O1_5  and  C5_6 
REMARK    4  A    between atoms: N1_8  and  C7_9 
REMARK    5  A    between atoms: C11_14  and  N2_15 
ROOT
HETATM    1  C5  UNL     1      -0.847   0.146   0.410  1.00  0.00     0.157 C 
HETATM    2  C6  UNL     1       0.259   0.106  -0.618  1.00  0.00     0.157 C 
HETATM    3  N1  UNL     1       1.483   0.686  -0.112  1.00  0.00    -0.365 N 
HETATM    4  C12 UNL     1       1.389   2.006   0.497  1.00  0.00     0.126 C 
HETATM    5  C13 UNL     1       0.436   1.907   1.654  1.00  0.00     0.041 C 
HETATM    6  C14 UNL     1      -0.894   1.426   1.182  1.00  0.00     0.125 C 
HETATM    7  C15 UNL     1      -1.576   2.502   0.460  1.00  0.00     0.066 C 
HETATM    8  N4  UNL     1      -2.122   3.360  -0.094  1.00  0.00    -0.197 NA
ENDROOT
BRANCH   1   9
HETATM    9  O1  UNL     1      -2.087  -0.026  -0.187  1.00  0.00    -0.378 OA
BRANCH   9  10
HETATM   10  C3  UNL     1      -2.763  -1.140   0.226  1.00  0.00     0.117 C 
HETATM   11  C4  UNL     1      -3.021  -2.009  -1.003  1.00  0.00     0.039 C 
BRANCH  10  12
HETATM   12  C2  UNL     1      -4.092  -0.853   0.858  1.00  0.00     0.027 C 
HETATM   13  C1  UNL     1      -5.048  -0.131  -0.035  1.00  0.00     0.007 C 
ENDBRANCH  10  12
ENDBRANCH   9  10
ENDBRANCH   1   9
BRANCH   3  14
HETATM   14  C7  UNL     1       2.745   0.054  -0.176  1.00  0.00     0.104 A 
HETATM   15  C8  UNL     1       3.215  -0.768   0.822  1.00  0.00     0.050 A 
HETATM   16  C9  UNL     1       4.451  -1.384   0.755  1.00  0.00     0.027 A 
HETATM   17  C10 UNL     1       5.232  -1.158  -0.357  1.00  0.00     0.054 A 
HETATM   18 BR1  UNL     1       6.963  -1.986  -0.510  1.00  0.00    -0.047 Br
HETATM   19  C11 UNL     1       4.752  -0.335  -1.346  1.00  0.00     0.118 A 
HETATM   20  N3  UNL     1       3.547   0.239  -1.234  1.00  0.00    -0.328 N 
ATOM     21  H3  UNL     1       3.225   0.845  -1.989  1.00  0.00     0.169 HD
BRANCH  19  22
HETATM   22  N2  UNL     1       5.480  -0.124  -2.383  1.00  0.00    -0.384 N 
ATOM     23  H22 UNL     1       6.398  -0.561  -2.468  1.00  0.00     0.157 HD
ATOM     24  H21 UNL     1       5.123   0.487  -3.118  1.00  0.00     0.157 HD
ENDBRANCH  19  22
ENDBRANCH   3  14
TORSDOF 5
