REMARK  5 active torsions:
REMARK  status: ('A' for Active; 'I' for Inactive)
REMARK       I    between atoms: N1_2  and  C2_4 
REMARK    1  A    between atoms: C2_4  and  C3_6 
REMARK    2  A    between atoms: C9_12  and  O2_13 
REMARK    3  A    between atoms: O2_13  and  C10_14 
REMARK    4  A    between atoms: C10_14  and  C11_16 
REMARK    5  A    between atoms: C14_19  and  C15_20 
ROOT
HETATM    1  C3  UNL     1      -3.645   0.090  -0.180  1.00  0.00     0.059 C 
HETATM    2  C4  UNL     1      -3.671   1.371   0.610  1.00  0.00     0.025 C 
HETATM    3  C5  UNL     1      -2.305   1.726   1.096  1.00  0.00    -0.012 C 
HETATM    4  C6  UNL     1      -1.392   1.944  -0.091  1.00  0.00     0.012 C 
HETATM    5  C7  UNL     1      -1.332   0.654  -0.877  1.00  0.00     0.017 C 
HETATM    6  C8  UNL     1      -2.708   0.340  -1.375  1.00  0.00     0.028 C 
HETATM    7  C9  UNL     1      -0.780  -0.470  -0.021  1.00  0.00     0.141 C 
HETATM    8  C18 UNL     1      -1.706  -0.652   1.138  1.00  0.00     0.036 C 
HETATM    9  C19 UNL     1      -1.813   0.598   1.977  1.00  0.00     0.013 C 
HETATM   10  C20 UNL     1      -3.068  -1.062   0.568  1.00  0.00     0.106 C 
HETATM   11 CL1  UNL     1      -4.114  -1.682   1.851  1.00  0.00    -0.123 Cl
ENDROOT
BRANCH   7  12
HETATM   12  O2  UNL     1       0.533  -0.154   0.357  1.00  0.00    -0.315 OA
BRANCH  12  13
HETATM   13  C10 UNL     1       1.620  -0.934  -0.024  1.00  0.00     0.263 C 
HETATM   14  O3  UNL     1       1.372  -1.944  -0.728  1.00  0.00    -0.265 OA
BRANCH  13  15
HETATM   15  C11 UNL     1       3.017  -0.620   0.363  1.00  0.00     0.085 C 
HETATM   16  C12 UNL     1       3.915  -1.662  -0.216  1.00  0.00     0.015 C 
HETATM   17  C13 UNL     1       5.338  -1.182  -0.012  1.00  0.00     0.014 C 
HETATM   18  C14 UNL     1       5.559  -0.065  -1.006  1.00  0.00     0.075 C 
HETATM   19  C16 UNL     1       4.432   0.915  -1.054  1.00  0.00     0.014 C 
HETATM   20  C17 UNL     1       3.408   0.783   0.012  1.00  0.00     0.015 C 
BRANCH  18  21
HETATM   21  C15 UNL     1       6.846   0.580  -0.650  1.00  0.00     0.235 C 
HETATM   22  N2  UNL     1       7.055   1.180   0.640  1.00  0.00    -0.062 NA
HETATM   23  O4  UNL     1       7.774   0.606  -1.487  1.00  0.00    -0.277 OA
ENDBRANCH  18  21
ENDBRANCH  13  15
ENDBRANCH  12  13
ENDBRANCH   7  12
BRANCH   1  24
HETATM   24  C2  UNL     1      -4.994  -0.166  -0.690  1.00  0.00     0.227 C 
HETATM   25  N1  UNL     1      -6.113  -0.184   0.178  1.00  0.00    -0.365 N 
HETATM   26  C1  UNL     1      -7.467  -0.445  -0.334  1.00  0.00     0.149 C 
ATOM     27  H1  UNL     1      -5.978  -0.013   1.174  1.00  0.00     0.161 HD
HETATM   28  O1  UNL     1      -5.206  -0.382  -1.920  1.00  0.00    -0.273 OA
ENDBRANCH   1  24
TORSDOF 5
