REMARK  6 active torsions:
REMARK  status: ('A' for Active; 'I' for Inactive)
REMARK    1  A    between atoms: O1_1  and  C1_3 
REMARK    2  A    between atoms: C1_3  and  N1_4 
REMARK    3  A    between atoms: C1_3  and  C7_14 
REMARK       I    between atoms: N1_4  and  C2_6 
REMARK       I    between atoms: C2_6  and  N2_8 
REMARK    4  A    between atoms: C7_14  and  C8_15 
REMARK    5  A    between atoms: C7_14  and  C15_25 
REMARK       I    between atoms: C8_15  and  N3_17 
REMARK    6  A    between atoms: N3_17  and  C9_19 
ROOT
HETATM    1  C7  UNL     1      -0.283   1.687   0.298  1.00  0.00     0.158 C 
ENDROOT
BRANCH   1   2
HETATM    2  C1  UNL     1       0.743   1.223   1.273  1.00  0.00     0.133 C 
BRANCH   2   3
HETATM    3  O1  UNL     1       0.629   1.667   2.492  1.00  0.00    -0.349 OA
ATOM      4  H1  UNL     1      -0.101   2.253   2.652  1.00  0.00     0.219 HD
ENDBRANCH   2   3
BRANCH   2   5
HETATM    5  N1  UNL     1       1.809   0.368   1.039  1.00  0.00    -0.292 N 
HETATM    6  C2  UNL     1       2.252  -0.244  -0.136  1.00  0.00     0.324 C 
HETATM    7  O2  UNL     1       1.672  -0.092  -1.230  1.00  0.00    -0.247 OA
HETATM    8  N2  UNL     1       3.409  -1.096  -0.169  1.00  0.00    -0.330 N 
HETATM    9  C3  UNL     1       4.119  -1.299   1.066  1.00  0.00     0.153 C 
HETATM   10  C6  UNL     1       3.839  -1.722  -1.386  1.00  0.00     0.153 C 
HETATM   11  C4  UNL     1       5.410  -2.054   0.907  1.00  0.00     0.187 C 
HETATM   12  O3  UNL     1       5.970  -1.675  -0.337  1.00  0.00    -0.388 OA
HETATM   13  C5  UNL     1       5.205  -2.310  -1.291  1.00  0.00     0.187 C 
ATOM     14  H1  UNL     1       2.365   0.148   1.866  1.00  0.00     0.172 HD
ENDBRANCH   2   5
ENDBRANCH   1   2
BRANCH   1  15
HETATM   15  C8  UNL     1      -1.530   0.912   0.339  1.00  0.00     0.230 C 
HETATM   16  O4  UNL     1      -2.624   1.533   0.561  1.00  0.00    -0.273 OA
HETATM   17  N3  UNL     1      -1.604  -0.477   0.148  1.00  0.00    -0.356 N 
ATOM     18  H3  UNL     1      -0.751  -1.007  -0.031  1.00  0.00     0.162 HD
BRANCH  17  19
HETATM   19  C9  UNL     1      -2.902  -1.181   0.203  1.00  0.00     0.084 C 
HETATM   20  C10 UNL     1      -2.821  -2.137   1.341  1.00  0.00     0.025 C 
HETATM   21  C11 UNL     1      -3.952  -3.123   1.400  1.00  0.00     0.002 C 
HETATM   22  C12 UNL     1      -4.656  -3.293   0.080  1.00  0.00     0.000 C 
HETATM   23  C13 UNL     1      -3.701  -3.184  -1.087  1.00  0.00     0.002 C 
HETATM   24  C14 UNL     1      -3.156  -1.800  -1.126  1.00  0.00     0.025 C 
ENDBRANCH  17  19
ENDBRANCH   1  15
BRANCH   1  25
HETATM   25  C15 UNL     1      -0.565   3.148   0.676  1.00  0.00     0.025 C 
HETATM   26  C16 UNL     1      -1.567   3.814  -0.183  1.00  0.00     0.007 C 
HETATM   27  C17 UNL     1      -1.041   5.182  -0.531  1.00  0.00     0.002 C 
HETATM   28  C18 UNL     1       0.178   5.393   0.377  1.00  0.00     0.020 C 
HETATM   29  C19 UNL     1       0.685   3.973   0.602  1.00  0.00     0.087 C 
HETATM   30 CL1  UNL     1       1.671   3.550  -0.839  1.00  0.00    -0.125 Cl
ENDBRANCH   1  25
TORSDOF 6
