REMARK  7 active torsions:
REMARK  status: ('A' for Active; 'I' for Inactive)
REMARK    1  A    between atoms: C2_2  and  N1_3 
REMARK    2  A    between atoms: C2_2  and  C3_7 
REMARK    3  A    between atoms: C3_7  and  O1_8 
REMARK    4  A    between atoms: C3_7  and  N2_10 
REMARK    5  A    between atoms: C8_15  and  C9_16 
REMARK    6  A    between atoms: C9_16  and  C10_17 
REMARK    7  A    between atoms: C10_17  and  C11_18 
ROOT
HETATM    1  C10 UNL     1       0.613   0.052   0.987  1.00  0.00     0.019 C 
HETATM    2  C12 UNL     1       1.203   1.364   0.863  1.00  0.00     0.018 C 
HETATM    3  C13 UNL     1       2.693   1.044   0.612  1.00  0.00     0.011 C 
HETATM    4  C14 UNL     1       2.639  -0.177  -0.246  1.00  0.00    -0.030 C 
HETATM    5  C15 UNL     1       2.888   0.170  -1.720  1.00  0.00     0.054 C 
HETATM    6  C16 UNL     1       4.238   0.738  -1.946  1.00  0.00     0.063 C 
HETATM    7  N5  UNL     1       5.305   0.149  -1.252  1.00  0.00    -0.378 N 
HETATM    8  C17 UNL     1       6.391  -0.344  -2.020  1.00  0.00     0.154 C 
HETATM    9  C18 UNL     1       5.049  -0.472  -0.020  1.00  0.00     0.063 C 
HETATM   10  C19 UNL     1       3.736  -1.175   0.111  1.00  0.00     0.054 C 
HETATM   11  C20 UNL     1       1.283  -0.779  -0.122  1.00  0.00     0.027 C 
ENDROOT
BRANCH   1  12
HETATM   12  C9  UNL     1      -0.863  -0.173   0.961  1.00  0.00     0.042 C 
BRANCH  12  13
HETATM   13  C8  UNL     1      -1.660   0.291  -0.159  1.00  0.00     0.087 C 
HETATM   14  N2  UNL     1      -3.089  -0.068  -0.102  1.00  0.00    -0.359 N 
HETATM   15  C4  UNL     1      -3.751   0.227  -1.385  1.00  0.00     0.125 C 
HETATM   16  C5  UNL     1      -3.859   1.707  -1.452  1.00  0.00     0.020 C 
HETATM   17  C6  UNL     1      -3.111   2.378  -0.317  1.00  0.00     0.004 C 
HETATM   18  C7  UNL     1      -1.715   1.834  -0.131  1.00  0.00     0.025 C 
BRANCH  14  19
HETATM   19  C3  UNL     1      -3.802  -0.585   0.950  1.00  0.00     0.144 C 
BRANCH  19  20
HETATM   20  C2  UNL     1      -5.239  -0.834   1.063  1.00  0.00     0.253 C 
HETATM   21  C1  UNL     1      -5.538  -2.300   0.678  1.00  0.00     0.049 C 
BRANCH  20  22
HETATM   22  N1  UNL     1      -6.028   0.049   0.302  1.00  0.00    -0.068 N 
ATOM     23  H13 UNL     1      -5.916  -0.110  -0.699  1.00  0.00     0.275 HD
ATOM     24  H12 UNL     1      -7.022  -0.168   0.380  1.00  0.00     0.275 HD
ATOM     25  H11 UNL     1      -5.831   1.017   0.556  1.00  0.00     0.275 HD
ENDBRANCH  20  22
ENDBRANCH  19  20
BRANCH  19  26
HETATM   26  O1  UNL     1      -3.143  -0.918   2.029  1.00  0.00    -0.348 OA
ATOM     27  H1  UNL     1      -2.210  -0.756   1.956  1.00  0.00     0.219 HD
ENDBRANCH  19  26
ENDBRANCH  14  19
ENDBRANCH  12  13
ENDBRANCH   1  12
BRANCH   1  28
HETATM   28  C11 UNL     1       1.079  -0.558   2.285  1.00  0.00     0.112 C 
HETATM   29  N3  UNL     1       0.938  -1.950   2.448  1.00  0.00    -0.086 NA
HETATM   30  N4  UNL     1       1.575   0.149   3.214  1.00  0.00    -0.289 N 
HETATM   31 CL1  UNL     1       2.094  -0.604   4.683  1.00  0.00     0.011 Cl
ATOM     32  H4  UNL     1       1.668   1.158   3.096  1.00  0.00     0.181 HD
ENDBRANCH   1  28
TORSDOF 7
