REMARK  4 active torsions:
REMARK  status: ('A' for Active; 'I' for Inactive)
REMARK    1  A    between atoms: C2_2  and  C3_3 
REMARK    2  A    between atoms: C3_3  and  N1_4 
REMARK       I    between atoms: N1_4  and  C4_6 
REMARK    3  A    between atoms: C4_6  and  C5_8 
REMARK    4  A    between atoms: C5_8  and  N2_9 
ROOT
HETATM    1  C5  UNL     1      -0.242  -0.499   0.257  1.00  0.00     0.116 C 
HETATM    2  C12 UNL     1      -0.389  -1.252   1.544  1.00  0.00     0.041 C 
HETATM    3  C13 UNL     1       0.385  -2.476   1.754  1.00  0.00     0.003 C 
HETATM    4  C14 UNL     1       0.534  -3.388   0.583  1.00  0.00     0.000 C 
HETATM    5  C15 UNL     1       0.569  -2.698  -0.737  1.00  0.00     0.003 C 
HETATM    6  C16 UNL     1      -0.287  -1.495  -0.861  1.00  0.00     0.041 C 
ENDROOT
BRANCH   1   7
HETATM    7  C4  UNL     1       0.982   0.306   0.145  1.00  0.00     0.246 C 
HETATM    8  N1  UNL     1       2.305  -0.091   0.339  1.00  0.00    -0.359 N 
ATOM      9  H1  UNL     1       2.512  -1.056   0.596  1.00  0.00     0.162 HD
HETATM   10  O1  UNL     1       0.814   1.541  -0.175  1.00  0.00    -0.271 OA
BRANCH   8  11
HETATM   11  C3  UNL     1       3.405   0.876   0.175  1.00  0.00     0.122 C 
BRANCH  11  12
HETATM   12  C2  UNL     1       4.735   0.183   0.444  1.00  0.00     0.015 C 
HETATM   13  C1  UNL     1       5.870   1.164   0.278  1.00  0.00     0.006 C 
ENDBRANCH  11  12
ENDBRANCH   8  11
ENDBRANCH   1   7
BRANCH   1  14
HETATM   14  N2  UNL     1      -1.414   0.356   0.134  1.00  0.00    -0.350 N 
HETATM   15  C6  UNL     1      -1.557   1.309   1.156  1.00  0.00     0.093 C 
HETATM   16  C7  UNL     1      -1.838   2.717   0.834  1.00  0.00     0.254 C 
HETATM   17  O2  UNL     1      -2.274   2.890  -0.460  1.00  0.00    -0.235 OA
HETATM   18  O3  UNL     1      -3.477   2.313  -0.534  1.00  0.00    -0.225 OA
HETATM   19  C8  UNL     1      -3.253   1.148  -1.265  1.00  0.00     0.121 C 
HETATM   20  C9  UNL     1      -3.541   1.454  -2.718  1.00  0.00     0.055 C 
HETATM   21  C10 UNL     1      -4.168   0.041  -0.829  1.00  0.00     0.055 C 
HETATM   22  C11 UNL     1      -1.811   0.695  -1.158  1.00  0.00     0.105 C 
ENDBRANCH   1  14
TORSDOF 4
