REMARK  5 active torsions:
REMARK  status: ('A' for Active; 'I' for Inactive)
REMARK    1  A    between atoms: N1_5  and  C5_6 
REMARK    2  A    between atoms: C5_6  and  C6_7 
REMARK    3  A    between atoms: C6_7  and  O1_8 
REMARK    4  A    between atoms: O1_8  and  C7_9 
REMARK    5  A    between atoms: C14_17  and  O3_18 
ROOT
HETATM    1  C7  UNL     1       1.574  -0.100  -0.548  1.00  0.00     0.131 C 
HETATM    2  C8  UNL     1       1.977   0.806  -1.714  1.00  0.00     0.035 C 
HETATM    3  C9  UNL     1       3.437   0.481  -1.986  1.00  0.00     0.044 C 
HETATM    4  C10 UNL     1       3.960   0.336  -0.598  1.00  0.00     0.095 C 
HETATM    5  O2  UNL     1       3.645   1.416   0.192  1.00  0.00    -0.371 OA
HETATM    6  C11 UNL     1       3.273   0.499   1.197  1.00  0.00     0.132 C 
HETATM    7  C12 UNL     1       4.526   0.113   1.930  1.00  0.00     0.035 C 
HETATM    8  C13 UNL     1       5.722  -0.036   1.036  1.00  0.00     0.037 C 
HETATM    9  C14 UNL     1       5.345  -0.173  -0.427  1.00  0.00     0.153 C 
HETATM   10  C15 UNL     1       2.876  -0.447   0.102  1.00  0.00     0.081 C 
ENDROOT
BRANCH   1  11
HETATM   11  O1  UNL     1       0.826   0.645   0.322  1.00  0.00    -0.384 OA
BRANCH  11  12
HETATM   12  C6  UNL     1      -0.427   0.150   0.599  1.00  0.00     0.198 C 
BRANCH  12  13
HETATM   13  C5  UNL     1      -1.318   0.013  -0.599  1.00  0.00     0.298 C 
BRANCH  13  14
HETATM   14  N1  UNL     1      -2.592  -0.512  -0.169  1.00  0.00     0.090 N 
HETATM   15  C4  UNL     1      -3.535  -0.691  -1.219  1.00  0.00     0.273 C 
HETATM   16  C3  UNL     1      -4.701   0.268  -1.151  1.00  0.00     0.034 C 
HETATM   17  C2  UNL     1      -5.435   0.075   0.154  1.00  0.00    -0.015 C 
HETATM   18  C1  UNL     1      -6.510  -0.995  -0.040  1.00  0.00     0.010 C 
HETATM   19  C17 UNL     1      -4.511  -0.381   1.249  1.00  0.00     0.034 C 
HETATM   20  C16 UNL     1      -3.102   0.092   1.020  1.00  0.00     0.273 C 
ENDBRANCH  13  14
ENDBRANCH  12  13
ENDBRANCH  11  12
ENDBRANCH   1  11
BRANCH   9  21
HETATM   21  O3  UNL     1       6.208   0.651  -1.147  1.00  0.00    -0.393 OA
ATOM     22  H3  UNL     1       7.094   0.325  -1.038  1.00  0.00     0.210 HD
ENDBRANCH   9  21
TORSDOF 5
