REMARK  7 active torsions:
REMARK  status: ('A' for Active; 'I' for Inactive)
REMARK    1  A    between atoms: C2_2  and  O1_3 
REMARK    2  A    between atoms: C2_2  and  C3_5 
REMARK    3  A    between atoms: C3_5  and  C5_7 
REMARK    4  A    between atoms: C5_7  and  N1_8 
REMARK    5  A    between atoms: C8_11  and  O2_12 
REMARK    6  A    between atoms: O2_12  and  C9_13 
REMARK    7  A    between atoms: C9_13  and  C10_15 
ROOT
HETATM    1  N1  UNL     1      -0.721  -0.245   0.672  1.00  0.00     0.101 N 
HETATM    2  C6  UNL     1      -0.683  -1.359  -0.206  1.00  0.00     0.229 C 
HETATM    3  C7  UNL     1       0.518  -1.079  -1.129  1.00  0.00     0.071 C 
HETATM    4  C8  UNL     1       1.194   0.107  -0.511  1.00  0.00     0.167 C 
HETATM    5  C13 UNL     1       0.654   0.025   0.921  1.00  0.00     0.253 C 
HETATM    6  C14 UNL     1       1.383  -1.095   1.599  1.00  0.00     0.039 C 
HETATM    7  C15 UNL     1       1.015  -2.472   1.158  1.00  0.00     0.008 C 
HETATM    8  C16 UNL     1      -0.394  -2.565   0.689  1.00  0.00     0.015 C 
HETATM    9  C17 UNL     1      -0.774  -3.805  -0.026  1.00  0.00     0.012 C 
ENDROOT
BRANCH   1  10
HETATM   10  C5  UNL     1      -1.544   0.826   0.369  1.00  0.00     0.280 C 
BRANCH  10  11
HETATM   11  C3  UNL     1      -3.023   0.665   0.539  1.00  0.00     0.038 C 
HETATM   12  C4  UNL     1      -3.706  -0.337  -0.330  1.00  0.00     0.014 C 
BRANCH  11  13
HETATM   13  C2  UNL     1      -3.619   2.039   0.133  1.00  0.00     0.119 C 
HETATM   14  C1  UNL     1      -5.091   1.977   0.387  1.00  0.00     0.040 C 
BRANCH  13  15
HETATM   15  O1  UNL     1      -3.379   2.118  -1.258  1.00  0.00    -0.396 OA
ATOM     16  H1  UNL     1      -2.444   2.157  -1.419  1.00  0.00     0.210 HD
ENDBRANCH  13  15
ENDBRANCH  11  13
ENDBRANCH  10  11
ENDBRANCH   1  10
BRANCH   4  17
HETATM   17  O2  UNL     1       2.601   0.022  -0.504  1.00  0.00    -0.313 OA
BRANCH  17  18
HETATM   18  C9  UNL     1       3.390   1.104  -0.868  1.00  0.00     0.263 C 
HETATM   19  O3  UNL     1       2.825   2.168  -1.204  1.00  0.00    -0.265 OA
BRANCH  18  20
HETATM   20  C10 UNL     1       4.865   0.951  -0.842  1.00  0.00     0.085 A 
HETATM   21  C11 UNL     1       5.775   1.967  -1.383  1.00  0.00     0.015 A 
HETATM   22  C12 UNL     1       5.581   2.009   0.077  1.00  0.00     0.015 A 
ENDBRANCH  18  20
ENDBRANCH  17  18
ENDBRANCH   4  17
TORSDOF 7
