REMARK  6 active torsions:
REMARK  status: ('A' for Active; 'I' for Inactive)
REMARK    1  A    between atoms: N1_2  and  O1_3 
REMARK    2  A    between atoms: N1_2  and  C2_5 
REMARK       I    between atoms: N2_6  and  C3_8 
REMARK    3  A    between atoms: C3_8  and  C4_10 
REMARK    4  A    between atoms: C4_10  and  C5_11 
REMARK    5  A    between atoms: C5_11  and  C6_12 
REMARK    6  A    between atoms: N3_15  and  C9_16 
ROOT
HETATM    1  C6  UNL     1       0.680  -1.035   0.730  1.00  0.00     0.123 C 
HETATM    2  C7  UNL     1      -0.736  -1.498   0.964  1.00  0.00     0.062 C 
HETATM    3  C8  UNL     1      -1.635  -1.389  -0.223  1.00  0.00     0.275 C 
HETATM    4  N3  UNL     1      -1.899  -0.043  -0.652  1.00  0.00     0.095 N 
HETATM    5  C14 UNL     1      -0.943   0.467  -1.562  1.00  0.00     0.299 C 
HETATM    6  C15 UNL     1       0.464  -0.061  -1.265  1.00  0.00     0.198 C 
HETATM    7  O3  UNL     1       0.706   0.212   0.085  1.00  0.00    -0.384 OA
ENDROOT
BRANCH   1   8
HETATM    8  C5  UNL     1       1.317  -0.897   2.083  1.00  0.00     0.041 C 
BRANCH   8   9
HETATM    9  C4  UNL     1       2.721  -0.446   2.128  1.00  0.00     0.105 C 
BRANCH   9  10
HETATM   10  C3  UNL     1       3.653  -1.361   1.478  1.00  0.00     0.222 C 
HETATM   11  N2  UNL     1       5.008  -0.967   1.370  1.00  0.00    -0.322 N 
HETATM   12  C2  UNL     1       5.432  -0.292   0.380  1.00  0.00     0.209 C 
ATOM     13  H2  UNL     1       5.662  -1.232   2.107  1.00  0.00     0.169 HD
HETATM   14  O2  UNL     1       3.292  -2.457   1.028  1.00  0.00    -0.273 OA
BRANCH  12  15
HETATM   15  N1  UNL     1       4.583   0.108  -0.672  1.00  0.00    -0.261 N 
HETATM   16  C1  UNL     1       4.293   1.526  -0.902  1.00  0.00     0.186 C 
BRANCH  15  17
HETATM   17  O1  UNL     1       4.023  -0.803  -1.491  1.00  0.00    -0.287 OA
ATOM     18  H1  UNL     1       4.211  -1.722  -1.342  1.00  0.00     0.244 HD
ENDBRANCH  15  17
ENDBRANCH  12  15
ENDBRANCH   9  10
ENDBRANCH   8   9
ENDBRANCH   1   8
BRANCH   4  19
HETATM   19  C9  UNL     1      -3.261   0.106  -0.944  1.00  0.00     0.223 C 
HETATM   20  C10 UNL     1      -4.140  -0.094   0.271  1.00  0.00     0.036 C 
HETATM   21  C11 UNL     1      -4.695   1.290   0.630  1.00  0.00     0.002 C 
HETATM   22  C12 UNL     1      -3.929   2.255  -0.268  1.00  0.00     0.002 C 
HETATM   23  C13 UNL     1      -3.730   1.399  -1.481  1.00  0.00     0.036 C 
ENDBRANCH   4  19
TORSDOF 6
