REMARK  5 active torsions:
REMARK  status: ('A' for Active; 'I' for Inactive)
REMARK       I    between atoms: C1_2  and  N1_3 
REMARK    1  A    between atoms: C1_2  and  O2_14 
REMARK    2  A    between atoms: N1_3  and  C2_5 
REMARK    3  A    between atoms: O2_14  and  C11_15 
REMARK    4  A    between atoms: C11_15  and  C12_16 
REMARK    5  A    between atoms: C12_16  and  N2_17 
ROOT
HETATM    1  O1  UNL     1      -0.011   0.691  -2.452  1.00  0.00    -0.238 OA
HETATM    2  C1  UNL     1      -0.397   0.048  -1.464  1.00  0.00     0.361 C 
HETATM    3  N1  UNL     1       0.491  -0.475  -0.490  1.00  0.00    -0.332 N 
ATOM      4  H1  UNL     1       0.126  -0.999   0.305  1.00  0.00     0.165 HD
ENDROOT
BRANCH   2   5
HETATM    5  O2  UNL     1      -1.779  -0.166  -1.317  1.00  0.00    -0.299 OA
BRANCH   5   6
HETATM    6  C11 UNL     1      -2.640   0.351  -2.290  1.00  0.00     0.225 C 
BRANCH   6   7
HETATM    7  C12 UNL     1      -4.076   0.029  -1.965  1.00  0.00     0.090 C 
BRANCH   7   8
HETATM    8  N2  UNL     1      -4.440   0.588  -0.730  1.00  0.00    -0.368 N 
HETATM    9  C13 UNL     1      -3.893   0.076   0.462  1.00  0.00     0.089 C 
HETATM   10  C14 UNL     1      -4.955  -0.202   1.519  1.00  0.00     0.212 C 
HETATM   11  O3  UNL     1      -5.822   0.858   1.597  1.00  0.00    -0.385 OA
HETATM   12  C15 UNL     1      -6.578   0.918   0.415  1.00  0.00     0.188 C 
HETATM   13  C16 UNL     1      -5.609   1.379  -0.656  1.00  0.00     0.153 C 
ENDBRANCH   7   8
ENDBRANCH   6   7
ENDBRANCH   5   6
ENDBRANCH   2   5
BRANCH   3  14
HETATM   14  C2  UNL     1       1.903  -0.266  -0.625  1.00  0.00     0.087 C 
HETATM   15  C3  UNL     1       2.647  -1.590  -0.814  1.00  0.00     0.030 C 
HETATM   16  C4  UNL     1       3.892  -1.421   0.071  1.00  0.00    -0.008 C 
HETATM   17  C5  UNL     1       4.826  -0.537  -0.707  1.00  0.00     0.005 C 
HETATM   18  C9  UNL     1       3.263  -0.710   1.247  1.00  0.00    -0.008 C 
HETATM   19  C6  UNL     1       5.801   0.199   0.150  1.00  0.00     0.000 C 
HETATM   20  C7  UNL     1       5.272   0.710   1.441  1.00  0.00     0.000 C 
HETATM   21  C8  UNL     1       4.332  -0.182   2.172  1.00  0.00     0.005 C 
HETATM   22  C10 UNL     1       2.482   0.384   0.607  1.00  0.00     0.030 C 
ENDBRANCH   3  14
TORSDOF 5
