REMARK  5 active torsions:
REMARK  status: ('A' for Active; 'I' for Inactive)
REMARK    1  A    between atoms: C1_2  and  C2_3 
REMARK       I    between atoms: C1_2  and  N2_11 
REMARK    2  A    between atoms: C2_3  and  C3_4 
REMARK    3  A    between atoms: C3_4  and  C4_5 
REMARK    4  A    between atoms: C4_5  and  N1_6 
REMARK    5  A    between atoms: N5_19  and  C11_21 
ROOT
HETATM    1  O1  UNL     1       2.062  -0.726   2.507  1.00  0.00    -0.273 OA
HETATM    2  C1  UNL     1       1.337   0.166   2.000  1.00  0.00     0.224 C 
HETATM    3  N2  UNL     1       0.334   0.706   2.836  1.00  0.00    -0.291 N 
ATOM      4  H2  UNL     1       0.575   1.060   3.762  1.00  0.00     0.172 HD
HETATM    5  C9  UNL     1      -0.884   0.750   2.426  1.00  0.00     0.248 A 
HETATM    6  N3  UNL     1      -1.876   1.259   3.197  1.00  0.00    -0.262 N 
ATOM      7  H3  UNL     1      -1.760   1.640   4.136  1.00  0.00     0.190 HD
HETATM    8  N4  UNL     1      -3.019   1.181   2.534  1.00  0.00    -0.262 N 
ATOM      9  H4  UNL     1      -3.932   1.489   2.868  1.00  0.00     0.190 HD
HETATM   10  C10 UNL     1      -2.755   0.621   1.338  1.00  0.00     0.242 A 
HETATM   11  N5  UNL     1      -3.638   0.401   0.449  1.00  0.00    -0.350 N 
ATOM     12  H5  UNL     1      -4.591   0.677   0.687  1.00  0.00     0.163 HD
HETATM   13  O2  UNL     1      -1.467   0.385   1.329  1.00  0.00    -0.244 OA
ENDROOT
BRANCH   2  14
HETATM   14  C2  UNL     1       1.467   0.670   0.619  1.00  0.00     0.105 C 
BRANCH  14  15
HETATM   15  C3  UNL     1       2.718   0.222  -0.072  1.00  0.00     0.039 C 
BRANCH  15  16
HETATM   16  C4  UNL     1       3.959   0.699   0.601  1.00  0.00     0.273 C 
BRANCH  16  17
HETATM   17  N1  UNL     1       5.177   0.294  -0.016  1.00  0.00     0.088 N 
HETATM   18  C5  UNL     1       5.468  -1.099   0.057  1.00  0.00     0.272 C 
HETATM   19  C6  UNL     1       6.412  -1.409  -1.086  1.00  0.00     0.032 C 
HETATM   20  C7  UNL     1       6.274  -0.258  -2.056  1.00  0.00     0.032 C 
HETATM   21  C8  UNL     1       5.422   0.761  -1.335  1.00  0.00     0.272 C 
ENDBRANCH  16  17
ENDBRANCH  15  16
ENDBRANCH  14  15
ENDBRANCH   2  14
BRANCH  11  22
HETATM   22  C11 UNL     1      -3.460  -0.184  -0.841  1.00  0.00     0.085 C 
HETATM   23  C12 UNL     1      -4.241   0.629  -1.864  1.00  0.00     0.025 C 
HETATM   24  C13 UNL     1      -5.667   0.153  -1.974  1.00  0.00     0.002 C 
HETATM   25  C14 UNL     1      -6.216  -0.199  -0.620  1.00  0.00     0.000 C 
HETATM   26  C15 UNL     1      -5.441  -1.325  -0.020  1.00  0.00     0.002 C 
HETATM   27  C16 UNL     1      -4.170  -1.546  -0.814  1.00  0.00     0.025 C 
ENDBRANCH  11  22
TORSDOF 5
