REMARK  6 active torsions:
REMARK  status: ('A' for Active; 'I' for Inactive)
REMARK    1  A    between atoms: O1_1  and  C1_3 
REMARK    2  A    between atoms: C1_3  and  C2_4 
REMARK    3  A    between atoms: C4_6  and  N1_7 
REMARK    4  A    between atoms: N3_16  and  C11_18 
REMARK    5  A    between atoms: C11_18  and  C12_19 
REMARK    6  A    between atoms: C12_19  and  N4_20 
ROOT
HETATM    1  C2  UNL     1      -1.242  -1.384  -2.170  1.00  0.00    -0.028 A 
HETATM    2  C3  UNL     1      -2.361  -0.961  -1.506  1.00  0.00     0.058 A 
HETATM    3  C4  UNL     1      -2.343  -0.690  -0.152  1.00  0.00     0.105 A 
HETATM    4  N2  UNL     1      -1.179  -0.857   0.495  1.00  0.00    -0.329 N 
ATOM      5  H2  UNL     1      -1.156  -0.659   1.495  1.00  0.00     0.169 HD
HETATM    6  C10 UNL     1      -0.042  -1.269  -0.092  1.00  0.00     0.106 A 
HETATM    7  N3  UNL     1       1.023  -1.411   0.557  1.00  0.00    -0.354 N 
ATOM      8  H3  UNL     1       0.945  -1.189   1.549  1.00  0.00     0.166 HD
HETATM    9  C17 UNL     1      -0.062  -1.539  -1.442  1.00  0.00     0.058 A 
ENDROOT
BRANCH   7  10
HETATM   10  C11 UNL     1       2.304  -1.823   0.153  1.00  0.00     0.092 C 
BRANCH  10  11
HETATM   11  C12 UNL     1       3.198  -0.785  -0.422  1.00  0.00     0.317 C 
BRANCH  11  12
HETATM   12  N4  UNL     1       3.464   0.289   0.492  1.00  0.00     0.097 N 
HETATM   13  C13 UNL     1       4.256  -0.060   1.619  1.00  0.00     0.299 C 
HETATM   14  C14 UNL     1       5.748   0.018   1.358  1.00  0.00     0.198 C 
HETATM   15  O2  UNL     1       6.142   1.250   0.896  1.00  0.00    -0.388 OA
HETATM   16  C15 UNL     1       5.079   2.085   0.616  1.00  0.00     0.198 C 
HETATM   17  C16 UNL     1       3.999   1.421  -0.197  1.00  0.00     0.299 C 
ENDBRANCH  11  12
ENDBRANCH  10  11
ENDBRANCH   7  10
BRANCH   3  18
HETATM   18  N1  UNL     1      -3.505  -0.249   0.513  1.00  0.00    -0.367 N 
HETATM   19  C5  UNL     1      -4.770   0.020  -0.122  1.00  0.00     0.124 C 
HETATM   20  C6  UNL     1      -5.259   1.355   0.445  1.00  0.00     0.020 C 
HETATM   21  C7  UNL     1      -4.107   2.180   1.002  1.00  0.00     0.003 C 
HETATM   22  C8  UNL     1      -3.424   1.458   2.151  1.00  0.00     0.020 C 
HETATM   23  C9  UNL     1      -3.476  -0.044   1.943  1.00  0.00     0.124 C 
ENDBRANCH   3  18
BRANCH   1  24
HETATM   24  C1  UNL     1      -1.278  -1.669  -3.631  1.00  0.00     0.203 C 
BRANCH  24  25
HETATM   25  O1  UNL     1      -0.942  -0.545  -4.395  1.00  0.00    -0.396 OA
ATOM     26  H1  UNL     1      -0.965  -0.727  -5.327  1.00  0.00     0.209 HD
ENDBRANCH  24  25
ENDBRANCH   1  24
TORSDOF 6
