REMARK  6 active torsions:
REMARK  status: ('A' for Active; 'I' for Inactive)
REMARK    1  A    between atoms: C5_5  and  N1_6 
REMARK    2  A    between atoms: N1_6  and  C6_9 
REMARK    3  A    between atoms: C6_9  and  C7_10 
REMARK       I    between atoms: C7_10  and  N2_12 
REMARK    4  A    between atoms: C9_14  and  O2_15 
REMARK    5  A    between atoms: C10_17  and  O3_18 
REMARK    6  A    between atoms: O3_18  and  C11_19 
ROOT
HETATM    1  C7  UNL     1      -0.598  -1.254   1.434  1.00  0.00     0.246 C 
HETATM    2  O1  UNL     1      -0.956  -1.439   2.655  1.00  0.00    -0.271 OA
HETATM    3  N2  UNL     1      -1.544  -1.493   0.439  1.00  0.00    -0.328 N 
HETATM    4  C8  UNL     1      -1.387  -1.338  -1.011  1.00  0.00     0.161 C 
HETATM    5  C9  UNL     1      -2.783  -1.373  -1.623  1.00  0.00     0.168 C 
HETATM    6  C10 UNL     1      -3.658  -1.099  -0.409  1.00  0.00     0.189 C 
HETATM    7  C14 UNL     1      -2.920  -1.979   0.603  1.00  0.00     0.226 C 
HETATM    8  C15 UNL     1      -3.381  -1.767   1.934  1.00  0.00     0.087 C 
HETATM    9  N3  UNL     1      -3.797  -1.599   3.022  1.00  0.00    -0.195 NA
ENDROOT
BRANCH   6  10
HETATM   10  O3  UNL     1      -3.551   0.211  -0.009  1.00  0.00    -0.376 OA
BRANCH  10  11
HETATM   11  C11 UNL     1      -4.748   0.883   0.041  1.00  0.00     0.114 C 
HETATM   12  C12 UNL     1      -4.691   1.970  -1.035  1.00  0.00     0.039 C 
HETATM   13  C13 UNL     1      -5.058   1.553   1.338  1.00  0.00     0.039 C 
ENDBRANCH  10  11
ENDBRANCH   6  10
BRANCH   1  14
HETATM   14  C6  UNL     1       0.769  -0.812   1.255  1.00  0.00     0.335 C 
BRANCH  14  15
HETATM   15  N1  UNL     1       1.155  -0.655  -0.096  1.00  0.00    -0.063 N 
ATOM     16  H12 UNL     1       0.479  -0.080  -0.599  1.00  0.00     0.278 HD
ATOM     17  H11 UNL     1       1.046  -1.532  -0.606  1.00  0.00     0.278 HD
BRANCH  15  18
HETATM   18  C5  UNL     1       2.499  -0.130  -0.262  1.00  0.00     0.186 C 
HETATM   19  C4  UNL     1       2.665   1.239   0.300  1.00  0.00     0.033 C 
HETATM   20  C3  UNL     1       4.050   1.770   0.030  1.00  0.00     0.006 C 
HETATM   21  C2  UNL     1       5.141   0.776   0.247  1.00  0.00    -0.019 C 
HETATM   22  C1  UNL     1       6.397   1.360  -0.416  1.00  0.00     0.010 C 
HETATM   23  C17 UNL     1       4.877  -0.576  -0.370  1.00  0.00     0.006 C 
HETATM   24  C16 UNL     1       3.569  -1.092   0.228  1.00  0.00     0.033 C 
ENDBRANCH  15  18
ENDBRANCH  14  15
ENDBRANCH   1  14
BRANCH   5  25
HETATM   25  O2  UNL     1      -2.941  -0.441  -2.618  1.00  0.00    -0.391 OA
ATOM     26  H2  UNL     1      -3.811  -0.463  -2.999  1.00  0.00     0.210 HD
ENDBRANCH   5  25
TORSDOF 6
