REMARK  11 active torsions:
REMARK  status: ('A' for Active; 'I' for Inactive)
REMARK    1  A    between atoms: C2_2  and  O1_3 
REMARK    2  A    between atoms: O1_3  and  C3_4 
REMARK    3  A    between atoms: C3_4  and  O3_6 
REMARK    4  A    between atoms: O3_6  and  C4_7 
REMARK    5  A    between atoms: C4_7  and  O4_8 
REMARK    6  A    between atoms: O4_8  and  C5_9 
REMARK    7  A    between atoms: C5_9  and  C6_11 
REMARK    8  A    between atoms: C6_11  and  N1_12 
REMARK    9  A    between atoms: C6_11  and  C10_17 
REMARK       I    between atoms: N1_12  and  C8_14 
REMARK   10  A    between atoms: C10_17  and  O7_18 
REMARK   11  A    between atoms: C15_24  and  O8_25 
ROOT
HETATM    1  C6  UNL     1      -0.810  -1.067   0.763  1.00  0.00     0.223 C 
ENDROOT
BRANCH   1   2
HETATM    2  C5  UNL     1       0.641  -0.823   0.500  1.00  0.00     0.287 C 
HETATM    3  O5  UNL     1       1.263  -0.033   1.246  1.00  0.00    -0.263 OA
BRANCH   2   4
HETATM    4  O4  UNL     1       1.339  -1.390  -0.485  1.00  0.00    -0.293 OA
BRANCH   4   5
HETATM    5  C4  UNL     1       2.511  -1.504  -1.100  1.00  0.00     0.360 C 
BRANCH   5   6
HETATM    6  O3  UNL     1       3.199  -0.547  -1.755  1.00  0.00    -0.272 OA
BRANCH   6   7
HETATM    7  C3  UNL     1       3.789   0.595  -1.391  1.00  0.00     0.408 C 
HETATM    8  O2  UNL     1       3.805   1.001  -0.207  1.00  0.00    -0.229 OA
BRANCH   7   9
HETATM    9  O1  UNL     1       4.449   1.451  -2.297  1.00  0.00    -0.298 OA
BRANCH   9  10
HETATM   10  C2  UNL     1       5.044   2.637  -1.823  1.00  0.00     0.176 C 
HETATM   11  C1  UNL     1       6.106   2.419  -0.801  1.00  0.00     0.034 C 
ENDBRANCH   9  10
ENDBRANCH   7   9
ENDBRANCH   6   7
ENDBRANCH   5   6
ENDBRANCH   4   5
ENDBRANCH   2   4
ENDBRANCH   1   2
BRANCH   1  12
HETATM   12  N1  UNL     1      -1.257  -2.252   0.021  1.00  0.00    -0.340 N 
HETATM   13  C7  UNL     1      -1.290  -2.360  -1.413  1.00  0.00     0.153 C 
HETATM   14  C8  UNL     1      -1.670  -3.433   0.749  1.00  0.00     0.216 C 
HETATM   15  C9  UNL     1      -2.123  -4.626   0.030  1.00  0.00     0.117 C 
HETATM   16  O6  UNL     1      -1.627  -3.398   2.000  1.00  0.00    -0.274 OA
ENDBRANCH   1  12
BRANCH   1  17
HETATM   17  C10 UNL     1      -1.714   0.086   0.685  1.00  0.00     0.113 C 
HETATM   18  C11 UNL     1      -1.974   0.758  -0.623  1.00  0.00     0.043 C 
HETATM   19  C12 UNL     1      -3.339   1.465  -0.458  1.00  0.00     0.003 C 
HETATM   20  C13 UNL     1      -3.348   2.408   0.671  1.00  0.00     0.003 C 
HETATM   21  C14 UNL     1      -2.635   1.995   1.925  1.00  0.00     0.035 C 
HETATM   22  C15 UNL     1      -1.355   1.236   1.626  1.00  0.00     0.155 C 
BRANCH  17  23
HETATM   23  O7  UNL     1      -3.012  -0.308   1.183  1.00  0.00    -0.385 OA
ATOM     24  H7  UNL     1      -3.597   0.439   1.132  1.00  0.00     0.210 HD
ENDBRANCH  17  23
BRANCH  22  25
HETATM   25  O8  UNL     1      -0.423   2.099   1.068  1.00  0.00    -0.392 OA
ATOM     26  H8  UNL     1      -0.200   2.814   1.653  1.00  0.00     0.210 HD
ENDBRANCH  22  25
ENDBRANCH   1  17
TORSDOF 11
