REMARK  8 active torsions:
REMARK  status: ('A' for Active; 'I' for Inactive)
REMARK    1  A    between atoms: O1_2  and  C2_3 
REMARK    2  A    between atoms: C4_5  and  C5_6 
REMARK    3  A    between atoms: C6_8  and  O3_9 
REMARK    4  A    between atoms: C8_11  and  O4_13 
REMARK    5  A    between atoms: C10_15  and  O5_16 
REMARK    6  A    between atoms: C11_18  and  O6_19 
REMARK    7  A    between atoms: C13_22  and  O7_23 
REMARK    8  A    between atoms: C15_25  and  O8_26 
ROOT
HETATM    1  C5  UNL     1      -0.637  -0.645   0.426  1.00  0.00     0.189 C 
HETATM    2  O2  UNL     1      -1.209   0.504   0.922  1.00  0.00    -0.346 OA
HETATM    3  C6  UNL     1      -2.502   0.731   0.473  1.00  0.00     0.296 C 
HETATM    4  C8  UNL     1      -3.343  -0.527   0.486  1.00  0.00     0.132 C 
HETATM    5  C9  UNL     1      -4.735  -0.132   0.012  1.00  0.00     0.054 C 
HETATM    6  C10 UNL     1      -2.744  -1.559  -0.442  1.00  0.00     0.188 C 
HETATM    7  C11 UNL     1      -1.362  -1.057  -0.822  1.00  0.00     0.183 C 
ENDROOT
BRANCH   1   8
HETATM    8  C4  UNL     1       0.804  -0.394   0.156  1.00  0.00    -0.021 A 
HETATM    9  C3  UNL     1       1.743  -1.322   0.551  1.00  0.00     0.049 A 
HETATM   10  C2  UNL     1       3.098  -1.131   0.320  1.00  0.00     0.104 A 
HETATM   11  C15 UNL     1       3.553   0.005  -0.316  1.00  0.00     0.135 A 
HETATM   12  C13 UNL     1       2.600   0.938  -0.712  1.00  0.00     0.104 A 
HETATM   13  C12 UNL     1       1.254   0.744  -0.481  1.00  0.00     0.049 A 
BRANCH  10  14
HETATM   14  O1  UNL     1       4.025  -2.092   0.733  1.00  0.00    -0.353 OA
HETATM   15  C1  UNL     1       3.646  -3.269   1.384  1.00  0.00     0.210 C 
ENDBRANCH  10  14
BRANCH  11  16
HETATM   16  O8  UNL     1       4.909   0.193  -0.545  1.00  0.00    -0.351 OA
HETATM   17  C16 UNL     1       5.668   0.860   0.448  1.00  0.00     0.210 C 
ENDBRANCH  11  16
BRANCH  12  18
HETATM   18  O7  UNL     1       3.083   2.080  -1.354  1.00  0.00    -0.353 OA
HETATM   19  C14 UNL     1       2.157   3.043  -1.768  1.00  0.00     0.210 C 
ENDBRANCH  12  18
ENDBRANCH   1   8
BRANCH   7  20
HETATM   20  O6  UNL     1      -0.723  -2.118  -1.471  1.00  0.00    -0.390 OA
ATOM     21  H6  UNL     1      -1.182  -2.379  -2.261  1.00  0.00     0.210 HD
ENDBRANCH   7  20
BRANCH   3  22
HETATM   22  O3  UNL     1      -3.099   1.629   1.349  1.00  0.00    -0.363 OA
HETATM   23  C7  UNL     1      -3.508   2.739   0.658  1.00  0.00     0.204 C 
ENDBRANCH   3  22
BRANCH   6  24
HETATM   24  O5  UNL     1      -3.529  -1.682  -1.563  1.00  0.00    -0.390 OA
ATOM     25  H5  UNL     1      -3.153  -2.331  -2.146  1.00  0.00     0.210 HD
ENDBRANCH   6  24
BRANCH   4  26
HETATM   26  O4  UNL     1      -3.461  -1.041   1.767  1.00  0.00    -0.382 OA
ATOM     27  H4  UNL     1      -3.989  -1.831   1.775  1.00  0.00     0.210 HD
ENDBRANCH   4  26
TORSDOF 8
