REMARK  6 active torsions:
REMARK  status: ('A' for Active; 'I' for Inactive)
REMARK    1  A    between atoms: C2_2  and  C3_3 
REMARK    2  A    between atoms: C2_2  and  N1_6 
REMARK    3  A    between atoms: C3_3  and  O1_4 
REMARK       I    between atoms: N1_6  and  C4_8 
REMARK       I    between atoms: C4_8  and  N2_10 
REMARK    4  A    between atoms: N2_10  and  C5_12 
REMARK    5  A    between atoms: N3_22  and  C14_23 
REMARK    6  A    between atoms: C14_23  and  C15_24 
ROOT
HETATM    1  C5  UNL     1       0.089  -0.265   0.379  1.00  0.00     0.069 C 
HETATM    2  C6  UNL     1      -0.095  -0.665  -1.078  1.00  0.00     0.071 C 
HETATM    3  C7  UNL     1       0.312  -2.106  -1.145  1.00  0.00     0.180 C 
HETATM    4  F1  UNL     1       0.433  -2.580  -2.429  1.00  0.00    -0.249 F 
HETATM    5  C8  UNL     1      -0.668  -2.930  -0.387  1.00  0.00    -0.016 C 
HETATM    6  C9  UNL     1      -1.891  -3.232  -1.267  1.00  0.00     0.018 C 
HETATM    7  C10 UNL     1      -0.002  -4.302  -0.179  1.00  0.00     0.018 C 
HETATM    8  C11 UNL     1      -1.082  -2.420   0.941  1.00  0.00     0.020 C 
HETATM    9  C12 UNL     1      -0.951  -0.978   1.196  1.00  0.00     0.045 C 
HETATM   10  C13 UNL     1      -2.210  -0.166   0.864  1.00  0.00     0.279 C 
HETATM   11  N3  UNL     1      -1.790   1.047   0.238  1.00  0.00     0.091 N 
HETATM   12  C19 UNL     1      -0.376   1.174   0.525  1.00  0.00     0.303 C 
ENDROOT
BRANCH   1  13
HETATM   13  N2  UNL     1       1.420  -0.472   0.850  1.00  0.00    -0.332 N 
HETATM   14  C4  UNL     1       2.517   0.189   0.272  1.00  0.00     0.317 C 
HETATM   15  N1  UNL     1       3.862  -0.009   0.723  1.00  0.00    -0.337 N 
HETATM   16  O2  UNL     1       2.356   0.993  -0.678  1.00  0.00    -0.247 OA
ATOM     17  H1  UNL     1       4.035  -0.658   1.491  1.00  0.00     0.164 HD
ATOM     18  H2  UNL     1       1.579  -1.116   1.625  1.00  0.00     0.165 HD
BRANCH  15  19
HETATM   19  C2  UNL     1       4.983   0.682   0.124  1.00  0.00     0.105 C 
HETATM   20  C1  UNL     1       5.763   1.477   1.116  1.00  0.00     0.034 C 
BRANCH  19  21
HETATM   21  C3  UNL     1       5.837  -0.297  -0.663  1.00  0.00     0.189 C 
BRANCH  21  22
HETATM   22  O1  UNL     1       5.050  -0.878  -1.685  1.00  0.00    -0.399 OA
ATOM     23  H1  UNL     1       5.584  -1.490  -2.177  1.00  0.00     0.209 HD
ENDBRANCH  21  22
ENDBRANCH  19  21
ENDBRANCH  15  19
ENDBRANCH   1  13
BRANCH  11  24
HETATM   24  C14 UNL     1      -2.426   2.225   0.766  1.00  0.00     0.277 C 
BRANCH  24  25
HETATM   25  C15 UNL     1      -3.898   2.325   0.457  1.00  0.00     0.014 C 
HETATM   26  C16 UNL     1      -4.244   2.360  -1.007  1.00  0.00     0.006 C 
HETATM   27  C17 UNL     1      -4.470   3.863  -0.944  1.00  0.00     0.001 C 
HETATM   28  C18 UNL     1      -4.336   3.771   0.567  1.00  0.00     0.006 C 
ENDBRANCH  24  25
ENDBRANCH  11  24
TORSDOF 6
