REMARK  2 active torsions:
REMARK  status: ('A' for Active; 'I' for Inactive)
REMARK    1  A    between atoms: O1_1  and  C1_3 
REMARK    2  A    between atoms: C1_3  and  C2_4 
ROOT
HETATM    1  C2  UNL     1      -1.161  -0.087   0.086  1.00  0.00     0.246 C 
HETATM    2  C3  UNL     1      -1.443   1.383   0.136  1.00  0.00     0.038 C 
HETATM    3  C4  UNL     1      -0.255   2.251  -0.086  1.00  0.00     0.004 C 
HETATM    4  C5  UNL     1       1.017   1.723   0.516  1.00  0.00     0.036 C 
HETATM    5  C6  UNL     1       1.076   0.238   0.572  1.00  0.00     0.223 C 
HETATM    6  C7  UNL     1       2.385  -0.361   0.195  1.00  0.00     0.037 C 
HETATM    7  C8  UNL     1       1.974  -1.784  -0.208  1.00  0.00     0.032 C 
HETATM    8  C9  UNL     1       0.520  -1.664  -0.619  1.00  0.00     0.273 C 
HETATM    9  N1  UNL     1       0.169  -0.273  -0.469  1.00  0.00     0.099 N 
ENDROOT
BRANCH   1  10
HETATM   10  C1  UNL     1      -2.209  -0.842  -0.699  1.00  0.00     0.199 C 
BRANCH  10  11
HETATM   11  O1  UNL     1      -3.438  -0.588  -0.074  1.00  0.00    -0.399 OA
ATOM     12  H1  UNL     1      -4.097  -1.063  -0.567  1.00  0.00     0.209 HD
ENDBRANCH  10  11
ENDBRANCH   1  10
TORSDOF 2
