REMARK  0 active torsions:
REMARK  status: ('A' for Active; 'I' for Inactive)
ROOT
HETATM    1  C1  UNL     1      -3.392   0.123   0.385  1.00  0.00     0.309 C 
HETATM    2  N1  UNL     1      -2.235   0.082  -0.493  1.00  0.00     0.085 N 
HETATM    3  C2  UNL     1      -1.435  -1.072  -0.273  1.00  0.00     0.277 C 
HETATM    4  C3  UNL     1      -0.049  -0.641  -0.694  1.00  0.00     0.025 C 
HETATM    5  C4  UNL     1       1.007  -1.457  -0.034  1.00  0.00     0.012 C 
HETATM    6  C5  UNL     1       2.349  -1.038  -0.615  1.00  0.00     0.045 C 
HETATM    7  C6  UNL     1       2.813   0.153   0.224  1.00  0.00     0.060 C 
HETATM    8  N2  UNL     1       1.850   0.588   1.139  1.00  0.00    -0.382 N 
ATOM      9  H2  UNL     1       1.952   0.377   2.132  1.00  0.00     0.164 HD
HETATM   10  C7  UNL     1       0.743   1.316   0.681  1.00  0.00     0.067 C 
HETATM   11  C8  UNL     1       0.028   0.811  -0.501  1.00  0.00     0.058 C 
HETATM   12  C9  UNL     1      -1.424   1.251  -0.422  1.00  0.00     0.282 C 
ENDROOT
TORSDOF 0
