REMARK  1 active torsions:
REMARK  status: ('A' for Active; 'I' for Inactive)
REMARK    1  A    between atoms: N1_5  and  C5_6 
ROOT
HETATM    1  C1  UNL     1       3.503   0.081   0.561  1.00  0.00     0.032 C 
HETATM    2  C2  UNL     1       2.167   0.011  -0.178  1.00  0.00     0.074 C 
HETATM    3  C3  UNL     1       1.221  -0.743   0.697  1.00  0.00     0.054 C 
HETATM    4  C4  UNL     1       0.014  -1.276  -0.040  1.00  0.00     0.275 C 
HETATM    5  N1  UNL     1      -0.964  -0.241  -0.193  1.00  0.00     0.094 N 
HETATM    6  C8  UNL     1      -0.526   0.782  -1.095  1.00  0.00     0.292 C 
HETATM    7  C9  UNL     1       0.426   1.679  -0.300  1.00  0.00     0.144 C 
HETATM    8  N2  UNL     1       1.789   1.329  -0.519  1.00  0.00    -0.416 N 
ATOM      9  H2  UNL     1       2.458   1.996  -0.903  1.00  0.00     0.153 HD
ENDROOT
BRANCH   5  10
HETATM   10  C5  UNL     1      -2.259  -0.777  -0.463  1.00  0.00     0.223 A 
HETATM   11  C6  UNL     1      -3.476   0.025  -0.602  1.00  0.00     0.038 A 
HETATM   12  C7  UNL     1      -3.233  -0.626   0.714  1.00  0.00     0.038 A 
ENDBRANCH   5  10
TORSDOF 1
