REMARK  2 active torsions:
REMARK  status: ('A' for Active; 'I' for Inactive)
REMARK    1  A    between atoms: C3_3  and  C4_4 
REMARK    2  A    between atoms: C4_4  and  N1_5 
ROOT
HETATM    1  C1  UNL     1      -5.068   0.490   0.078  1.00  0.00     0.112 C 
HETATM    2  C2  UNL     1      -3.679  -0.006   0.088  1.00  0.00    -0.109 C 
HETATM    3  C3  UNL     1      -2.536  -0.447   0.123  1.00  0.00    -0.077 C 
ENDROOT
BRANCH   3   4
HETATM    4  C4  UNL     1      -1.208  -1.021   0.207  1.00  0.00     0.365 C 
BRANCH   4   5
HETATM    5  N1  UNL     1      -0.258  -0.087   0.785  1.00  0.00     0.102 N 
HETATM    6  C5  UNL     1       0.953  -0.815   1.183  1.00  0.00     0.303 C 
HETATM    7  C6  UNL     1       2.115   0.119   1.278  1.00  0.00     0.302 C 
HETATM    8  N2  UNL     1       2.508   0.620  -0.031  1.00  0.00     0.087 N 
HETATM    9  C7  UNL     1       3.552  -0.204  -0.608  1.00  0.00     0.310 C 
HETATM   10  C8  UNL     1       1.357   0.773  -0.898  1.00  0.00     0.302 C 
HETATM   11  C9  UNL     1       0.083   0.973  -0.144  1.00  0.00     0.303 C 
ENDBRANCH   4   5
ENDBRANCH   3   4
TORSDOF 2
