REMARK  8 active torsions:
REMARK  status: ('A' for Active; 'I' for Inactive)
REMARK    1  A    between atoms: C4_4  and  O1_5 
REMARK    2  A    between atoms: O1_5  and  C5_6 
REMARK    3  A    between atoms: C5_6  and  C6_7 
REMARK    4  A    between atoms: C6_7  and  C7_8 
REMARK    5  A    between atoms: C7_8  and  O2_9 
REMARK    6  A    between atoms: O2_9  and  C8_10 
REMARK    7  A    between atoms: C14_17  and  O4_18 
REMARK    8  A    between atoms: C27_33  and  O5_34 
ROOT
HETATM    1  C1  UNL     1       5.418   5.027   1.316  1.00  0.00     0.027 C 
HETATM    2  C2  UNL     1       5.431   3.948   0.755  1.00  0.00    -0.024 C 
HETATM    3  C3  UNL     1       5.453   2.682   0.123  1.00  0.00     0.015 C 
HETATM    4  C4  UNL     1       5.467   1.595  -0.398  1.00  0.00     0.068 C 
ENDROOT
BRANCH   4   5
HETATM    5  O1  UNL     1       5.481   0.335  -0.974  1.00  0.00    -0.303 OA
BRANCH   5   6
HETATM    6  C5  UNL     1       5.556  -0.804  -0.129  1.00  0.00     0.190 C 
BRANCH   6   7
HETATM    7  C6  UNL     1       4.356  -0.842   0.820  1.00  0.00     0.054 C 
BRANCH   7   8
HETATM    8  C7  UNL     1       3.121  -0.909  -0.040  1.00  0.00     0.174 C 
BRANCH   8   9
HETATM    9  O2  UNL     1       1.955  -0.949   0.679  1.00  0.00    -0.350 OA
BRANCH   9  10
HETATM   10  C8  UNL     1       0.882  -1.014  -0.196  1.00  0.00     0.230 A 
HETATM   11  O3  UNL     1       0.865   0.129  -1.065  1.00  0.00    -0.333 OA
HETATM   12  C9  UNL     1      -0.198  -0.054  -0.220  1.00  0.00     0.128 A 
HETATM   13  C10 UNL     1      -0.449   0.891   0.931  1.00  0.00     0.045 C 
HETATM   14  C19 UNL     1      -1.378  -0.734  -0.766  1.00  0.00     0.037 C 
HETATM   15  C11 UNL     1      -0.676   2.274   0.462  1.00  0.00     0.016 C 
HETATM   16  C12 UNL     1      -2.002   2.883   0.660  1.00  0.00    -0.007 A 
HETATM   17  C13 UNL     1      -1.955   4.421   0.769  1.00  0.00     0.019 C 
HETATM   18  C14 UNL     1      -3.123   2.265   1.379  1.00  0.00     0.136 A 
HETATM   19  C15 UNL     1      -3.138   2.302  -0.068  1.00  0.00    -0.008 A 
HETATM   20  C16 UNL     1      -4.103   3.332  -0.693  1.00  0.00     0.019 C 
HETATM   21  C17 UNL     1      -2.839   1.180  -0.987  1.00  0.00     0.013 C 
HETATM   22  C18 UNL     1      -2.721  -0.181  -0.377  1.00  0.00     0.009 C 
HETATM   23  C20 UNL     1      -1.159  -2.162  -0.409  1.00  0.00     0.003 C 
HETATM   24  C21 UNL     1      -1.354  -2.456   1.051  1.00  0.00     0.019 C 
HETATM   25  C22 UNL     1      -1.855  -3.144  -1.303  1.00  0.00     0.041 C 
HETATM   26  C27 UNL     1       0.343  -2.282  -0.733  1.00  0.00     0.129 C 
HETATM   27  C23 UNL     1      -1.188  -4.469  -1.212  1.00  0.00    -0.008 C 
HETATM   28  C24 UNL     1       0.010  -4.661  -0.694  1.00  0.00     0.021 C 
HETATM   29  C25 UNL     1       0.581  -5.984  -0.647  1.00  0.00     0.095 C 
HETATM   30  C26 UNL     1       0.839  -3.540  -0.132  1.00  0.00     0.094 C 
HETATM   31  N1  UNL     1       1.030  -7.052  -0.599  1.00  0.00    -0.192 NA
BRANCH  18  32
HETATM   32  O4  UNL     1      -4.032   3.110   2.071  1.00  0.00    -0.394 OA
ATOM     33  H4  UNL     1      -4.757   2.710   2.536  1.00  0.00     0.210 HD
ENDBRANCH  18  32
BRANCH  26  34
HETATM   34  O5  UNL     1       0.526  -2.299  -2.113  1.00  0.00    -0.383 OA
ATOM     35  H5  UNL     1       0.180  -3.114  -2.458  1.00  0.00     0.210 HD
ENDBRANCH  26  34
ENDBRANCH   9  10
ENDBRANCH   8   9
ENDBRANCH   7   8
ENDBRANCH   6   7
ENDBRANCH   5   6
ENDBRANCH   4   5
TORSDOF 8
