REMARK  9 active torsions:
REMARK  status: ('A' for Active; 'I' for Inactive)
REMARK    1  A    between atoms: C3_3  and  C4_4 
REMARK    2  A    between atoms: C18_20  and  C19_21 
REMARK    3  A    between atoms: C19_21  and  O2_22 
REMARK    4  A    between atoms: C19_21  and  C20_24 
REMARK    5  A    between atoms: C20_24  and  N2_25 
REMARK    6  A    between atoms: N2_25  and  C21_26 
REMARK    7  A    between atoms: C21_26  and  O3_27 
REMARK    8  A    between atoms: C21_26  and  O4_29 
REMARK    9  A    between atoms: C24_32  and  O5_33 
ROOT
HETATM    1  C4  UNL     1      -5.936   0.828   1.671  1.00  0.00     0.163 C 
HETATM    2  C5  UNL     1      -5.537   2.215   2.084  1.00  0.00     0.063 C 
HETATM    3  N1  UNL     1      -5.234   3.298   2.398  1.00  0.00    -0.197 NA
ENDROOT
BRANCH   1   4
HETATM    4  C3  UNL     1      -4.641   0.074   1.515  1.00  0.00    -0.032 C 
HETATM    5  C2  UNL     1      -3.595   0.496   0.577  1.00  0.00    -0.035 C 
HETATM    6  C1  UNL     1      -3.970   1.307  -0.350  1.00  0.00     0.024 C 
HETATM    7  C26 UNL     1      -2.255  -0.051   0.780  1.00  0.00    -0.053 C 
HETATM    8  C8  UNL     1      -2.253  -1.527   1.168  1.00  0.00     0.090 C 
HETATM    9  C13 UNL     1      -1.190   0.266  -0.209  1.00  0.00     0.025 C 
HETATM   10  C7  UNL     1      -3.229  -1.765   2.210  1.00  0.00     0.158 C 
HETATM   11  C9  UNL     1      -2.532  -2.264  -0.094  1.00  0.00     0.018 C 
HETATM   12  C6  UNL     1      -4.451  -1.005   2.282  1.00  0.00     0.059 C 
HETATM   13  O1  UNL     1      -2.990  -2.686   3.094  1.00  0.00    -0.292 OA
HETATM   14  C10 UNL     1      -1.201  -2.197  -0.895  1.00  0.00     0.011 C 
HETATM   15  C11 UNL     1      -0.831  -0.796  -1.216  1.00  0.00    -0.030 C 
HETATM   16  C12 UNL     1      -1.735  -0.516  -2.452  1.00  0.00     0.016 C 
HETATM   17  C25 UNL     1       0.520  -0.537  -1.707  1.00  0.00     0.032 C 
HETATM   18  C16 UNL     1       1.665  -0.410  -0.776  1.00  0.00    -0.031 C 
HETATM   19  C24 UNL     1       1.103  -1.295  -2.852  1.00  0.00     0.124 C 
HETATM   20  C15 UNL     1       1.337   0.678   0.182  1.00  0.00     0.011 C 
HETATM   21  C17 UNL     1       2.079  -1.647  -0.013  1.00  0.00     0.016 C 
HETATM   22  C18 UNL     1       2.845  -0.078  -1.701  1.00  0.00     0.028 C 
HETATM   23  C14 UNL     1      -0.025   0.691   0.653  1.00  0.00     0.010 C 
HETATM   24  C23 UNL     1       2.414  -0.503  -3.048  1.00  0.00     0.040 C 
BRANCH  22  25
HETATM   25  C19 UNL     1       3.301   1.297  -1.611  1.00  0.00     0.153 C 
BRANCH  25  26
HETATM   26  O2  UNL     1       2.440   2.133  -2.133  1.00  0.00    -0.392 OA
ATOM     27  H2  UNL     1       2.738   3.033  -2.074  1.00  0.00     0.210 HD
ENDBRANCH  25  26
BRANCH  25  28
HETATM   28  C20 UNL     1       4.469   1.924  -1.045  1.00  0.00     0.255 C 
BRANCH  28  29
HETATM   29  N2  UNL     1       4.605   1.729   0.388  1.00  0.00    -0.401 NA
BRANCH  29  30
HETATM   30  C21 UNL     1       4.723   1.559   1.642  1.00  0.00     0.335 C 
BRANCH  30  31
HETATM   31  O3  UNL     1       5.095   0.461   2.237  1.00  0.00    -0.316 OA
ATOM     32  H3  UNL     1       5.183   0.334   3.174  1.00  0.00     0.222 HD
ENDBRANCH  30  31
BRANCH  30  33
HETATM   33  O4  UNL     1       4.432   2.621   2.626  1.00  0.00    -0.311 OA
HETATM   34  C22 UNL     1       4.606   2.361   4.013  1.00  0.00     0.215 C 
ENDBRANCH  30  33
ENDBRANCH  29  30
ENDBRANCH  28  29
ENDBRANCH  25  28
ENDBRANCH  22  25
BRANCH  19  35
HETATM   35  O5  UNL     1       1.386  -2.597  -2.719  1.00  0.00    -0.395 OA
ATOM     36  H5  UNL     1       0.579  -3.084  -2.598  1.00  0.00     0.210 HD
ENDBRANCH  19  35
ENDBRANCH   1   4
TORSDOF 9
