REMARK  6 active torsions:
REMARK  status: ('A' for Active; 'I' for Inactive)
REMARK    1  A    between atoms: C3_5  and  C4_6 
REMARK    2  A    between atoms: C4_6  and  C5_7 
REMARK    3  A    between atoms: C5_7  and  C6_8 
REMARK    4  A    between atoms: N4_14  and  C8_16 
REMARK    5  A    between atoms: C8_16  and  C9_17 
REMARK    6  A    between atoms: C9_17  and  C10_18 
ROOT
HETATM    1  C1  UNL     1      -3.393  -3.640   1.465  1.00  0.00     0.064 C 
HETATM    2  C2  UNL     1      -2.471  -2.844   0.975  1.00  0.00     0.112 A 
HETATM    3  N1  UNL     1      -2.857  -1.760   0.155  1.00  0.00    -0.332 N 
ATOM      4  H1  UNL     1      -3.849  -1.622  -0.038  1.00  0.00     0.168 HD
HETATM    5  C3  UNL     1      -1.915  -0.849  -0.416  1.00  0.00     0.099 A 
HETATM    6  N3  UNL     1      -0.672  -1.063  -0.146  1.00  0.00    -0.181 N 
ATOM      7  H3  UNL     1       0.012  -0.422  -0.547  1.00  0.00     0.185 HD
HETATM    8  C7  UNL     1      -0.186  -2.108   0.655  1.00  0.00     0.680 A 
HETATM    9  N4  UNL     1       1.071  -2.297   0.909  1.00  0.00    -0.226 N 
ATOM     10  H4  UNL     1       1.361  -3.077   1.499  1.00  0.00     0.177 HD
HETATM   11  N5  UNL     1      -1.100  -3.047   1.250  1.00  0.00    -0.178 N 
ATOM     12  H5  UNL     1      -0.776  -3.816   1.837  1.00  0.00     0.185 HD
ENDROOT
BRANCH   9  13
HETATM   13  C8  UNL     1       2.054  -1.409   0.359  1.00  0.00     0.142 C 
BRANCH  13  14
HETATM   14  C9  UNL     1       2.365  -0.278   1.311  1.00  0.00     0.058 C 
BRANCH  14  15
HETATM   15  C10 UNL     1       3.390   0.600   0.673  1.00  0.00    -0.057 A 
HETATM   16  C11 UNL     1       4.755   0.359   0.867  1.00  0.00     0.007 A 
HETATM   17  C12 UNL     1       5.710   1.162   0.283  1.00  0.00     0.001 A 
HETATM   18  C13 UNL     1       5.335   2.220  -0.504  1.00  0.00     0.000 A 
HETATM   19  C14 UNL     1       3.985   2.489  -0.718  1.00  0.00     0.001 A 
HETATM   20  C15 UNL     1       3.048   1.670  -0.123  1.00  0.00     0.007 A 
ENDBRANCH  14  15
ENDBRANCH  13  14
ENDBRANCH   9  13
BRANCH   5  21
HETATM   21  C4  UNL     1      -2.400   0.268  -1.269  1.00  0.00     0.086 C 
BRANCH  21  22
HETATM   22  C5  UNL     1      -3.332   1.122  -0.402  1.00  0.00     0.107 C 
BRANCH  22  23
HETATM   23  C6  UNL     1      -3.866   2.267  -1.179  1.00  0.00     0.231 C 
HETATM   24  N2  UNL     1      -4.744   3.155  -0.522  1.00  0.00    -0.062 NA
HETATM   25  O1  UNL     1      -3.512   2.392  -2.379  1.00  0.00    -0.277 OA
ENDBRANCH  22  23
ENDBRANCH  21  22
ENDBRANCH   5  21
TORSDOF 6
