REMARK  8 active torsions:
REMARK  status: ('A' for Active; 'I' for Inactive)
REMARK    1  A    between atoms: N1_1  and  C1_5 
REMARK    2  A    between atoms: C1_5  and  C2_6 
REMARK    3  A    between atoms: C1_5  and  C9_13 
REMARK    4  A    between atoms: C2_6  and  C3_7 
REMARK    5  A    between atoms: C9_13  and  S1_14 
REMARK    6  A    between atoms: S1_14  and  C10_16 
REMARK    7  A    between atoms: C10_16  and  C11_17 
REMARK    8  A    between atoms: N3_22  and  O2_23 
ROOT
HETATM    1  C1  UNL     1      -0.318  -0.336   0.939  1.00  0.00     0.199 C 
ENDROOT
BRANCH   1   2
HETATM    2  N1  UNL     1      -0.753  -0.038   2.269  1.00  0.00    -0.074 N 
ATOM      3  H13 UNL     1      -1.613   0.511   2.248  1.00  0.00     0.274 HD
ATOM      4  H12 UNL     1      -1.096  -0.881   2.729  1.00  0.00     0.274 HD
ATOM      5  H11 UNL     1      -0.050   0.423   2.847  1.00  0.00     0.274 HD
ENDBRANCH   1   2
BRANCH   1   6
HETATM    6  C2  UNL     1      -1.336  -1.003   0.102  1.00  0.00     0.072 C 
BRANCH   6   7
HETATM    7  C3  UNL     1      -2.604  -0.362  -0.136  1.00  0.00    -0.056 A 
HETATM    8  C4  UNL     1      -3.696  -0.488   0.734  1.00  0.00     0.007 A 
HETATM    9  C5  UNL     1      -4.901   0.117   0.486  1.00  0.00     0.001 A 
HETATM   10  C6  UNL     1      -5.067   0.876  -0.645  1.00  0.00     0.000 A 
HETATM   11  C7  UNL     1      -4.021   1.027  -1.529  1.00  0.00     0.001 A 
HETATM   12  C8  UNL     1      -2.801   0.403  -1.259  1.00  0.00     0.007 A 
ENDBRANCH   6   7
ENDBRANCH   1   6
BRANCH   1  13
HETATM   13  C9  UNL     1       0.365   0.824   0.311  1.00  0.00     0.142 C 
BRANCH  13  14
HETATM   14  S1  UNL     1       0.966   0.494  -1.333  1.00  0.00     0.024 S 
HETATM   15  O1  UNL     1       1.715   1.866  -1.967  1.00  0.00    -0.258 OA
BRANCH  14  16
HETATM   16  C10 UNL     1       2.150  -0.829  -1.351  1.00  0.00     0.187 C 
BRANCH  16  17
HETATM   17  C11 UNL     1       3.305  -0.461  -0.503  1.00  0.00     0.120 A 
HETATM   18  N2  UNL     1       3.490  -0.696   0.783  1.00  0.00    -0.352 N 
HETATM   19  C12 UNL     1       4.691  -0.186   1.173  1.00  0.00     0.109 A 
ATOM     20  H2  UNL     1       2.834  -1.185   1.392  1.00  0.00     0.166 HD
HETATM   21  C13 UNL     1       5.267   0.388   0.066  1.00  0.00     0.141 A 
HETATM   22  N3  UNL     1       4.401   0.209  -0.952  1.00  0.00    -0.221 N 
BRANCH  22  23
HETATM   23  O2  UNL     1       4.618   0.643  -2.224  1.00  0.00    -0.282 OA
ATOM     24  H2  UNL     1       5.383   1.111  -2.537  1.00  0.00     0.245 HD
ENDBRANCH  22  23
ENDBRANCH  16  17
ENDBRANCH  14  16
ENDBRANCH  13  14
ENDBRANCH   1  13
TORSDOF 8
