REMARK  9 active torsions:
REMARK  status: ('A' for Active; 'I' for Inactive)
REMARK    1  A    between atoms: N1_1  and  C1_4 
REMARK    2  A    between atoms: N3_10  and  C5_11 
REMARK    3  A    between atoms: C5_11  and  C6_12 
REMARK    4  A    between atoms: C6_12  and  O1_13 
REMARK    5  A    between atoms: O1_13  and  C7_14 
REMARK    6  A    between atoms: C7_14  and  C8_15 
REMARK    7  A    between atoms: C9_16  and  C10_17 
REMARK    8  A    between atoms: C14_21  and  C15_22 
REMARK    9  A    between atoms: C15_22  and  N4_23 
ROOT
HETATM    1  C7  UNL     1      -0.799  -2.695  -1.891  1.00  0.00     0.261 C 
ENDROOT
BRANCH   1   2
HETATM    2  O1  UNL     1      -1.789  -2.975  -0.970  1.00  0.00    -0.378 OA
BRANCH   2   3
HETATM    3  C6  UNL     1      -2.203  -1.888  -0.244  1.00  0.00     0.189 C 
BRANCH   3   4
HETATM    4  C5  UNL     1      -2.769  -0.783  -1.109  1.00  0.00     0.173 C 
BRANCH   4   5
HETATM    5  N3  UNL     1      -3.198   0.349  -0.313  1.00  0.00    -0.192 N 
HETATM    6  C1  UNL     1      -4.460   0.392   0.146  1.00  0.00     0.677 A 
HETATM    7  N2  UNL     1      -4.830   1.452   0.881  1.00  0.00    -0.202 N 
HETATM    8  C2  UNL     1      -3.995   2.480   1.182  1.00  0.00     0.107 A 
ATOM      9  H2  UNL     1      -5.787   1.487   1.232  1.00  0.00     0.183 HD
HETATM   10  C3  UNL     1      -2.699   2.443   0.716  1.00  0.00     0.035 A 
HETATM   11  C4  UNL     1      -2.322   1.354  -0.038  1.00  0.00     0.110 A 
BRANCH   6  12
HETATM   12  N1  UNL     1      -5.307  -0.568  -0.113  1.00  0.00    -0.234 N 
ATOM     13  H12 UNL     1      -6.265  -0.535   0.235  1.00  0.00     0.174 HD
ATOM     14  H11 UNL     1      -5.026  -1.374  -0.672  1.00  0.00     0.174 HD
ENDBRANCH   6  12
ENDBRANCH   4   5
ENDBRANCH   3   4
ENDBRANCH   2   3
ENDBRANCH   1   2
BRANCH   1  15
HETATM   15  C8  UNL     1       0.354  -2.168  -1.132  1.00  0.00    -0.075 C 
HETATM   16  C9  UNL     1       1.308  -1.742  -0.525  1.00  0.00    -0.065 C 
BRANCH  16  17
HETATM   17  C10 UNL     1       2.456  -1.243   0.184  1.00  0.00     0.018 A 
HETATM   18  C11 UNL     1       3.025  -1.995   1.217  1.00  0.00     0.020 A 
HETATM   19  C12 UNL     1       4.125  -1.510   1.892  1.00  0.00     0.002 A 
HETATM   20  C13 UNL     1       4.661  -0.275   1.540  1.00  0.00     0.009 A 
HETATM   21  C14 UNL     1       4.120   0.483   0.529  1.00  0.00    -0.032 A 
HETATM   22  C16 UNL     1       3.029  -0.015  -0.129  1.00  0.00     0.029 A 
BRANCH  21  23
HETATM   23  C15 UNL     1       4.651   1.807   0.112  1.00  0.00     0.268 C 
BRANCH  23  24
HETATM   24  N4  UNL     1       4.031   2.899   0.850  1.00  0.00    -0.075 N 
ATOM     25  H43 UNL     1       3.014   2.867   0.774  1.00  0.00     0.274 HD
ATOM     26  H42 UNL     1       4.121   2.764   1.857  1.00  0.00     0.274 HD
ATOM     27  H41 UNL     1       4.395   3.808   0.564  1.00  0.00     0.274 HD
ENDBRANCH  23  24
ENDBRANCH  21  23
ENDBRANCH  16  17
ENDBRANCH   1  15
TORSDOF 9
