REMARK  7 active torsions:
REMARK  status: ('A' for Active; 'I' for Inactive)
REMARK    1  A    between atoms: N1_1  and  C1_5 
REMARK    2  A    between atoms: C1_5  and  C2_6 
REMARK    3  A    between atoms: C2_6  and  C3_7 
REMARK    4  A    between atoms: N2_11  and  C7_12 
REMARK    5  A    between atoms: C7_12  and  C8_13 
REMARK    6  A    between atoms: C11_16  and  C12_17 
REMARK    7  A    between atoms: C12_17  and  N3_18 
ROOT
HETATM    1  C7  UNL     1       1.049  -0.676  -1.689  1.00  0.00     0.166 C 
ENDROOT
BRANCH   1   2
HETATM    2  N2  UNL     1       2.032  -0.915  -0.622  1.00  0.00    -0.362 N 
HETATM    3  C6  UNL     1       2.219  -2.131  -0.101  1.00  0.00     0.090 A 
HETATM    4  C5  UNL     1       3.163  -2.285   0.903  1.00  0.00     0.018 A 
HETATM    5  C4  UNL     1       3.904  -1.225   1.369  1.00  0.00     0.010 A 
HETATM    6  C3  UNL     1       3.699   0.016   0.823  1.00  0.00    -0.041 A 
HETATM    7  C16 UNL     1       2.748   0.109  -0.171  1.00  0.00     0.098 A 
BRANCH   6   8
HETATM    8  C2  UNL     1       4.459   1.210   1.273  1.00  0.00     0.067 C 
BRANCH   8   9
HETATM    9  C1  UNL     1       5.724   1.385   0.470  1.00  0.00     0.234 C 
BRANCH   9  10
HETATM   10  N1  UNL     1       5.429   1.555  -0.942  1.00  0.00    -0.079 N 
ATOM     11  H13 UNL     1       4.859   0.789  -1.301  1.00  0.00     0.274 HD
ATOM     12  H12 UNL     1       4.776   2.322  -1.099  1.00  0.00     0.274 HD
ATOM     13  H11 UNL     1       6.284   1.673  -1.485  1.00  0.00     0.274 HD
ENDBRANCH   9  10
ENDBRANCH   8   9
ENDBRANCH   6   8
ENDBRANCH   1   2
BRANCH   1  14
HETATM   14  C8  UNL     1      -0.272  -0.332  -1.137  1.00  0.00    -0.040 A 
HETATM   15  C9  UNL     1      -0.605   0.983  -0.889  1.00  0.00     0.009 A 
HETATM   16  C10 UNL     1      -1.840   1.338  -0.371  1.00  0.00     0.009 A 
HETATM   17  C11 UNL     1      -2.785   0.381  -0.083  1.00  0.00    -0.041 A 
HETATM   18  C14 UNL     1      -2.460  -0.937  -0.328  1.00  0.00     0.009 A 
HETATM   19  C15 UNL     1      -1.224  -1.289  -0.847  1.00  0.00     0.009 A 
BRANCH  17  20
HETATM   20  C12 UNL     1      -4.125   0.757   0.479  1.00  0.00     0.160 C 
BRANCH  20  21
HETATM   21  N3  UNL     1      -4.945  -0.399   0.700  1.00  0.00    -0.363 N 
HETATM   22  C13 UNL     1      -6.213  -0.264   0.798  1.00  0.00     0.197 C 
HETATM   23  N4  UNL     1      -6.801   1.014   0.691  1.00  0.00    -0.067 NA
HETATM   24  N5  UNL     1      -7.019  -1.400   1.016  1.00  0.00    -0.067 NA
ATOM     25  H3  UNL     1      -4.520  -1.323   0.778  1.00  0.00     0.162 HD
ENDBRANCH  20  21
ENDBRANCH  17  20
ENDBRANCH   1  14
TORSDOF 7
