REMARK  8 active torsions:
REMARK  status: ('A' for Active; 'I' for Inactive)
REMARK    1  A    between atoms: N1_1  and  C1_5 
REMARK    2  A    between atoms: C1_5  and  C2_6 
REMARK    3  A    between atoms: C2_6  and  C3_7 
REMARK    4  A    between atoms: C3_7  and  N2_8 
REMARK    5  A    between atoms: C8_13  and  C9_14 
REMARK    6  A    between atoms: C9_14  and  N3_15 
REMARK    7  A    between atoms: C13_19  and  C14_20 
REMARK    8  A    between atoms: N5_22  and  O1_24 
ROOT
HETATM    1  N2  UNL     1      -2.167  -1.584   0.630  1.00  0.00    -0.359 N 
HETATM    2  C4  UNL     1      -3.201  -1.987  -0.170  1.00  0.00     0.091 A 
HETATM    3  C5  UNL     1      -2.980  -2.609  -1.370  1.00  0.00     0.017 A 
HETATM    4  C6  UNL     1      -1.687  -2.837  -1.786  1.00  0.00     0.003 A 
HETATM    5  C7  UNL     1      -0.663  -2.411  -0.942  1.00  0.00     0.027 A 
HETATM    6  C8  UNL     1      -0.884  -1.780   0.276  1.00  0.00     0.029 A 
ENDROOT
BRANCH   6   7
HETATM    7  C9  UNL     1       0.305  -1.433   1.062  1.00  0.00     0.184 C 
BRANCH   7   8
HETATM    8  N3  UNL     1       1.448  -0.936   0.379  1.00  0.00    -0.360 N 
HETATM    9  C10 UNL     1       2.377  -1.820  -0.022  1.00  0.00     0.091 A 
HETATM   10  C11 UNL     1       3.496  -1.377  -0.673  1.00  0.00     0.018 A 
HETATM   11  C12 UNL     1       3.721  -0.045  -0.942  1.00  0.00     0.017 A 
HETATM   12  C13 UNL     1       2.777   0.862  -0.535  1.00  0.00     0.022 A 
HETATM   13  C15 UNL     1       1.653   0.355   0.126  1.00  0.00     0.105 A 
BRANCH  12  14
HETATM   14  C14 UNL     1       2.918   2.299  -0.770  1.00  0.00     0.147 C 
HETATM   15  N4  UNL     1       4.064   2.789  -1.441  1.00  0.00    -0.080 NA
HETATM   16  N5  UNL     1       1.994   3.083  -0.360  1.00  0.00    -0.255 N 
ATOM     17  H5  UNL     1       1.189   2.679   0.118  1.00  0.00     0.195 HD
BRANCH  16  18
HETATM   18  O1  UNL     1       2.037   4.438  -0.534  1.00  0.00    -0.288 OA
ATOM     19  H1  UNL     1       1.351   5.020  -0.230  1.00  0.00     0.244 HD
ENDBRANCH  16  18
ENDBRANCH  12  14
ENDBRANCH   7   8
ENDBRANCH   6   7
BRANCH   1  20
HETATM   20  C3  UNL     1      -2.549  -0.918   1.826  1.00  0.00     0.130 C 
BRANCH  20  21
HETATM   21  C2  UNL     1      -2.984   0.492   1.712  1.00  0.00     0.047 C 
BRANCH  21  22
HETATM   22  C1  UNL     1      -1.975   1.398   1.130  1.00  0.00     0.231 C 
BRANCH  22  23
HETATM   23  N1  UNL     1      -2.409   2.763   1.024  1.00  0.00    -0.079 N 
ATOM     24  H13 UNL     1      -3.285   2.821   0.505  1.00  0.00     0.274 HD
ATOM     25  H12 UNL     1      -2.723   3.111   1.930  1.00  0.00     0.274 HD
ATOM     26  H11 UNL     1      -1.712   3.389   0.622  1.00  0.00     0.274 HD
ENDBRANCH  22  23
ENDBRANCH  21  22
ENDBRANCH  20  21
ENDBRANCH   1  20
TORSDOF 8
