REMARK  6 active torsions:
REMARK  status: ('A' for Active; 'I' for Inactive)
REMARK       I    between atoms: N2_3  and  C2_5 
REMARK       I    between atoms: C2_5  and  N5_11 
REMARK    1  A    between atoms: N3_6  and  C3_8 
REMARK    2  A    between atoms: N5_11  and  C4_13 
REMARK    3  A    between atoms: C4_13  and  C5_14 
REMARK    4  A    between atoms: C5_14  and  C6_15 
REMARK    5  A    between atoms: C6_15  and  C7_16 
REMARK    6  A    between atoms: C7_16  and  N6_17 
ROOT
HETATM    1  N1  UNL     1       5.200  -4.101   0.019  1.00  0.00    -0.171 NA
HETATM    2  C1  UNL     1       4.841  -3.121  -0.476  1.00  0.00     0.196 C 
HETATM    3  N2  UNL     1       4.410  -1.947  -1.095  1.00  0.00    -0.126 N 
ATOM      4  H2  UNL     1       4.275  -1.865  -2.103  1.00  0.00     0.197 HD
HETATM    5  C2  UNL     1       4.170  -0.849  -0.167  1.00  0.00     0.689 C 
HETATM    6  N3  UNL     1       4.687   0.262  -0.318  1.00  0.00    -0.168 N 
ATOM      7  H3  UNL     1       5.287   0.333  -1.140  1.00  0.00     0.186 HD
HETATM    8  N5  UNL     1       3.318  -1.179   0.904  1.00  0.00    -0.225 N 
ATOM      9  H5  UNL     1       3.675  -1.209   1.859  1.00  0.00     0.177 HD
ENDROOT
BRANCH   6  10
HETATM   10  C3  UNL     1       4.603   1.424   0.418  1.00  0.00     0.199 C 
HETATM   11  N4  UNL     1       4.706   2.702  -0.234  1.00  0.00    -0.069 NA
HETATM   12  S1  UNL     1       4.393   1.396   2.049  1.00  0.00    -0.044 SA
ENDBRANCH   6  10
BRANCH   8  13
HETATM   13  C4  UNL     1       1.936  -1.474   0.631  1.00  0.00     0.138 C 
BRANCH  13  14
HETATM   14  C5  UNL     1       1.203  -0.208   0.234  1.00  0.00     0.022 C 
BRANCH  14  15
HETATM   15  C6  UNL     1      -0.240  -0.625  -0.048  1.00  0.00     0.021 C 
BRANCH  15  16
HETATM   16  C7  UNL     1      -1.005   0.623  -0.370  1.00  0.00     0.117 C 
BRANCH  16  17
HETATM   17  N6  UNL     1      -2.371   0.387  -0.672  1.00  0.00    -0.412 N 
HETATM   18  C8  UNL     1      -3.096   1.629  -0.726  1.00  0.00     0.117 C 
HETATM   19  C9  UNL     1      -4.184   1.574   0.335  1.00  0.00     0.019 C 
HETATM   20  C10 UNL     1      -5.167   0.523  -0.175  1.00  0.00     0.003 C 
HETATM   21  C11 UNL     1      -4.466  -0.743  -0.559  1.00  0.00     0.019 C 
HETATM   22  C12 UNL     1      -3.026  -0.691  -0.036  1.00  0.00     0.117 C 
ENDBRANCH  16  17
ENDBRANCH  15  16
ENDBRANCH  14  15
ENDBRANCH  13  14
ENDBRANCH   8  13
TORSDOF 6
