REMARK  7 active torsions:
REMARK  status: ('A' for Active; 'I' for Inactive)
REMARK       I    between atoms: C1_2  and  N3_10 
REMARK    1  A    between atoms: N2_3  and  C2_5 
REMARK    2  A    between atoms: C2_5  and  C3_6 
REMARK    3  A    between atoms: C3_6  and  C4_7 
REMARK    4  A    between atoms: C4_7  and  O1_8 
REMARK    5  A    between atoms: N3_10  and  C5_12 
REMARK    6  A    between atoms: C5_12  and  C6_13 
REMARK    7  A    between atoms: C6_13  and  N4_14 
ROOT
HETATM    1  C5  UNL     1       1.075   0.452  -1.067  1.00  0.00     0.166 C 
ENDROOT
BRANCH   1   2
HETATM    2  N3  UNL     1       1.962  -0.643  -0.792  1.00  0.00    -0.360 N 
HETATM    3  C1  UNL     1       1.788  -1.901  -1.430  1.00  0.00     0.184 C 
HETATM    4  N1  UNL     1       1.196  -2.041  -2.711  1.00  0.00    -0.064 NA
HETATM    5  N2  UNL     1       2.168  -3.001  -0.864  1.00  0.00    -0.365 N 
ATOM      6  H2  UNL     1       2.035  -3.895  -1.338  1.00  0.00     0.162 HD
ATOM      7  H3  UNL     1       2.727  -0.516  -0.130  1.00  0.00     0.162 HD
BRANCH   5   8
HETATM    8  C2  UNL     1       2.776  -2.956   0.429  1.00  0.00     0.124 C 
BRANCH   8   9
HETATM    9  C3  UNL     1       4.292  -2.900   0.353  1.00  0.00     0.046 C 
BRANCH   9  10
HETATM   10  C4  UNL     1       4.898  -2.855   1.738  1.00  0.00     0.165 C 
BRANCH  10  11
HETATM   11  O1  UNL     1       4.518  -4.015   2.453  1.00  0.00    -0.401 OA
ATOM     12  H1  UNL     1       4.899  -3.987   3.323  1.00  0.00     0.209 HD
ENDBRANCH  10  11
ENDBRANCH   9  10
ENDBRANCH   8   9
ENDBRANCH   5   8
ENDBRANCH   1   2
BRANCH   1  13
HETATM   13  C6  UNL     1      -0.324   0.204  -0.540  1.00  0.00     0.078 C 
BRANCH  13  14
HETATM   14  N4  UNL     1      -1.231   1.246  -0.786  1.00  0.00    -0.382 N 
HETATM   15  C7  UNL     1      -1.620   1.490  -2.129  1.00  0.00     0.123 C 
HETATM   16  C8  UNL     1      -1.591   2.980  -2.352  1.00  0.00     0.020 C 
HETATM   17  C9  UNL     1      -2.261   3.646  -1.199  1.00  0.00     0.004 C 
HETATM   18  C10 UNL     1      -3.006   2.737  -0.280  1.00  0.00     0.031 C 
HETATM   19  C11 UNL     1      -2.199   1.550   0.192  1.00  0.00     0.032 C 
HETATM   20  C12 UNL     1      -3.162   0.389   0.309  1.00  0.00     0.031 C 
HETATM   21  C15 UNL     1      -1.702   1.763   1.572  1.00  0.00     0.031 C 
HETATM   22  C13 UNL     1      -2.817  -0.378   1.547  1.00  0.00     0.002 C 
HETATM   23  C14 UNL     1      -2.302   0.706   2.465  1.00  0.00     0.002 C 
ENDBRANCH  13  14
ENDBRANCH   1  13
TORSDOF 7
