REMARK  6 active torsions:
REMARK  status: ('A' for Active; 'I' for Inactive)
REMARK    1  A    between atoms: C4_4  and  C5_5 
REMARK    2  A    between atoms: C5_5  and  N1_6 
REMARK    3  A    between atoms: N1_6  and  C6_8 
REMARK    4  A    between atoms: C6_8  and  C7_9 
REMARK    5  A    between atoms: C7_9  and  C8_10 
REMARK    6  A    between atoms: N2_18  and  N3_19 
REMARK       I    between atoms: N3_19  and  C16_20 
ROOT
HETATM    1  C1  UNL     1       4.137   1.505  -1.045  1.00  0.00     0.071 C 
HETATM    2  C2  UNL     1       2.976   0.639  -0.695  1.00  0.00     0.043 A 
HETATM    3  C3  UNL     1       1.698   1.098  -0.976  1.00  0.00     0.040 A 
HETATM    4  C4  UNL     1       0.611   0.365  -0.657  1.00  0.00    -0.018 A 
HETATM    5  C14 UNL     1       0.899  -0.870  -0.027  1.00  0.00     0.033 A 
HETATM    6  C15 UNL     1       2.125  -1.295   0.235  1.00  0.00     0.131 A 
HETATM    7  N2  UNL     1       3.247  -0.542  -0.099  1.00  0.00    -0.205 N 
ENDROOT
BRANCH   4   8
HETATM    8  C5  UNL     1      -0.780   0.617  -0.900  1.00  0.00     0.094 C 
BRANCH   8   9
HETATM    9  N1  UNL     1      -1.485   1.767  -0.515  1.00  0.00    -0.395 N 
ATOM     10  H1  UNL     1      -1.592   2.590  -1.107  1.00  0.00     0.159 HD
BRANCH   9  11
HETATM   11  C6  UNL     1      -2.047   1.656   0.823  1.00  0.00     0.147 C 
BRANCH  11  12
HETATM   12  C7  UNL     1      -2.908   0.506   1.064  1.00  0.00     0.004 C 
BRANCH  12  13
HETATM   13  C8  UNL     1      -4.111   0.233   0.337  1.00  0.00    -0.038 A 
HETATM   14  C9  UNL     1      -4.933  -0.770   0.914  1.00  0.00     0.011 A 
HETATM   15  C10 UNL     1      -6.101  -1.166   0.336  1.00  0.00     0.001 A 
HETATM   16  C11 UNL     1      -6.532  -0.608  -0.836  1.00  0.00     0.000 A 
HETATM   17  C12 UNL     1      -5.768   0.361  -1.421  1.00  0.00     0.001 A 
HETATM   18  C13 UNL     1      -4.584   0.761  -0.833  1.00  0.00     0.011 A 
ENDBRANCH  12  13
ENDBRANCH  11  12
ENDBRANCH   9  11
ENDBRANCH   8   9
ENDBRANCH   4   8
BRANCH   7  19
HETATM   19  N3  UNL     1       4.440  -1.051   0.146  1.00  0.00    -0.288 NA
HETATM   20  C16 UNL     1       5.500  -1.493   0.368  1.00  0.00     0.299 C 
HETATM   21  N4  UNL     1       6.048  -2.752  -0.114  1.00  0.00    -0.051 NA
HETATM   22  N5  UNL     1       6.442  -0.789   1.236  1.00  0.00    -0.051 NA
ENDBRANCH   7  19
TORSDOF 6
