REMARK  6 active torsions:
REMARK  status: ('A' for Active; 'I' for Inactive)
REMARK    1  A    between atoms: N4_13  and  C5_14 
REMARK    2  A    between atoms: C5_14  and  C6_15 
REMARK    3  A    between atoms: C6_15  and  C7_16 
REMARK    4  A    between atoms: C7_16  and  C8_17 
REMARK    5  A    between atoms: C8_17  and  C9_18 
REMARK    6  A    between atoms: C9_18  and  N5_19 
ROOT
HETATM    1  C1  UNL     1       4.033  -1.663   1.804  1.00  0.00     0.065 C 
HETATM    2  C2  UNL     1       4.590  -0.809   1.007  1.00  0.00     0.121 A 
HETATM    3  N1  UNL     1       5.941  -1.019   0.617  1.00  0.00    -0.177 N 
ATOM      4  H1  UNL     1       6.448  -1.831   0.969  1.00  0.00     0.185 HD
HETATM    5  C3  UNL     1       6.587  -0.113  -0.254  1.00  0.00     0.681 A 
HETATM    6  N2  UNL     1       7.821  -0.274  -0.631  1.00  0.00    -0.234 N 
ATOM      7  H21 UNL     1       8.287   0.380  -1.260  1.00  0.00     0.174 HD
ATOM      8  H22 UNL     1       8.351  -1.078  -0.294  1.00  0.00     0.174 HD
HETATM    9  N3  UNL     1       5.848   1.007  -0.724  1.00  0.00    -0.141 N 
ATOM     10  H3  UNL     1       6.292   1.676  -1.353  1.00  0.00     0.189 HD
HETATM   11  C4  UNL     1       4.515   1.203  -0.332  1.00  0.00     0.346 A 
HETATM   12  O1  UNL     1       3.912   2.223  -0.788  1.00  0.00    -0.246 OA
HETATM   13  N4  UNL     1       3.831   0.290   0.558  1.00  0.00    -0.264 N 
ENDROOT
BRANCH  13  14
HETATM   14  C5  UNL     1       2.505   0.598   0.871  1.00  0.00     0.076 C 
BRANCH  14  15
HETATM   15  C6  UNL     1       1.421   0.059   0.012  1.00  0.00     0.045 C 
BRANCH  15  16
HETATM   16  C7  UNL     1       0.126   0.579   0.626  1.00  0.00     0.007 C 
BRANCH  16  17
HETATM   17  C8  UNL     1      -1.085   0.099  -0.161  1.00  0.00     0.021 C 
BRANCH  17  18
HETATM   18  C9  UNL     1      -2.286   0.678   0.546  1.00  0.00     0.128 C 
BRANCH  18  19
HETATM   19  N5  UNL     1      -3.533   0.320  -0.073  1.00  0.00    -0.366 N 
HETATM   20  C10 UNL     1      -4.098   1.065  -1.040  1.00  0.00     0.091 A 
HETATM   21  C11 UNL     1      -5.295   0.727  -1.639  1.00  0.00     0.024 A 
HETATM   22  C12 UNL     1      -5.980  -0.411  -1.268  1.00  0.00    -0.059 A 
HETATM   23  C13 UNL     1      -7.274  -0.799  -1.899  1.00  0.00     0.048 C 
HETATM   24  C14 UNL     1      -5.393  -1.170  -0.275  1.00  0.00     0.024 A 
HETATM   25  C15 UNL     1      -4.194  -0.792   0.296  1.00  0.00     0.091 A 
ENDBRANCH  18  19
ENDBRANCH  17  18
ENDBRANCH  16  17
ENDBRANCH  15  16
ENDBRANCH  14  15
ENDBRANCH  13  14
TORSDOF 6
