REMARK  7 active torsions:
REMARK  status: ('A' for Active; 'I' for Inactive)
REMARK    1  A    between atoms: O1_2  and  C2_3 
REMARK    2  A    between atoms: C2_3  and  C3_4 
REMARK    3  A    between atoms: C5_7  and  C6_8 
REMARK    4  A    between atoms: C6_8  and  O3_9 
REMARK    5  A    between atoms: N1_11  and  N2_13 
REMARK    6  A    between atoms: C7_15  and  C9_17 
REMARK    7  A    between atoms: C9_17  and  O5_19 
ROOT
HETATM    1  C6  UNL     1       0.335  -1.628  -0.778  1.00  0.00     0.160 C 
HETATM    2  N1  UNL     1      -0.888  -1.592  -1.174  1.00  0.00    -0.281 N 
ATOM      3  H1  UNL     1      -1.179  -2.304  -1.845  1.00  0.00     0.189 HD
ENDROOT
BRANCH   1   4
HETATM    4  C5  UNL     1       0.810  -0.646   0.175  1.00  0.00     0.205 C 
HETATM    5  C3  UNL     1       1.942   0.248  -0.241  1.00  0.00     0.070 C 
HETATM    6  C4  UNL     1       2.166   0.180   1.258  1.00  0.00     0.178 C 
HETATM    7  O2  UNL     1       1.656  -1.139   1.192  1.00  0.00    -0.377 OA
BRANCH   5   8
HETATM    8  C2  UNL     1       3.074  -0.388  -0.961  1.00  0.00     0.176 C 
BRANCH   8   9
HETATM    9  O1  UNL     1       4.249   0.282  -0.640  1.00  0.00    -0.395 OA
HETATM   10  C1  UNL     1       4.205   1.624  -0.998  1.00  0.00     0.201 C 
ENDBRANCH   8   9
ENDBRANCH   5   8
ENDBRANCH   1   4
BRANCH   1  11
HETATM   11  O3  UNL     1       1.146  -2.621  -1.292  1.00  0.00    -0.346 OA
ATOM     12  H3  UNL     1       0.834  -3.265  -1.917  1.00  0.00     0.219 HD
ENDBRANCH   1  11
BRANCH   2  13
HETATM   13  N2  UNL     1      -1.838  -0.685  -0.778  1.00  0.00    -0.297 N 
HETATM   14  C7  UNL     1      -2.568  -0.765   0.265  1.00  0.00     0.097 C 
HETATM   15  C8  UNL     1      -2.472  -1.892   1.212  1.00  0.00     0.076 C 
ATOM     16  H2  UNL     1      -1.974   0.131  -1.374  1.00  0.00     0.187 HD
BRANCH  14  17
HETATM   17  C9  UNL     1      -3.522   0.293   0.522  1.00  0.00     0.306 C 
HETATM   18  O4  UNL     1      -4.260   0.262   1.529  1.00  0.00    -0.258 OA
BRANCH  17  19
HETATM   19  O5  UNL     1      -3.667   1.388  -0.330  1.00  0.00    -0.322 OA
HETATM   20  C10 UNL     1      -4.582   2.425  -0.104  1.00  0.00     0.213 C 
ENDBRANCH  17  19
ENDBRANCH  14  17
ENDBRANCH   2  13
TORSDOF 7
