REMARK  6 active torsions:
REMARK  status: ('A' for Active; 'I' for Inactive)
REMARK    1  A    between atoms: C3_3  and  C4_4 
REMARK    2  A    between atoms: C4_4  and  C5_5 
REMARK    3  A    between atoms: C5_5  and  O1_6 
REMARK    4  A    between atoms: C5_5  and  C6_8 
REMARK    5  A    between atoms: C7_10  and  C8_11 
REMARK    6  A    between atoms: C8_11  and  N1_12 
ROOT
HETATM    1  C1  UNL     1       5.364  -0.074  -0.169  1.00  0.00     0.096 C 
HETATM    2  C2  UNL     1       4.438   0.132   0.608  1.00  0.00    -0.188 C 
HETATM    3  C3  UNL     1       3.349   0.393   1.549  1.00  0.00     0.082 C 
ENDROOT
BRANCH   3   4
HETATM    4  C4  UNL     1       2.349  -0.720   1.543  1.00  0.00     0.047 C 
BRANCH   4   5
HETATM    5  C5  UNL     1       1.696  -0.957   0.215  1.00  0.00     0.178 C 
BRANCH   5   6
HETATM    6  O1  UNL     1       2.578  -1.281  -0.782  1.00  0.00    -0.391 OA
ATOM      7  H1  UNL     1       2.164  -1.431  -1.624  1.00  0.00     0.210 HD
ENDBRANCH   5   6
BRANCH   5   8
HETATM    8  C6  UNL     1       0.811   0.211  -0.190  1.00  0.00     0.387 C 
HETATM    9  O2  UNL     1      -0.103   0.402   0.840  1.00  0.00    -0.346 OA
HETATM   10  C7  UNL     1      -1.279  -0.211   0.488  1.00  0.00     0.174 C 
HETATM   11  C10 UNL     1      -1.293  -0.352  -1.011  1.00  0.00     0.309 C 
HETATM   12  N5  UNL     1       0.085  -0.175  -1.360  1.00  0.00     0.118 N 
HETATM   13  C11 UNL     1       0.291   0.675  -2.497  1.00  0.00     0.313 C 
BRANCH  10  14
HETATM   14  C8  UNL     1      -2.467   0.612   0.958  1.00  0.00     0.204 C 
BRANCH  14  15
HETATM   15  N1  UNL     1      -3.675  -0.066   0.568  1.00  0.00    -0.216 N 
HETATM   16  N2  UNL     1      -4.323  -0.956   1.280  1.00  0.00    -0.277 N 
HETATM   17  C9  UNL     1      -5.416  -1.369   0.577  1.00  0.00     0.216 A 
ATOM     18  H2  UNL     1      -4.054  -1.285   2.207  1.00  0.00     0.189 HD
HETATM   19  N3  UNL     1      -5.399  -0.697  -0.578  1.00  0.00    -0.279 N 
HETATM   20  N4  UNL     1      -4.327   0.092  -0.560  1.00  0.00    -0.225 N 
ATOM     21  H3  UNL     1      -6.081  -0.774  -1.333  1.00  0.00     0.189 HD
ATOM     22  H4  UNL     1      -4.053   0.725  -1.311  1.00  0.00     0.210 HD
ENDBRANCH  14  15
ENDBRANCH  10  14
ENDBRANCH   5   8
ENDBRANCH   4   5
ENDBRANCH   3   4
TORSDOF 6
