REMARK  4 active torsions:
REMARK  status: ('A' for Active; 'I' for Inactive)
REMARK    1  A    between atoms: S1_3  and  C2_4 
REMARK    2  A    between atoms: C2_4  and  C3_5 
REMARK    3  A    between atoms: N2_6  and  N3_8 
REMARK       I    between atoms: N3_8  and  C4_10 
REMARK       I    between atoms: C4_10  and  N4_12 
REMARK    4  A    between atoms: N4_12  and  N5_14 
ROOT
HETATM    1  N1  UNL     1       6.999   1.781   0.383  1.00  0.00    -0.184 NA
HETATM    2  C1  UNL     1       6.043   1.364  -0.148  1.00  0.00     0.133 C 
HETATM    3  S1  UNL     1       4.630   0.725  -0.967  1.00  0.00    -0.046 SA
ENDROOT
BRANCH   3   4
HETATM    4  C2  UNL     1       4.244  -0.956  -0.438  1.00  0.00     0.136 C 
BRANCH   4   5
HETATM    5  C3  UNL     1       3.805  -0.929   0.974  1.00  0.00     0.091 C 
HETATM    6  N2  UNL     1       2.683  -0.490   1.404  1.00  0.00    -0.311 N 
ATOM      7  H2  UNL     1       2.515  -0.536   2.409  1.00  0.00     0.185 HD
BRANCH   6   8
HETATM    8  N3  UNL     1       1.677   0.043   0.613  1.00  0.00    -0.251 N 
HETATM    9  C4  UNL     1       0.363  -0.550   0.608  1.00  0.00     0.349 C 
HETATM   10  O1  UNL     1       0.149  -1.543   1.323  1.00  0.00    -0.244 OA
HETATM   11  N4  UNL     1      -0.614   0.059  -0.237  1.00  0.00    -0.270 N 
ATOM     12  H4  UNL     1      -0.369   0.878  -0.793  1.00  0.00     0.185 HD
ATOM     13  H3  UNL     1       1.868   0.859   0.031  1.00  0.00     0.191 HD
BRANCH  11  14
HETATM   14  N5  UNL     1      -1.891  -0.464  -0.300  1.00  0.00    -0.223 NA
HETATM   15  C5  UNL     1      -2.714  -0.262   0.845  1.00  0.00     0.140 C 
HETATM   16  C6  UNL     1      -4.188  -0.163   0.477  1.00  0.00     0.183 C 
HETATM   17  O2  UNL     1      -4.435   0.894  -0.378  1.00  0.00    -0.389 OA
HETATM   18  C7  UNL     1      -3.302   1.293  -1.084  1.00  0.00     0.183 C 
HETATM   19  C8  UNL     1      -2.560   0.041  -1.484  1.00  0.00     0.140 C 
ENDBRANCH  11  14
ENDBRANCH   6   8
ENDBRANCH   4   5
ENDBRANCH   3   4
TORSDOF 4
