REMARK  5 active torsions:
REMARK  status: ('A' for Active; 'I' for Inactive)
REMARK    1  A    between atoms: C1_4  and  C2_6 
REMARK    2  A    between atoms: C8_12  and  O1_13 
REMARK    3  A    between atoms: O1_13  and  S1_14 
REMARK    4  A    between atoms: S1_14  and  C9_17 
REMARK    5  A    between atoms: C9_17  and  C10_18 
ROOT
HETATM    1  C2  UNL     1      -2.895   0.071  -0.167  1.00  0.00     0.019 C 
HETATM    2  C3  UNL     1      -2.959  -1.267   0.570  1.00  0.00     0.021 C 
HETATM    3  C4  UNL     1      -1.783  -2.096   0.116  1.00  0.00    -0.010 C 
HETATM    4  C5  UNL     1      -1.819  -2.325  -1.371  1.00  0.00     0.009 C 
HETATM    5  C6  UNL     1      -1.736  -0.989  -2.038  1.00  0.00    -0.010 C 
HETATM    6  C7  UNL     1      -0.527  -0.214  -1.651  1.00  0.00     0.044 C 
HETATM    7  C8  UNL     1      -0.420  -0.029  -0.126  1.00  0.00     0.082 C 
HETATM    8  C16 UNL     1      -0.464  -1.424   0.456  1.00  0.00     0.044 C 
HETATM    9  C17 UNL     1      -1.620   0.737   0.304  1.00  0.00     0.056 C 
HETATM   10  C18 UNL     1      -2.947  -0.170  -1.627  1.00  0.00     0.021 C 
ENDROOT
BRANCH   7  11
HETATM   11  O1  UNL     1       0.776   0.584   0.061  1.00  0.00    -0.264 OA
BRANCH  11  12
HETATM   12  S1  UNL     1       1.254   0.954   1.581  1.00  0.00     0.270 S 
HETATM   13  O2  UNL     1       1.575  -0.230   2.451  1.00  0.00    -0.198 OA
HETATM   14  O3  UNL     1       0.283   1.863   2.301  1.00  0.00    -0.198 OA
BRANCH  12  15
HETATM   15  C9  UNL     1       2.773   1.912   1.449  1.00  0.00     0.209 C 
BRANCH  15  16
HETATM   16  C10 UNL     1       3.833   1.164   0.777  1.00  0.00    -0.042 A 
HETATM   17  C11 UNL     1       3.949   1.259  -0.595  1.00  0.00     0.010 A 
HETATM   18  C12 UNL     1       4.907   0.600  -1.321  1.00  0.00     0.024 A 
HETATM   19  C13 UNL     1       5.815  -0.210  -0.647  1.00  0.00     0.034 A 
HETATM   20 CL1  UNL     1       7.040  -1.055  -1.567  1.00  0.00    -0.084 Cl
HETATM   21  C14 UNL     1       5.732  -0.331   0.720  1.00  0.00     0.024 A 
HETATM   22  C15 UNL     1       4.754   0.349   1.409  1.00  0.00     0.010 A 
ENDBRANCH  15  16
ENDBRANCH  12  15
ENDBRANCH  11  12
ENDBRANCH   7  11
BRANCH   1  23
HETATM   23  C1  UNL     1      -4.023   0.935   0.245  1.00  0.00     0.095 C 
HETATM   24  N1  UNL     1      -4.889   1.319  -0.615  1.00  0.00    -0.390 N 
ATOM     25  H12 UNL     1      -5.667   1.915  -0.331  1.00  0.00     0.157 HD
ATOM     26  H11 UNL     1      -4.812   1.038  -1.592  1.00  0.00     0.157 HD
HETATM   27  N2  UNL     1      -4.130   1.326   1.603  1.00  0.00    -0.087 NA
ENDBRANCH   1  23
TORSDOF 5
