REMARK  6 active torsions:
REMARK  status: ('A' for Active; 'I' for Inactive)
REMARK    1  A    between atoms: S1_2  and  N1_4 
REMARK    2  A    between atoms: S1_2  and  C4_13 
REMARK    3  A    between atoms: N1_4  and  C1_6 
REMARK    4  A    between atoms: C7_16  and  N3_17 
REMARK    5  A    between atoms: N3_17  and  C8_19 
REMARK    6  A    between atoms: C8_19  and  C9_20 
ROOT
HETATM    1  C4  UNL     1       2.511   1.262  -0.565  1.00  0.00     0.080 A 
HETATM    2  C5  UNL     1       1.837   0.063  -0.510  1.00  0.00     0.027 A 
HETATM    3  C6  UNL     1       0.644  -0.051   0.214  1.00  0.00     0.030 A 
HETATM    4  C7  UNL     1       0.106   1.016   0.890  1.00  0.00     0.028 A 
HETATM    5  C17 UNL     1       0.808   2.207   0.815  1.00  0.00     0.030 A 
HETATM    6  C18 UNL     1       1.979   2.319   0.104  1.00  0.00     0.027 A 
ENDROOT
BRANCH   1   7
HETATM    7  S1  UNL     1       3.998   1.347  -1.484  1.00  0.00     0.264 S 
HETATM    8  O1  UNL     1       4.165   2.734  -2.087  1.00  0.00    -0.200 OA
HETATM    9  O2  UNL     1       3.940   0.398  -2.646  1.00  0.00    -0.200 OA
BRANCH   7  10
HETATM   10  N1  UNL     1       5.347   0.969  -0.482  1.00  0.00    -0.260 N 
ATOM     11  H1  UNL     1       5.764   1.660   0.141  1.00  0.00     0.181 HD
BRANCH  10  12
HETATM   12  C1  UNL     1       5.812  -0.262  -0.564  1.00  0.00     0.161 A 
HETATM   13  N2  UNL     1       6.838  -0.784   0.108  1.00  0.00    -0.343 N 
HETATM   14  C2  UNL     1       7.158  -2.025  -0.103  1.00  0.00     0.140 A 
ATOM     15  H2  UNL     1       7.362  -0.219   0.776  1.00  0.00     0.167 HD
HETATM   16  C3  UNL     1       6.417  -2.734  -1.012  1.00  0.00     0.176 A 
HETATM   17  F1  UNL     1       6.581  -4.052  -1.385  1.00  0.00    -0.197 F 
HETATM   18  S2  UNL     1       5.281  -1.567  -1.526  1.00  0.00    -0.022 SA
ENDBRANCH  10  12
ENDBRANCH   7  10
ENDBRANCH   1   7
BRANCH   4  19
HETATM   19  N3  UNL     1      -1.097   0.896   1.600  1.00  0.00    -0.389 N 
ATOM     20  H3  UNL     1      -1.325   1.668   2.226  1.00  0.00     0.159 HD
BRANCH  19  21
HETATM   21  C8  UNL     1      -2.040  -0.170   1.556  1.00  0.00     0.129 C 
BRANCH  21  22
HETATM   22  C9  UNL     1      -2.760  -0.266   0.218  1.00  0.00     0.033 C 
HETATM   23  C10 UNL     1      -3.507   0.974  -0.077  1.00  0.00    -0.023 C 
HETATM   24  C11 UNL     1      -4.771   0.974  -0.412  1.00  0.00    -0.022 C 
HETATM   25  C12 UNL     1      -5.527  -0.278  -0.515  1.00  0.00     0.031 C 
HETATM   26  C13 UNL     1      -5.745  -0.760   0.884  1.00  0.00    -0.022 C 
HETATM   27  C16 UNL     1      -4.563  -1.345  -1.042  1.00  0.00     0.021 C 
HETATM   28  C14 UNL     1      -4.668  -1.435   1.268  1.00  0.00    -0.025 C 
HETATM   29  C15 UNL     1      -3.663  -1.457   0.168  1.00  0.00     0.018 C 
ENDBRANCH  21  22
ENDBRANCH  19  21
ENDBRANCH   4  19
TORSDOF 6
