REMARK  5 active torsions:
REMARK  status: ('A' for Active; 'I' for Inactive)
REMARK    1  A    between atoms: N1_4  and  C4_5 
REMARK    2  A    between atoms: C4_5  and  C5_6 
REMARK    3  A    between atoms: C5_6  and  N2_7 
REMARK    4  A    between atoms: N2_7  and  C6_9 
REMARK    5  A    between atoms: N3_17  and  C14_18 
ROOT
HETATM    1  C1  UNL     1       3.065   2.274  -1.173  1.00  0.00     0.034 C 
HETATM    2  C2  UNL     1       2.305   1.044  -0.729  1.00  0.00     0.108 C 
HETATM    3  C3  UNL     1       1.336   1.296   0.349  1.00  0.00     0.297 C 
HETATM    4  N1  UNL     1       0.571   0.201   0.779  1.00  0.00     0.096 N 
HETATM    5  C12 UNL     1       1.260  -1.048   0.872  1.00  0.00     0.292 C 
HETATM    6  C13 UNL     1       2.403  -1.274  -0.062  1.00  0.00     0.154 C 
HETATM    7  N3  UNL     1       3.147  -0.066  -0.400  1.00  0.00    -0.373 N 
ENDROOT
BRANCH   4   8
HETATM    8  C4  UNL     1      -0.741   0.042   0.138  1.00  0.00     0.316 C 
BRANCH   8   9
HETATM    9  C5  UNL     1      -1.641  -0.798   1.003  1.00  0.00     0.085 C 
BRANCH   9  10
HETATM   10  N2  UNL     1      -2.886  -1.191   0.584  1.00  0.00    -0.396 N 
ATOM     11  H2  UNL     1      -2.990  -2.191   0.410  1.00  0.00     0.159 HD
BRANCH  10  12
HETATM   12  C6  UNL     1      -4.024  -0.433   0.362  1.00  0.00     0.080 C 
HETATM   13  C7  UNL     1      -3.912   0.496  -0.807  1.00  0.00     0.025 C 
HETATM   14  C8  UNL     1      -5.257   1.040  -1.271  1.00  0.00     0.002 C 
HETATM   15  C9  UNL     1      -6.387   0.706  -0.357  1.00  0.00     0.000 C 
HETATM   16  C10 UNL     1      -6.493  -0.763  -0.067  1.00  0.00     0.002 C 
HETATM   17  C11 UNL     1      -5.177  -1.418   0.152  1.00  0.00     0.025 C 
ENDBRANCH  10  12
ENDBRANCH   9  10
ENDBRANCH   8   9
ENDBRANCH   4   8
BRANCH   7  18
HETATM   18  C14 UNL     1       4.560  -0.088  -0.378  1.00  0.00     0.030 A 
HETATM   19  C15 UNL     1       5.346   0.868   0.209  1.00  0.00     0.030 A 
HETATM   20  C16 UNL     1       6.720   0.744   0.151  1.00  0.00     0.021 A 
HETATM   21  C17 UNL     1       7.335  -0.309  -0.474  1.00  0.00     0.011 A 
HETATM   22 BR1  UNL     1       9.241  -0.482  -0.547  1.00  0.00    -0.051 Br
HETATM   23  C18 UNL     1       6.559  -1.282  -1.070  1.00  0.00     0.021 A 
HETATM   24  C19 UNL     1       5.198  -1.142  -1.005  1.00  0.00     0.030 A 
ENDBRANCH   7  18
TORSDOF 5
