REMARK  7 active torsions:
REMARK  status: ('A' for Active; 'I' for Inactive)
REMARK    1  A    between atoms: C1_2  and  N1_3 
REMARK    2  A    between atoms: C1_2  and  N2_12 
REMARK    3  A    between atoms: N1_3  and  C2_5 
REMARK    4  A    between atoms: C2_5  and  C3_6 
REMARK    5  A    between atoms: N2_12  and  C9_14 
REMARK    6  A    between atoms: C9_14  and  C10_15 
REMARK    7  A    between atoms: N3_18  and  C13_19 
ROOT
HETATM    1  C9  UNL     1       0.420   0.622  -0.264  1.00  0.00     0.126 C 
ENDROOT
BRANCH   1   2
HETATM    2  N2  UNL     1       0.168  -0.533   0.558  1.00  0.00    -0.367 N 
ATOM      3  H2  UNL     1       0.944  -1.141   0.819  1.00  0.00     0.161 HD
BRANCH   2   4
HETATM    4  C1  UNL     1      -1.141  -0.840   1.011  1.00  0.00     0.167 C 
HETATM    5  S1  UNL     1      -1.443  -2.140   1.940  1.00  0.00    -0.041 SA
BRANCH   4   6
HETATM    6  N1  UNL     1      -2.213   0.010   0.643  1.00  0.00    -0.367 N 
ATOM      7  H1  UNL     1      -2.038   0.829   0.061  1.00  0.00     0.161 HD
BRANCH   6   8
HETATM    8  C2  UNL     1      -3.555  -0.285   1.094  1.00  0.00     0.127 C 
BRANCH   8   9
HETATM    9  C3  UNL     1      -4.545   0.744   0.590  1.00  0.00     0.007 C 
HETATM   10  C4  UNL     1      -4.538   0.753  -0.912  1.00  0.00     0.033 C 
HETATM   11  C5  UNL     1      -5.785   0.264  -1.521  1.00  0.00    -0.030 C 
HETATM   12  C6  UNL     1      -6.725  -0.405  -0.873  1.00  0.00    -0.031 C 
HETATM   13  C7  UNL     1      -6.534  -0.697   0.567  1.00  0.00     0.027 C 
HETATM   14  C8  UNL     1      -5.891   0.510   1.195  1.00  0.00     0.010 C 
ENDBRANCH   8   9
ENDBRANCH   6   8
ENDBRANCH   4   6
ENDBRANCH   2   4
ENDBRANCH   1   2
BRANCH   1  15
HETATM   15  C10 UNL     1       1.877   0.755  -0.641  1.00  0.00     0.006 C 
HETATM   16  C11 UNL     1       2.299  -0.449  -1.403  1.00  0.00     0.026 C 
HETATM   17  C12 UNL     1       3.776  -0.505  -1.685  1.00  0.00     0.125 C 
HETATM   18  N3  UNL     1       4.575   0.070  -0.642  1.00  0.00    -0.361 N 
HETATM   19  C16 UNL     1       4.135   1.040   0.318  1.00  0.00     0.125 C 
HETATM   20  C17 UNL     1       2.663   0.946   0.638  1.00  0.00     0.026 C 
BRANCH  18  21
HETATM   21  C13 UNL     1       5.946  -0.376  -0.559  1.00  0.00     0.147 A 
HETATM   22  N4  UNL     1       6.887  -0.016   0.294  1.00  0.00    -0.327 N 
HETATM   23  C14 UNL     1       8.071  -0.526   0.217  1.00  0.00     0.112 A 
ATOM     24  H4  UNL     1       6.677   0.670   1.019  1.00  0.00     0.169 HD
HETATM   25 CL1  UNL     1       9.371  -0.069   1.347  1.00  0.00    -0.064 Cl
HETATM   26  C15 UNL     1       8.309  -1.444  -0.774  1.00  0.00     0.095 A 
HETATM   27  S2  UNL     1       6.775  -1.509  -1.541  1.00  0.00    -0.063 SA
ENDBRANCH  18  21
ENDBRANCH   1  15
TORSDOF 7
