REMARK  7 active torsions:
REMARK  status: ('A' for Active; 'I' for Inactive)
REMARK    1  A    between atoms: C2_2  and  C3_3 
REMARK    2  A    between atoms: C4_4  and  C5_5 
REMARK    3  A    between atoms: C5_5  and  N1_6 
REMARK    4  A    between atoms: C8_9  and  C9_10 
REMARK    5  A    between atoms: C9_10  and  C10_11 
REMARK    6  A    between atoms: C10_11  and  C12_13 
REMARK    7  A    between atoms: C12_13  and  C13_14 
ROOT
HETATM    1  C12 UNL     1      -1.741  -0.886   0.397  1.00  0.00     0.065 C 
ENDROOT
BRANCH   1   2
HETATM    2  C10 UNL     1      -0.752   0.076  -0.313  1.00  0.00    -0.012 C 
HETATM    3  C11 UNL     1      -1.518   0.968  -1.236  1.00  0.00     0.010 C 
BRANCH   2   4
HETATM    4  C9  UNL     1       0.268  -0.726  -1.066  1.00  0.00     0.012 C 
BRANCH   4   5
HETATM    5  C8  UNL     1       1.300   0.089  -1.768  1.00  0.00     0.023 C 
HETATM    6  C7  UNL     1       2.088   0.902  -0.768  1.00  0.00     0.038 C 
HETATM    7  C6  UNL     1       3.319   0.150  -0.310  1.00  0.00     0.274 C 
HETATM    8  N1  UNL     1       4.248  -0.020  -1.363  1.00  0.00     0.102 N 
HETATM    9  C22 UNL     1       3.616  -0.251  -2.607  1.00  0.00     0.311 C 
HETATM   10  C21 UNL     1       2.232  -0.847  -2.521  1.00  0.00     0.202 C 
HETATM   11  F1  UNL     1       1.779  -1.038  -3.804  1.00  0.00    -0.247 F 
BRANCH   8  12
HETATM   12  C5  UNL     1       5.240  -1.033  -1.121  1.00  0.00     0.365 C 
BRANCH  12  13
HETATM   13  C4  UNL     1       6.150  -0.631  -0.078  1.00  0.00    -0.076 C 
HETATM   14  C3  UNL     1       6.907  -0.274   0.761  1.00  0.00    -0.105 C 
BRANCH  14  15
HETATM   15  C2  UNL     1       7.871   0.203   1.791  1.00  0.00     0.089 C 
HETATM   16  C1  UNL     1       8.601   1.421   1.269  1.00  0.00     0.018 C 
ENDBRANCH  14  15
ENDBRANCH  12  13
ENDBRANCH   8  12
ENDBRANCH   4   5
ENDBRANCH   2   4
ENDBRANCH   1   2
BRANCH   1  17
HETATM   17  C13 UNL     1      -2.657  -0.006   1.113  1.00  0.00     0.053 A 
HETATM   18  N2  UNL     1      -2.152   0.934   1.989  1.00  0.00    -0.300 N 
HETATM   19  N3  UNL     1      -2.879   1.842   2.578  1.00  0.00    -0.266 N 
ATOM     20  H2  UNL     1      -1.152   0.917   2.187  1.00  0.00     0.186 HD
HETATM   21  C14 UNL     1      -4.224   1.928   2.363  1.00  0.00     0.268 A 
ATOM     22  H3  UNL     1      -2.432   2.503   3.214  1.00  0.00     0.190 HD
HETATM   23  O1  UNL     1      -4.953   2.795   2.915  1.00  0.00    -0.266 OA
HETATM   24  C15 UNL     1      -4.787   1.039   1.520  1.00  0.00     0.040 A 
HETATM   25  C16 UNL     1      -3.995   0.059   0.886  1.00  0.00     0.064 A 
HETATM   26  C20 UNL     1      -6.265   1.168   1.345  1.00  0.00     0.047 C 
HETATM   27  N4  UNL     1      -4.483  -0.993   0.058  1.00  0.00    -0.388 N 
HETATM   28  C17 UNL     1      -5.803  -1.031  -0.543  1.00  0.00     0.120 C 
ATOM     29  H4  UNL     1      -3.858  -1.778  -0.126  1.00  0.00     0.159 HD
HETATM   30  C18 UNL     1      -6.911  -1.122   0.471  1.00  0.00     0.020 C 
HETATM   31  C19 UNL     1      -6.798  -0.228   1.642  1.00  0.00     0.006 C 
ENDBRANCH   1  17
TORSDOF 7
