REMARK  7 active torsions:
REMARK  status: ('A' for Active; 'I' for Inactive)
REMARK       I    between atoms: C1_2  and  N1_3 
REMARK    1  A    between atoms: C1_2  and  C17_25 
REMARK    2  A    between atoms: N1_3  and  C2_4 
REMARK    3  A    between atoms: C2_4  and  C3_5 
REMARK    4  A    between atoms: C2_4  and  C10_15 
REMARK       I    between atoms: C3_5  and  N2_7 
REMARK    5  A    between atoms: N2_7  and  C4_9 
REMARK    6  A    between atoms: C10_15  and  O3_16 
REMARK    7  A    between atoms: C10_15  and  C11_18 
ROOT
HETATM    1  C2  UNL     1      -1.501   0.123   0.444  1.00  0.00     0.212 C 
ENDROOT
BRANCH   1   2
HETATM    2  N1  UNL     1      -2.091   1.075   1.349  1.00  0.00    -0.357 NA
HETATM    3  C1  UNL     1      -2.627   1.941   2.173  1.00  0.00     0.333 C 
HETATM    4  O1  UNL     1      -2.875   1.816   3.421  1.00  0.00    -0.250 OA
BRANCH   3   5
HETATM    5  C17 UNL     1      -3.021   3.291   1.626  1.00  0.00     0.087 A 
HETATM    6  C18 UNL     1      -2.904   3.751   0.354  1.00  0.00     0.026 A 
HETATM    7  C19 UNL     1      -3.313   4.993   0.094  1.00  0.00     0.009 A 
HETATM    8  C20 UNL     1      -3.827   5.714   1.146  1.00  0.00     0.051 A 
HETATM    9  S1  UNL     1      -3.717   4.625   2.452  1.00  0.00    -0.095 SA
ENDBRANCH   3   5
ENDBRANCH   1   2
BRANCH   1  10
HETATM   10  C3  UNL     1      -0.080  -0.009   0.678  1.00  0.00     0.285 C 
HETATM   11  O2  UNL     1       0.289  -0.180   1.895  1.00  0.00    -0.265 OA
HETATM   12  N2  UNL     1       0.978   0.037  -0.264  1.00  0.00    -0.350 N 
ATOM     13  H2  UNL     1       0.713   0.174  -1.239  1.00  0.00     0.163 HD
BRANCH  12  14
HETATM   14  C4  UNL     1       2.362  -0.087   0.003  1.00  0.00     0.084 C 
HETATM   15  C5  UNL     1       3.118   1.226  -0.101  1.00  0.00     0.025 C 
HETATM   16  C6  UNL     1       4.501   0.962   0.457  1.00  0.00     0.002 C 
HETATM   17  C7  UNL     1       5.283   0.178  -0.562  1.00  0.00     0.000 C 
HETATM   18  C8  UNL     1       4.348  -0.491  -1.501  1.00  0.00     0.002 C 
HETATM   19  C9  UNL     1       3.111  -1.087  -0.816  1.00  0.00     0.025 C 
ENDBRANCH  12  14
ENDBRANCH   1  10
BRANCH   1  20
HETATM   20  C10 UNL     1      -2.387  -1.024   0.255  1.00  0.00     0.122 C 
BRANCH  20  21
HETATM   21  O3  UNL     1      -3.626  -0.771   0.683  1.00  0.00    -0.357 OA
ATOM     22  H3  UNL     1      -4.202  -1.517   0.560  1.00  0.00     0.218 HD
ENDBRANCH  20  21
BRANCH  20  23
HETATM   23  C11 UNL     1      -2.256  -2.334  -0.269  1.00  0.00     0.001 A 
HETATM   24  C12 UNL     1      -3.373  -3.155  -0.485  1.00  0.00     0.016 A 
HETATM   25  C13 UNL     1      -3.364  -4.432  -0.935  1.00  0.00     0.024 A 
HETATM   26  C14 UNL     1      -2.119  -5.015  -1.224  1.00  0.00     0.034 A 
HETATM   27 CL1  UNL     1      -2.030  -6.662  -1.813  1.00  0.00    -0.084 Cl
HETATM   28  C15 UNL     1      -1.013  -4.252  -1.028  1.00  0.00     0.024 A 
HETATM   29  C16 UNL     1      -1.049  -2.938  -0.561  1.00  0.00     0.016 A 
ENDBRANCH  20  23
ENDBRANCH   1  20
TORSDOF 7
