REMARK  6 active torsions:
REMARK  status: ('A' for Active; 'I' for Inactive)
REMARK    1  A    between atoms: C4_5  and  C5_6 
REMARK    2  A    between atoms: C5_6  and  N1_7 
REMARK    3  A    between atoms: N2_10  and  C8_11 
REMARK    4  A    between atoms: C8_11  and  C9_12 
REMARK    5  A    between atoms: C12_15  and  O1_16 
REMARK    6  A    between atoms: O1_16  and  C13_17 
ROOT
HETATM    1  C9  UNL     1      -0.788  -0.740   1.359  1.00  0.00    -0.040 A 
HETATM    2  C10 UNL     1      -1.647  -0.180   2.257  1.00  0.00     0.011 A 
HETATM    3  C11 UNL     1      -2.911   0.180   1.883  1.00  0.00     0.037 A 
HETATM    4  C12 UNL     1      -3.387   0.000   0.584  1.00  0.00     0.069 A 
HETATM    5  C18 UNL     1      -2.482  -0.570  -0.289  1.00  0.00     0.037 A 
HETATM    6  C19 UNL     1      -1.208  -0.936   0.077  1.00  0.00     0.011 A 
ENDROOT
BRANCH   1   7
HETATM    7  C8  UNL     1       0.553  -1.111   1.817  1.00  0.00     0.166 C 
BRANCH   7   8
HETATM    8  N2  UNL     1       1.505  -1.454   0.835  1.00  0.00    -0.360 N 
HETATM    9  C7  UNL     1       1.872  -0.497  -0.131  1.00  0.00     0.108 C 
HETATM   10  C6  UNL     1       3.244   0.039   0.206  1.00  0.00     0.108 C 
HETATM   11  N1  UNL     1       4.177  -1.016   0.185  1.00  0.00    -0.360 N 
HETATM   12  C21 UNL     1       3.839  -2.250   0.762  1.00  0.00     0.108 C 
HETATM   13  C20 UNL     1       2.420  -2.487   1.111  1.00  0.00     0.108 C 
BRANCH  11  14
HETATM   14  C5  UNL     1       5.077  -1.028  -0.920  1.00  0.00     0.166 C 
BRANCH  14  15
HETATM   15  C4  UNL     1       5.921   0.188  -0.961  1.00  0.00    -0.040 A 
HETATM   16  C3  UNL     1       6.141   0.988   0.135  1.00  0.00     0.010 A 
HETATM   17  C2  UNL     1       6.927   2.118   0.080  1.00  0.00     0.024 A 
HETATM   18  C1  UNL     1       7.523   2.478  -1.100  1.00  0.00     0.034 A 
HETATM   19 CL1  UNL     1       8.539   3.918  -1.216  1.00  0.00    -0.084 Cl
HETATM   20  C23 UNL     1       7.317   1.690  -2.216  1.00  0.00     0.024 A 
HETATM   21  C22 UNL     1       6.534   0.575  -2.135  1.00  0.00     0.010 A 
ENDBRANCH  14  15
ENDBRANCH  11  14
ENDBRANCH   7   8
ENDBRANCH   1   7
BRANCH   4  22
HETATM   22  O1  UNL     1      -4.656   0.386   0.294  1.00  0.00    -0.346 OA
BRANCH  22  23
HETATM   23  C13 UNL     1      -5.347   0.310  -0.908  1.00  0.00     0.132 C 
HETATM   24  C14 UNL     1      -6.571  -0.565  -0.742  1.00  0.00     0.060 C 
HETATM   25  C15 UNL     1      -7.729   0.116  -0.089  1.00  0.00     0.235 C 
HETATM   26  N3  UNL     1      -7.916   1.482  -0.458  1.00  0.00    -0.075 N 
HETATM   27  C16 UNL     1      -7.187   1.704  -1.705  1.00  0.00     0.235 C 
ATOM     28  H32 UNL     1      -8.899   1.746  -0.520  1.00  0.00     0.277 HD
ATOM     29  H31 UNL     1      -7.649   2.133   0.280  1.00  0.00     0.277 HD
HETATM   30  C17 UNL     1      -5.721   1.713  -1.328  1.00  0.00     0.060 C 
ENDBRANCH  22  23
ENDBRANCH   4  22
TORSDOF 6
