REMARK  5 active torsions:
REMARK  status: ('A' for Active; 'I' for Inactive)
REMARK    1  A    between atoms: C2_2  and  N1_3 
REMARK    2  A    between atoms: C2_2  and  C14_20 
REMARK    3  A    between atoms: N1_3  and  C3_5 
REMARK    4  A    between atoms: C6_8  and  C7_9 
REMARK    5  A    between atoms: C17_23  and  C18_24 
ROOT
HETATM    1  N1  UNL     1       0.405  -0.069   0.472  1.00  0.00    -0.382 N 
ATOM      2  H1  UNL     1      -0.051   0.843   0.454  1.00  0.00     0.160 HD
ENDROOT
BRANCH   1   3
HETATM    3  C2  UNL     1      -0.392  -1.261   0.690  1.00  0.00     0.111 C 
HETATM    4  C1  UNL     1       0.027  -1.834   2.002  1.00  0.00     0.037 C 
BRANCH   3   5
HETATM    5  C14 UNL     1      -1.818  -0.852   0.620  1.00  0.00    -0.036 A 
HETATM    6  C15 UNL     1      -2.796  -1.334   1.453  1.00  0.00     0.010 A 
HETATM    7  C16 UNL     1      -4.114  -0.884   1.324  1.00  0.00     0.010 A 
HETATM    8  C17 UNL     1      -4.483   0.044   0.377  1.00  0.00    -0.023 A 
HETATM    9  C23 UNL     1      -3.488   0.517  -0.452  1.00  0.00     0.010 A 
HETATM   10  C24 UNL     1      -2.185   0.094  -0.350  1.00  0.00     0.010 A 
BRANCH   8  11
HETATM   11  C18 UNL     1      -5.909   0.512   0.252  1.00  0.00     0.279 C 
HETATM   12  C19 UNL     1      -6.745  -0.409   1.098  1.00  0.00     0.208 C 
HETATM   13  O1  UNL     1      -8.104  -0.323   0.760  1.00  0.00    -0.387 OA
HETATM   14  C20 UNL     1      -8.181  -0.922  -0.518  1.00  0.00     0.198 C 
HETATM   15  C21 UNL     1      -7.511  -0.033  -1.495  1.00  0.00     0.299 C 
HETATM   16  N3  UNL     1      -6.306   0.593  -1.103  1.00  0.00     0.097 N 
HETATM   17  C22 UNL     1      -6.348   1.982  -1.576  1.00  0.00     0.310 C 
ENDBRANCH   8  11
ENDBRANCH   3   5
ENDBRANCH   1   3
BRANCH   1  18
HETATM   18  C3  UNL     1       1.829  -0.152   0.281  1.00  0.00     0.028 A 
HETATM   19  C4  UNL     1       2.558   1.018   0.187  1.00  0.00     0.029 A 
HETATM   20  C5  UNL     1       3.936   1.008  -0.009  1.00  0.00     0.011 A 
HETATM   21  C6  UNL     1       4.603  -0.183  -0.114  1.00  0.00    -0.028 A 
HETATM   22  C12 UNL     1       3.893  -1.351  -0.022  1.00  0.00     0.011 A 
HETATM   23  C13 UNL     1       2.509  -1.329   0.175  1.00  0.00     0.029 A 
BRANCH  21  24
HETATM   24  C7  UNL     1       6.061  -0.227  -0.323  1.00  0.00     0.219 C 
HETATM   25  C8  UNL     1       6.761  -0.014   0.971  1.00  0.00     0.041 C 
HETATM   26  C9  UNL     1       7.921   0.886   0.995  1.00  0.00     0.041 C 
HETATM   27  C10 UNL     1       8.164   1.741  -0.194  1.00  0.00     0.195 C 
HETATM   28  F1  UNL     1       9.507   2.067  -0.273  1.00  0.00    -0.248 F 
HETATM   29  C11 UNL     1       7.821   0.952  -1.442  1.00  0.00     0.270 C 
HETATM   30  N2  UNL     1       6.382   0.730  -1.350  1.00  0.00    -0.064 N 
ATOM     31  H22 UNL     1       5.988   0.458  -2.251  1.00  0.00     0.278 HD
ATOM     32  H21 UNL     1       5.877   1.606  -1.215  1.00  0.00     0.278 HD
ENDBRANCH  21  24
ENDBRANCH   1  18
TORSDOF 5
