REMARK  5 active torsions:
REMARK  status: ('A' for Active; 'I' for Inactive)
REMARK    1  A    between atoms: C10_10  and  C11_11 
REMARK       I    between atoms: C11_11  and  N1_13 
REMARK    2  A    between atoms: N1_13  and  C12_15 
REMARK    3  A    between atoms: C12_15  and  C13_16 
REMARK       I    between atoms: C13_16  and  N2_18 
REMARK    4  A    between atoms: N2_18  and  C14_20 
REMARK    5  A    between atoms: C17_23  and  N3_24 
ROOT
HETATM    1  C11 UNL     1      -0.730  -0.257  -1.310  1.00  0.00     0.227 C 
HETATM    2  O1  UNL     1      -0.209  -1.416  -1.496  1.00  0.00    -0.273 OA
HETATM    3  N1  UNL     1      -0.158   0.799  -2.081  1.00  0.00    -0.352 N 
ATOM      4  H1  UNL     1      -0.564   1.726  -1.957  1.00  0.00     0.162 HD
ENDROOT
BRANCH   3   5
HETATM    5  C12 UNL     1       0.911   0.694  -2.997  1.00  0.00     0.225 C 
BRANCH   5   6
HETATM    6  C13 UNL     1       2.248   0.304  -2.416  1.00  0.00     0.239 C 
HETATM    7  O2  UNL     1       3.152   0.152  -3.269  1.00  0.00    -0.271 OA
HETATM    8  N2  UNL     1       2.466   0.132  -1.060  1.00  0.00    -0.324 N 
ATOM      9  H2  UNL     1       1.676   0.289  -0.434  1.00  0.00     0.169 HD
BRANCH   8  10
HETATM   10  C14 UNL     1       3.707  -0.247  -0.467  1.00  0.00     0.056 A 
HETATM   11  C15 UNL     1       4.840  -0.515  -1.154  1.00  0.00     0.034 A 
HETATM   12  C16 UNL     1       6.008  -0.882  -0.479  1.00  0.00     0.038 A 
HETATM   13  C17 UNL     1       6.081  -0.993   0.883  1.00  0.00     0.104 A 
HETATM   14  C18 UNL     1       4.911  -0.714   1.563  1.00  0.00     0.062 A 
HETATM   15  C19 UNL     1       3.763  -0.355   0.938  1.00  0.00     0.063 A 
HETATM   16 CL1  UNL     1       2.308  -0.013   1.874  1.00  0.00    -0.082 Cl
BRANCH  13  17
HETATM   17  N3  UNL     1       7.257  -1.364   1.576  1.00  0.00    -0.116 N 
HETATM   18  O3  UNL     1       7.233  -1.439   2.807  1.00  0.00    -0.532 OA
HETATM   19  O4  UNL     1       8.400  -1.634   0.892  1.00  0.00    -0.532 OA
ENDBRANCH  13  17
ENDBRANCH   8  10
ENDBRANCH   5   6
ENDBRANCH   3   5
BRANCH   1  20
HETATM   20  C10 UNL     1      -1.832  -0.087  -0.361  1.00  0.00     0.045 C 
HETATM   21  C2  UNL     1      -1.542   0.708   0.857  1.00  0.00     0.003 C 
HETATM   22  C1  UNL     1      -0.968   2.063   0.663  1.00  0.00     0.011 C 
HETATM   23  C3  UNL     1      -2.806   0.805   1.684  1.00  0.00    -0.009 C 
HETATM   24  C4  UNL     1      -3.184  -0.555   2.172  1.00  0.00     0.010 C 
HETATM   25  C8  UNL     1      -3.960   1.389   0.933  1.00  0.00     0.010 C 
HETATM   26  C5  UNL     1      -3.505  -1.406   0.966  1.00  0.00    -0.013 C 
HETATM   27  C6  UNL     1      -4.644  -0.847   0.156  1.00  0.00     0.009 C 
HETATM   28  C20 UNL     1      -2.274  -1.479   0.106  1.00  0.00     0.024 C 
HETATM   29  C7  UNL     1      -4.268   0.530  -0.287  1.00  0.00    -0.013 C 
HETATM   30  C9  UNL     1      -3.006   0.501  -1.119  1.00  0.00     0.024 C 
ENDBRANCH   1  20
TORSDOF 5
