REMARK  7 active torsions:
REMARK  status: ('A' for Active; 'I' for Inactive)
REMARK    1  A    between atoms: C2_2  and  C4_4 
REMARK    2  A    between atoms: C4_4  and  C5_5 
REMARK    3  A    between atoms: C6_6  and  O1_7 
REMARK    4  A    between atoms: C12_16  and  N1_17 
REMARK    5  A    between atoms: N1_17  and  C13_19 
REMARK    6  A    between atoms: C13_19  and  C14_20 
REMARK    7  A    between atoms: C14_20  and  C15_21 
ROOT
HETATM    1  C5  UNL     1      -3.044  -0.415  -0.849  1.00  0.00     0.042 C 
HETATM    2  C6  UNL     1      -3.720   0.759  -1.437  1.00  0.00     0.126 C 
HETATM    3  C7  UNL     1      -3.704   1.753  -0.291  1.00  0.00     0.040 C 
HETATM    4  C8  UNL     1      -2.454   1.514   0.514  1.00  0.00     0.022 C 
HETATM    5  C9  UNL     1      -1.531   2.668   0.584  1.00  0.00     0.132 C 
HETATM    6  C10 UNL     1      -1.673   3.604  -0.639  1.00  0.00     0.040 C 
HETATM    7  O2  UNL     1      -0.214   2.508   0.810  1.00  0.00    -0.314 OA
HETATM    8  C11 UNL     1       0.883   1.692   0.887  1.00  0.00     0.281 C 
HETATM    9  O3  UNL     1       1.981   2.261   0.586  1.00  0.00    -0.263 OA
HETATM   10  C12 UNL     1       1.018   0.271   1.258  1.00  0.00     0.177 C 
HETATM   11  C20 UNL     1       0.375  -0.589   0.204  1.00  0.00     0.035 C 
HETATM   12  C21 UNL     1      -0.673   0.106  -0.636  1.00  0.00     0.008 C 
HETATM   13  C22 UNL     1      -1.976   0.207   0.060  1.00  0.00     0.002 C 
ENDROOT
BRANCH  10  14
HETATM   14  N1  UNL     1       2.294  -0.178   1.633  1.00  0.00    -0.408 N 
ATOM     15  H1  UNL     1       2.439  -0.498   2.591  1.00  0.00     0.154 HD
BRANCH  14  16
HETATM   16  C13 UNL     1       3.369  -0.204   0.748  1.00  0.00     0.119 C 
BRANCH  16  17
HETATM   17  C14 UNL     1       4.543  -0.929   1.430  1.00  0.00     0.055 C 
BRANCH  17  18
HETATM   18  C15 UNL     1       5.719  -1.004   0.522  1.00  0.00    -0.061 A 
HETATM   19  C16 UNL     1       6.274  -2.125   0.110  1.00  0.00     0.014 A 
HETATM   20 CL1  UNL     1       5.719  -3.738   0.560  1.00  0.00    -0.089 Cl
HETATM   21  C17 UNL     1       7.464  -1.886  -0.728  1.00  0.00     0.052 A 
HETATM   22  C18 UNL     1       7.563  -0.397  -0.868  1.00  0.00     0.010 A 
HETATM   23  C19 UNL     1       6.448   0.169  -0.050  1.00  0.00     0.036 A 
ENDBRANCH  17  18
ENDBRANCH  16  17
ENDBRANCH  14  16
ENDBRANCH  10  14
BRANCH   1  24
HETATM   24  C4  UNL     1      -3.946  -1.314   0.000  1.00  0.00    -0.013 C 
BRANCH  24  25
HETATM   25  C2  UNL     1      -5.160  -1.170   0.083  1.00  0.00    -0.075 C 
HETATM   26  C1  UNL     1      -6.554  -1.013   0.184  1.00  0.00     0.018 C 
HETATM   27  C3  UNL     1      -5.296  -2.889   0.767  1.00  0.00     0.047 C 
ENDBRANCH  24  25
ENDBRANCH   1  24
BRANCH   2  28
HETATM   28  O1  UNL     1      -4.973   0.608  -1.943  1.00  0.00    -0.395 OA
ATOM     29  H1  UNL     1      -5.408   1.363  -2.321  1.00  0.00     0.210 HD
ENDBRANCH   2  28
TORSDOF 7
