REMARK  7 active torsions:
REMARK  status: ('A' for Active; 'I' for Inactive)
REMARK    1  A    between atoms: O1_2  and  C2_3 
REMARK    2  A    between atoms: C7_9  and  N1_10 
REMARK    3  A    between atoms: N1_10  and  C8_12 
REMARK    4  A    between atoms: C10_14  and  C11_15 
REMARK    5  A    between atoms: C14_18  and  O2_19 
REMARK    6  A    between atoms: C17_24  and  N3_25 
REMARK    7  A    between atoms: N3_25  and  C18_27 
ROOT
HETATM    1  C8  UNL     1       0.559   1.032  -0.379  1.00  0.00     0.123 A 
HETATM    2  C9  UNL     1       1.616   0.277  -0.834  1.00  0.00     0.079 A 
HETATM    3  C10 UNL     1       1.530  -1.094  -0.987  1.00  0.00     0.059 A 
HETATM    4  N2  UNL     1       0.354  -1.661  -0.667  1.00  0.00    -0.191 N 
ATOM      5  H2  UNL     1       0.247  -2.671  -0.765  1.00  0.00     0.184 HD
HETATM    6  C17 UNL     1      -0.703  -0.922  -0.214  1.00  0.00     0.680 A 
HETATM    7  N4  UNL     1      -0.609   0.407  -0.069  1.00  0.00    -0.177 N 
ATOM      8  H4  UNL     1      -1.406   0.945   0.271  1.00  0.00     0.186 HD
ENDROOT
BRANCH   1   9
HETATM    9  N1  UNL     1       0.638   2.319  -0.233  1.00  0.00    -0.340 N 
ATOM     10  H1  UNL     1       1.511   2.795  -0.460  1.00  0.00     0.167 HD
BRANCH   9  11
HETATM   11  C7  UNL     1      -0.467   3.078   0.237  1.00  0.00     0.069 A 
HETATM   12  C2  UNL     1      -0.611   3.247   1.598  1.00  0.00     0.095 A 
HETATM   13  C3  UNL     1      -1.687   3.987   2.049  1.00  0.00     0.041 A 
HETATM   14  C4  UNL     1      -2.603   4.548   1.161  1.00  0.00     0.026 A 
HETATM   15  C5  UNL     1      -2.462   4.382  -0.202  1.00  0.00     0.036 A 
HETATM   16 CL1  UNL     1      -3.619   5.093  -1.304  1.00  0.00    -0.084 Cl
HETATM   17  C6  UNL     1      -1.385   3.642  -0.641  1.00  0.00     0.056 A 
BRANCH  12  18
HETATM   18  O1  UNL     1       0.304   2.687   2.496  1.00  0.00    -0.354 OA
HETATM   19  C1  UNL     1       0.103   2.894   3.879  1.00  0.00     0.210 C 
ENDBRANCH  12  18
ENDBRANCH   9  11
ENDBRANCH   1   9
BRANCH   3  20
HETATM   20  C11 UNL     1       2.657  -1.880  -1.474  1.00  0.00    -0.032 C 
HETATM   21  C12 UNL     1       2.658  -3.191  -1.648  1.00  0.00    -0.015 C 
HETATM   22  C13 UNL     1       3.980  -3.639  -2.156  1.00  0.00     0.060 C 
HETATM   23  C14 UNL     1       4.876  -2.497  -1.834  1.00  0.00     0.128 C 
HETATM   24  C16 UNL     1       3.976  -1.308  -1.848  1.00  0.00     0.072 C 
BRANCH  23  25
HETATM   25  O2  UNL     1       5.970  -2.380  -2.669  1.00  0.00    -0.390 OA
HETATM   26  C15 UNL     1       7.184  -2.466  -2.050  1.00  0.00     0.202 C 
ENDBRANCH  23  25
ENDBRANCH   3  20
BRANCH   6  27
HETATM   27  N3  UNL     1      -1.813  -1.489   0.086  1.00  0.00    -0.221 N 
ATOM     28  H3  UNL     1      -1.866  -2.501  -0.028  1.00  0.00     0.178 HD
BRANCH  27  29
HETATM   29  C18 UNL     1      -2.978  -0.825   0.565  1.00  0.00     0.099 C 
HETATM   30  C19 UNL     1      -3.751  -0.081  -0.495  1.00  0.00     0.026 C 
HETATM   31  C20 UNL     1      -5.202  -0.503  -0.360  1.00  0.00     0.002 C 
HETATM   32  C21 UNL     1      -5.294  -1.203   0.964  1.00  0.00     0.002 C 
HETATM   33  C22 UNL     1      -3.955  -1.882   1.061  1.00  0.00     0.026 C 
ENDBRANCH  27  29
ENDBRANCH   6  27
TORSDOF 7
