REMARK  6 active torsions:
REMARK  status: ('A' for Active; 'I' for Inactive)
REMARK    1  A    between atoms: N1_1  and  C1_5 
REMARK    2  A    between atoms: C3_7  and  N2_8 
REMARK       I    between atoms: N2_8  and  C4_10 
REMARK    3  A    between atoms: C4_10  and  C5_12 
REMARK    4  A    between atoms: C8_15  and  O2_16 
REMARK    5  A    between atoms: O2_16  and  C9_17 
REMARK    6  A    between atoms: C14_22  and  C15_23 
ROOT
HETATM    1  N2  UNL     1      -1.874  -0.154   0.433  1.00  0.00    -0.346 N 
ATOM      2  H2  UNL     1      -1.450   0.378   1.193  1.00  0.00     0.163 HD
HETATM    3  C4  UNL     1      -1.053  -0.454  -0.701  1.00  0.00     0.252 C 
HETATM    4  O1  UNL     1      -1.452  -1.083  -1.705  1.00  0.00    -0.268 OA
ENDROOT
BRANCH   1   5
HETATM    5  C3  UNL     1      -3.228  -0.539   0.581  1.00  0.00     0.048 C 
HETATM    6  C2  UNL     1      -3.821   0.073   1.836  1.00  0.00     0.068 C 
HETATM    7  C1  UNL     1      -4.126   1.528   1.738  1.00  0.00     0.219 C 
HETATM    8  C22 UNL     1      -4.843   1.889   0.469  1.00  0.00     0.201 C 
HETATM    9  C21 UNL     1      -4.234   1.229  -0.718  1.00  0.00     0.047 C 
HETATM   10  F1  UNL     1      -4.694   3.275   0.269  1.00  0.00    -0.247 F 
HETATM   11  C20 UNL     1      -4.126  -0.272  -0.563  1.00  0.00     0.026 C 
HETATM   12  C19 UNL     1      -5.460  -0.858  -0.272  1.00  0.00     0.081 C 
HETATM   13  S1  UNL     1      -4.995  -2.421   0.567  1.00  0.00    -0.166 SA
HETATM   14  C18 UNL     1      -3.219  -2.050   0.827  1.00  0.00     0.105 C 
BRANCH   7  15
HETATM   15  N1  UNL     1      -3.004   2.407   1.863  1.00  0.00    -0.072 N 
ATOM     16  H13 UNL     1      -2.506   2.214   2.732  1.00  0.00     0.274 HD
ATOM     17  H12 UNL     1      -2.287   2.155   1.182  1.00  0.00     0.274 HD
ATOM     18  H11 UNL     1      -3.213   3.403   1.796  1.00  0.00     0.274 HD
ENDBRANCH   7  15
ENDBRANCH   1   5
BRANCH   3  19
HETATM   19  C5  UNL     1       0.338  -0.027  -0.757  1.00  0.00     0.038 A 
HETATM   20  C6  UNL     1       0.634   1.266  -1.099  1.00  0.00     0.020 A 
HETATM   21  C7  UNL     1       1.919   1.756  -1.107  1.00  0.00     0.038 A 
HETATM   22  C8  UNL     1       2.999   0.928  -0.757  1.00  0.00     0.069 A 
HETATM   23  C13 UNL     1       2.709  -0.370  -0.414  1.00  0.00     0.045 A 
HETATM   24  C14 UNL     1       1.389  -0.838  -0.415  1.00  0.00    -0.036 A 
BRANCH  22  25
HETATM   25  O2  UNL     1       4.269   1.406  -0.762  1.00  0.00    -0.346 OA
BRANCH  25  26
HETATM   26  C9  UNL     1       5.393   0.624  -0.507  1.00  0.00     0.129 C 
HETATM   27  C10 UNL     1       6.566   1.130  -1.342  1.00  0.00     0.032 C 
HETATM   28  C11 UNL     1       7.402   1.062  -0.087  1.00  0.00     0.005 C 
HETATM   29  C12 UNL     1       6.154   1.123   0.744  1.00  0.00     0.032 C 
ENDBRANCH  25  26
ENDBRANCH  22  25
BRANCH  24  30
HETATM   30  C15 UNL     1       1.116  -2.245  -0.082  1.00  0.00     0.020 A 
HETATM   31  C16 UNL     1       2.224  -3.187   0.174  1.00  0.00     0.010 A 
HETATM   32  C17 UNL     1       1.372  -3.318  -1.082  1.00  0.00     0.010 A 
ENDBRANCH  24  30
ENDBRANCH   3  19
TORSDOF 6
