REMARK  9 active torsions:
REMARK  status: ('A' for Active; 'I' for Inactive)
REMARK    1  A    between atoms: C2_2  and  N1_3 
REMARK    2  A    between atoms: N1_3  and  C3_4 
REMARK    3  A    between atoms: C4_7  and  C5_8 
REMARK    4  A    between atoms: C5_8  and  N3_9 
REMARK    5  A    between atoms: N4_12  and  C8_13 
REMARK    6  A    between atoms: C8_13  and  C9_14 
REMARK    7  A    between atoms: C9_14  and  N5_15 
REMARK    8  A    between atoms: N5_15  and  C10_18 
REMARK    9  A    between atoms: C10_18  and  C11_19 
ROOT
HETATM    1  N3  UNL     1      -1.814  -0.779  -0.725  1.00  0.00    -0.384 N 
HETATM    2  C6  UNL     1      -1.310   0.377  -0.113  1.00  0.00     0.142 C 
HETATM    3  C7  UNL     1       0.166   0.206   0.332  1.00  0.00     0.141 C 
HETATM    4  N4  UNL     1       0.860  -0.648  -0.519  1.00  0.00    -0.389 N 
HETATM    5  C18 UNL     1       0.314  -0.738  -1.867  1.00  0.00     0.141 C 
HETATM    6  C19 UNL     1      -1.031  -1.410  -1.748  1.00  0.00     0.142 C 
ENDROOT
BRANCH   4   7
HETATM    7  C8  UNL     1       1.690  -1.680  -0.141  1.00  0.00     0.085 C 
BRANCH   7   8
HETATM    8  C9  UNL     1       3.001  -1.256   0.444  1.00  0.00     0.277 C 
BRANCH   8   9
HETATM    9  N5  UNL     1       3.693  -0.362  -0.475  1.00  0.00    -0.067 N 
ATOM     10  H52 UNL     1       3.357  -0.480  -1.431  1.00  0.00     0.277 HD
ATOM     11  H51 UNL     1       3.417   0.609  -0.326  1.00  0.00     0.277 HD
BRANCH   9  12
HETATM   12  C10 UNL     1       5.093  -0.514  -0.402  1.00  0.00     0.273 C 
BRANCH  12  13
HETATM   13  C11 UNL     1       5.913   0.604   0.033  1.00  0.00    -0.004 A 
HETATM   14  C12 UNL     1       5.379   1.744   0.556  1.00  0.00     0.011 A 
HETATM   15  C13 UNL     1       6.211   2.698   1.089  1.00  0.00     0.003 A 
HETATM   16  C14 UNL     1       7.585   2.528   1.109  1.00  0.00     0.032 A 
HETATM   17  C15 UNL     1       8.117   1.363   0.570  1.00  0.00     0.060 A 
HETATM   18  N6  UNL     1       9.391   0.950   0.444  1.00  0.00    -0.350 N 
HETATM   19  C17 UNL     1       7.286   0.406   0.031  1.00  0.00     0.068 A 
HETATM   20  C16 UNL     1       9.343  -0.253  -0.164  1.00  0.00     0.181 A 
ATOM     21  H6  UNL     1      10.228   1.448   0.748  1.00  0.00     0.166 HD
HETATM   22  N7  UNL     1       8.073  -0.588  -0.420  1.00  0.00    -0.350 N 
ATOM     23  H7  UNL     1       7.758  -1.444  -0.876  1.00  0.00     0.166 HD
ENDBRANCH  12  13
ENDBRANCH   9  12
ENDBRANCH   8   9
ENDBRANCH   7   8
ENDBRANCH   4   7
BRANCH   1  24
HETATM   24  C5  UNL     1      -2.692  -1.652  -0.135  1.00  0.00     0.134 C 
BRANCH  24  25
HETATM   25  C4  UNL     1      -4.079  -1.187   0.124  1.00  0.00     0.123 A 
HETATM   26  N2  UNL     1      -4.478   0.072  -0.060  1.00  0.00    -0.315 N 
HETATM   27  C3  UNL     1      -5.789   0.381   0.218  1.00  0.00     0.200 A 
ATOM     28  H2  UNL     1      -3.830   0.784  -0.397  1.00  0.00     0.170 HD
HETATM   29  C23 UNL     1      -6.649  -0.638   0.680  1.00  0.00     0.089 A 
HETATM   30  C20 UNL     1      -6.218  -1.921   0.858  1.00  0.00     0.056 A 
HETATM   31  S1  UNL     1      -8.296  -0.722   1.142  1.00  0.00    -0.095 SA
HETATM   32  N8  UNL     1      -4.900  -2.153   0.564  1.00  0.00    -0.340 N 
HETATM   33  C21 UNL     1      -7.132  -2.811   1.312  1.00  0.00     0.038 A 
ATOM     34  H8  UNL     1      -4.529  -3.095   0.684  1.00  0.00     0.167 HD
HETATM   35  C22 UNL     1      -8.396  -2.369   1.551  1.00  0.00     0.053 A 
BRANCH  27  36
HETATM   36  N1  UNL     1      -6.196   1.492   0.088  1.00  0.00    -0.390 NA
BRANCH  36  37
HETATM   37  C2  UNL     1      -7.039   2.538   0.086  1.00  0.00     0.087 A 
HETATM   38  C1  UNL     1      -7.278   3.774   0.688  1.00  0.00     0.021 A 
HETATM   39  C24 UNL     1      -8.229   3.371  -0.339  1.00  0.00     0.102 A 
ENDBRANCH  36  37
ENDBRANCH  27  36
ENDBRANCH  24  25
ENDBRANCH   1  24
TORSDOF 9
