REMARK  10 active torsions:
REMARK  status: ('A' for Active; 'I' for Inactive)
REMARK    1  A    between atoms: C6_6  and  C7_7 
REMARK    2  A    between atoms: C7_7  and  N1_8 
REMARK    3  A    between atoms: N1_8  and  C8_9 
REMARK    4  A    between atoms: N1_8  and  C18_30 
REMARK    5  A    between atoms: C8_9  and  C9_10 
REMARK    6  A    between atoms: N5_17  and  C10_18 
REMARK    7  A    between atoms: C13_21  and  C14_22 
REMARK    8  A    between atoms: C14_22  and  C15_23 
REMARK    9  A    between atoms: C18_30  and  N8_32 
REMARK   10  A    between atoms: N8_32  and  C19_34 
ROOT
HETATM    1  C9  UNL     1      -0.273  -1.396   2.436  1.00  0.00     0.160 A 
HETATM    2  N2  UNL     1      -0.945  -2.499   2.880  1.00  0.00    -0.267 N 
ATOM      3  H2  UNL     1      -1.856  -2.476   3.339  1.00  0.00     0.190 HD
HETATM    4  N3  UNL     1      -0.267  -3.584   2.639  1.00  0.00    -0.226 N 
ATOM      5  H3  UNL     1      -0.547  -4.537   2.871  1.00  0.00     0.210 HD
HETATM    6  N4  UNL     1       0.849  -3.220   2.039  1.00  0.00    -0.219 N 
ATOM      7  H4  UNL     1       1.586  -3.850   1.724  1.00  0.00     0.210 HD
HETATM    8  N5  UNL     1       0.856  -1.894   1.911  1.00  0.00    -0.222 N 
ENDROOT
BRANCH   1   9
HETATM    9  C8  UNL     1      -0.747  -0.038   2.565  1.00  0.00     0.145 C 
BRANCH   9  10
HETATM   10  N1  UNL     1      -1.633   0.474   1.551  1.00  0.00    -0.326 N 
BRANCH  10  11
HETATM   11  C7  UNL     1      -2.879  -0.172   1.248  1.00  0.00     0.169 C 
BRANCH  11  12
HETATM   12  C6  UNL     1      -2.840  -1.303   0.336  1.00  0.00    -0.039 A 
HETATM   13  C5  UNL     1      -1.867  -1.413  -0.616  1.00  0.00     0.009 A 
HETATM   14  C4  UNL     1      -1.861  -2.509  -1.486  1.00  0.00     0.001 A 
HETATM   15  C3  UNL     1      -2.844  -3.462  -1.364  1.00  0.00     0.007 A 
HETATM   16  C2  UNL     1      -3.842  -3.375  -0.408  1.00  0.00    -0.061 A 
HETATM   17  C1  UNL     1      -4.877  -4.440  -0.327  1.00  0.00     0.048 C 
HETATM   18  C25 UNL     1      -3.799  -2.284   0.415  1.00  0.00     0.015 A 
ENDBRANCH  11  12
ENDBRANCH  10  11
BRANCH  10  19
HETATM   19  C18 UNL     1      -1.264   1.613   0.827  1.00  0.00     0.178 C 
HETATM   20  S1  UNL     1       0.161   2.315   1.197  1.00  0.00    -0.040 SA
BRANCH  19  21
HETATM   21  N8  UNL     1      -2.042   2.142  -0.195  1.00  0.00    -0.333 N 
ATOM     22  H8  UNL     1      -2.898   1.626  -0.399  1.00  0.00     0.168 HD
BRANCH  21  23
HETATM   23  C19 UNL     1      -1.826   3.285  -0.993  1.00  0.00     0.034 A 
HETATM   24  C20 UNL     1      -2.360   3.273  -2.289  1.00  0.00     0.029 A 
HETATM   25  C21 UNL     1      -2.257   4.318  -3.168  1.00  0.00     0.002 A 
HETATM   26  C22 UNL     1      -1.583   5.461  -2.750  1.00  0.00     0.000 A 
HETATM   27  C23 UNL     1      -1.047   5.509  -1.486  1.00  0.00     0.002 A 
HETATM   28  C24 UNL     1      -1.181   4.412  -0.627  1.00  0.00     0.029 A 
ENDBRANCH  21  23
ENDBRANCH  19  21
ENDBRANCH  10  19
ENDBRANCH   9  10
ENDBRANCH   1   9
BRANCH   8  29
HETATM   29  C10 UNL     1       1.910  -1.193   1.312  1.00  0.00     0.060 A 
HETATM   30  C11 UNL     1       1.991  -1.126  -0.062  1.00  0.00     0.032 A 
HETATM   31  C12 UNL     1       3.027  -0.437  -0.691  1.00  0.00     0.010 A 
HETATM   32  C13 UNL     1       4.002   0.198   0.040  1.00  0.00    -0.051 A 
HETATM   33  C16 UNL     1       3.905   0.121   1.421  1.00  0.00     0.010 A 
HETATM   34  C17 UNL     1       2.885  -0.558   2.056  1.00  0.00     0.032 A 
BRANCH  32  35
HETATM   35  C14 UNL     1       5.123   0.944  -0.609  1.00  0.00     0.111 C 
BRANCH  35  36
HETATM   36  C15 UNL     1       6.295   0.051  -0.855  1.00  0.00     0.090 C 
HETATM   37  N6  UNL     1       7.441   0.299  -0.325  1.00  0.00    -0.391 N 
ATOM     38  H62 UNL     1       7.521   1.125   0.267  1.00  0.00     0.157 HD
ATOM     39  H61 UNL     1       8.241  -0.311  -0.493  1.00  0.00     0.157 HD
HETATM   40  N7  UNL     1       6.184  -1.093  -1.675  1.00  0.00    -0.088 NA
ENDBRANCH  35  36
ENDBRANCH  32  35
ENDBRANCH   8  29
TORSDOF 10
