REMARK  10 active torsions:
REMARK  status: ('A' for Active; 'I' for Inactive)
REMARK    1  A    between atoms: C2_2  and  C3_3 
REMARK    2  A    between atoms: C3_3  and  N1_4 
REMARK    3  A    between atoms: N1_4  and  C4_6 
REMARK    4  A    between atoms: C8_16  and  C9_17 
REMARK    5  A    between atoms: C9_17  and  N5_18 
REMARK    6  A    between atoms: C9_17  and  C12_28 
REMARK    7  A    between atoms: N5_18  and  C10_20 
REMARK    8  A    between atoms: C15_31  and  O1_32 
REMARK    9  A    between atoms: N9_36  and  C19_37 
REMARK   10  A    between atoms: C19_37  and  C20_38 
ROOT
HETATM    1  C4  UNL     1       4.054   0.600  -0.430  1.00  0.00     0.679 A 
HETATM    2  N2  UNL     1       3.055  -0.127   0.136  1.00  0.00    -0.174 N 
ATOM      3  H2  UNL     1       3.270  -1.046   0.523  1.00  0.00     0.186 HD
HETATM    4  C5  UNL     1       1.794   0.327   0.201  1.00  0.00     0.157 A 
HETATM    5  C6  UNL     1       1.542   1.551  -0.322  1.00  0.00     0.095 A 
HETATM    6  C7  UNL     1       2.562   2.282  -0.894  1.00  0.00     0.139 A 
HETATM    7  N3  UNL     1       3.841   1.817  -0.959  1.00  0.00    -0.200 N 
ATOM      8  H3  UNL     1       4.592   2.360  -1.384  1.00  0.00     0.183 HD
HETATM    9  N4  UNL     1       0.259   1.771  -0.134  1.00  0.00    -0.336 N 
ATOM     10  H4  UNL     1      -0.226   2.619  -0.426  1.00  0.00     0.168 HD
HETATM   11  C8  UNL     1      -0.345   0.719   0.503  1.00  0.00     0.142 A 
HETATM   12  N9  UNL     1       0.640  -0.203   0.716  1.00  0.00    -0.289 N 
ENDROOT
BRANCH  11  13
HETATM   13  C9  UNL     1      -1.734   0.735   0.850  1.00  0.00     0.104 C 
BRANCH  13  14
HETATM   14  N5  UNL     1      -2.224   0.052   1.976  1.00  0.00    -0.186 N 
ATOM     15  H5  UNL     1      -1.908  -0.912   2.081  1.00  0.00     0.184 HD
BRANCH  14  16
HETATM   16  C10 UNL     1      -3.021   0.484   2.894  1.00  0.00     0.698 A 
HETATM   17  N6  UNL     1      -3.591   1.684   3.020  1.00  0.00    -0.185 N 
HETATM   18  C11 UNL     1      -4.337   1.666   4.129  1.00  0.00     0.215 A 
ATOM     19  H6  UNL     1      -3.478   2.473   2.384  1.00  0.00     0.185 HD
HETATM   20  N7  UNL     1      -4.206   0.441   4.663  1.00  0.00    -0.281 N 
HETATM   21  N8  UNL     1      -3.403  -0.291   3.916  1.00  0.00    -0.131 N 
ATOM     22  H7  UNL     1      -4.660   0.124   5.519  1.00  0.00     0.188 HD
ATOM     23  H8  UNL     1      -3.127  -1.258   4.084  1.00  0.00     0.205 HD
ENDBRANCH  14  16
ENDBRANCH  13  14
BRANCH  13  24
HETATM   24  C12 UNL     1      -2.726   0.669  -0.248  1.00  0.00    -0.005 A 
HETATM   25  C13 UNL     1      -2.917   1.734  -1.124  1.00  0.00     0.016 A 
HETATM   26  C14 UNL     1      -3.843   1.701  -2.136  1.00  0.00     0.037 A 
HETATM   27  C15 UNL     1      -4.638   0.592  -2.331  1.00  0.00     0.068 A 
HETATM   28  C17 UNL     1      -4.457  -0.463  -1.471  1.00  0.00     0.037 A 
HETATM   29  C18 UNL     1      -3.520  -0.430  -0.448  1.00  0.00     0.016 A 
BRANCH  27  30
HETATM   30  O1  UNL     1      -5.585   0.528  -3.346  1.00  0.00    -0.356 OA
HETATM   31  C16 UNL     1      -5.826   1.557  -4.256  1.00  0.00     0.210 C 
ENDBRANCH  27  30
ENDBRANCH  13  24
ENDBRANCH  11  13
BRANCH  12  32
HETATM   32  C19 UNL     1       0.586  -1.450   1.348  1.00  0.00     0.112 C 
BRANCH  32  33
HETATM   33  C20 UNL     1       0.322  -2.650   0.527  1.00  0.00    -0.020 A 
HETATM   34  C21 UNL     1      -0.952  -3.196   0.430  1.00  0.00     0.013 A 
HETATM   35  C22 UNL     1      -1.215  -4.318  -0.337  1.00  0.00     0.001 A 
HETATM   36  C23 UNL     1      -0.222  -4.941  -1.036  1.00  0.00     0.000 A 
HETATM   37  C24 UNL     1       1.034  -4.436  -0.965  1.00  0.00     0.001 A 
HETATM   38  C25 UNL     1       1.288  -3.319  -0.200  1.00  0.00     0.013 A 
ENDBRANCH  32  33
ENDBRANCH  12  32
BRANCH   1  39
HETATM   39  N1  UNL     1       5.250   0.128  -0.472  1.00  0.00    -0.226 N 
ATOM     40  H1  UNL     1       5.405  -0.796  -0.068  1.00  0.00     0.177 HD
BRANCH  39  41
HETATM   41  C3  UNL     1       6.377   0.794  -1.038  1.00  0.00     0.137 C 
BRANCH  41  42
HETATM   42  C2  UNL     1       7.033   1.777  -0.105  1.00  0.00     0.016 C 
HETATM   43  C1  UNL     1       7.524   1.072   1.151  1.00  0.00     0.006 C 
ENDBRANCH  41  42
ENDBRANCH  39  41
ENDBRANCH   1  39
TORSDOF 10
