REMARK  9 active torsions:
REMARK  status: ('A' for Active; 'I' for Inactive)
REMARK    1  A    between atoms: C6_9  and  N2_10 
REMARK    2  A    between atoms: N2_10  and  C7_12 
REMARK    3  A    between atoms: C7_12  and  C8_13 
REMARK    4  A    between atoms: C8_13  and  C9_14 
REMARK    5  A    between atoms: C9_14  and  O2_15 
REMARK    6  A    between atoms: N5_24  and  C13_25 
REMARK    7  A    between atoms: C13_25  and  C14_26 
REMARK    8  A    between atoms: N6_33  and  C21_34 
REMARK    9  A    between atoms: C21_34  and  C22_35 
ROOT
HETATM    1  O1  UNL     1      -0.207  -1.895  -1.259  1.00  0.00    -0.267 OA
HETATM    2  C1  UNL     1      -0.284  -0.932  -0.460  1.00  0.00     0.262 A 
HETATM    3  C2  UNL     1       0.849  -0.426   0.067  1.00  0.00     0.060 A 
HETATM    4  C3  UNL     1       2.208  -0.858  -0.172  1.00  0.00     0.066 A 
HETATM    5  C4  UNL     1       2.520  -1.875  -0.997  1.00  0.00     0.048 A 
HETATM    6  C5  UNL     1       3.868  -2.226  -1.169  1.00  0.00     0.108 A 
HETATM    7  N1  UNL     1       4.823  -1.555  -0.518  1.00  0.00    -0.202 N 
ATOM      8  H1  UNL     1       5.801  -1.816  -0.647  1.00  0.00     0.183 HD
HETATM    9  C6  UNL     1       4.511  -0.549   0.298  1.00  0.00     0.678 A 
HETATM   10  N3  UNL     1       3.242  -0.217   0.461  1.00  0.00    -0.191 N 
ATOM     11  H3  UNL     1       3.021   0.555   1.090  1.00  0.00     0.184 HD
HETATM   12  C10 UNL     1       0.690   0.640   0.945  1.00  0.00     0.036 A 
HETATM   13  C11 UNL     1      -0.564   1.093   1.207  1.00  0.00     0.028 A 
HETATM   14  C12 UNL     1      -0.993   2.114   2.004  1.00  0.00     0.122 A 
HETATM   15  N4  UNL     1      -2.306   2.144   1.890  1.00  0.00    -0.307 N 
ATOM     16  H4  UNL     1      -2.911   2.807   2.375  1.00  0.00     0.186 HD
HETATM   17  N5  UNL     1      -2.749   1.182   1.048  1.00  0.00    -0.272 N 
HETATM   18  C20 UNL     1      -1.679   0.535   0.636  1.00  0.00     0.139 A 
HETATM   19  N6  UNL     1      -1.561  -0.497  -0.210  1.00  0.00    -0.293 N 
ENDROOT
BRANCH  19  20
HETATM   20  C21 UNL     1      -2.634  -1.178  -0.837  1.00  0.00     0.172 C 
BRANCH  20  21
HETATM   21  C22 UNL     1      -2.956  -2.493  -0.141  1.00  0.00    -0.040 A 
HETATM   22  C23 UNL     1      -3.460  -2.567   1.127  1.00  0.00     0.009 A 
HETATM   23  C24 UNL     1      -3.760  -3.762   1.728  1.00  0.00     0.001 A 
HETATM   24  C25 UNL     1      -3.559  -4.948   1.058  1.00  0.00     0.000 A 
HETATM   25  C26 UNL     1      -3.053  -4.924  -0.222  1.00  0.00     0.001 A 
HETATM   26  C27 UNL     1      -2.765  -3.709  -0.791  1.00  0.00     0.009 A 
ENDBRANCH  20  21
ENDBRANCH  19  20
BRANCH   9  27
HETATM   27  N2  UNL     1       5.429   0.106   0.932  1.00  0.00    -0.226 N 
ATOM     28  H2  UNL     1       5.159   0.871   1.550  1.00  0.00     0.177 HD
BRANCH  27  29
HETATM   29  C7  UNL     1       6.838  -0.225   0.783  1.00  0.00     0.140 C 
BRANCH  29  30
HETATM   30  C8  UNL     1       7.622   0.605   1.784  1.00  0.00     0.046 C 
BRANCH  30  31
HETATM   31  C9  UNL     1       7.432   2.071   1.550  1.00  0.00     0.165 C 
BRANCH  31  32
HETATM   32  O2  UNL     1       7.881   2.384   0.247  1.00  0.00    -0.401 OA
ATOM     33  H2  UNL     1       7.760   3.315   0.098  1.00  0.00     0.209 HD
ENDBRANCH  31  32
ENDBRANCH  30  31
ENDBRANCH  29  30
ENDBRANCH  27  29
ENDBRANCH   9  27
BRANCH  17  34
HETATM   34  C13 UNL     1      -4.133   1.175   0.712  1.00  0.00     0.189 C 
BRANCH  34  35
HETATM   35  C14 UNL     1      -4.514   2.291  -0.191  1.00  0.00    -0.038 A 
HETATM   36  C15 UNL     1      -4.584   2.166  -1.544  1.00  0.00     0.009 A 
HETATM   37  C16 UNL     1      -4.939   3.231  -2.382  1.00  0.00     0.001 A 
HETATM   38  C17 UNL     1      -5.234   4.463  -1.844  1.00  0.00     0.000 A 
HETATM   39  C18 UNL     1      -5.170   4.613  -0.485  1.00  0.00     0.001 A 
HETATM   40  C19 UNL     1      -4.820   3.556   0.308  1.00  0.00     0.009 A 
ENDBRANCH  34  35
ENDBRANCH  17  34
TORSDOF 9
