REMARK  4 active torsions:
REMARK  status: ('A' for Active; 'I' for Inactive)
REMARK    1  A    between atoms: N1_1  and  S1_4 
REMARK    2  A    between atoms: S1_4  and  N2_7 
REMARK    3  A    between atoms: N2_7  and  N3_9 
REMARK    4  A    between atoms: N3_9  and  C1_11 
ROOT
HETATM    1  N3  UNL     1      -0.512  -0.002   0.976  1.00  0.00    -0.274 N 
ATOM      2  H3  UNL     1      -0.853  -0.688   1.649  1.00  0.00     0.189 HD
ENDROOT
BRANCH   1   3
HETATM    3  N2  UNL     1      -1.360   1.037   0.674  1.00  0.00    -0.209 N 
ATOM      4  H2  UNL     1      -1.246   1.952   1.111  1.00  0.00     0.201 HD
BRANCH   3   5
HETATM    5  S1  UNL     1      -2.623   0.748  -0.467  1.00  0.00     0.330 S 
HETATM    6  O1  UNL     1      -2.119  -0.263  -1.458  1.00  0.00    -0.181 OA
HETATM    7  O2  UNL     1      -2.947   2.051  -1.175  1.00  0.00    -0.181 OA
BRANCH   5   8
HETATM    8  N1  UNL     1      -4.009   0.195   0.389  1.00  0.00    -0.310 N 
ATOM      9  H12 UNL     1      -4.430  -0.720   0.230  1.00  0.00     0.170 HD
ATOM     10  H11 UNL     1      -4.351   0.881   1.062  1.00  0.00     0.170 HD
ENDBRANCH   5   8
ENDBRANCH   3   5
ENDBRANCH   1   3
BRANCH   1  11
HETATM   11  C1  UNL     1       0.650  -0.197   0.506  1.00  0.00     0.135 A 
HETATM   12  C2  UNL     1       1.194   0.680  -0.408  1.00  0.00     0.057 A 
HETATM   13  C3  UNL     1       2.478   0.427  -0.900  1.00  0.00     0.079 A 
HETATM   14  C4  UNL     1       3.170  -0.681  -0.468  1.00  0.00     0.259 A 
HETATM   15  O3  UNL     1       4.331  -0.882  -0.932  1.00  0.00    -0.267 OA
HETATM   16  N4  UNL     1       2.595  -1.500   0.422  1.00  0.00    -0.265 N 
HETATM   17  N5  UNL     1       1.362  -1.267   0.902  1.00  0.00    -0.282 N 
ATOM     18  H4  UNL     1       3.106  -2.322   0.744  1.00  0.00     0.190 HD
ATOM     19  H5  UNL     1       0.958  -1.914   1.580  1.00  0.00     0.188 HD
ENDBRANCH   1  11
TORSDOF 4
