REMARK  3 active torsions:
REMARK  status: ('A' for Active; 'I' for Inactive)
REMARK    1  A    between atoms: C3_3  and  C4_4 
REMARK    2  A    between atoms: C4_4  and  S1_5 
REMARK    3  A    between atoms: S1_5  and  N1_6 
ROOT
HETATM    1  C1  UNL     1       0.009   2.992   0.473  1.00  0.00     0.015 C 
HETATM    2  C2  UNL     1      -0.292   1.858   0.235  1.00  0.00    -0.074 C 
HETATM    3  C3  UNL     1      -0.665   0.484  -0.038  1.00  0.00     0.193 C 
HETATM    4  N2  UNL     1      -1.170  -0.214   1.128  1.00  0.00    -0.314 N 
ATOM      5  H2  UNL     1      -0.857  -0.076   2.089  1.00  0.00     0.166 HD
HETATM    6  C5  UNL     1      -2.176  -1.123   0.702  1.00  0.00     0.324 C 
HETATM    7  O3  UNL     1      -2.638  -2.128   1.339  1.00  0.00    -0.247 OA
HETATM    8  N3  UNL     1      -2.617  -0.746  -0.584  1.00  0.00    -0.276 N 
ATOM      9  H3  UNL     1      -3.332  -1.208  -1.146  1.00  0.00     0.173 HD
HETATM   10  C6  UNL     1      -1.863   0.412  -0.942  1.00  0.00     0.267 C 
HETATM   11  O4  UNL     1      -2.084   1.269  -1.833  1.00  0.00    -0.269 OA
ENDROOT
BRANCH   3  12
HETATM   12  C4  UNL     1       0.426  -0.292  -0.723  1.00  0.00     0.217 C 
BRANCH  12  13
HETATM   13  S1  UNL     1       1.917  -0.394   0.198  1.00  0.00     0.228 S 
HETATM   14  O1  UNL     1       2.540   0.924   0.468  1.00  0.00    -0.206 OA
HETATM   15  O2  UNL     1       1.707  -1.158   1.486  1.00  0.00    -0.206 OA
BRANCH  13  16
HETATM   16  N1  UNL     1       3.050  -1.315  -0.734  1.00  0.00    -0.328 N 
ATOM     17  H12 UNL     1       2.868  -1.719  -1.653  1.00  0.00     0.168 HD
ATOM     18  H11 UNL     1       3.916  -1.374  -0.199  1.00  0.00     0.168 HD
ENDBRANCH  13  16
ENDBRANCH  12  13
ENDBRANCH   3  12
TORSDOF 3
