REMARK  4 active torsions:
REMARK  status: ('A' for Active; 'I' for Inactive)
REMARK    1  A    between atoms: C2_3  and  C3_4 
REMARK    2  A    between atoms: C3_4  and  N2_5 
REMARK    3  A    between atoms: N2_5  and  C4_7 
REMARK       I    between atoms: N5_13  and  C6_15 
REMARK    4  A    between atoms: N8_21  and  O1_22 
ROOT
HETATM    1  N1  UNL     1       5.123  -0.572   1.038  1.00  0.00    -0.197 NA
HETATM    2  C1  UNL     1       4.387   0.210   0.607  1.00  0.00     0.060 C 
HETATM    3  C2  UNL     1       3.432   1.191   0.060  1.00  0.00     0.144 C 
ENDROOT
BRANCH   3   4
HETATM    4  C3  UNL     1       2.832   0.566  -1.182  1.00  0.00     0.152 C 
BRANCH   4   5
HETATM    5  N2  UNL     1       2.178  -0.645  -0.792  1.00  0.00    -0.222 N 
ATOM      6  H2  UNL     1       2.709  -1.514  -0.844  1.00  0.00     0.177 HD
BRANCH   5   7
HETATM    7  C4  UNL     1       0.955  -0.704  -0.378  1.00  0.00     0.718 A 
HETATM    8  N3  UNL     1       0.157   0.376  -0.269  1.00  0.00    -0.129 N 
HETATM    9  N4  UNL     1      -1.104   0.296   0.160  1.00  0.00    -0.270 N 
ATOM     10  H3  UNL     1       0.531   1.290  -0.524  1.00  0.00     0.205 HD
HETATM   11  C5  UNL     1      -1.663  -0.876   0.513  1.00  0.00     0.141 A 
ATOM     12  H4  UNL     1      -1.661   1.148   0.222  1.00  0.00     0.189 HD
HETATM   13  N5  UNL     1      -2.878  -0.994   0.932  1.00  0.00    -0.315 N 
HETATM   14  C7  UNL     1      -0.859  -1.993   0.406  1.00  0.00     0.192 A 
HETATM   15  C6  UNL     1      -3.776   0.064   1.078  1.00  0.00     0.187 C 
ATOM     16  H5  UNL     1      -3.206  -1.929   1.174  1.00  0.00     0.170 HD
HETATM   17  N6  UNL     1      -4.738   0.208   0.239  1.00  0.00    -0.373 N 
HETATM   18  N7  UNL     1      -3.636   0.993   2.157  1.00  0.00    -0.064 NA
ATOM     19  H62 UNL     1      -4.838  -0.454  -0.530  1.00  0.00     0.158 HD
ATOM     20  H61 UNL     1      -5.394   0.981   0.346  1.00  0.00     0.158 HD
HETATM   21  N8  UNL     1       0.412  -1.885  -0.029  1.00  0.00    -0.059 N 
BRANCH  21  22
HETATM   22  O1  UNL     1       1.217  -2.998  -0.137  1.00  0.00    -0.270 OA
ATOM     23  H1  UNL     1       0.834  -3.832   0.109  1.00  0.00     0.245 HD
ENDBRANCH  21  22
ENDBRANCH   5   7
ENDBRANCH   4   5
ENDBRANCH   3   4
TORSDOF 4
