REMARK  5 active torsions:
REMARK  status: ('A' for Active; 'I' for Inactive)
REMARK    1  A    between atoms: N1_1  and  N2_4 
REMARK    2  A    between atoms: N2_4  and  C1_5 
REMARK    3  A    between atoms: C1_5  and  C2_6 
REMARK    4  A    between atoms: C2_6  and  N3_7 
REMARK    5  A    between atoms: N3_7  and  C3_9 
ROOT
HETATM    1  C3  UNL     1      -0.019  -0.399  -0.203  1.00  0.00     0.685 C 
HETATM    2  N4  UNL     1      -0.549  -0.098   0.996  1.00  0.00    -0.141 N 
ATOM      3  H4  UNL     1       0.093  -0.162   1.786  1.00  0.00     0.189 HD
HETATM    4  C4  UNL     1      -1.812   0.277   1.305  1.00  0.00     0.341 C 
HETATM    5  O1  UNL     1      -2.009   0.658   2.501  1.00  0.00    -0.246 OA
HETATM    6  N5  UNL     1      -2.905   0.308   0.523  1.00  0.00    -0.270 N 
ATOM      7  H5  UNL     1      -3.787   0.493   1.001  1.00  0.00     0.174 HD
HETATM    8  C5  UNL     1      -2.990   0.126  -0.817  1.00  0.00     0.318 C 
HETATM    9  O2  UNL     1      -4.089   0.465  -1.331  1.00  0.00    -0.262 OA
HETATM   10  C6  UNL     1      -2.010  -0.380  -1.633  1.00  0.00     0.328 C 
HETATM   11  O3  UNL     1      -2.392  -0.627  -2.804  1.00  0.00    -0.261 OA
HETATM   12  N6  UNL     1      -0.727  -0.631  -1.324  1.00  0.00    -0.151 N 
ATOM     13  H6  UNL     1      -0.195  -1.076  -2.072  1.00  0.00     0.188 HD
ENDROOT
BRANCH   1  14
HETATM   14  N3  UNL     1       1.240  -0.486  -0.351  1.00  0.00    -0.220 N 
ATOM     15  H3  UNL     1       1.591  -0.717  -1.280  1.00  0.00     0.178 HD
BRANCH  14  16
HETATM   16  C2  UNL     1       2.210  -0.282   0.699  1.00  0.00     0.199 C 
BRANCH  16  17
HETATM   17  C1  UNL     1       3.536  -0.035   0.100  1.00  0.00     0.201 C 
BRANCH  17  18
HETATM   18  N2  UNL     1       3.918   1.119  -0.127  1.00  0.00    -0.348 NA
BRANCH  18  19
HETATM   19  N1  UNL     1       4.062   2.224  -0.690  1.00  0.00    -0.281 N 
ATOM     20  H12 UNL     1       3.458   2.022  -1.487  1.00  0.00     0.191 HD
ATOM     21  H11 UNL     1       4.377   3.176  -0.877  1.00  0.00     0.191 HD
ENDBRANCH  18  19
ENDBRANCH  17  18
ENDBRANCH  16  17
ENDBRANCH  14  16
ENDBRANCH   1  14
TORSDOF 5
