REMARK  6 active torsions:
REMARK  status: ('A' for Active; 'I' for Inactive)
REMARK    1  A    between atoms: C2_2  and  N1_3 
REMARK    2  A    between atoms: C2_2  and  C3_7 
REMARK       I    between atoms: N2_10  and  C6_11 
REMARK    3  A    between atoms: C6_11  and  C7_13 
REMARK    4  A    between atoms: N3_16  and  C10_17 
REMARK    5  A    between atoms: C12_21  and  C13_22 
REMARK    6  A    between atoms: C13_22  and  N5_23 
ROOT
HETATM    1  C7  UNL     1      -1.182  -0.862   1.008  1.00  0.00     0.081 C 
HETATM    2  C8  UNL     1      -0.140  -0.947   2.138  1.00  0.00     0.034 C 
HETATM    3  C9  UNL     1       1.176  -0.553   1.498  1.00  0.00     0.125 C 
HETATM    4  N3  UNL     1       1.391  -1.332   0.315  1.00  0.00    -0.361 N 
HETATM    5  C18 UNL     1       0.425  -2.106  -0.384  1.00  0.00     0.125 C 
HETATM    6  C19 UNL     1      -0.938  -2.119   0.197  1.00  0.00     0.034 C 
ENDROOT
BRANCH   1   7
HETATM    7  C6  UNL     1      -2.497  -0.824   1.654  1.00  0.00     0.224 C 
HETATM    8  N2  UNL     1      -3.721  -0.628   0.959  1.00  0.00    -0.352 N 
HETATM    9  C5  UNL     1      -4.988  -0.607   1.603  1.00  0.00     0.126 C 
HETATM   10  C20 UNL     1      -3.639  -0.436  -0.473  1.00  0.00     0.126 C 
HETATM   11  C4  UNL     1      -6.172  -0.592   0.701  1.00  0.00     0.026 C 
HETATM   12  C3  UNL     1      -5.997   0.143  -0.585  1.00  0.00     0.018 C 
HETATM   13  C21 UNL     1      -4.602   0.673  -0.800  1.00  0.00     0.026 C 
HETATM   14  O1  UNL     1      -2.614  -0.973   2.922  1.00  0.00    -0.273 OA
BRANCH  12  15
HETATM   15  C2  UNL     1      -6.928   1.340  -0.670  1.00  0.00     0.183 C 
HETATM   16  C1  UNL     1      -6.700   2.333   0.428  1.00  0.00     0.040 C 
BRANCH  15  17
HETATM   17  N1  UNL     1      -8.303   0.856  -0.689  1.00  0.00    -0.075 N 
ATOM     18  H13 UNL     1      -8.574   0.475   0.217  1.00  0.00     0.274 HD
ATOM     19  H12 UNL     1      -8.967   1.628  -0.744  1.00  0.00     0.274 HD
ATOM     20  H11 UNL     1      -8.458   0.180  -1.437  1.00  0.00     0.274 HD
ENDBRANCH  15  17
ENDBRANCH  12  15
ENDBRANCH   1   7
BRANCH   4  21
HETATM   21  C10 UNL     1       2.735  -1.328  -0.221  1.00  0.00     0.146 A 
HETATM   22  N4  UNL     1       3.223  -1.938  -1.275  1.00  0.00    -0.345 N 
HETATM   23  C11 UNL     1       4.469  -1.808  -1.595  1.00  0.00     0.106 A 
ATOM     24  H4  UNL     1       2.613  -2.521  -1.848  1.00  0.00     0.167 HD
HETATM   25  C12 UNL     1       5.254  -1.013  -0.796  1.00  0.00     0.029 A 
HETATM   26  S1  UNL     1       4.120  -0.503   0.378  1.00  0.00    -0.056 SA
BRANCH  25  27
HETATM   27  C13 UNL     1       6.703  -0.684  -0.917  1.00  0.00     0.320 C 
BRANCH  27  28
HETATM   28  N5  UNL     1       7.046   0.208   0.148  1.00  0.00     0.093 N 
HETATM   29  C14 UNL     1       6.293   1.423   0.096  1.00  0.00     0.273 C 
HETATM   30  C15 UNL     1       7.281   2.569  -0.014  1.00  0.00     0.032 C 
HETATM   31  C16 UNL     1       8.606   1.978   0.434  1.00  0.00     0.032 C 
HETATM   32  C17 UNL     1       8.446   0.530   0.068  1.00  0.00     0.273 C 
ENDBRANCH  27  28
ENDBRANCH  25  27
ENDBRANCH   4  21
TORSDOF 6
