REMARK  6 active torsions:
REMARK  status: ('A' for Active; 'I' for Inactive)
REMARK    1  A    between atoms: O1_2  and  C2_3 
REMARK    2  A    between atoms: C9_12  and  O4_13 
REMARK    3  A    between atoms: C10_15  and  C11_16 
REMARK    4  A    between atoms: C11_16  and  C12_17 
REMARK    5  A    between atoms: C20_26  and  C21_27 
REMARK    6  A    between atoms: C21_27  and  N1_28 
ROOT
HETATM    1  C2  UNL     1       1.400  -1.014  -1.717  1.00  0.00     0.131 C 
HETATM    2  C3  UNL     1       2.840  -1.082  -1.115  1.00  0.00     0.067 C 
HETATM    3  C4  UNL     1       2.732  -1.014   0.330  1.00  0.00     0.159 C 
HETATM    4  O2  UNL     1       3.906  -1.019   1.070  1.00  0.00    -0.348 OA
HETATM    5  C5  UNL     1       3.638  -0.178   2.168  1.00  0.00     0.158 C 
HETATM    6  C6  UNL     1       4.655   0.955   2.093  1.00  0.00     0.078 C 
HETATM    7  C7  UNL     1       3.755  -0.860   3.483  1.00  0.00     0.078 C 
HETATM    8  O3  UNL     1       2.355   0.394   1.943  1.00  0.00    -0.345 OA
HETATM    9  C8  UNL     1       2.389   0.465   0.599  1.00  0.00     0.183 C 
HETATM   10  C9  UNL     1       1.297   0.848  -0.249  1.00  0.00     0.157 C 
HETATM   11  C10 UNL     1       0.442  -0.345  -0.803  1.00  0.00     0.059 C 
ENDROOT
BRANCH  11  12
HETATM   12  C11 UNL     1      -0.836   0.188  -1.131  1.00  0.00    -0.002 C 
HETATM   13  C15 UNL     1      -0.777   1.610  -1.550  1.00  0.00    -0.008 C 
HETATM   14  C16 UNL     1      -1.580   2.391  -0.870  1.00  0.00    -0.025 C 
HETATM   15  C17 UNL     1      -2.415   3.434  -0.220  1.00  0.00     0.149 C 
HETATM   16  C19 UNL     1      -2.407   1.543   0.073  1.00  0.00     0.160 C 
HETATM   17  C18 UNL     1      -1.745   4.735   0.095  1.00  0.00     0.044 C 
HETATM   18  O5  UNL     1      -2.406   2.638   0.976  1.00  0.00    -0.372 OA
HETATM   19  C20 UNL     1      -1.512   0.424   0.287  1.00  0.00     0.060 C 
BRANCH  12  20
HETATM   20  C12 UNL     1      -1.924  -0.397  -1.916  1.00  0.00    -0.001 A 
HETATM   21  C13 UNL     1      -1.880  -0.749  -3.351  1.00  0.00     0.006 A 
HETATM   22  C14 UNL     1      -2.247  -1.757  -2.302  1.00  0.00     0.006 A 
ENDBRANCH  12  20
BRANCH  19  23
HETATM   23  C21 UNL     1      -2.043  -0.848   0.815  1.00  0.00     0.280 C 
BRANCH  23  24
HETATM   24  N1  UNL     1      -2.676  -0.728   2.121  1.00  0.00     0.080 N 
HETATM   25  C22 UNL     1      -2.899  -2.155   2.518  1.00  0.00     0.309 C 
HETATM   26  C23 UNL     1      -4.069  -0.256   1.937  1.00  0.00     0.309 C 
ENDBRANCH  23  24
ENDBRANCH  19  23
ENDBRANCH  11  12
BRANCH   1  27
HETATM   27  O1  UNL     1       1.167  -2.420  -1.739  1.00  0.00    -0.390 OA
HETATM   28  C1  UNL     1       1.384  -2.926  -3.008  1.00  0.00     0.202 C 
ENDBRANCH   1  27
BRANCH  10  29
HETATM   29  O4  UNL     1       1.894   1.393  -1.428  1.00  0.00    -0.392 OA
ATOM     30  H4  UNL     1       1.171   1.647  -1.990  1.00  0.00     0.210 HD
ENDBRANCH  10  29
TORSDOF 6
