REMARK  7 active torsions:
REMARK  status: ('A' for Active; 'I' for Inactive)
REMARK    1  A    between atoms: C2_2  and  C4_4 
REMARK    2  A    between atoms: C2_2  and  C7_10 
REMARK    3  A    between atoms: C4_4  and  C5_5 
REMARK    4  A    between atoms: C5_5  and  S1_6 
REMARK    5  A    between atoms: C7_10  and  O4_12 
REMARK    6  A    between atoms: O4_12  and  C8_13 
REMARK    7  A    between atoms: C13_19  and  O6_20 
ROOT
HETATM    1  C8  UNL     1      -0.742  -0.774   0.262  1.00  0.00     0.210 C 
HETATM    2  C9  UNL     1      -1.295   0.579   0.500  1.00  0.00     0.166 C 
HETATM    3  O5  UNL     1      -0.640   1.543   0.823  1.00  0.00    -0.294 OA
HETATM    4  C10 UNL     1      -2.731   0.525   0.277  1.00  0.00     0.031 C 
HETATM    5  C11 UNL     1      -3.599   0.309   1.491  1.00  0.00     0.020 C 
HETATM    6  C12 UNL     1      -4.189   1.665   1.861  1.00  0.00     0.033 C 
HETATM    7  C13 UNL     1      -5.261   2.050   0.844  1.00  0.00     0.118 C 
HETATM    8  C14 UNL     1      -4.861   1.489  -0.480  1.00  0.00     0.037 C 
HETATM    9  C15 UNL     1      -3.349   1.530  -0.630  1.00  0.00     0.005 C 
HETATM   10  C16 UNL     1      -2.961   0.638  -1.809  1.00  0.00     0.012 C 
HETATM   11  C17 UNL     1      -2.878  -0.518  -0.804  1.00  0.00     0.013 C 
HETATM   12  C18 UNL     1      -1.589  -1.272  -0.885  1.00  0.00    -0.009 C 
HETATM   13  C19 UNL     1      -0.869  -0.919  -2.169  1.00  0.00     0.018 C 
HETATM   14  C20 UNL     1      -1.800  -2.750  -0.865  1.00  0.00     0.018 C 
ENDROOT
BRANCH   1  15
HETATM   15  O4  UNL     1       0.627  -0.737  -0.126  1.00  0.00    -0.307 OA
BRANCH  15  16
HETATM   16  C7  UNL     1       1.580  -1.438   0.589  1.00  0.00     0.267 C 
HETATM   17  O3  UNL     1       1.189  -2.100   1.585  1.00  0.00    -0.264 OA
BRANCH  16  18
HETATM   18  C2  UNL     1       3.018  -1.439   0.236  1.00  0.00     0.042 C 
HETATM   19  C1  UNL     1       3.794  -2.298   1.210  1.00  0.00     0.025 C 
HETATM   20  C3  UNL     1       3.246  -2.028  -1.152  1.00  0.00     0.025 C 
BRANCH  18  21
HETATM   21  C4  UNL     1       3.564  -0.038   0.330  1.00  0.00     0.034 C 
BRANCH  21  22
HETATM   22  C5  UNL     1       5.020   0.022  -0.014  1.00  0.00     0.141 C 
BRANCH  22  23
HETATM   23  S1  UNL     1       5.585   1.699   0.120  1.00  0.00     0.140 S 
HETATM   24  C6  UNL     1       5.382   2.354   1.742  1.00  0.00     0.161 C 
HETATM   25  O1  UNL     1       4.835   2.517  -0.897  1.00  0.00    -0.228 OA
HETATM   26  O2  UNL     1       7.041   1.778  -0.253  1.00  0.00    -0.228 OA
ENDBRANCH  22  23
ENDBRANCH  21  22
ENDBRANCH  18  21
ENDBRANCH  16  18
ENDBRANCH  15  16
ENDBRANCH   1  15
BRANCH   7  27
HETATM   27  O6  UNL     1      -5.412   3.412   0.742  1.00  0.00    -0.396 OA
ATOM     28  H6  UNL     1      -6.079   3.652   0.109  1.00  0.00     0.210 HD
ENDBRANCH   7  27
TORSDOF 7
