REMARK  7 active torsions:
REMARK  status: ('A' for Active; 'I' for Inactive)
REMARK    1  A    between atoms: C4_7  and  C5_8 
REMARK    2  A    between atoms: C5_8  and  N2_9 
REMARK       I    between atoms: N2_9  and  C6_11 
REMARK    3  A    between atoms: C6_11  and  C7_13 
REMARK    4  A    between atoms: C7_13  and  C8_14 
REMARK    5  A    between atoms: C8_14  and  C9_15 
REMARK       I    between atoms: N3_21  and  C15_22 
REMARK    6  A    between atoms: C15_22  and  O5_24 
REMARK    7  A    between atoms: O5_24  and  C16_25 
ROOT
HETATM    1  C1  UNL     1      -5.496  -3.629  -1.242  1.00  0.00     0.144 C 
HETATM    2  N1  UNL     1      -4.344  -2.861  -1.636  1.00  0.00    -0.193 NA
HETATM    3  O1  UNL     1      -3.645  -3.419  -2.629  1.00  0.00    -0.301 OA
HETATM    4  C2  UNL     1      -2.298  -3.055  -2.495  1.00  0.00     0.227 C 
HETATM    5  C3  UNL     1      -2.272  -2.031  -1.425  1.00  0.00     0.171 C 
HETATM    6  O2  UNL     1      -1.195  -1.999  -0.595  1.00  0.00    -0.356 OA
HETATM    7  C4  UNL     1      -1.323  -0.823   0.178  1.00  0.00     0.246 C 
HETATM    8  N3  UNL     1      -2.713  -0.470   0.371  1.00  0.00    -0.298 N 
HETATM    9  C15 UNL     1      -2.989   0.887   0.670  1.00  0.00     0.365 C 
HETATM   10  O4  UNL     1      -2.089   1.773   0.772  1.00  0.00    -0.238 OA
HETATM   11  C20 UNL     1      -3.835  -1.377   0.285  1.00  0.00     0.155 C 
HETATM   12  C21 UNL     1      -3.452  -2.547  -0.573  1.00  0.00     0.135 C 
ENDROOT
BRANCH   7  13
HETATM   13  C5  UNL     1      -0.576  -0.937   1.463  1.00  0.00     0.176 C 
BRANCH  13  14
HETATM   14  N2  UNL     1       0.822  -1.163   1.216  1.00  0.00    -0.357 N 
HETATM   15  C6  UNL     1       1.698  -0.308   0.540  1.00  0.00     0.217 C 
HETATM   16  O3  UNL     1       1.312   0.789   0.071  1.00  0.00    -0.274 OA
ATOM     17  H2  UNL     1       1.215  -2.035   1.570  1.00  0.00     0.162 HD
BRANCH  15  18
HETATM   18  C7  UNL     1       3.130  -0.712   0.372  1.00  0.00     0.103 C 
BRANCH  18  19
HETATM   19  C8  UNL     1       3.844   0.363  -0.376  1.00  0.00     0.014 C 
BRANCH  19  20
HETATM   20  C9  UNL     1       5.308   0.074  -0.616  1.00  0.00    -0.014 C 
HETATM   21  C10 UNL     1       5.914   1.211  -1.374  1.00  0.00     0.004 C 
HETATM   22  C11 UNL     1       7.411   1.215  -1.405  1.00  0.00     0.000 C 
HETATM   23  C12 UNL     1       8.028   0.192  -0.483  1.00  0.00     0.000 C 
HETATM   24  C13 UNL     1       7.343   0.342   0.850  1.00  0.00     0.000 C 
HETATM   25  C14 UNL     1       5.957  -0.243   0.678  1.00  0.00     0.004 C 
ENDBRANCH  19  20
ENDBRANCH  18  19
ENDBRANCH  15  18
ENDBRANCH  13  14
ENDBRANCH   7  13
BRANCH   9  26
HETATM   26  O5  UNL     1      -4.285   1.339   0.875  1.00  0.00    -0.294 OA
BRANCH  26  27
HETATM   27  C16 UNL     1      -4.620   2.661   1.172  1.00  0.00     0.061 C 
HETATM   28  C17 UNL     1      -4.165   3.600   0.057  1.00  0.00     0.046 C 
HETATM   29  C18 UNL     1      -6.133   2.760   1.216  1.00  0.00     0.046 C 
HETATM   30  C19 UNL     1      -4.092   3.139   2.500  1.00  0.00     0.046 C 
ENDBRANCH  26  27
ENDBRANCH   9  26
TORSDOF 7
