REMARK  3 active torsions:
REMARK  status: ('A' for Active; 'I' for Inactive)
REMARK    1  A    between atoms: N1_1  and  C1_4 
REMARK    2  A    between atoms: N4_13  and  O2_14 
REMARK    3  A    between atoms: O2_14  and  N5_15 
ROOT
HETATM    1  C1  UNL     1      -2.207  -0.720  -0.001  1.00  0.00     0.680 A 
HETATM    2  N2  UNL     1      -2.579   0.507  -0.403  1.00  0.00    -0.154 N 
ATOM      3  H2  UNL     1      -3.566   0.683  -0.588  1.00  0.00     0.187 HD
HETATM    4  C2  UNL     1      -1.696   1.518  -0.572  1.00  0.00     0.290 A 
HETATM    5  O1  UNL     1      -2.041   2.665  -0.948  1.00  0.00    -0.265 OA
HETATM    6  C3  UNL     1      -0.358   1.309  -0.329  1.00  0.00     0.150 A 
HETATM    7  N3  UNL     1       0.757   2.063  -0.392  1.00  0.00    -0.343 N 
ATOM      8  H3  UNL     1       0.792   3.044  -0.668  1.00  0.00     0.167 HD
HETATM    9  C4  UNL     1       1.824   1.310  -0.031  1.00  0.00     0.219 A 
HETATM   10  N4  UNL     1       1.352   0.080   0.257  1.00  0.00    -0.174 N 
HETATM   11  C5  UNL     1       0.010   0.041   0.084  1.00  0.00     0.184 A 
HETATM   12  N6  UNL     1      -0.910  -0.934   0.237  1.00  0.00    -0.172 N 
ATOM     13  H6  UNL     1      -0.607  -1.859   0.542  1.00  0.00     0.186 HD
ENDROOT
BRANCH  10  14
HETATM   14  O2  UNL     1       2.071  -1.023   0.671  1.00  0.00    -0.154 OA
BRANCH  14  15
HETATM   15  N5  UNL     1       3.371  -1.242   0.289  1.00  0.00    -0.285 N 
ATOM     16  H52 UNL     1       3.807  -0.554  -0.324  1.00  0.00     0.186 HD
ATOM     17  H51 UNL     1       3.902  -2.057   0.595  1.00  0.00     0.186 HD
ENDBRANCH  14  15
ENDBRANCH  10  14
BRANCH   1  18
HETATM   18  N1  UNL     1      -3.101  -1.662   0.146  1.00  0.00    -0.234 N 
ATOM     19  H12 UNL     1      -4.091  -1.499  -0.036  1.00  0.00     0.174 HD
ATOM     20  H11 UNL     1      -2.819  -2.593   0.451  1.00  0.00     0.174 HD
ENDBRANCH   1  18
TORSDOF 3
