REMARK  2 active torsions:
REMARK  status: ('A' for Active; 'I' for Inactive)
REMARK       I    between atoms: C1_4  and  N3_6 
REMARK    1  A    between atoms: N3_6  and  C2_8 
REMARK       I    between atoms: N7_15  and  C3_16 
REMARK       I    between atoms: C3_16  and  N8_18 
REMARK    2  A    between atoms: N8_18  and  N9_20 
ROOT
HETATM    1  C2  UNL     1       0.513  -0.656  -0.158  1.00  0.00     0.727 A 
HETATM    2  N4  UNL     1       1.037  -1.762  -0.708  1.00  0.00    -0.114 N 
ATOM      3  H4  UNL     1       2.033  -1.972  -0.778  1.00  0.00     0.207 HD
HETATM    4  N5  UNL     1       0.061  -2.536  -1.145  1.00  0.00    -0.213 N 
ATOM      5  H5  UNL     1       0.181  -3.438  -1.606  1.00  0.00     0.210 HD
HETATM    6  N6  UNL     1      -1.086  -1.958  -0.890  1.00  0.00    -0.202 N 
ATOM      7  H6  UNL     1      -2.011  -2.325  -1.114  1.00  0.00     0.211 HD
HETATM    8  N7  UNL     1      -0.820  -0.794  -0.280  1.00  0.00    -0.013 N 
HETATM    9  C3  UNL     1      -1.778   0.150   0.170  1.00  0.00     0.376 C 
HETATM   10  O1  UNL     1      -1.407   1.201   0.726  1.00  0.00    -0.243 OA
HETATM   11  N8  UNL     1      -3.156  -0.098  -0.011  1.00  0.00    -0.256 N 
ATOM     12  H8  UNL     1      -3.437  -0.965  -0.469  1.00  0.00     0.191 HD
ENDROOT
BRANCH   1  13
HETATM   13  N3  UNL     1       1.071   0.353   0.384  1.00  0.00    -0.160 N 
HETATM   14  C1  UNL     1       2.423   0.590   0.558  1.00  0.00     0.200 C 
HETATM   15  N1  UNL     1       3.005   0.174   1.611  1.00  0.00    -0.373 N 
HETATM   16  N2  UNL     1       3.174   1.287  -0.410  1.00  0.00    -0.063 NA
ATOM     17  H12 UNL     1       4.002   0.349   1.739  1.00  0.00     0.158 HD
ATOM     18  H11 UNL     1       2.462  -0.330   2.311  1.00  0.00     0.158 HD
ATOM     19  H3  UNL     1       0.443   1.076   0.733  1.00  0.00     0.187 HD
ENDBRANCH   1  13
BRANCH  11  20
HETATM   20  N9  UNL     1      -4.154   0.786   0.407  1.00  0.00    -0.341 N 
ATOM     21  H92 UNL     1      -3.855   1.648   0.863  1.00  0.00     0.177 HD
ATOM     22  H91 UNL     1      -5.150   0.607   0.276  1.00  0.00     0.177 HD
ENDBRANCH  11  20
TORSDOF 2
