REMARK  3 active torsions:
REMARK  status: ('A' for Active; 'I' for Inactive)
REMARK    1  A    between atoms: N1_1  and  C1_4 
REMARK    2  A    between atoms: C2_7  and  C3_8 
REMARK       I    between atoms: C3_8  and  N3_10 
REMARK    3  A    between atoms: N3_10  and  N4_12 
ROOT
HETATM    1  C1  UNL     1      -1.965   0.849  -0.146  1.00  0.00     0.691 A 
HETATM    2  N2  UNL     1      -0.614   0.762  -0.125  1.00  0.00    -0.180 N 
ATOM      3  H2  UNL     1      -0.066   1.617  -0.030  1.00  0.00     0.184 HD
HETATM    4  C2  UNL     1       0.029  -0.417  -0.225  1.00  0.00     0.187 A 
HETATM    5  C4  UNL     1      -0.780  -1.539  -0.351  1.00  0.00     0.293 A 
HETATM    6  O2  UNL     1      -0.211  -2.645  -0.446  1.00  0.00    -0.264 OA
HETATM    7  N5  UNL     1      -2.124  -1.465  -0.373  1.00  0.00    -0.250 N 
ATOM      8  H5  UNL     1      -2.691  -2.308  -0.467  1.00  0.00     0.191 HD
HETATM    9  N6  UNL     1      -2.700  -0.262  -0.269  1.00  0.00    -0.130 N 
ATOM     10  H6  UNL     1      -3.717  -0.191  -0.284  1.00  0.00     0.205 HD
ENDROOT
BRANCH   4  11
HETATM   11  C3  UNL     1       1.481  -0.522  -0.204  1.00  0.00     0.292 C 
HETATM   12  O1  UNL     1       2.030  -1.644  -0.300  1.00  0.00    -0.264 OA
HETATM   13  N3  UNL     1       2.274   0.634  -0.075  1.00  0.00    -0.271 N 
ATOM     14  H3  UNL     1       1.813   1.541   0.003  1.00  0.00     0.189 HD
BRANCH  13  15
HETATM   15  N4  UNL     1       3.664   0.583  -0.050  1.00  0.00    -0.342 N 
ATOM     16  H42 UNL     1       4.108  -0.332  -0.129  1.00  0.00     0.176 HD
ATOM     17  H41 UNL     1       4.239   1.421   0.043  1.00  0.00     0.176 HD
ENDBRANCH  13  15
ENDBRANCH   4  11
BRANCH   1  18
HETATM   18  N1  UNL     1      -2.578   1.992  -0.048  1.00  0.00    -0.233 N 
ATOM     19  H12 UNL     1      -2.018   2.839   0.046  1.00  0.00     0.174 HD
ATOM     20  H11 UNL     1      -3.596   2.058  -0.064  1.00  0.00     0.174 HD
ENDBRANCH   1  18
TORSDOF 3
