REMARK  3 active torsions:
REMARK  status: ('A' for Active; 'I' for Inactive)
REMARK    1  A    between atoms: C3_6  and  N2_7 
REMARK    2  A    between atoms: N2_7  and  N3_9 
REMARK    3  A    between atoms: N3_9  and  C4_11 
ROOT
HETATM    1  N2  UNL     1       0.032  -1.434   0.265  1.00  0.00    -0.257 N 
ATOM      2  H2  UNL     1      -0.037  -2.361  -0.155  1.00  0.00     0.190 HD
ENDROOT
BRANCH   1   3
HETATM    3  C3  UNL     1      -1.146  -0.643   0.353  1.00  0.00     0.197 A 
HETATM    4  N1  UNL     1      -1.217   0.614   0.201  1.00  0.00    -0.352 N 
HETATM    5  C2  UNL     1      -2.561   1.114   0.354  1.00  0.00     0.225 A 
ATOM      6  H1  UNL     1      -0.413   1.206  -0.006  1.00  0.00     0.163 HD
HETATM    7  C1  UNL     1      -3.351  -0.093   0.639  1.00  0.00     0.242 A 
HETATM    8  O1  UNL     1      -4.591  -0.138   0.846  1.00  0.00    -0.271 OA
HETATM    9  N8  UNL     1      -2.439  -1.178   0.633  1.00  0.00    -0.296 N 
ATOM     10  H8  UNL     1      -2.665  -2.159   0.798  1.00  0.00     0.172 HD
ENDBRANCH   1   3
BRANCH   1  11
HETATM   11  N3  UNL     1       1.273  -1.008   0.722  1.00  0.00    -0.127 N 
ATOM     12  H3  UNL     1       1.592  -1.334   1.634  1.00  0.00     0.205 HD
BRANCH  11  13
HETATM   13  C4  UNL     1       2.041  -0.220   0.049  1.00  0.00     0.722 A 
HETATM   14  N4  UNL     1       1.852   0.339  -1.159  1.00  0.00    -0.115 N 
HETATM   15  N5  UNL     1       2.908   1.092  -1.482  1.00  0.00     0.006 NA
ATOM     16  H4  UNL     1       1.026   0.208  -1.742  1.00  0.00     0.202 HD
HETATM   17  N6  UNL     1       3.748   0.992  -0.465  1.00  0.00     0.006 NA
HETATM   18  N7  UNL     1       3.241   0.200   0.475  1.00  0.00    -0.115 N 
ATOM     19  H7  UNL     1       3.685  -0.044   1.360  1.00  0.00     0.202 HD
ENDBRANCH  11  13
ENDBRANCH   1  11
TORSDOF 3
