REMARK  3 active torsions:
REMARK  status: ('A' for Active; 'I' for Inactive)
REMARK       I    between atoms: C2_2  and  N1_4 
REMARK    1  A    between atoms: N1_4  and  N2_6 
REMARK    2  A    between atoms: N2_6  and  C3_8 
REMARK    3  A    between atoms: N6_17  and  N7_18 
ROOT
HETATM    1  C3  UNL     1      -0.601  -0.100   0.036  1.00  0.00     0.747 A 
HETATM    2  N3  UNL     1      -0.455   1.164   0.124  1.00  0.00    -0.124 N 
ATOM      3  H3  UNL     1       0.498   1.501   0.260  1.00  0.00     0.206 HD
HETATM    4  N4  UNL     1      -1.445   2.133   0.056  1.00  0.00    -0.236 N 
ATOM      5  H4  UNL     1      -1.198   3.119   0.140  1.00  0.00     0.192 HD
HETATM    6  C4  UNL     1      -2.806   1.754  -0.131  1.00  0.00     0.355 A 
HETATM    7  O2  UNL     1      -3.697   2.620  -0.194  1.00  0.00    -0.244 OA
HETATM    8  N5  UNL     1      -3.043   0.347  -0.236  1.00  0.00    -0.214 N 
ATOM      9  H5  UNL     1      -3.992  -0.001  -0.370  1.00  0.00     0.194 HD
HETATM   10  N6  UNL     1      -1.980  -0.546  -0.155  1.00  0.00    -0.020 N 
ENDROOT
BRANCH   1  11
HETATM   11  N2  UNL     1       0.438  -1.052   0.111  1.00  0.00    -0.125 N 
ATOM     12  H2  UNL     1       0.134  -2.006   0.305  1.00  0.00     0.206 HD
BRANCH  11  13
HETATM   13  N1  UNL     1       1.780  -0.896  -0.035  1.00  0.00    -0.256 N 
HETATM   14  C2  UNL     1       2.604   0.225  -0.081  1.00  0.00     0.232 C 
HETATM   15  C1  UNL     1       4.106   0.020  -0.248  1.00  0.00     0.119 C 
HETATM   16  O1  UNL     1       2.261   1.416   0.002  1.00  0.00    -0.272 OA
ATOM     17  H1  UNL     1       2.285  -1.777  -0.130  1.00  0.00     0.190 HD
ENDBRANCH  11  13
ENDBRANCH   1  11
BRANCH  10  18
HETATM   18  N7  UNL     1      -2.215  -1.909  -0.249  1.00  0.00    -0.309 N 
ATOM     19  H72 UNL     1      -1.435  -2.564  -0.190  1.00  0.00     0.179 HD
ATOM     20  H71 UNL     1      -3.177  -2.220  -0.382  1.00  0.00     0.179 HD
ENDBRANCH  10  18
TORSDOF 3
