REMARK  8 active torsions:
REMARK  status: ('A' for Active; 'I' for Inactive)
REMARK    1  A    between atoms: C2_2  and  O1_3 
REMARK    2  A    between atoms: O1_3  and  C3_4 
REMARK    3  A    between atoms: C8_9  and  C9_10 
REMARK    4  A    between atoms: C9_10  and  O3_12 
REMARK       I    between atoms: N1_17  and  C13_19 
REMARK    5  A    between atoms: C16_24  and  C17_25 
REMARK    6  A    between atoms: C17_25  and  O6_26 
REMARK    7  A    between atoms: C21_31  and  O7_32 
REMARK    8  A    between atoms: C22_35  and  C23_36 
ROOT
HETATM    1  C3  UNL     1       2.672   0.318  -1.248  1.00  0.00     0.161 C 
HETATM    2  C4  UNL     1       2.038  -1.004  -1.159  1.00  0.00     0.040 C 
HETATM    3  C5  UNL     1       0.562  -1.135  -1.121  1.00  0.00    -0.007 C 
HETATM    4  C6  UNL     1      -0.263   0.012  -1.538  1.00  0.00     0.011 C 
HETATM    5  C7  UNL     1      -0.716   0.977  -0.503  1.00  0.00     0.012 C 
HETATM    6  C8  UNL     1      -1.853   1.775  -1.124  1.00  0.00     0.166 C 
HETATM    7  C11 UNL     1      -3.066   0.959  -1.332  1.00  0.00     0.185 C 
HETATM    8  O4  UNL     1      -3.573   0.908  -2.506  1.00  0.00    -0.290 OA
HETATM    9  C12 UNL     1      -3.833   0.157  -0.391  1.00  0.00     0.060 C 
HETATM   10  N1  UNL     1      -5.038  -0.163  -0.695  1.00  0.00    -0.311 N 
ATOM     11  H1  UNL     1      -5.397   0.166  -1.591  1.00  0.00     0.170 HD
HETATM   12  C13 UNL     1      -5.910  -0.933   0.107  1.00  0.00     0.333 C 
HETATM   13  N2  UNL     1      -6.379  -2.232  -0.238  1.00  0.00    -0.040 NA
HETATM   14  O5  UNL     1      -6.315  -0.446   1.218  1.00  0.00    -0.251 OA
HETATM   15  C14 UNL     1      -3.362  -0.333   0.911  1.00  0.00     0.066 C 
HETATM   16  C15 UNL     1      -1.917  -0.711   0.972  1.00  0.00     0.003 C 
HETATM   17  C16 UNL     1      -1.461  -1.850   0.147  1.00  0.00     0.018 C 
HETATM   18  C18 UNL     1       0.074  -1.772   0.128  1.00  0.00    -0.003 C 
HETATM   19  C19 UNL     1       0.554  -1.243   1.437  1.00  0.00     0.015 C 
HETATM   20  C20 UNL     1       0.181   0.183   1.711  1.00  0.00     0.046 C 
HETATM   21  C21 UNL     1       1.266   1.162   1.695  1.00  0.00     0.262 C 
HETATM   22  O8  UNL     1       2.202   1.425   0.791  1.00  0.00    -0.349 OA
HETATM   23  C22 UNL     1       3.197   0.894   0.053  1.00  0.00     0.176 C 
HETATM   24  C26 UNL     1      -1.001   0.507   0.837  1.00  0.00     0.004 C 
ENDROOT
BRANCH   6  25
HETATM   25  C9  UNL     1      -2.074   3.080  -0.510  1.00  0.00     0.270 C 
HETATM   26  O2  UNL     1      -1.314   3.496   0.387  1.00  0.00    -0.264 OA
BRANCH  25  27
HETATM   27  O3  UNL     1      -3.125   3.860  -0.921  1.00  0.00    -0.326 OA
HETATM   28  C10 UNL     1      -3.395   5.145  -0.364  1.00  0.00     0.213 C 
ENDBRANCH  25  27
ENDBRANCH   6  25
BRANCH  17  29
HETATM   29  C17 UNL     1      -1.850  -3.177   0.754  1.00  0.00     0.169 C 
BRANCH  29  30
HETATM   30  O6  UNL     1      -3.213  -3.332   0.888  1.00  0.00    -0.400 OA
ATOM     31  H6  UNL     1      -3.458  -4.167   1.270  1.00  0.00     0.209 HD
ENDBRANCH  29  30
ENDBRANCH  17  29
BRANCH  21  32
HETATM   32  O7  UNL     1       1.348   1.924   2.746  1.00  0.00    -0.371 OA
ATOM     33  H7  UNL     1       2.053   2.560   2.736  1.00  0.00     0.212 HD
ENDBRANCH  21  32
BRANCH   1  34
HETATM   34  O1  UNL     1       3.777   0.312  -2.139  1.00  0.00    -0.356 OA
BRANCH  34  35
HETATM   35  C2  UNL     1       4.868  -0.516  -1.940  1.00  0.00     0.125 C 
HETATM   36  C1  UNL     1       6.063  -0.221  -2.425  1.00  0.00     0.037 C 
ENDBRANCH  34  35
ENDBRANCH   1  34
BRANCH  23  37
HETATM   37  C23 UNL     1       4.192   0.065   0.744  1.00  0.00     0.003 C 
HETATM   38  C24 UNL     1       5.305   0.571   1.303  1.00  0.00    -0.032 C 
HETATM   39  C25 UNL     1       6.319  -0.220   1.999  1.00  0.00     0.036 C 
ENDBRANCH  23  37
TORSDOF 8
