REMARK  8 active torsions:
REMARK  status: ('A' for Active; 'I' for Inactive)
REMARK    1  A    between atoms: C9_9  and  O1_11 
REMARK    2  A    between atoms: O1_11  and  C11_12 
REMARK    3  A    between atoms: C11_12  and  C12_14 
REMARK    4  A    between atoms: C12_14  and  C13_15 
REMARK    5  A    between atoms: C13_15  and  C14_17 
REMARK    6  A    between atoms: C22_27  and  O5_28 
REMARK    7  A    between atoms: O5_28  and  C23_29 
REMARK       I    between atoms: C23_29  and  N2_31 
REMARK    8  A    between atoms: N2_31  and  C24_33 
ROOT
HETATM    1  C14 UNL     1       1.031  -1.183  -0.137  1.00  0.00     0.103 C 
HETATM    2  C15 UNL     1       2.286  -0.498  -0.695  1.00  0.00     0.057 C 
HETATM    3  C16 UNL     1       2.792  -1.421  -1.773  1.00  0.00     0.004 C 
HETATM    4  C17 UNL     1       3.044  -2.637  -1.320  1.00  0.00     0.024 C 
HETATM    5  N1  UNL     1       3.529  -3.614  -2.229  1.00  0.00    -0.107 NA
HETATM    6  C18 UNL     1       2.842  -3.013   0.070  1.00  0.00     0.097 C 
HETATM    7  C19 UNL     1       2.782  -1.870   1.060  1.00  0.00     0.126 A 
HETATM    8  O4  UNL     1       1.986  -2.085   2.070  1.00  0.00    -0.359 OA
HETATM    9  C20 UNL     1       1.384  -1.216   1.309  1.00  0.00     0.103 A 
HETATM   10  C21 UNL     1       1.425   0.211   1.887  1.00  0.00     0.050 C 
HETATM   11  C22 UNL     1       3.338  -0.666   0.419  1.00  0.00     0.180 C 
ENDROOT
BRANCH   1  12
HETATM   12  C13 UNL     1      -0.141  -0.246  -0.297  1.00  0.00     0.144 C 
HETATM   13  O3  UNL     1       0.012   0.837  -0.796  1.00  0.00    -0.297 OA
BRANCH  12  14
HETATM   14  C12 UNL     1      -1.470  -0.684   0.167  1.00  0.00     0.190 C 
BRANCH  14  15
HETATM   15  C11 UNL     1      -2.470   0.377  -0.084  1.00  0.00     0.266 C 
HETATM   16  O2  UNL     1      -2.212   1.465  -0.607  1.00  0.00    -0.265 OA
BRANCH  15  17
HETATM   17  O1  UNL     1      -3.770   0.109   0.298  1.00  0.00    -0.309 OA
BRANCH  17  18
HETATM   18  C9  UNL     1      -4.872   0.971   0.150  1.00  0.00     0.075 C 
HETATM   19  C8  UNL     1      -5.087   1.269  -1.290  1.00  0.00     0.039 C 
HETATM   20  C7  UNL     1      -6.411   2.039  -1.416  1.00  0.00     0.004 C 
HETATM   21  C6  UNL     1      -7.496   1.072  -1.039  1.00  0.00     0.010 C 
HETATM   22  C4  UNL     1      -7.378   0.778   0.438  1.00  0.00    -0.030 C 
HETATM   23  C3  UNL     1      -7.821  -0.674   0.673  1.00  0.00     0.043 C 
HETATM   24  C5  UNL     1      -8.080   1.774   1.302  1.00  0.00     0.016 C 
HETATM   25  C28 UNL     1      -6.030   0.324   0.852  1.00  0.00     0.057 C 
HETATM   26  C2  UNL     1      -6.387  -1.045   0.468  1.00  0.00    -0.081 C 
HETATM   27  C1  UNL     1      -5.726  -2.139   0.099  1.00  0.00     0.015 C 
HETATM   28  C10 UNL     1      -4.591   2.275   0.911  1.00  0.00     0.047 C 
ENDBRANCH  17  18
ENDBRANCH  15  17
ENDBRANCH  14  15
ENDBRANCH  12  14
ENDBRANCH   1  12
BRANCH  11  29
HETATM   29  O5  UNL     1       4.622  -0.904  -0.180  1.00  0.00    -0.295 OA
BRANCH  29  30
HETATM   30  C23 UNL     1       5.713  -0.077   0.054  1.00  0.00     0.361 C 
HETATM   31  O6  UNL     1       5.521   0.898   0.822  1.00  0.00    -0.238 OA
HETATM   32  N2  UNL     1       6.983  -0.272  -0.509  1.00  0.00    -0.329 N 
ATOM     33  H2  UNL     1       7.148  -1.061  -1.134  1.00  0.00     0.165 HD
BRANCH  32  34
HETATM   34  C24 UNL     1       8.058   0.644  -0.205  1.00  0.00     0.024 C 
HETATM   35  C25 UNL     1       7.760   2.061  -0.613  1.00  0.00     0.037 C 
HETATM   36  C26 UNL     1       8.234   0.654   1.319  1.00  0.00     0.037 C 
HETATM   37  C27 UNL     1       9.353   0.224  -0.864  1.00  0.00     0.037 C 
ENDBRANCH  32  34
ENDBRANCH  29  30
ENDBRANCH  11  29
TORSDOF 8
