REMARK  9 active torsions:
REMARK  status: ('A' for Active; 'I' for Inactive)
REMARK    1  A    between atoms: C2_2  and  O1_3 
REMARK    2  A    between atoms: O1_3  and  C3_4 
REMARK    3  A    between atoms: C3_4  and  C4_5 
REMARK    4  A    between atoms: C4_5  and  O2_6 
REMARK    5  A    between atoms: C4_5  and  C6_8 
REMARK    6  A    between atoms: C11_14  and  O4_15 
REMARK    7  A    between atoms: C15_21  and  O6_22 
REMARK    8  A    between atoms: C16_24  and  C17_25 
REMARK    9  A    between atoms: C17_25  and  O8_27 
ROOT
HETATM    1  C6  UNL     1       2.564  -0.094  -0.133  1.00  0.00     0.058 C 
HETATM    2  C7  UNL     1       3.374  -0.374  -1.364  1.00  0.00     0.159 A 
HETATM    3  O3  UNL     1       3.008  -1.382  -2.232  1.00  0.00    -0.374 OA
HETATM    4  C8  UNL     1       2.970  -0.097  -2.661  1.00  0.00     0.157 A 
HETATM    5  C9  UNL     1       1.819   0.784  -2.810  1.00  0.00     0.043 C 
HETATM    6  C10 UNL     1       1.651   1.046  -4.338  1.00  0.00     0.015 C 
HETATM    7  C11 UNL     1       0.471   0.297  -2.394  1.00  0.00     0.134 C 
HETATM    8  C12 UNL     1       0.203  -0.195  -1.075  1.00  0.00     0.007 A 
HETATM    9  C13 UNL     1      -0.278  -1.659  -1.052  1.00  0.00     0.099 C 
HETATM   10  C14 UNL     1      -1.519  -1.820  -0.256  1.00  0.00     0.179 C 
HETATM   11  O5  UNL     1      -1.585  -2.520   0.773  1.00  0.00    -0.291 OA
HETATM   12  C15 UNL     1      -2.846  -1.178  -0.571  1.00  0.00     0.103 C 
HETATM   13  C16 UNL     1      -3.429  -0.423   0.567  1.00  0.00     0.153 C 
HETATM   14  C19 UNL     1      -3.700   1.011   0.437  1.00  0.00    -0.029 C 
HETATM   15  C20 UNL     1      -4.052   1.527   1.845  1.00  0.00     0.016 C 
HETATM   16  C21 UNL     1      -4.957   1.311  -0.392  1.00  0.00     0.016 C 
HETATM   17  C22 UNL     1      -2.631   1.924  -0.070  1.00  0.00     0.011 C 
HETATM   18  C23 UNL     1      -1.503   2.245   0.800  1.00  0.00     0.010 C 
HETATM   19  C24 UNL     1      -0.225   1.555   0.794  1.00  0.00    -0.038 C 
HETATM   20  C25 UNL     1       0.332   1.728   2.242  1.00  0.00     0.015 C 
HETATM   21  C26 UNL     1       0.924   1.939  -0.080  1.00  0.00     0.021 C 
HETATM   22  C27 UNL     1       1.230   0.421  -0.229  1.00  0.00    -0.015 A 
HETATM   23  C28 UNL     1      -0.061   0.221   0.240  1.00  0.00     0.016 A 
ENDROOT
BRANCH   1  24
HETATM   24  C4  UNL     1       2.911  -1.199   0.840  1.00  0.00     0.152 C 
BRANCH  24  25
HETATM   25  C3  UNL     1       4.416  -1.197   1.200  1.00  0.00     0.199 C 
BRANCH  25  26
HETATM   26  O1  UNL     1       4.804  -0.097   1.893  1.00  0.00    -0.389 OA
BRANCH  26  27
HETATM   27  C2  UNL     1       6.168  -0.222   2.151  1.00  0.00     0.163 C 
HETATM   28  C1  UNL     1       6.999  -0.321   0.910  1.00  0.00     0.033 C 
ENDBRANCH  26  27
ENDBRANCH  25  26
ENDBRANCH  24  25
BRANCH  24  29
HETATM   29  O2  UNL     1       2.270  -1.213   2.034  1.00  0.00    -0.388 OA
HETATM   30  C5  UNL     1       1.814  -2.482   2.327  1.00  0.00     0.202 C 
ENDBRANCH  24  29
ENDBRANCH   1  24
BRANCH   7  31
HETATM   31  O4  UNL     1      -0.356   1.321  -2.927  1.00  0.00    -0.394 OA
ATOM     32  H4  UNL     1      -1.214   1.011  -2.662  1.00  0.00     0.210 HD
ENDBRANCH   7  31
BRANCH  12  33
HETATM   33  O6  UNL     1      -2.902  -0.604  -1.809  1.00  0.00    -0.360 OA
ATOM     34  H6  UNL     1      -3.738  -0.199  -2.008  1.00  0.00     0.217 HD
ENDBRANCH  12  33
BRANCH  13  35
HETATM   35  C17 UNL     1      -4.736  -1.047   1.021  1.00  0.00     0.269 C 
HETATM   36  O7  UNL     1      -4.949  -1.450   2.171  1.00  0.00    -0.264 OA
BRANCH  35  37
HETATM   37  O8  UNL     1      -5.799  -1.200   0.116  1.00  0.00    -0.326 OA
HETATM   38  C18 UNL     1      -7.031  -1.776   0.499  1.00  0.00     0.213 C 
ENDBRANCH  35  37
ENDBRANCH  13  35
TORSDOF 9
