REMARK  10 active torsions:
REMARK  status: ('A' for Active; 'I' for Inactive)
REMARK    1  A    between atoms: C4_4  and  C5_5 
REMARK    2  A    between atoms: C5_5  and  O2_7 
REMARK    3  A    between atoms: O2_7  and  C6_8 
REMARK    4  A    between atoms: C8_10  and  O3_11 
REMARK    5  A    between atoms: C11_16  and  C12_17 
REMARK    6  A    between atoms: C12_17  and  C13_18 
REMARK    7  A    between atoms: C18_23  and  O5_24 
REMARK    8  A    between atoms: C20_27  and  O6_29 
REMARK    9  A    between atoms: O6_29  and  C22_30 
REMARK   10  A    between atoms: N1_36  and  C27_37 
ROOT
HETATM    1  C1  UNL     1       9.268  -2.321  -1.275  1.00  0.00     0.017 C 
HETATM    2  C2  UNL     1       8.189  -2.001  -0.836  1.00  0.00    -0.089 C 
HETATM    3  C3  UNL     1       6.893  -1.621  -0.327  1.00  0.00     0.069 C 
HETATM    4  C4  UNL     1       6.566  -1.688   0.931  1.00  0.00     0.091 C 
ENDROOT
BRANCH   4   5
HETATM    5  C5  UNL     1       5.232  -1.280   1.344  1.00  0.00     0.283 C 
HETATM    6  O1  UNL     1       4.929  -1.352   2.579  1.00  0.00    -0.260 OA
BRANCH   5   7
HETATM    7  O2  UNL     1       4.286  -0.817   0.439  1.00  0.00    -0.307 OA
BRANCH   7   8
HETATM    8  C6  UNL     1       3.024  -0.439   0.887  1.00  0.00     0.205 C 
HETATM    9  C7  UNL     1       1.915  -1.027   0.041  1.00  0.00     0.290 C 
HETATM   10  C8  UNL     1       2.176   0.095  -0.932  1.00  0.00     0.191 C 
HETATM   11  N1  UNL     1       0.593  -0.797   0.601  1.00  0.00     0.126 N 
HETATM   12  C9  UNL     1       2.557   0.895   0.326  1.00  0.00     0.117 C 
HETATM   13  C10 UNL     1       3.597   1.906   0.047  1.00  0.00     0.052 C 
HETATM   14  O4  UNL     1       1.446   1.327   0.995  1.00  0.00    -0.341 OA
HETATM   15  C11 UNL     1       0.594   0.353   1.439  1.00  0.00     0.360 C 
BRANCH  10  16
HETATM   16  O3  UNL     1       3.331  -0.192  -1.659  1.00  0.00    -0.390 OA
ATOM     17  H3  UNL     1       3.495   0.515  -2.272  1.00  0.00     0.210 HD
ENDBRANCH  10  16
BRANCH  15  18
HETATM   18  C12 UNL     1      -0.751   0.980   1.697  1.00  0.00     0.070 C 
BRANCH  18  19
HETATM   19  C13 UNL     1      -1.385   1.644   0.574  1.00  0.00     0.008 C 
HETATM   20  C14 UNL     1      -1.769   0.972  -0.691  1.00  0.00     0.025 C 
HETATM   21  C15 UNL     1      -2.614   2.275  -0.891  1.00  0.00     0.020 C 
HETATM   22  C19 UNL     1      -2.843  -0.033  -0.680  1.00  0.00    -0.017 C 
HETATM   23  C16 UNL     1      -2.721   2.196   0.591  1.00  0.00    -0.021 A 
HETATM   24  C17 UNL     1      -3.622   1.181   1.199  1.00  0.00     0.037 A 
HETATM   25  C24 UNL     1      -3.790   2.605   1.343  1.00  0.00    -0.032 A 
HETATM   26  C18 UNL     1      -4.027   0.230   0.174  1.00  0.00     0.155 C 
HETATM   27  C25 UNL     1      -5.013   3.197   0.618  1.00  0.00     0.016 C 
HETATM   28  C26 UNL     1      -3.614   3.235   2.708  1.00  0.00     0.016 C 
HETATM   29  C20 UNL     1      -2.760  -1.132  -1.457  1.00  0.00     0.058 C 
HETATM   30  C21 UNL     1      -3.844  -2.134  -1.438  1.00  0.00     0.077 C 
BRANCH  26  31
HETATM   31  O5  UNL     1      -4.420  -0.987   0.788  1.00  0.00    -0.391 OA
ATOM     32  H5  UNL     1      -4.684  -1.608   0.119  1.00  0.00     0.210 HD
ENDBRANCH  26  31
BRANCH  29  33
HETATM   33  O6  UNL     1      -1.655  -1.316  -2.276  1.00  0.00    -0.284 OA
BRANCH  33  34
HETATM   34  C22 UNL     1      -1.552  -0.870  -3.574  1.00  0.00     0.259 C 
HETATM   35  C23 UNL     1      -0.352  -1.086  -4.422  1.00  0.00     0.126 C 
HETATM   36  O7  UNL     1      -2.533  -0.248  -4.052  1.00  0.00    -0.265 OA
ENDBRANCH  33  34
ENDBRANCH  29  33
ENDBRANCH  18  19
ENDBRANCH  15  18
BRANCH  11  37
HETATM   37  C27 UNL     1       0.187  -1.989   1.373  1.00  0.00     0.272 C 
HETATM   38  C28 UNL     1       0.005  -3.106   0.378  1.00  0.00     0.037 C 
ENDBRANCH  11  37
ENDBRANCH   7   8
ENDBRANCH   5   7
ENDBRANCH   4   5
TORSDOF 10
