REMARK  6 active torsions:
REMARK  status: ('A' for Active; 'I' for Inactive)
REMARK    1  A    between atoms: C3_3  and  C4_4 
REMARK    2  A    between atoms: C4_4  and  C5_5 
REMARK    3  A    between atoms: C5_5  and  N1_7 
REMARK    4  A    between atoms: C5_5  and  C7_11 
REMARK    5  A    between atoms: C7_11  and  N2_12 
REMARK    6  A    between atoms: C7_11  and  C8_16 
ROOT
HETATM    1  C1  UNL     1       3.906   0.227   2.285  1.00  0.00     0.012 C 
HETATM    2  C2  UNL     1       2.925   0.440   1.621  1.00  0.00    -0.117 C 
HETATM    3  C3  UNL     1       1.718   0.718   0.776  1.00  0.00     0.095 C 
ENDROOT
BRANCH   3   4
HETATM    4  C4  UNL     1       1.286  -0.603   0.206  1.00  0.00     0.052 C 
BRANCH   4   5
HETATM    5  C5  UNL     1       0.145  -0.636  -0.704  1.00  0.00     0.151 C 
HETATM    6  C6  UNL     1      -0.037  -2.125  -1.095  1.00  0.00     0.048 C 
BRANCH   5   7
HETATM    7  N1  UNL     1       0.605  -0.028  -1.985  1.00  0.00    -0.069 N 
ATOM      8  H13 UNL     1       1.002   0.904  -1.869  1.00  0.00     0.275 HD
ATOM      9  H12 UNL     1       1.439  -0.475  -2.367  1.00  0.00     0.275 HD
ATOM     10  H11 UNL     1      -0.192  -0.051  -2.621  1.00  0.00     0.275 HD
ENDBRANCH   5   7
BRANCH   5  11
HETATM   11  C7  UNL     1      -1.177  -0.119  -0.326  1.00  0.00     0.249 C 
BRANCH  11  12
HETATM   12  N2  UNL     1      -1.765  -0.753   0.856  1.00  0.00    -0.070 N 
ATOM     13  H23 UNL     1      -1.802  -1.765   0.734  1.00  0.00     0.274 HD
ATOM     14  H22 UNL     1      -1.122  -0.695   1.646  1.00  0.00     0.274 HD
ATOM     15  H21 UNL     1      -2.683  -0.394   1.118  1.00  0.00     0.274 HD
ENDBRANCH  11  12
BRANCH  11  16
HETATM   16  C8  UNL     1      -1.502   1.306  -0.498  1.00  0.00     0.178 A 
HETATM   17  C9  UNL     1      -2.550   1.880   0.464  1.00  0.00     0.202 A 
HETATM   18  O1  UNL     1      -1.258   2.330   0.355  1.00  0.00    -0.379 OA
ENDBRANCH  11  16
ENDBRANCH   5  11
ENDBRANCH   4   5
ENDBRANCH   3   4
TORSDOF 6
