REMARK  5 active torsions:
REMARK  status: ('A' for Active; 'I' for Inactive)
REMARK    1  A    between atoms: C2_2  and  C3_3 
REMARK    2  A    between atoms: C3_3  and  C4_4 
REMARK    3  A    between atoms: C4_4  and  N1_5 
REMARK    4  A    between atoms: N1_5  and  C5_7 
REMARK    5  A    between atoms: C8_11  and  N2_12 
ROOT
HETATM    1  C5  UNL     1      -0.046  -0.611  -0.069  1.00  0.00     0.102 C 
HETATM    2  C6  UNL     1      -1.084  -0.966  -1.103  1.00  0.00     0.192 C 
HETATM    3  O1  UNL     1      -2.178  -0.116  -1.067  1.00  0.00    -0.387 OA
HETATM    4  C7  UNL     1      -2.710   0.052   0.185  1.00  0.00     0.200 C 
HETATM    5  C8  UNL     1      -2.197  -1.008   1.152  1.00  0.00     0.209 C 
HETATM    6  C9  UNL     1      -0.700  -0.778   1.288  1.00  0.00     0.061 C 
ENDROOT
BRANCH   1   7
HETATM    7  N1  UNL     1       0.474   0.701  -0.169  1.00  0.00    -0.415 N 
ATOM      8  H1  UNL     1       0.344   1.375   0.585  1.00  0.00     0.153 HD
BRANCH   7   9
HETATM    9  C4  UNL     1       1.181   1.052  -1.346  1.00  0.00     0.118 C 
BRANCH   9  10
HETATM   10  C3  UNL     1       2.496   0.394  -1.566  1.00  0.00     0.045 C 
BRANCH  10  11
HETATM   11  C2  UNL     1       3.513   0.644  -0.543  1.00  0.00    -0.035 C 
HETATM   12  C1  UNL     1       3.398   1.411   0.523  1.00  0.00     0.007 C 
ENDBRANCH  10  11
ENDBRANCH   9  10
ENDBRANCH   7   9
ENDBRANCH   1   7
BRANCH   5  13
HETATM   13  N2  UNL     1      -2.828  -0.819   2.423  1.00  0.00    -0.073 N 
ATOM     14  H23 UNL     1      -2.705   0.128   2.782  1.00  0.00     0.274 HD
ATOM     15  H22 UNL     1      -3.846  -0.814   2.355  1.00  0.00     0.274 HD
ATOM     16  H21 UNL     1      -2.485  -1.529   3.070  1.00  0.00     0.274 HD
ENDBRANCH   5  13
TORSDOF 5
