REMARK  5 active torsions:
REMARK  status: ('A' for Active; 'I' for Inactive)
REMARK    1  A    between atoms: N1_2  and  C2_5 
REMARK    2  A    between atoms: C2_5  and  C3_6 
REMARK    3  A    between atoms: C2_5  and  C4_11 
REMARK    4  A    between atoms: C3_6  and  N2_7 
REMARK    5  A    between atoms: C4_11  and  C5_12 
ROOT
HETATM    1  C2  UNL     1      -1.010   0.566   0.414  1.00  0.00     0.215 C 
ENDROOT
BRANCH   1   2
HETATM    2  N1  UNL     1      -2.252   1.089  -0.147  1.00  0.00    -0.073 N 
HETATM    3  C1  UNL     1      -2.082   2.349  -0.802  1.00  0.00     0.267 C 
ATOM      4  H12 UNL     1      -2.979   1.145   0.566  1.00  0.00     0.277 HD
ATOM      5  H11 UNL     1      -2.684   0.409  -0.772  1.00  0.00     0.277 HD
ENDBRANCH   1   2
BRANCH   1   6
HETATM    6  C3  UNL     1      -1.398  -0.751   1.054  1.00  0.00     0.262 C 
BRANCH   6   7
HETATM    7  N2  UNL     1      -1.956  -1.609   0.033  1.00  0.00    -0.077 N 
ATOM      8  H23 UNL     1      -2.731  -1.172  -0.465  1.00  0.00     0.274 HD
ATOM      9  H22 UNL     1      -1.329  -1.730  -0.763  1.00  0.00     0.274 HD
ATOM     10  H21 UNL     1      -2.217  -2.496   0.464  1.00  0.00     0.274 HD
ENDBRANCH   6   7
ENDBRANCH   1   6
BRANCH   1  11
HETATM   11  C4  UNL     1       0.058   0.359  -0.594  1.00  0.00     0.074 C 
BRANCH  11  12
HETATM   12  C5  UNL     1       1.328  -0.146  -0.106  1.00  0.00    -0.041 A 
HETATM   13  C6  UNL     1       1.631  -1.483  -0.066  1.00  0.00     0.010 A 
HETATM   14  C7  UNL     1       2.870  -1.919   0.421  1.00  0.00     0.018 A 
HETATM   15  C8  UNL     1       3.801  -1.011   0.866  1.00  0.00     0.087 A 
HETATM   16  N3  UNL     1       3.488   0.295   0.819  1.00  0.00    -0.375 N 
HETATM   17  C9  UNL     1       2.300   0.732   0.353  1.00  0.00     0.094 A 
ATOM     18  H3  UNL     1       4.171   0.978   1.146  1.00  0.00     0.164 HD
ENDBRANCH  11  12
ENDBRANCH   1  11
TORSDOF 5
