REMARK  13 active torsions:
REMARK  status: ('A' for Active; 'I' for Inactive)
REMARK    1  A    between atoms: C2_2  and  N1_3 
REMARK    2  A    between atoms: N1_3  and  C3_4 
REMARK    3  A    between atoms: N1_3  and  C21_45 
REMARK    4  A    between atoms: C3_4  and  C4_5 
REMARK    5  A    between atoms: C7_8  and  N2_9 
REMARK    6  A    between atoms: C10_18  and  C11_19 
REMARK    7  A    between atoms: C11_19  and  N5_20 
REMARK    8  A    between atoms: C12_23  and  C13_24 
REMARK    9  A    between atoms: C17_33  and  N9_34 
REMARK   10  A    between atoms: C19_39  and  N10_40 
REMARK   11  A    between atoms: C23_49  and  N12_50 
REMARK   12  A    between atoms: N12_50  and  C24_52 
REMARK   13  A    between atoms: C27_55  and  C28_56 
ROOT
HETATM    1  C4  UNL     1      -1.371   1.590  -0.240  1.00  0.00    -0.024 C 
HETATM    2  C5  UNL     1      -1.620   0.607   0.679  1.00  0.00     0.021 C 
HETATM    3  C6  UNL     1      -2.291  -0.630   0.846  1.00  0.00    -0.011 C 
HETATM    4  C7  UNL     1      -2.145  -1.821   0.184  1.00  0.00     0.121 C 
HETATM    5  N3  UNL     1      -3.111  -2.057  -0.819  1.00  0.00    -0.176 N 
ATOM      6  H3  UNL     1      -3.375  -2.972  -1.183  1.00  0.00     0.186 HD
HETATM    7  C8  UNL     1      -3.635  -0.858  -1.223  1.00  0.00     0.689 A 
HETATM    8  N4  UNL     1      -2.855   0.077  -1.521  1.00  0.00    -0.174 N 
ATOM      9  H4  UNL     1      -1.845   0.179  -1.621  1.00  0.00     0.186 HD
HETATM   10  C9  UNL     1      -3.944   0.906  -1.655  1.00  0.00     0.159 A 
HETATM   11  C10 UNL     1      -3.196   1.986  -1.976  1.00  0.00     0.086 C 
HETATM   12  C12 UNL     1      -2.058   2.407  -1.160  1.00  0.00     0.039 C 
HETATM   13  N8  UNL     1      -4.659  -0.160  -1.340  1.00  0.00    -0.164 N 
HETATM   14  C16 UNL     1      -6.024  -0.810  -1.055  1.00  0.00     0.182 C 
HETATM   15  C17 UNL     1      -5.953  -1.745   0.068  1.00  0.00     0.204 C 
HETATM   16  C18 UNL     1      -5.718  -1.260   1.455  1.00  0.00     0.067 C 
HETATM   17  C19 UNL     1      -4.357  -1.635   2.037  1.00  0.00     0.190 C 
HETATM   18  C20 UNL     1      -3.330  -0.609   1.999  1.00  0.00     0.075 C 
ENDROOT
BRANCH   1  19
HETATM   19  C3  UNL     1       0.130   2.066  -0.082  1.00  0.00     0.180 C 
BRANCH  19  20
HETATM   20  N1  UNL     1       1.033   1.034  -0.060  1.00  0.00    -0.214 N 
BRANCH  20  21
HETATM   21  C2  UNL     1       1.206   0.635  -1.638  1.00  0.00     0.137 C 
HETATM   22  C1  UNL     1       2.034   1.796  -2.103  1.00  0.00     0.027 C 
ENDBRANCH  20  21
BRANCH  20  23
HETATM   23  C21 UNL     1       1.889   0.184   0.608  1.00  0.00     0.682 A 
HETATM   24  N11 UNL     1       3.271   0.341   0.545  1.00  0.00    -0.186 N 
HETATM   25  C22 UNL     1       3.874  -0.708   1.105  1.00  0.00     0.121 A 
ATOM     26  H11 UNL     1       3.751   1.140   0.132  1.00  0.00     0.184 HD
HETATM   27  C23 UNL     1       5.181  -1.090   1.255  1.00  0.00     0.076 A 
HETATM   28  C30 UNL     1       2.859  -1.567   1.540  1.00  0.00     0.150 A 
HETATM   29  C27 UNL     1       5.466  -2.342   1.848  1.00  0.00     0.073 A 
HETATM   30  C29 UNL     1       4.448  -3.137   2.254  1.00  0.00     0.108 A 
HETATM   31  N14 UNL     1       3.139  -2.752   2.099  1.00  0.00    -0.349 N 
ATOM     32  H14 UNL     1       2.384  -3.365   2.408  1.00  0.00     0.167 HD
HETATM   33  N15 UNL     1       1.689  -0.978   1.219  1.00  0.00    -0.174 N 
ATOM     34  H15 UNL     1       0.770  -1.373   1.419  1.00  0.00     0.186 HD
BRANCH  27  35
HETATM   35  N12 UNL     1       6.171  -0.501   0.757  1.00  0.00    -0.383 N 
ATOM     36  H12 UNL     1       7.059  -0.938   1.003  1.00  0.00     0.160 HD
BRANCH  35  37
HETATM   37  C24 UNL     1       6.324   0.625  -0.063  1.00  0.00     0.082 A 
HETATM   38  C25 UNL     1       7.563   0.566  -0.969  1.00  0.00     0.027 A 
HETATM   39  C26 UNL     1       7.414   1.630   0.059  1.00  0.00     0.027 A 
ENDBRANCH  35  37
ENDBRANCH  27  35
BRANCH  29  40
HETATM   40  C28 UNL     1       6.840  -2.668   2.061  1.00  0.00     0.268 C 
HETATM   41  N13 UNL     1       7.428  -3.783   1.417  1.00  0.00    -0.057 NA
HETATM   42  O1  UNL     1       7.628  -2.009   2.808  1.00  0.00    -0.271 OA
ENDBRANCH  29  40
ENDBRANCH  20  23
ENDBRANCH  19  20
ENDBRANCH   1  19
BRANCH  12  43
HETATM   43  C13 UNL     1      -1.618   3.806  -1.370  1.00  0.00     0.117 A 
HETATM   44  N6  UNL     1      -1.316   4.282  -2.624  1.00  0.00    -0.350 N 
HETATM   45  C14 UNL     1      -0.821   5.495  -2.569  1.00  0.00     0.106 A 
ATOM     46  H6  UNL     1      -1.459   3.758  -3.487  1.00  0.00     0.166 HD
HETATM   47  C15 UNL     1      -0.799   5.845  -1.228  1.00  0.00     0.106 A 
HETATM   48  N7  UNL     1      -1.300   4.776  -0.539  1.00  0.00    -0.350 N 
ATOM     49  H7  UNL     1      -1.411   4.736   0.474  1.00  0.00     0.166 HD
ENDBRANCH  12  43
BRANCH  11  50
HETATM   50  C11 UNL     1      -3.470   2.865  -3.122  1.00  0.00    -0.032 C 
BRANCH  50  51
HETATM   51  N5  UNL     1      -3.715   3.565  -4.077  1.00  0.00    -0.365 N 
ATOM     52  H52 UNL     1      -4.092   2.631  -3.916  1.00  0.00     0.165 HD
ATOM     53  H51 UNL     1      -3.905   4.175  -4.872  1.00  0.00     0.165 HD
ENDBRANCH  50  51
ENDBRANCH  11  50
BRANCH   4  54
HETATM   54  N2  UNL     1      -1.280  -2.846   0.296  1.00  0.00    -0.385 N 
ATOM     55  H22 UNL     1      -0.582  -2.676   1.020  1.00  0.00     0.157 HD
ATOM     56  H21 UNL     1      -1.171  -3.732  -0.197  1.00  0.00     0.157 HD
ENDBRANCH   4  54
BRANCH  17  57
HETATM   57  N10 UNL     1      -4.516  -2.198   3.370  1.00  0.00    -0.075 N 
ATOM     58 3H10 UNL     1      -5.035  -1.574   3.987  1.00  0.00     0.274 HD
ATOM     59 2H10 UNL     1      -5.163  -2.987   3.375  1.00  0.00     0.274 HD
ATOM     60 1H10 UNL     1      -3.607  -2.448   3.759  1.00  0.00     0.274 HD
ENDBRANCH  17  57
BRANCH  15  61
HETATM   61  N9  UNL     1      -7.277  -2.469  -0.039  1.00  0.00    -0.073 N 
ATOM     62  H93 UNL     1      -8.099  -1.866  -0.047  1.00  0.00     0.274 HD
ATOM     63  H92 UNL     1      -7.463  -2.897  -0.946  1.00  0.00     0.274 HD
ATOM     64  H91 UNL     1      -7.227  -3.121   0.744  1.00  0.00     0.274 HD
ENDBRANCH  15  61
TORSDOF 13
