REMARK  16 active torsions:
REMARK  status: ('A' for Active; 'I' for Inactive)
REMARK    1  A    between atoms: C2_2  and  C3_3 
REMARK    2  A    between atoms: C2_2  and  C4_6 
REMARK    3  A    between atoms: C3_3  and  O1_4 
REMARK    4  A    between atoms: C4_6  and  O2_7 
REMARK    5  A    between atoms: C4_6  and  C5_9 
REMARK    6  A    between atoms: C5_9  and  C6_10 
REMARK    7  A    between atoms: C7_11  and  C8_12 
REMARK    8  A    between atoms: C8_12  and  O3_13 
REMARK    9  A    between atoms: C8_12  and  C9_15 
REMARK   10  A    between atoms: C9_15  and  O4_16 
REMARK   11  A    between atoms: C10_18  and  O5_19 
REMARK   12  A    between atoms: O5_19  and  C11_20 
REMARK   13  A    between atoms: C14_23  and  O6_24 
REMARK   14  A    between atoms: C23_34  and  O7_35 
REMARK   15  A    between atoms: C25_39  and  O9_41 
REMARK   16  A    between atoms: C27_43  and  O10_44 
ROOT
HETATM    1  C9  UNL     1       0.523   0.098  -0.237  1.00  0.00     0.121 C 
HETATM    2  C10 UNL     1      -0.830  -0.561  -0.103  1.00  0.00     0.191 C 
HETATM    3  C23 UNL     1      -0.457  -1.948   0.421  1.00  0.00     0.185 C 
HETATM    4  C24 UNL     1       0.830  -2.318  -0.264  1.00  0.00     0.106 C 
HETATM    5  O8  UNL     1       0.597  -2.969  -1.449  1.00  0.00    -0.338 OA
HETATM    6  C25 UNL     1       1.213  -4.187  -1.453  1.00  0.00     0.198 C 
HETATM    7  C26 UNL     1       0.277  -5.362  -1.363  1.00  0.00     0.082 C 
HETATM    8  C27 UNL     1       2.207  -4.239  -0.339  1.00  0.00     0.180 C 
HETATM    9  C28 UNL     1       2.160  -5.492   0.448  1.00  0.00     0.167 C 
HETATM   10  O11 UNL     1       2.491  -6.581   0.038  1.00  0.00    -0.294 OA
HETATM   11  C29 UNL     1       1.649  -5.235   1.818  1.00  0.00     0.082 C 
HETATM   12  C30 UNL     1       1.028  -3.834   1.731  1.00  0.00     0.019 C 
HETATM   13  C31 UNL     1       1.728  -3.169   0.588  1.00  0.00     0.071 C 
HETATM   14  C32 UNL     1       1.521  -0.985  -0.459  1.00  0.00     0.059 C 
HETATM   15  C33 UNL     1       2.122  -0.866  -1.842  1.00  0.00     0.016 C 
ENDROOT
BRANCH   1  16
HETATM   16  C8  UNL     1       0.859   0.927   0.986  1.00  0.00     0.178 C 
BRANCH  16  17
HETATM   17  C7  UNL     1       2.133   1.647   0.783  1.00  0.00     0.004 C 
HETATM   18  C6  UNL     1       3.213   1.362   1.492  1.00  0.00    -0.025 C 
BRANCH  18  19
HETATM   19  C5  UNL     1       4.496   2.082   1.293  1.00  0.00     0.063 C 
BRANCH  19  20
HETATM   20  C4  UNL     1       5.623   1.156   0.883  1.00  0.00     0.151 C 
BRANCH  20  21
HETATM   21  C2  UNL     1       6.845   1.971   0.713  1.00  0.00    -0.037 C 
HETATM   22  C1  UNL     1       7.911   1.723   1.448  1.00  0.00     0.019 C 
BRANCH  21  23
HETATM   23  C3  UNL     1       6.874   3.063  -0.277  1.00  0.00     0.200 C 
BRANCH  23  24
HETATM   24  O1  UNL     1       8.112   3.712  -0.285  1.00  0.00    -0.397 OA
ATOM     25  H1  UNL     1       8.131   4.416  -0.923  1.00  0.00     0.209 HD
ENDBRANCH  23  24
ENDBRANCH  21  23
ENDBRANCH  20  21
BRANCH  20  26
HETATM   26  O2  UNL     1       5.337   0.568  -0.362  1.00  0.00    -0.391 OA
ATOM     27  H2  UNL     1       4.552   0.044  -0.253  1.00  0.00     0.210 HD
ENDBRANCH  20  26
ENDBRANCH  19  20
ENDBRANCH  18  19
ENDBRANCH  16  17
BRANCH  16  28
HETATM   28  O3  UNL     1       0.932   0.178   2.143  1.00  0.00    -0.389 OA
ATOM     29  H3  UNL     1       0.113  -0.285   2.274  1.00  0.00     0.210 HD
ENDBRANCH  16  28
ENDBRANCH   1  16
BRANCH   1  30
HETATM   30  O4  UNL     1       0.481   0.955  -1.331  1.00  0.00    -0.384 OA
ATOM     31  H4  UNL     1       0.270   0.435  -2.098  1.00  0.00     0.210 HD
ENDBRANCH   1  30
BRANCH   2  32
HETATM   32  O5  UNL     1      -1.672   0.123   0.735  1.00  0.00    -0.374 OA
BRANCH  32  33
HETATM   33  C11 UNL     1      -2.890   0.475   0.105  1.00  0.00     0.127 C 
HETATM   34  C12 UNL     1      -3.976  -0.249   0.803  1.00  0.00     0.035 C 
HETATM   35  C13 UNL     1      -5.329   0.320   0.705  1.00  0.00     0.041 C 
HETATM   36  C14 UNL     1      -5.399   1.764   0.285  1.00  0.00     0.068 C 
HETATM   37  C15 UNL     1      -5.593   1.859  -1.185  1.00  0.00     0.017 C 
HETATM   38  C20 UNL     1      -4.216   2.481   0.828  1.00  0.00    -0.010 C 
HETATM   39  C16 UNL     1      -6.538   2.989  -1.593  1.00  0.00     0.013 C 
HETATM   40  C17 UNL     1      -4.356   1.919  -2.003  1.00  0.00     0.008 C 
HETATM   41  C18 UNL     1      -3.143   2.433  -1.331  1.00  0.00     0.008 C 
HETATM   42  C19 UNL     1      -2.994   1.958   0.100  1.00  0.00     0.025 C 
HETATM   43  C21 UNL     1      -4.256   3.975   0.652  1.00  0.00     0.018 C 
HETATM   44  C22 UNL     1      -4.074   2.201   2.298  1.00  0.00     0.018 C 
BRANCH  36  45
HETATM   45  O6  UNL     1      -6.542   2.306   0.904  1.00  0.00    -0.389 OA
ATOM     46  H6  UNL     1      -6.586   3.217   0.639  1.00  0.00     0.210 HD
ENDBRANCH  36  45
ENDBRANCH  32  33
ENDBRANCH   2  32
BRANCH   3  47
HETATM   47  O7  UNL     1      -1.485  -2.800  -0.006  1.00  0.00    -0.390 OA
ATOM     48  H7  UNL     1      -1.253  -3.662   0.320  1.00  0.00     0.210 HD
ENDBRANCH   3  47
BRANCH   6  49
HETATM   49  O9  UNL     1       1.921  -4.332  -2.668  1.00  0.00    -0.363 OA
ATOM     50  H9  UNL     1       2.350  -5.180  -2.671  1.00  0.00     0.213 HD
ENDBRANCH   6  49
BRANCH   8  51
HETATM   51  O10 UNL     1       3.519  -4.026  -0.749  1.00  0.00    -0.376 OA
ATOM     52  H10 UNL     1       4.151  -4.059  -0.041  1.00  0.00     0.211 HD
ENDBRANCH   8  51
TORSDOF 16
