REMARK  12 active torsions:
REMARK  status: ('A' for Active; 'I' for Inactive)
REMARK    1  A    between atoms: C3_3  and  C4_4 
REMARK       I    between atoms: C4_4  and  N1_6 
REMARK    2  A    between atoms: N1_6  and  N2_8 
REMARK    3  A    between atoms: C14_21  and  C15_22 
REMARK       I    between atoms: C15_22  and  N4_24 
REMARK    4  A    between atoms: N4_24  and  C16_26 
REMARK    5  A    between atoms: C16_26  and  C17_27 
REMARK    6  A    between atoms: C17_27  and  O3_28 
REMARK    7  A    between atoms: C17_27  and  N5_30 
REMARK    8  A    between atoms: N5_30  and  O4_32 
REMARK    9  A    between atoms: N9_46  and  C21_47 
REMARK   10  A    between atoms: C21_47  and  O7_48 
REMARK   11  A    between atoms: O7_48  and  C22_49 
REMARK   12  A    between atoms: C22_49  and  C23_51 
ROOT
HETATM    1  N2  UNL     1      -0.935  -0.006  -1.610  1.00  0.00    -0.286 N 
ATOM      2  H2  UNL     1      -0.790   0.547  -2.455  1.00  0.00     0.188 HD
HETATM    3  C5  UNL     1       0.028  -0.653  -1.044  1.00  0.00     0.106 C 
HETATM    4  C6  UNL     1       1.372  -0.516  -1.740  1.00  0.00     0.078 C 
HETATM    5  C7  UNL     1       2.174   0.556  -1.040  1.00  0.00     0.007 C 
HETATM    6  C8  UNL     1       3.093   1.207  -2.044  1.00  0.00     0.001 C 
HETATM    7  C9  UNL     1       3.992   0.207  -2.695  1.00  0.00     0.005 C 
HETATM    8  C10 UNL     1       5.267   0.067  -1.901  1.00  0.00     0.041 C 
HETATM    9  C11 UNL     1       5.240  -0.920  -0.769  1.00  0.00    -0.024 A 
HETATM   10  C12 UNL     1       4.735  -2.205  -0.734  1.00  0.00     0.034 A 
HETATM   11  C13 UNL     1       4.860  -2.604   0.573  1.00  0.00     0.011 A 
HETATM   12  N3  UNL     1       5.427  -1.615   1.320  1.00  0.00    -0.355 N 
ATOM     13  H3  UNL     1       5.628  -1.667   2.319  1.00  0.00     0.166 HD
HETATM   14  C14 UNL     1       5.681  -0.551   0.519  1.00  0.00     0.107 A 
HETATM   15  C18 UNL     1       4.411  -3.901   1.228  1.00  0.00     0.077 C 
HETATM   16  C19 UNL     1       2.899  -4.012   1.237  1.00  0.00     0.139 C 
HETATM   17  N6  UNL     1       2.327  -2.778   0.657  1.00  0.00    -0.302 N 
ATOM     18  H6  UNL     1       2.862  -1.938   0.436  1.00  0.00     0.173 HD
HETATM   19  S1  UNL     1       0.656  -2.954   0.409  1.00  0.00     0.320 S 
HETATM   20  O5  UNL     1       0.411  -3.863  -0.778  1.00  0.00    -0.182 OA
HETATM   21  O6  UNL     1      -0.017  -3.626   1.594  1.00  0.00    -0.182 OA
HETATM   22  N7  UNL     1      -0.089  -1.430   0.116  1.00  0.00    -0.256 N 
ATOM     23  H7  UNL     1      -0.675  -1.055   0.862  1.00  0.00     0.181 HD
ENDROOT
BRANCH   1  24
HETATM   24  N1  UNL     1      -2.224  -0.111  -0.980  1.00  0.00    -0.263 N 
HETATM   25  C4  UNL     1      -2.549   0.880  -0.066  1.00  0.00     0.288 C 
HETATM   26  O1  UNL     1      -1.673   1.796   0.146  1.00  0.00    -0.264 OA
ATOM     27  H1  UNL     1      -2.865  -0.875  -1.194  1.00  0.00     0.190 HD
BRANCH  25  28
HETATM   28  C3  UNL     1      -3.798   0.959   0.663  1.00  0.00     0.126 A 
HETATM   29  C2  UNL     1      -4.913   0.174   0.622  1.00  0.00     0.043 A 
HETATM   30  C1  UNL     1      -5.167  -1.035  -0.210  1.00  0.00     0.071 C 
HETATM   31  N9  UNL     1      -5.807   0.675   1.494  1.00  0.00    -0.322 N 
HETATM   32  C20 UNL     1      -5.271   1.749   2.072  1.00  0.00     0.185 A 
HETATM   33  N8  UNL     1      -4.055   1.956   1.598  1.00  0.00    -0.346 N 
ATOM     34  H8  UNL     1      -3.422   2.708   1.868  1.00  0.00     0.167 HD
BRANCH  31  35
HETATM   35  C21 UNL     1      -7.148   0.162   1.772  1.00  0.00     0.310 C 
BRANCH  35  36
HETATM   36  O7  UNL     1      -8.083   0.766   0.914  1.00  0.00    -0.301 OA
BRANCH  36  37
HETATM   37  C22 UNL     1      -9.410   0.442   0.989  1.00  0.00     0.263 C 
HETATM   38  O8  UNL     1      -9.770  -0.397   1.834  1.00  0.00    -0.265 OA
BRANCH  37  39
HETATM   39  C23 UNL     1     -10.388   1.096   0.059  1.00  0.00     0.077 C 
HETATM   40  C24 UNL     1     -10.283   2.591   0.286  1.00  0.00     0.020 C 
HETATM   41  C25 UNL     1     -11.765   0.588   0.431  1.00  0.00     0.020 C 
ENDBRANCH  37  39
ENDBRANCH  36  37
ENDBRANCH  35  36
ENDBRANCH  31  35
ENDBRANCH  25  28
ENDBRANCH   1  24
BRANCH  14  42
HETATM   42  C15 UNL     1       6.380   0.652   0.978  1.00  0.00     0.269 C 
HETATM   43  O2  UNL     1       6.214   1.098   2.147  1.00  0.00    -0.266 OA
HETATM   44  N4  UNL     1       7.287   1.369   0.126  1.00  0.00    -0.348 N 
ATOM     45  H4  UNL     1       7.461   1.037  -0.823  1.00  0.00     0.163 HD
BRANCH  44  46
HETATM   46  C16 UNL     1       7.951   2.553   0.603  1.00  0.00     0.208 C 
BRANCH  46  47
HETATM   47  C17 UNL     1       8.855   3.177  -0.370  1.00  0.00     0.153 C 
BRANCH  47  48
HETATM   48  O3  UNL     1       9.349   4.483   0.053  1.00  0.00    -0.347 OA
ATOM     49  H3  UNL     1       9.934   4.887  -0.577  1.00  0.00     0.219 HD
ENDBRANCH  47  48
BRANCH  47  50
HETATM   50  N5  UNL     1       9.285   2.822  -1.476  1.00  0.00    -0.250 N 
ATOM     51  H5  UNL     1       9.908   3.514  -1.892  1.00  0.00     0.196 HD
BRANCH  50  52
HETATM   52  O4  UNL     1       9.127   1.756  -2.246  1.00  0.00    -0.288 OA
ATOM     53  H4  UNL     1       9.457   1.484  -3.094  1.00  0.00     0.244 HD
ENDBRANCH  50  52
ENDBRANCH  47  50
ENDBRANCH  46  47
ENDBRANCH  44  46
ENDBRANCH  14  42
TORSDOF 12
