REMARK  16 active torsions:
REMARK  status: ('A' for Active; 'I' for Inactive)
REMARK    1  A    between atoms: C2_2  and  O2_4 
REMARK    2  A    between atoms: O2_4  and  C3_5 
REMARK    3  A    between atoms: C3_5  and  C4_6 
REMARK    4  A    between atoms: C3_5  and  C9_12 
REMARK    5  A    between atoms: C4_6  and  C5_7 
REMARK    6  A    between atoms: C6_8  and  C8_10 
REMARK    7  A    between atoms: C9_12  and  O4_14 
REMARK    8  A    between atoms: C9_12  and  C11_16 
REMARK    9  A    between atoms: C13_18  and  O5_19 
REMARK   10  A    between atoms: O5_19  and  C14_20 
REMARK   11  A    between atoms: C22_28  and  O6_29 
REMARK   12  A    between atoms: C25_33  and  O7_34 
REMARK   13  A    between atoms: C26_36  and  O8_37 
REMARK   14  A    between atoms: C28_40  and  O9_41 
REMARK   15  A    between atoms: C29_43  and  O10_45 
REMARK   16  A    between atoms: C31_47  and  O11_48 
ROOT
HETATM    1  C11 UNL     1       0.657   0.034   0.790  1.00  0.00     0.048 C 
HETATM    2  C12 UNL     1      -0.025   0.617   2.061  1.00  0.00     0.024 C 
HETATM    3  C13 UNL     1       0.473   1.143  -0.227  1.00  0.00     0.143 C 
HETATM    4  C19 UNL     1      -1.029   1.102  -0.543  1.00  0.00     0.048 C 
HETATM    5  C20 UNL     1      -1.232  -0.344  -0.697  1.00  0.00     0.022 C 
HETATM    6  C21 UNL     1      -0.733  -0.643  -2.134  1.00  0.00     0.022 C 
HETATM    7  C22 UNL     1      -2.538  -0.934  -0.538  1.00  0.00     0.083 C 
HETATM    8  C23 UNL     1      -2.424  -2.004   0.539  1.00  0.00     0.059 C 
HETATM    9  C24 UNL     1      -1.173  -1.645   1.323  1.00  0.00     0.050 C 
HETATM   10  C25 UNL     1      -0.246  -1.014   0.291  1.00  0.00     0.081 C 
HETATM   11  C26 UNL     1      -3.642  -1.416   1.264  1.00  0.00     0.076 C 
HETATM   12  C27 UNL     1      -4.776  -2.342   1.260  1.00  0.00     0.073 C 
HETATM   13  C28 UNL     1      -5.642  -2.384   0.058  1.00  0.00     0.157 C 
HETATM   14  C29 UNL     1      -5.974  -0.998  -0.369  1.00  0.00     0.106 C 
HETATM   15  C30 UNL     1      -7.036  -0.478   0.613  1.00  0.00     0.051 C 
HETATM   16  C31 UNL     1      -4.872  -0.036  -0.454  1.00  0.00     0.164 C 
HETATM   17  C32 UNL     1      -3.622  -0.316   0.276  1.00  0.00     0.088 C 
ENDROOT
BRANCH   1  18
HETATM   18  C9  UNL     1       2.042  -0.162   1.159  1.00  0.00     0.093 C 
HETATM   19  C10 UNL     1       2.106  -1.202   2.337  1.00  0.00     0.049 C 
BRANCH  18  20
HETATM   20  C3  UNL     1       3.140  -0.566   0.306  1.00  0.00     0.170 C 
BRANCH  20  21
HETATM   21  O2  UNL     1       3.040  -1.723  -0.415  1.00  0.00    -0.313 OA
BRANCH  21  22
HETATM   22  C2  UNL     1       3.431  -1.888  -1.749  1.00  0.00     0.255 C 
HETATM   23  C1  UNL     1       3.258  -3.194  -2.381  1.00  0.00     0.126 C 
HETATM   24  O1  UNL     1       3.911  -0.926  -2.355  1.00  0.00    -0.266 OA
ENDBRANCH  21  22
ENDBRANCH  20  21
BRANCH  20  25
HETATM   25  C4  UNL     1       4.406  -0.732   1.208  1.00  0.00     0.063 C 
BRANCH  25  26
HETATM   26  C5  UNL     1       5.601  -0.922   0.413  1.00  0.00    -0.014 C 
HETATM   27  C6  UNL     1       6.630  -0.161   0.348  1.00  0.00    -0.028 C 
HETATM   28  C7  UNL     1       7.768  -0.598  -0.577  1.00  0.00     0.051 C 
BRANCH  27  29
HETATM   29  C8  UNL     1       6.844   1.064   1.026  1.00  0.00     0.265 C 
HETATM   30  O3  UNL     1       6.061   1.609   1.798  1.00  0.00    -0.302 OA
ENDBRANCH  27  29
ENDBRANCH  25  26
ENDBRANCH  20  25
ENDBRANCH  18  20
BRANCH  18  31
HETATM   31  O4  UNL     1       2.429   1.034   1.825  1.00  0.00    -0.387 OA
ATOM     32  H4  UNL     1       1.709   1.299   2.385  1.00  0.00     0.210 HD
ENDBRANCH  18  31
ENDBRANCH   1  18
BRANCH   3  33
HETATM   33  O5  UNL     1       0.788   2.396   0.295  1.00  0.00    -0.349 OA
BRANCH  33  34
HETATM   34  C14 UNL     1       0.699   3.584  -0.370  1.00  0.00     0.044 C 
HETATM   35  C15 UNL     1      -0.578   4.386  -0.357  1.00  0.00     0.076 C 
HETATM   36  C16 UNL     1       1.711   4.066  -1.035  1.00  0.00    -0.059 C 
HETATM   37  C17 UNL     1       1.579   5.359  -1.745  1.00  0.00     0.045 C 
HETATM   38  C18 UNL     1       3.005   3.353  -1.104  1.00  0.00     0.045 C 
ENDBRANCH  33  34
ENDBRANCH   3  33
BRANCH  10  39
HETATM   39  O7  UNL     1       0.242  -2.079  -0.396  1.00  0.00    -0.388 OA
ATOM     40  H7  UNL     1      -0.341  -2.756  -0.718  1.00  0.00     0.210 HD
ENDBRANCH  10  39
BRANCH   7  41
HETATM   41  O6  UNL     1      -3.097  -1.432  -1.740  1.00  0.00    -0.388 OA
ATOM     42  H6  UNL     1      -3.957  -1.821  -1.635  1.00  0.00     0.210 HD
ENDBRANCH   7  41
BRANCH  11  43
HETATM   43  O8  UNL     1      -3.351  -1.034   2.597  1.00  0.00    -0.389 OA
ATOM     44  H8  UNL     1      -4.105  -0.670   3.046  1.00  0.00     0.210 HD
ENDBRANCH  11  43
BRANCH  16  45
HETATM   45  O11 UNL     1      -5.388   1.240  -0.111  1.00  0.00    -0.392 OA
ATOM     46  H11 UNL     1      -4.674   1.864  -0.166  1.00  0.00     0.210 HD
ENDBRANCH  16  45
BRANCH  14  47
HETATM   47  O10 UNL     1      -6.660  -1.099  -1.604  1.00  0.00    -0.385 OA
ATOM     48  H10 UNL     1      -6.872  -0.214  -1.877  1.00  0.00     0.210 HD
ENDBRANCH  14  47
BRANCH  13  49
HETATM   49  O9  UNL     1      -6.862  -2.983   0.466  1.00  0.00    -0.392 OA
ATOM     50  H9  UNL     1      -7.417  -3.010  -0.304  1.00  0.00     0.210 HD
ENDBRANCH  13  49
TORSDOF 16
