REMARK  17 active torsions:
REMARK  status: ('A' for Active; 'I' for Inactive)
REMARK    1  A    between atoms: C2_2  and  O2_4 
REMARK    2  A    between atoms: O2_4  and  C3_5 
REMARK    3  A    between atoms: C3_5  and  C4_6 
REMARK    4  A    between atoms: C3_5  and  C25_34 
REMARK    5  A    between atoms: C5_7  and  O3_8 
REMARK    6  A    between atoms: C11_15  and  C12_16 
REMARK    7  A    between atoms: C20_27  and  C21_28 
REMARK    8  A    between atoms: C24_31  and  O7_32 
REMARK    9  A    between atoms: C25_34  and  O8_36 
REMARK   10  A    between atoms: C25_34  and  C27_38 
REMARK   11  A    between atoms: C27_38  and  O9_39 
REMARK   12  A    between atoms: C27_38  and  C28_41 
REMARK   13  A    between atoms: C28_41  and  O10_42 
REMARK   14  A    between atoms: C28_41  and  C29_44 
REMARK   15  A    between atoms: C29_44  and  O11_45 
REMARK   16  A    between atoms: C29_44  and  C30_47 
REMARK   17  A    between atoms: C30_47  and  O12_49 
ROOT
HETATM    1  C4  UNL     1       0.659  -0.139  -1.367  1.00  0.00     0.052 C 
HETATM    2  C5  UNL     1      -0.355  -1.120  -2.001  1.00  0.00     0.126 C 
HETATM    3  C6  UNL     1      -1.613  -0.246  -2.067  1.00  0.00     0.044 C 
HETATM    4  C7  UNL     1      -1.522   0.833  -1.143  1.00  0.00    -0.004 C 
HETATM    5  C8  UNL     1      -1.129   2.094  -1.958  1.00  0.00     0.019 C 
HETATM    6  C9  UNL     1      -0.197   0.536  -0.390  1.00  0.00     0.007 C 
HETATM    7  C10 UNL     1      -0.710  -0.278   0.746  1.00  0.00     0.029 C 
HETATM    8  C11 UNL     1      -1.793   0.651   1.276  1.00  0.00     0.082 C 
HETATM    9  C13 UNL     1      -2.928  -0.091   1.969  1.00  0.00     0.030 C 
HETATM   10  C14 UNL     1      -3.647  -0.488   0.799  1.00  0.00     0.014 C 
HETATM   11  C15 UNL     1      -4.746  -1.400   0.638  1.00  0.00    -0.036 C 
HETATM   12  C16 UNL     1      -4.239  -2.862   0.423  1.00  0.00     0.015 C 
HETATM   13  C17 UNL     1      -5.774  -1.569   1.676  1.00  0.00     0.015 C 
HETATM   14  C18 UNL     1      -5.243  -0.984  -0.738  1.00  0.00     0.088 C 
HETATM   15  C19 UNL     1      -4.548   0.287  -1.105  1.00  0.00     0.140 C 
HETATM   16  O6  UNL     1      -4.696   0.702  -2.269  1.00  0.00    -0.297 OA
HETATM   17  C20 UNL     1      -3.813   0.795   0.027  1.00  0.00     0.061 C 
HETATM   18  C24 UNL     1      -2.391   1.197  -0.039  1.00  0.00     0.098 C 
ENDROOT
BRANCH   1  19
HETATM   19  C3  UNL     1       1.856  -0.868  -0.858  1.00  0.00     0.175 C 
BRANCH  19  20
HETATM   20  O2  UNL     1       1.551  -1.839   0.111  1.00  0.00    -0.313 OA
BRANCH  20  21
HETATM   21  C2  UNL     1       1.603  -3.197  -0.015  1.00  0.00     0.255 C 
HETATM   22  C1  UNL     1       1.249  -4.076   1.108  1.00  0.00     0.126 C 
HETATM   23  O1  UNL     1       1.966  -3.596  -1.133  1.00  0.00    -0.266 OA
ENDBRANCH  20  21
ENDBRANCH  19  20
BRANCH  19  24
HETATM   24  C25 UNL     1       3.065  -0.029  -0.534  1.00  0.00     0.109 C 
HETATM   25  C26 UNL     1       3.296   1.055  -1.555  1.00  0.00     0.051 C 
BRANCH  24  26
HETATM   26  O8  UNL     1       2.888   0.651   0.706  1.00  0.00    -0.385 OA
ATOM     27  H8  UNL     1       3.650   1.180   0.910  1.00  0.00     0.210 HD
ENDBRANCH  24  26
BRANCH  24  28
HETATM   28  C27 UNL     1       4.307  -0.826  -0.355  1.00  0.00     0.186 C 
BRANCH  28  29
HETATM   29  O9  UNL     1       4.123  -1.733   0.763  1.00  0.00    -0.390 OA
ATOM     30  H9  UNL     1       4.917  -2.242   0.877  1.00  0.00     0.210 HD
ENDBRANCH  28  29
BRANCH  28  31
HETATM   31  C28 UNL     1       5.572  -0.190   0.030  1.00  0.00     0.181 C 
BRANCH  31  32
HETATM   32  O10 UNL     1       6.460  -1.341   0.180  1.00  0.00    -0.390 OA
ATOM     33  H10 UNL     1       7.279  -0.929   0.429  1.00  0.00     0.210 HD
ENDBRANCH  31  32
BRANCH  31  34
HETATM   34  C29 UNL     1       6.338   0.658  -0.905  1.00  0.00     0.177 C 
BRANCH  34  35
HETATM   35  O11 UNL     1       6.579   0.047  -2.159  1.00  0.00    -0.390 OA
ATOM     36  H11 UNL     1       7.072   0.593  -2.761  1.00  0.00     0.210 HD
ENDBRANCH  34  35
BRANCH  34  37
HETATM   37  C30 UNL     1       7.782   0.669  -0.296  1.00  0.00     0.145 C 
HETATM   38  C31 UNL     1       7.775   1.395   1.026  1.00  0.00     0.042 C 
BRANCH  37  39
HETATM   39  O12 UNL     1       8.552   1.431  -1.188  1.00  0.00    -0.393 OA
ATOM     40  H12 UNL     1       9.427   1.438  -0.819  1.00  0.00     0.210 HD
ENDBRANCH  37  39
ENDBRANCH  34  37
ENDBRANCH  31  34
ENDBRANCH  28  31
ENDBRANCH  24  28
ENDBRANCH  19  24
ENDBRANCH   1  19
BRANCH   2  41
HETATM   41  O3  UNL     1       0.047  -1.511  -3.271  1.00  0.00    -0.395 OA
ATOM     42  H3  UNL     1      -0.576  -2.114  -3.660  1.00  0.00     0.210 HD
ENDBRANCH   2  41
BRANCH  18  43
HETATM   43  O7  UNL     1      -2.233   2.577   0.156  1.00  0.00    -0.386 OA
ATOM     44  H7  UNL     1      -2.802   2.815   0.879  1.00  0.00     0.210 HD
ENDBRANCH  18  43
BRANCH   8  45
HETATM   45  C12 UNL     1      -1.229   1.620   2.188  1.00  0.00     0.185 C 
HETATM   46  O4  UNL     1       0.040   1.581   2.409  1.00  0.00    -0.647 OA
HETATM   47  O5  UNL     1      -1.841   2.620   2.893  1.00  0.00    -0.647 OA
ENDBRANCH   8  45
BRANCH  17  48
HETATM   48  C21 UNL     1      -4.592   1.898   0.609  1.00  0.00    -0.003 C 
HETATM   49  C22 UNL     1      -6.022   1.683   0.981  1.00  0.00     0.011 C 
HETATM   50  C23 UNL     1      -4.645   3.034  -0.402  1.00  0.00     0.011 C 
ENDBRANCH  17  48
TORSDOF 17
