REMARK  0 active torsions:
REMARK  status: ('A' for Active; 'I' for Inactive)
ROOT
HETATM    1  C1  UNL     1      -1.904   0.075   0.092  1.00  0.00     0.185 C 
HETATM    2  N1  UNL     1      -0.438   0.159   0.035  1.00  0.00    -0.269 N 
HETATM    3  C2  UNL     1       0.404  -0.873  -0.153  1.00  0.00     0.118 A 
HETATM    4  C3  UNL     1       1.704  -0.411  -0.147  1.00  0.00     0.046 A 
HETATM    5  C4  UNL     1       1.576   0.947   0.054  1.00  0.00     0.169 A 
HETATM    6  O1  UNL     1       0.299   1.217   0.153  1.00  0.00    -0.249 OA
ENDROOT
TORSDOF 0
