REMARK  1 active torsions:
REMARK  status: ('A' for Active; 'I' for Inactive)
REMARK    1  A    between atoms: C2_4  and  N2_6 
ROOT
HETATM    1  C1  UNL     1       2.260  -0.510   0.358  1.00  0.00     0.147 C 
HETATM    2  N1  UNL     1       0.861  -0.727   0.526  1.00  0.00    -0.385 N 
ATOM      3  H1  UNL     1       0.567  -1.634   0.888  1.00  0.00     0.160 HD
HETATM    4  C2  UNL     1      -0.056   0.127   0.258  1.00  0.00     0.068 C 
HETATM    5  C3  UNL     1       0.367   1.448  -0.268  1.00  0.00     0.088 C 
ENDROOT
BRANCH   4   6
HETATM    6  N2  UNL     1      -1.440  -0.105   0.430  1.00  0.00    -0.385 N 
HETATM    7  C4  UNL     1      -2.193  -1.028  -0.420  1.00  0.00     0.147 C 
ATOM      8  H2  UNL     1      -1.932   0.389   1.174  1.00  0.00     0.160 HD
ENDBRANCH   4   6
TORSDOF 1
