REMARK  1 active torsions:
REMARK  status: ('A' for Active; 'I' for Inactive)
REMARK    1  A    between atoms: N1_1  and  C1_5 
ROOT
HETATM    1  C1  UNL     1      -0.942   0.089  -0.623  1.00  0.00     0.200 A 
HETATM    2  C2  UNL     1       0.357  -0.556  -0.710  1.00  0.00     0.048 A 
HETATM    3  C3  UNL     1       1.364  -0.754   0.238  1.00  0.00    -0.023 A 
HETATM    4  C4  UNL     1       1.248   0.379   0.765  1.00  0.00    -0.023 A 
HETATM    5  C5  UNL     1       0.211   0.793  -0.091  1.00  0.00     0.048 A 
ENDROOT
BRANCH   1   6
HETATM    6  N1  UNL     1      -1.936  -0.339   0.378  1.00  0.00    -0.074 N 
ATOM      7  H13 UNL     1      -2.087  -1.342   0.266  1.00  0.00     0.274 HD
ATOM      8  H12 UNL     1      -1.498  -0.295   1.298  1.00  0.00     0.274 HD
ATOM      9  H11 UNL     1      -2.848   0.114   0.439  1.00  0.00     0.274 HD
ENDBRANCH   1   6
TORSDOF 1
