REMARK  1 active torsions:
REMARK  status: ('A' for Active; 'I' for Inactive)
REMARK    1  A    between atoms: C2_2  and  C3_3 
ROOT
HETATM    1  C3  UNL     1       0.813   0.302   0.412  1.00  0.00     0.090 C 
HETATM    2  N1  UNL     1       2.094  -0.265   0.540  1.00  0.00    -0.095 NA
HETATM    3  S1  UNL     1       0.660   1.918   0.240  1.00  0.00    -0.069 SA
ENDROOT
BRANCH   1   4
HETATM    4  C2  UNL     1      -0.422  -0.537   0.430  1.00  0.00     0.062 C 
HETATM    5  C1  UNL     1      -1.644   0.314   0.276  1.00  0.00     0.012 C 
ENDBRANCH   1   4
TORSDOF 1
