REMARK  1 active torsions:
REMARK  status: ('A' for Active; 'I' for Inactive)
REMARK    1  A    between atoms: C1_2  and  C2_4 
ROOT
HETATM    1  C2  UNL     1       0.571  -0.338  -0.140  1.00  0.00     0.040 A 
HETATM    2  C3  UNL     1      -0.154   0.741  -0.599  1.00  0.00     0.021 A 
HETATM    3  C4  UNL     1      -1.521   0.868  -0.502  1.00  0.00     0.002 A 
HETATM    4  C5  UNL     1      -2.394  -0.032   0.056  1.00  0.00     0.007 A 
HETATM    5  C6  UNL     1      -2.019  -1.228   0.616  1.00  0.00     0.050 A 
HETATM    6  S2  UNL     1      -0.361  -1.575   0.595  1.00  0.00    -0.099 SA
ENDROOT
BRANCH   1   7
HETATM    7  C1  UNL     1       2.019  -0.355  -0.302  1.00  0.00     0.130 C 
HETATM    8  N1  UNL     1       2.808   0.288   0.683  1.00  0.00    -0.088 NA
HETATM    9  S1  UNL     1       2.681  -1.104  -1.592  1.00  0.00    -0.062 SA
ENDBRANCH   1   7
TORSDOF 1
