REMARK  2 active torsions:
REMARK  status: ('A' for Active; 'I' for Inactive)
REMARK    1  A    between atoms: N1_1  and  C1_5 
REMARK    2  A    between atoms: N2_8  and  C4_9 
ROOT
HETATM    1  C1  UNL     1      -2.137  -0.593  -0.639  1.00  0.00     0.213 C 
HETATM    2  C2  UNL     1      -1.973  -0.269   0.854  1.00  0.00     0.065 C 
HETATM    3  C3  UNL     1      -0.885   0.796   0.754  1.00  0.00     0.275 C 
HETATM    4  N2  UNL     1       0.049   0.220  -0.123  1.00  0.00     0.095 N 
HETATM    5  C8  UNL     1      -0.688  -0.572  -1.081  1.00  0.00     0.305 C 
ENDROOT
BRANCH   1   6
HETATM    6  N1  UNL     1      -2.842   0.463  -1.331  1.00  0.00    -0.073 N 
ATOM      7  H13 UNL     1      -3.740   0.665  -0.891  1.00  0.00     0.274 HD
ATOM      8  H12 UNL     1      -2.392   1.368  -1.191  1.00  0.00     0.274 HD
ATOM      9  H11 UNL     1      -2.951   0.248  -2.322  1.00  0.00     0.274 HD
ENDBRANCH   1   6
BRANCH   4  10
HETATM   10  C4  UNL     1       1.103  -0.554   0.447  1.00  0.00     0.223 C 
HETATM   11  C5  UNL     1       2.067   0.147   1.360  1.00  0.00     0.036 C 
HETATM   12  C6  UNL     1       2.603   0.801   0.077  1.00  0.00     0.004 C 
HETATM   13  C7  UNL     1       2.264  -0.553  -0.569  1.00  0.00     0.036 C 
ENDBRANCH   4  10
TORSDOF 2
