REMARK  3 active torsions:
REMARK  status: ('A' for Active; 'I' for Inactive)
REMARK    1  A    between atoms: O1_1  and  S1_3 
REMARK    2  A    between atoms: S1_3  and  C1_4 
REMARK    3  A    between atoms: C5_8  and  O2_9 
ROOT
HETATM    1  C1  UNL     1       0.822  -0.204   1.043  1.00  0.00     0.078 C 
HETATM    2  C2  UNL     1       0.933   1.097   0.326  1.00  0.00     0.017 C 
HETATM    3  C3  UNL     1      -0.290   1.575  -0.366  1.00  0.00     0.004 C 
HETATM    4  C4  UNL     1      -1.195   0.554  -0.937  1.00  0.00     0.032 C 
HETATM    5  C5  UNL     1      -1.018  -0.859  -0.555  1.00  0.00     0.119 C 
HETATM    6  C6  UNL     1       0.228  -1.247   0.150  1.00  0.00     0.049 C 
ENDROOT
BRANCH   1   7
HETATM    7  S1  UNL     1       2.546  -0.740   1.347  1.00  0.00    -0.011 SA
BRANCH   7   8
HETATM    8  O1  UNL     1       3.137  -1.332  -0.163  1.00  0.00    -0.329 OA
ATOM      9  H1  UNL     1       4.032  -1.610  -0.005  1.00  0.00     0.227 HD
ENDBRANCH   7   8
ENDBRANCH   1   7
BRANCH   5  10
HETATM   10  O2  UNL     1      -2.131  -1.368   0.140  1.00  0.00    -0.396 OA
ATOM     11  H2  UNL     1      -2.017  -2.278   0.386  1.00  0.00     0.210 HD
ENDBRANCH   5  10
TORSDOF 3
