REMARK  3 active torsions:
REMARK  status: ('A' for Active; 'I' for Inactive)
REMARK    1  A    between atoms: O1_1  and  C1_3 
REMARK    2  A    between atoms: C4_6  and  C5_7 
REMARK    3  A    between atoms: N1_9  and  C8_11 
ROOT
HETATM    1  C1  UNL     1       1.621  -0.446  -0.014  1.00  0.00     0.174 A 
HETATM    2  C2  UNL     1       1.771   0.833  -0.706  1.00  0.00     0.003 A 
HETATM    3  C3  UNL     1       0.732   1.622  -0.475  1.00  0.00    -0.021 A 
HETATM    4  C4  UNL     1      -0.263   1.001   0.396  1.00  0.00     0.051 A 
HETATM    5  C8  UNL     1       0.341  -0.350   0.736  1.00  0.00     0.263 A 
ENDROOT
BRANCH   1   6
HETATM    6  O1  UNL     1       2.677  -0.709   0.876  1.00  0.00    -0.390 OA
ATOM      7  H1  UNL     1       2.580  -1.540   1.326  1.00  0.00     0.210 HD
ENDBRANCH   1   6
BRANCH   5   8
HETATM    8  N1  UNL     1      -0.705  -1.244   0.211  1.00  0.00     0.097 N 
HETATM    9  C6  UNL     1      -1.073  -0.625  -1.078  1.00  0.00     0.280 C 
HETATM   10  C5  UNL     1      -1.521   0.537  -0.265  1.00  0.00     0.052 C 
HETATM   11  C7  UNL     1      -1.926  -0.577   0.712  1.00  0.00     0.280 C 
ENDBRANCH   5   8
TORSDOF 3
