REMARK  2 active torsions:
REMARK  status: ('A' for Active; 'I' for Inactive)
REMARK    1  A    between atoms: N1_2  and  C3_4 
REMARK    2  A    between atoms: C6_7  and  O1_8 
ROOT
HETATM    1  C3  UNL     1       0.340   0.040   0.628  1.00  0.00     0.276 A 
HETATM    2  C4  UNL     1       0.828   1.213  -0.091  1.00  0.00     0.010 A 
HETATM    3  C5  UNL     1       1.930   0.617  -0.428  1.00  0.00     0.005 A 
HETATM    4  C6  UNL     1       1.564  -0.615   0.251  1.00  0.00     0.177 A 
ENDROOT
BRANCH   1   5
HETATM    5  N1  UNL     1      -0.928  -0.429   0.135  1.00  0.00     0.090 N 
HETATM    6  C1  UNL     1      -0.979  -0.870  -1.203  1.00  0.00     0.310 C 
HETATM    7  C2  UNL     1      -1.979   0.512   0.451  1.00  0.00     0.310 C 
ENDBRANCH   1   5
BRANCH   4   8
HETATM    8  O1  UNL     1       2.407  -0.888   1.340  1.00  0.00    -0.389 OA
ATOM      9  H1  UNL     1       3.215  -1.321   1.091  1.00  0.00     0.210 HD
ENDBRANCH   4   8
TORSDOF 2
