REMARK  2 active torsions:
REMARK  status: ('A' for Active; 'I' for Inactive)
REMARK    1  A    between atoms: C4_5  and  N2_6 
REMARK    2  A    between atoms: N3_9  and  O1_10 
ROOT
HETATM    1  C1  UNL     1      -2.447   0.030  -0.141  1.00  0.00     0.156 C 
HETATM    2  N1  UNL     1      -0.991   0.042  -0.047  1.00  0.00    -0.355 N 
HETATM    3  C2  UNL     1      -0.260  -1.008  -0.464  1.00  0.00     0.095 A 
HETATM    4  C3  UNL     1       1.122  -1.039  -0.394  1.00  0.00     0.067 A 
HETATM    5  C4  UNL     1       1.792   0.044   0.124  1.00  0.00     0.129 A 
HETATM    6  N3  UNL     1       1.049   1.086   0.538  1.00  0.00    -0.204 N 
HETATM    7  C5  UNL     1      -0.307   1.084   0.454  1.00  0.00     0.217 A 
ENDROOT
BRANCH   5   8
HETATM    8  N2  UNL     1       3.078   0.068   0.213  1.00  0.00    -0.384 N 
ATOM      9  H22 UNL     1       3.641  -0.722  -0.101  1.00  0.00     0.157 HD
ATOM     10  H21 UNL     1       3.575   0.871   0.597  1.00  0.00     0.157 HD
ENDBRANCH   5   8
BRANCH   6  11
HETATM   11  O1  UNL     1       1.740   2.171   1.057  1.00  0.00    -0.280 OA
ATOM     12  H1  UNL     1       1.215   2.907   1.349  1.00  0.00     0.245 HD
ENDBRANCH   6  11
TORSDOF 2
