REMARK  1 active torsions:
REMARK  status: ('A' for Active; 'I' for Inactive)
REMARK    1  A    between atoms: C2_3  and  N2_4 
ROOT
HETATM    1  N1  UNL     1      -1.642   1.914   1.195  1.00  0.00    -0.193 NA
HETATM    2  C1  UNL     1      -1.040   1.124   0.567  1.00  0.00     0.115 C 
HETATM    3  C2  UNL     1      -0.308   0.153  -0.232  1.00  0.00     0.280 A 
HETATM    4  C3  UNL     1       0.906  -0.292   0.507  1.00  0.00     0.045 A 
HETATM    5  C4  UNL     1       1.829   0.149  -0.341  1.00  0.00     0.049 A 
HETATM    6  S1  UNL     1       0.704   0.848  -1.543  1.00  0.00    -0.084 SA
ENDROOT
BRANCH   3   7
HETATM    7  N2  UNL     1      -1.131  -0.963  -0.665  1.00  0.00    -0.044 N 
ATOM      8  H23 UNL     1      -1.582  -1.413   0.132  1.00  0.00     0.277 HD
ATOM      9  H22 UNL     1      -1.959  -0.634  -1.161  1.00  0.00     0.277 HD
ATOM     10  H21 UNL     1      -0.618  -1.644  -1.225  1.00  0.00     0.277 HD
ENDBRANCH   3   7
TORSDOF 1
