REMARK  4 active torsions:
REMARK  status: ('A' for Active; 'I' for Inactive)
REMARK    1  A    between atoms: C2_2  and  O1_4 
REMARK    2  A    between atoms: C2_2  and  N1_6 
REMARK    3  A    between atoms: N1_6  and  O2_7 
REMARK    4  A    between atoms: N1_6  and  O3_9 
ROOT
HETATM    1  C1  UNL     1       1.462   0.283   0.012  1.00  0.00     0.068 C 
HETATM    2  C2  UNL     1       0.055  -0.125  -0.312  1.00  0.00     0.155 C 
HETATM    3  C3  UNL     1      -0.255  -1.416   0.405  1.00  0.00     0.068 C 
ENDROOT
BRANCH   2   4
HETATM    4  O1  UNL     1      -0.024  -0.328  -1.685  1.00  0.00    -0.372 OA
ATOM      5  H1  UNL     1      -0.915  -0.586  -1.890  1.00  0.00     0.212 HD
ENDBRANCH   2   4
BRANCH   2   6
HETATM    6  N1  UNL     1      -0.934   0.843   0.073  1.00  0.00    -0.038 NA
BRANCH   6   7
HETATM    7  O2  UNL     1      -1.915   0.847  -0.869  1.00  0.00    -0.286 OA
ATOM      8  H2  UNL     1      -2.569   1.487  -0.614  1.00  0.00     0.239 HD
ENDBRANCH   6   7
BRANCH   6   9
HETATM    9  O3  UNL     1      -0.468   2.093   0.170  1.00  0.00    -0.286 OA
ATOM     10  H3  UNL     1      -1.122   2.733   0.425  1.00  0.00     0.239 HD
ENDBRANCH   6   9
ENDBRANCH   2   6
TORSDOF 4
