REMARK  2 active torsions:
REMARK  status: ('A' for Active; 'I' for Inactive)
REMARK    1  A    between atoms: C3_3  and  N1_4 
REMARK    2  A    between atoms: C3_3  and  O1_8 
ROOT
HETATM    1  C1  UNL     1       2.296  -1.000  -0.023  1.00  0.00     0.018 C 
HETATM    2  C2  UNL     1       1.130  -0.673  -0.040  1.00  0.00    -0.036 C 
HETATM    3  C3  UNL     1      -0.286  -0.297  -0.071  1.00  0.00     0.351 C 
HETATM    4  C4  UNL     1      -0.475   1.106  -0.444  1.00  0.00    -0.036 C 
HETATM    5  C5  UNL     1      -0.626   2.276  -0.748  1.00  0.00     0.018 C 
ENDROOT
BRANCH   3   6
HETATM    6  N1  UNL     1      -0.843  -0.481   1.238  1.00  0.00    -0.023 N 
ATOM      7  H13 UNL     1      -0.699  -1.426   1.593  1.00  0.00     0.280 HD
ATOM      8  H12 UNL     1      -0.322   0.022   1.957  1.00  0.00     0.280 HD
ATOM      9  H11 UNL     1      -1.829  -0.219   1.216  1.00  0.00     0.280 HD
ENDBRANCH   3   6
BRANCH   3  10
HETATM   10  O1  UNL     1      -0.919  -1.099  -0.979  1.00  0.00    -0.346 OA
ATOM     11  H1  UNL     1      -1.837  -0.855  -0.999  1.00  0.00     0.214 HD
ENDBRANCH   3  10
TORSDOF 2
