REMARK  2 active torsions:
REMARK  status: ('A' for Active; 'I' for Inactive)
REMARK    1  A    between atoms: C4_4  and  N1_5 
REMARK    2  A    between atoms: C5_9  and  O1_10 
ROOT
HETATM    1  C1  UNL     1       2.850   0.503   0.130  1.00  0.00     0.012 C 
HETATM    2  C2  UNL     1       1.718   0.188  -0.149  1.00  0.00    -0.108 C 
HETATM    3  C3  UNL     1       0.354  -0.205  -0.502  1.00  0.00     0.128 A 
HETATM    4  C4  UNL     1      -0.521  -0.571   0.642  1.00  0.00     0.231 A 
HETATM    5  C5  UNL     1      -0.760   0.716  -0.034  1.00  0.00     0.167 A 
ENDROOT
BRANCH   4   6
HETATM    6  N1  UNL     1      -1.490  -1.607   0.409  1.00  0.00    -0.071 N 
ATOM      7  H13 UNL     1      -2.065  -1.362  -0.397  1.00  0.00     0.274 HD
ATOM      8  H12 UNL     1      -1.021  -2.441   0.057  1.00  0.00     0.274 HD
ATOM      9  H11 UNL     1      -2.091  -1.858   1.194  1.00  0.00     0.274 HD
ENDBRANCH   4   6
BRANCH   5  10
HETATM   10  O1  UNL     1      -0.419   1.888   0.640  1.00  0.00    -0.392 OA
ATOM     11  H1  UNL     1      -1.116   2.464   0.933  1.00  0.00     0.210 HD
ENDBRANCH   5  10
TORSDOF 2
