REMARK  3 active torsions:
REMARK  status: ('A' for Active; 'I' for Inactive)
REMARK    1  A    between atoms: N1_2  and  C2_4 
REMARK    2  A    between atoms: C2_4  and  N2_6 
REMARK    3  A    between atoms: N2_6  and  N3_8 
ROOT
HETATM    1  C2  UNL     1      -0.339   0.783  -0.009  1.00  0.00     0.185 C 
HETATM    2  S1  UNL     1       0.131   2.322  -0.158  1.00  0.00    -0.040 SA
ENDROOT
BRANCH   1   3
HETATM    3  N1  UNL     1       0.620  -0.240  -0.007  1.00  0.00    -0.370 N 
HETATM    4  C1  UNL     1       2.045  -0.010  -0.133  1.00  0.00     0.148 C 
ATOM      5  H1  UNL     1       0.295  -1.202   0.089  1.00  0.00     0.161 HD
ENDBRANCH   1   3
BRANCH   1   6
HETATM    6  N2  UNL     1      -1.703   0.493   0.117  1.00  0.00    -0.283 N 
ATOM      7  H2  UNL     1      -2.390   1.247   0.114  1.00  0.00     0.188 HD
BRANCH   6   8
HETATM    8  N3  UNL     1      -2.119  -0.842   0.247  1.00  0.00    -0.343 N 
ATOM      9  H32 UNL     1      -1.419  -1.584   0.248  1.00  0.00     0.176 HD
ATOM     10  H31 UNL     1      -3.113  -1.053   0.339  1.00  0.00     0.176 HD
ENDBRANCH   6   8
ENDBRANCH   1   6
TORSDOF 3
