REMARK  2 active torsions:
REMARK  status: ('A' for Active; 'I' for Inactive)
REMARK    1  A    between atoms: C2_2  and  O1_3 
REMARK    2  A    between atoms: O1_3  and  C3_4 
ROOT
HETATM    1  C3  UNL     1       1.111  -0.586  -0.032  1.00  0.00     0.240 C 
HETATM    2  N1  UNL     1       1.446  -2.015  -0.101  1.00  0.00    -0.056 NA
HETATM    3  N2  UNL     1       1.612   0.209  -0.840  1.00  0.00    -0.262 N 
ATOM      4  H2  UNL     1       2.237  -0.250  -1.503  1.00  0.00     0.181 HD
HETATM    5  C4  UNL     1       1.526   1.535  -1.049  1.00  0.00     0.184 C 
HETATM    6  N3  UNL     1       1.480   2.674  -1.250  1.00  0.00    -0.172 NA
ENDROOT
BRANCH   1   7
HETATM    7  O1  UNL     1       0.249  -0.194   0.939  1.00  0.00    -0.324 OA
BRANCH   7   8
HETATM    8  C2  UNL     1      -0.822   0.694   0.846  1.00  0.00     0.174 C 
HETATM    9  C1  UNL     1      -1.800   0.140  -0.191  1.00  0.00     0.034 C 
ENDBRANCH   7   8
ENDBRANCH   1   7
TORSDOF 2
