REMARK  1 active torsions:
REMARK  status: ('A' for Active; 'I' for Inactive)
REMARK    1  A    between atoms: C5_5  and  O1_6 
ROOT
HETATM    1  C1  UNL     1      -2.297  -0.029   0.784  1.00  0.00     0.047 C 
HETATM    2  C2  UNL     1      -0.987  -0.340   0.135  1.00  0.00     0.179 C 
HETATM    3  C3  UNL     1      -0.301   0.933  -0.203  1.00  0.00     0.008 C 
HETATM    4  C4  UNL     1       1.014   0.889  -0.354  1.00  0.00     0.034 C 
HETATM    5  C5  UNL     1       1.711  -0.408  -0.180  1.00  0.00     0.317 C 
HETATM    6  O2  UNL     1       0.893  -1.431   0.222  1.00  0.00    -0.203 OA
HETATM    7  O3  UNL     1      -0.126  -1.067   0.948  1.00  0.00    -0.229 OA
ENDROOT
BRANCH   5   8
HETATM    8  O1  UNL     1       2.780  -0.181   0.703  1.00  0.00    -0.365 OA
ATOM      9  H1  UNL     1       3.227  -1.012   0.814  1.00  0.00     0.213 HD
ENDBRANCH   5   8
TORSDOF 1
