REMARK  2 active torsions:
REMARK  status: ('A' for Active; 'I' for Inactive)
REMARK    1  A    between atoms: N1_2  and  C2_4 
REMARK    2  A    between atoms: C2_4  and  O1_6 
ROOT
HETATM    1  C2  UNL     1       0.155  -0.294  -0.577  1.00  0.00     0.209 C 
HETATM    2  S1  UNL     1       0.129  -1.859  -0.984  1.00  0.00    -0.033 SA
ENDROOT
BRANCH   1   3
HETATM    3  N1  UNL     1      -0.954   0.375   0.010  1.00  0.00    -0.366 N 
HETATM    4  C1  UNL     1      -2.175  -0.406   0.253  1.00  0.00     0.149 C 
ATOM      5  H1  UNL     1      -0.904   1.364   0.254  1.00  0.00     0.161 HD
ENDBRANCH   1   3
BRANCH   1   6
HETATM    6  O1  UNL     1       1.310   0.442  -0.807  1.00  0.00    -0.332 OA
HETATM    7  C3  UNL     1       2.268   0.512   0.214  1.00  0.00     0.212 C 
ENDBRANCH   1   6
TORSDOF 2
