REMARK  2 active torsions:
REMARK  status: ('A' for Active; 'I' for Inactive)
REMARK    1  A    between atoms: N1_1  and  C1_4 
REMARK    2  A    between atoms: C2_5  and  C3_6 
ROOT
HETATM    1  C3  UNL     1      -0.137  -0.260   0.046  1.00  0.00     0.102 A 
HETATM    2  C4  UNL     1      -1.003   0.725   0.414  1.00  0.00     0.042 A 
HETATM    3  C5  UNL     1      -2.347   0.568   0.200  1.00  0.00     0.021 A 
HETATM    4  C6  UNL     1      -2.830  -0.597  -0.393  1.00  0.00     0.107 A 
HETATM    5  N2  UNL     1      -1.931  -1.517  -0.728  1.00  0.00    -0.311 N 
ATOM      6  H2  UNL     1      -2.262  -2.378  -1.164  1.00  0.00     0.186 HD
HETATM    7  N3  UNL     1      -0.618  -1.378  -0.526  1.00  0.00    -0.293 N 
ATOM      8  H3  UNL     1       0.021  -2.122  -0.806  1.00  0.00     0.187 HD
ENDROOT
BRANCH   1   9
HETATM    9  C2  UNL     1       1.300  -0.149   0.248  1.00  0.00    -0.025 C 
HETATM   10  C1  UNL     1       2.490  -0.037   0.411  1.00  0.00     0.010 C 
BRANCH  10  11
HETATM   11  N1  UNL     1       3.873   0.111   0.586  1.00  0.00    -0.359 N 
ATOM     12  H12 UNL     1       3.100   0.538   0.075  1.00  0.00     0.166 HD
ATOM     13  H11 UNL     1       4.879   0.206   0.724  1.00  0.00     0.166 HD
ENDBRANCH  10  11
ENDBRANCH   1   9
TORSDOF 2
