REMARK  2 active torsions:
REMARK  status: ('A' for Active; 'I' for Inactive)
REMARK    1  A    between atoms: N1_2  and  C2_4 
REMARK    2  A    between atoms: C2_4  and  N2_6 
ROOT
HETATM    1  N2  UNL     1       1.641  -0.851   0.592  1.00  0.00    -0.270 N 
ATOM      2  H2  UNL     1       2.081  -1.762   0.717  1.00  0.00     0.180 HD
HETATM    3  C3  UNL     1       2.451   0.287   0.503  1.00  0.00     0.184 C 
HETATM    4  N3  UNL     1       3.118   1.238   0.420  1.00  0.00    -0.172 NA
ENDROOT
BRANCH   1   5
HETATM    5  C2  UNL     1       0.222  -0.776   0.513  1.00  0.00     0.180 C 
HETATM    6  S1  UNL     1      -0.646  -2.153   0.626  1.00  0.00    -0.040 SA
BRANCH   5   7
HETATM    7  N1  UNL     1      -0.410   0.485   0.340  1.00  0.00    -0.371 N 
HETATM    8  C1  UNL     1      -1.856   0.527   0.264  1.00  0.00     0.148 C 
ATOM      9  H1  UNL     1       0.141   1.340   0.271  1.00  0.00     0.161 HD
ENDBRANCH   5   7
ENDBRANCH   1   5
TORSDOF 2
