REMARK  2 active torsions:
REMARK  status: ('A' for Active; 'I' for Inactive)
REMARK    1  A    between atoms: C4_4  and  N1_5 
REMARK    2  A    between atoms: N2_10  and  N3_11 
ROOT
HETATM    1  C1  UNL     1      -1.708  -1.422   0.043  1.00  0.00     0.028 C 
HETATM    2  C2  UNL     1      -1.065  -0.112  -0.412  1.00  0.00     0.077 C 
HETATM    3  C3  UNL     1       0.183  -0.464  -1.226  1.00  0.00     0.055 C 
HETATM    4  C4  UNL     1       1.269  -0.320  -0.167  1.00  0.00     0.199 C 
HETATM    5  C5  UNL     1       0.771   0.945   0.548  1.00  0.00     0.146 C 
HETATM    6  N2  UNL     1      -0.606   0.565   0.758  1.00  0.00    -0.232 NA
ENDROOT
BRANCH   4   7
HETATM    7  N1  UNL     1       2.572  -0.161  -0.714  1.00  0.00    -0.074 N 
ATOM      8  H13 UNL     1       2.791  -0.923  -1.356  1.00  0.00     0.274 HD
ATOM      9  H12 UNL     1       2.597   0.622  -1.367  1.00  0.00     0.274 HD
ATOM     10  H11 UNL     1       3.299  -0.065  -0.005  1.00  0.00     0.274 HD
ENDBRANCH   4   7
BRANCH   6  11
HETATM   11  N3  UNL     1      -1.412   1.564   1.225  1.00  0.00    -0.363 NA
ATOM     12  H32 UNL     1      -2.385   1.296   1.373  1.00  0.00     0.171 HD
ATOM     13  H31 UNL     1      -1.084   2.048   2.061  1.00  0.00     0.171 HD
ENDBRANCH   6  11
TORSDOF 2
