REMARK  10 active torsions:
REMARK  status: ('A' for Active; 'I' for Inactive)
REMARK    1  A    between atoms: O1_2  and  C2_3 
REMARK    2  A    between atoms: C2_3  and  C3_5 
REMARK    3  A    between atoms: C5_7  and  O3_8 
REMARK    4  A    between atoms: C7_10  and  O4_11 
REMARK    5  A    between atoms: O4_11  and  C8_12 
REMARK    6  A    between atoms: C8_12  and  C9_14 
REMARK    7  A    between atoms: C12_18  and  C13_19 
REMARK    8  A    between atoms: C17_23  and  N2_24 
REMARK       I    between atoms: N2_24  and  C18_26 
REMARK    9  A    between atoms: C18_26  and  O7_28 
REMARK   10  A    between atoms: O7_28  and  C19_29 
ROOT
HETATM    1  C9  UNL     1       6.561   0.525  -1.601  1.00  0.00     0.019 C 
HETATM    2  C10 UNL     1       7.434   0.350  -2.413  1.00  0.00     0.024 C 
HETATM    3  C11 UNL     1       8.460   0.121  -3.366  1.00  0.00     0.152 C 
HETATM    4  N1  UNL     1       9.287  -0.078  -4.152  1.00  0.00    -0.182 NA
ENDROOT
BRANCH   1   5
HETATM    5  C8  UNL     1       5.507   0.713  -0.612  1.00  0.00     0.345 C 
HETATM    6  O5  UNL     1       5.665   1.516   0.338  1.00  0.00    -0.249 OA
BRANCH   5   7
HETATM    7  O4  UNL     1       4.318   0.004  -0.712  1.00  0.00    -0.265 OA
BRANCH   7   8
HETATM    8  C7  UNL     1       3.271   0.094   0.153  1.00  0.00     0.122 A 
HETATM    9  C5  UNL     1       3.550  -0.288   1.471  1.00  0.00     0.103 A 
HETATM   10  C4  UNL     1       2.569  -0.235   2.400  1.00  0.00     0.059 A 
HETATM   11  C3  UNL     1       1.314   0.190   2.037  1.00  0.00     0.069 A 
HETATM   12  C17 UNL     1       1.059   0.563   0.711  1.00  0.00     0.063 A 
HETATM   13  C12 UNL     1       2.022   0.527  -0.251  1.00  0.00     0.014 A 
BRANCH   9  14
HETATM   14  O3  UNL     1       4.813  -0.721   1.838  1.00  0.00    -0.353 OA
HETATM   15  C6  UNL     1       5.051  -1.097   3.168  1.00  0.00     0.210 C 
ENDBRANCH   9  14
BRANCH  11  16
HETATM   16  C2  UNL     1       0.319   0.288   3.058  1.00  0.00     0.295 C 
HETATM   17  O2  UNL     1      -0.819   0.717   2.846  1.00  0.00    -0.259 OA
BRANCH  16  18
HETATM   18  O1  UNL     1       0.577  -0.103   4.387  1.00  0.00    -0.322 OA
HETATM   19  C1  UNL     1      -0.427   0.003   5.389  1.00  0.00     0.213 C 
ENDBRANCH  16  18
ENDBRANCH  11  16
BRANCH  12  20
HETATM   20  N2  UNL     1      -0.262   0.923   0.448  1.00  0.00    -0.301 N 
HETATM   21  C18 UNL     1      -1.305  -0.009   0.065  1.00  0.00     0.365 C 
HETATM   22  O6  UNL     1      -1.009  -1.226  -0.039  1.00  0.00    -0.238 OA
ATOM     23  H2  UNL     1      -0.512   1.909   0.531  1.00  0.00     0.171 HD
BRANCH  21  24
HETATM   24  O7  UNL     1      -2.590   0.383  -0.184  1.00  0.00    -0.298 OA
BRANCH  24  25
HETATM   25  C19 UNL     1      -3.642  -0.472  -0.558  1.00  0.00     0.133 C 
HETATM   26  C20 UNL     1      -4.119  -0.057  -1.917  1.00  0.00     0.032 C 
HETATM   27  C21 UNL     1      -5.541   0.454  -1.906  1.00  0.00     0.002 C 
HETATM   28  C22 UNL     1      -6.545  -0.576  -1.511  1.00  0.00     0.000 C 
HETATM   29  C23 UNL     1      -5.969  -1.897  -1.123  1.00  0.00     0.000 C 
HETATM   30  C24 UNL     1      -5.480  -1.821   0.300  1.00  0.00     0.002 C 
HETATM   31  C25 UNL     1      -4.748  -0.510   0.465  1.00  0.00     0.032 C 
ENDBRANCH  24  25
ENDBRANCH  21  24
ENDBRANCH  12  20
BRANCH  13  32
HETATM   32  C13 UNL     1       1.870   0.932  -1.612  1.00  0.00    -0.019 C 
HETATM   33  C14 UNL     1       0.577   1.374  -2.171  1.00  0.00     0.019 C 
HETATM   34  C15 UNL     1       2.861   2.061  -1.997  1.00  0.00     0.019 C 
HETATM   35  C16 UNL     1       2.319  -0.255  -2.487  1.00  0.00     0.019 C 
ENDBRANCH  13  32
ENDBRANCH   7   8
ENDBRANCH   5   7
ENDBRANCH   1   5
TORSDOF 10
