REMARK  6 active torsions:
REMARK  status: ('A' for Active; 'I' for Inactive)
REMARK    1  A    between atoms: C2_2  and  O1_4 
REMARK    2  A    between atoms: O1_4  and  C4_5 
REMARK    3  A    between atoms: C4_5  and  C5_6 
REMARK    4  A    between atoms: N1_8  and  C7_9 
REMARK    5  A    between atoms: C8_13  and  C9_14 
REMARK    6  A    between atoms: C13_18  and  C14_19 
ROOT
HETATM    1  C7  UNL     1       1.266  -2.026  -0.318  1.00  0.00     0.181 A 
HETATM    2  O2  UNL     1       1.858  -3.183  -0.493  1.00  0.00    -0.219 OA
HETATM    3  N2  UNL     1       0.996  -4.141  -0.583  1.00  0.00    -0.262 N 
ATOM      4  H2  UNL     1       1.220  -5.127  -0.720  1.00  0.00     0.194 HD
HETATM    5  C8  UNL     1      -0.264  -3.625  -0.466  1.00  0.00     0.055 A 
HETATM    6  C13 UNL     1      -0.108  -2.270  -0.296  1.00  0.00     0.054 A 
ENDROOT
BRANCH   6   7
HETATM    7  C14 UNL     1      -1.172  -1.289  -0.121  1.00  0.00    -0.004 A 
HETATM    8  C15 UNL     1      -1.600  -0.910   1.144  1.00  0.00     0.102 A 
HETATM    9  N3  UNL     1      -2.585   0.005   1.307  1.00  0.00    -0.351 N 
HETATM   10  C16 UNL     1      -3.208   0.602   0.273  1.00  0.00     0.110 A 
ATOM     11  H3  UNL     1      -2.868   0.253   2.255  1.00  0.00     0.166 HD
HETATM   12  C17 UNL     1      -2.805   0.246  -1.002  1.00  0.00    -0.013 A 
HETATM   13  N4  UNL     1      -4.244   1.560   0.469  1.00  0.00    -0.358 N 
HETATM   14  C18 UNL     1      -1.813  -0.676  -1.177  1.00  0.00     0.024 A 
HETATM   15  C19 UNL     1      -3.493   0.905  -2.154  1.00  0.00     0.044 C 
HETATM   16  C20 UNL     1      -3.790   2.331  -1.751  1.00  0.00     0.032 C 
HETATM   17  C21 UNL     1      -4.841   2.257  -0.652  1.00  0.00     0.110 C 
HETATM   18  C22 UNL     1      -5.171   3.645  -0.204  1.00  0.00     0.193 C 
HETATM   19  O3  UNL     1      -6.041   3.678   0.860  1.00  0.00    -0.388 OA
HETATM   20  C23 UNL     1      -6.086   2.535   1.619  1.00  0.00     0.187 C 
HETATM   21  C24 UNL     1      -4.736   1.871   1.794  1.00  0.00     0.151 C 
ENDBRANCH   6   7
BRANCH   1  22
HETATM   22  N1  UNL     1       1.921  -0.785  -0.182  1.00  0.00    -0.358 N 
HETATM   23  C6  UNL     1       2.414  -0.197   1.047  1.00  0.00     0.132 C 
HETATM   24  C5  UNL     1       3.470   0.805   0.630  1.00  0.00     0.033 C 
HETATM   25  C26 UNL     1       3.606   0.597  -0.836  1.00  0.00     0.007 C 
HETATM   26  C25 UNL     1       2.229   0.134  -1.263  1.00  0.00     0.129 C 
HETATM   27  C27 UNL     1       4.603  -0.490  -1.177  1.00  0.00     0.012 C 
BRANCH  24  28
HETATM   28  C4  UNL     1       4.760   0.579   1.385  1.00  0.00     0.174 C 
BRANCH  28  29
HETATM   29  O1  UNL     1       5.775   1.433   1.082  1.00  0.00    -0.386 OA
BRANCH  29  30
HETATM   30  C2  UNL     1       5.557   2.767   1.309  1.00  0.00     0.113 C 
HETATM   31  C1  UNL     1       6.591   3.347   2.283  1.00  0.00     0.039 C 
HETATM   32  C3  UNL     1       5.769   3.516   0.011  1.00  0.00     0.039 C 
ENDBRANCH  29  30
ENDBRANCH  28  29
ENDBRANCH  24  28
ENDBRANCH   1  22
BRANCH   5  33
HETATM   33  C9  UNL     1      -1.518  -4.407  -0.517  1.00  0.00    -0.006 C 
HETATM   34  C10 UNL     1      -1.121  -5.881  -0.718  1.00  0.00     0.021 C 
HETATM   35  C11 UNL     1      -2.412  -4.037  -1.668  1.00  0.00     0.021 C 
HETATM   36  C12 UNL     1      -2.268  -4.340   0.803  1.00  0.00     0.021 C 
ENDBRANCH   5  33
TORSDOF 6
