REMARK  7 active torsions:
REMARK  status: ('A' for Active; 'I' for Inactive)
REMARK    1  A    between atoms: O1_2  and  C2_3 
REMARK    2  A    between atoms: C7_8  and  O2_9 
REMARK    3  A    between atoms: O2_9  and  C8_10 
REMARK    4  A    between atoms: C14_18  and  S1_19 
REMARK    5  A    between atoms: S1_19  and  C15_20 
REMARK       I    between atoms: C15_20  and  N1_22 
REMARK    6  A    between atoms: N1_22  and  C17_24 
REMARK    7  A    between atoms: C17_24  and  C18_25 
ROOT
HETATM    1  C2  UNL     1       6.088  -0.099   0.250  1.00  0.00     0.104 A 
HETATM    2  C3  UNL     1       4.984  -0.812   0.720  1.00  0.00     0.071 A 
HETATM    3  C4  UNL     1       3.716  -0.376   0.479  1.00  0.00     0.065 A 
HETATM    4  C5  UNL     1       3.527   0.793  -0.246  1.00  0.00     0.098 A 
HETATM    5  C6  UNL     1       4.631   1.488  -0.706  1.00  0.00     0.079 A 
HETATM    6  C7  UNL     1       5.919   1.061  -0.470  1.00  0.00     0.115 A 
HETATM    7  O4  UNL     1       2.214   1.198  -0.468  1.00  0.00    -0.346 OA
HETATM    8  C10 UNL     1       1.255   0.180  -0.771  1.00  0.00     0.206 C 
HETATM    9  C11 UNL     1       1.211  -0.780   0.389  1.00  0.00     0.052 C 
HETATM   10  C12 UNL     1       0.311  -0.186   1.448  1.00  0.00     0.034 C 
HETATM   11  C13 UNL     1      -1.141  -0.242   1.119  1.00  0.00     0.018 C 
HETATM   12  C14 UNL     1      -1.568  -1.582   0.561  1.00  0.00     0.057 C 
HETATM   13  C22 UNL     1      -0.722  -1.983  -0.626  1.00  0.00     0.018 C 
HETATM   14  C23 UNL     1       0.696  -2.094  -0.124  1.00  0.00     0.034 C 
HETATM   15  N2  UNL     1       2.546  -1.043   0.925  1.00  0.00    -0.376 N 
ATOM     16  H2  UNL     1       2.641  -1.744   1.660  1.00  0.00     0.160 HD
ENDROOT
BRANCH  12  17
HETATM   17  S1  UNL     1      -3.326  -1.634   0.234  1.00  0.00    -0.064 SA
BRANCH  17  18
HETATM   18  C15 UNL     1      -3.838  -0.550  -1.055  1.00  0.00     0.281 C 
HETATM   19  O5  UNL     1      -3.005   0.172  -1.647  1.00  0.00    -0.260 OA
HETATM   20  N1  UNL     1      -5.199  -0.491  -1.429  1.00  0.00    -0.345 N 
HETATM   21  C16 UNL     1      -5.587   0.407  -2.493  1.00  0.00     0.153 C 
BRANCH  20  22
HETATM   22  C17 UNL     1      -6.190  -1.296  -0.790  1.00  0.00     0.158 C 
BRANCH  22  23
HETATM   23  C18 UNL     1      -6.835  -0.665   0.419  1.00  0.00     0.139 C 
HETATM   24  C19 UNL     1      -7.689   0.519   0.117  1.00  0.00     0.035 C 
HETATM   25  C20 UNL     1      -6.929   1.650   0.765  1.00  0.00     0.029 C 
HETATM   26  C21 UNL     1      -6.079   0.952   1.766  1.00  0.00     0.168 C 
HETATM   27  O6  UNL     1      -5.943  -0.356   1.416  1.00  0.00    -0.384 OA
ENDBRANCH  22  23
ENDBRANCH  20  22
ENDBRANCH  17  18
ENDBRANCH  12  17
BRANCH   1  28
HETATM   28  O1  UNL     1       7.341  -0.604   0.534  1.00  0.00    -0.353 OA
HETATM   29  C1  UNL     1       7.513  -1.789   1.269  1.00  0.00     0.210 C 
ENDBRANCH   1  28
BRANCH   6  30
HETATM   30  O2  UNL     1       7.019   1.751  -0.926  1.00  0.00    -0.276 OA
BRANCH  30  31
HETATM   31  C8  UNL     1       7.620   2.733  -0.156  1.00  0.00     0.260 C 
HETATM   32  C9  UNL     1       8.809   3.466  -0.673  1.00  0.00     0.126 C 
HETATM   33  O3  UNL     1       7.157   2.996   0.966  1.00  0.00    -0.265 OA
ENDBRANCH  30  31
ENDBRANCH   6  30
TORSDOF 7
