REMARK  7 active torsions:
REMARK  status: ('A' for Active; 'I' for Inactive)
REMARK    1  A    between atoms: C3_3  and  O1_4 
REMARK    2  A    between atoms: C7_9  and  O2_10 
REMARK    3  A    between atoms: O2_10  and  C8_11 
REMARK    4  A    between atoms: C8_11  and  C9_13 
REMARK    5  A    between atoms: C10_14  and  C11_15 
REMARK    6  A    between atoms: C10_14  and  C13_17 
REMARK    7  A    between atoms: C24_32  and  C25_33 
ROOT
HETATM    1  C1  UNL     1      -3.477  -1.652  -0.588  1.00  0.00     0.024 C 
HETATM    2  C2  UNL     1      -2.495  -1.236  -1.391  1.00  0.00    -0.005 C 
HETATM    3  C3  UNL     1      -1.139  -1.254  -0.857  1.00  0.00     0.053 C 
HETATM    4  C4  UNL     1      -0.808  -0.314   0.236  1.00  0.00     0.084 C 
HETATM    5  C5  UNL     1      -1.015   1.128   0.081  1.00  0.00     0.044 C 
HETATM    6  C6  UNL     1       0.055   1.846   0.902  1.00  0.00     0.081 C 
HETATM    7  C7  UNL     1       1.243   1.735   0.042  1.00  0.00     0.274 C 
HETATM    8  O5  UNL     1       0.788   1.361  -1.226  1.00  0.00    -0.330 OA
HETATM    9  C17 UNL     1      -0.549   1.685  -1.261  1.00  0.00     0.279 C 
HETATM   10  O6  UNL     1      -1.240   1.283  -2.330  1.00  0.00    -0.326 OA
HETATM   11  C18 UNL     1      -2.579   1.447  -2.194  1.00  0.00     0.295 C 
HETATM   12  O7  UNL     1      -3.316   0.494  -2.833  1.00  0.00    -0.342 OA
HETATM   13  C19 UNL     1      -2.910  -0.805  -2.755  1.00  0.00     0.086 C 
HETATM   14  C20 UNL     1      -4.176  -1.614  -3.142  1.00  0.00     0.051 C 
HETATM   15  C21 UNL     1      -1.919  -1.196  -3.824  1.00  0.00     0.051 C 
HETATM   16  C22 UNL     1      -3.090   1.743  -0.846  1.00  0.00    -0.026 C 
HETATM   17  C23 UNL     1      -4.504   2.224  -0.787  1.00  0.00     0.049 C 
HETATM   18  C24 UNL     1      -2.389   1.613   0.306  1.00  0.00    -0.056 C 
ENDROOT
BRANCH   7  19
HETATM   19  O2  UNL     1       2.286   0.931   0.374  1.00  0.00    -0.286 OA
BRANCH  19  20
HETATM   20  C8  UNL     1       3.602   1.247   0.487  1.00  0.00     0.285 C 
HETATM   21  O3  UNL     1       3.771   2.485   0.227  1.00  0.00    -0.260 OA
BRANCH  20  22
HETATM   22  C9  UNL     1       4.723   0.420   0.834  1.00  0.00     0.092 C 
HETATM   23  C10 UNL     1       4.727  -0.852   1.127  1.00  0.00    -0.019 C 
BRANCH  23  24
HETATM   24  C11 UNL     1       3.548  -1.747   1.168  1.00  0.00     0.037 C 
HETATM   25  C12 UNL     1       3.721  -2.880   0.154  1.00  0.00     0.010 C 
ENDBRANCH  23  24
BRANCH  23  26
HETATM   26  C13 UNL     1       6.014  -1.491   1.455  1.00  0.00     0.081 A 
HETATM   27  C14 UNL     1       7.224  -0.870   1.481  1.00  0.00     0.039 A 
HETATM   28  C15 UNL     1       8.168  -1.840   1.837  1.00  0.00     0.027 A 
HETATM   29  C16 UNL     1       7.437  -2.988   2.000  1.00  0.00     0.142 A 
HETATM   30  O4  UNL     1       6.183  -2.739   1.767  1.00  0.00    -0.322 OA
ENDBRANCH  23  26
ENDBRANCH  20  22
ENDBRANCH  19  20
ENDBRANCH   7  19
BRANCH  18  31
HETATM   31  C25 UNL     1      -3.048   1.931   1.573  1.00  0.00     0.007 C 
HETATM   32  C26 UNL     1      -3.331   0.752   2.479  1.00  0.00     0.014 C 
HETATM   33  C27 UNL     1      -2.435   3.074   2.363  1.00  0.00     0.014 C 
ENDBRANCH  18  31
BRANCH   3  34
HETATM   34  O1  UNL     1      -0.118  -1.297  -1.802  1.00  0.00    -0.364 OA
ATOM     35  H1  UNL     1       0.766  -1.309  -1.454  1.00  0.00     0.217 HD
ENDBRANCH   3  34
TORSDOF 7
