REMARK  4 active torsions:
REMARK  status: ('A' for Active; 'I' for Inactive)
REMARK    1  A    between atoms: N1_2  and  C2_5 
REMARK    2  A    between atoms: C2_5  and  C3_6 
REMARK    3  A    between atoms: C3_6  and  N2_7 
REMARK    4  A    between atoms: N2_7  and  C4_10 
ROOT
HETATM    1  N2  UNL     1      -0.028   0.071  -0.581  1.00  0.00    -0.069 N 
ATOM      2  H21 UNL     1       0.271  -0.392  -1.439  1.00  0.00     0.277 HD
ATOM      3  H22 UNL     1      -0.155   1.017  -0.941  1.00  0.00     0.277 HD
ENDROOT
BRANCH   1   4
HETATM    4  C3  UNL     1       1.014   0.031   0.424  1.00  0.00     0.260 C 
BRANCH   4   5
HETATM    5  C2  UNL     1       2.313   0.391  -0.275  1.00  0.00     0.259 C 
BRANCH   5   6
HETATM    6  N1  UNL     1       3.424   0.347   0.702  1.00  0.00    -0.077 N 
HETATM    7  C1  UNL     1       4.647   0.532  -0.059  1.00  0.00     0.267 C 
ATOM      8  H12 UNL     1       3.427  -0.498   1.273  1.00  0.00     0.276 HD
ATOM      9  H11 UNL     1       3.318   1.015   1.465  1.00  0.00     0.276 HD
ENDBRANCH   5   6
ENDBRANCH   4   5
ENDBRANCH   1   4
BRANCH   1  10
HETATM   10  C4  UNL     1      -1.267  -0.472  -0.105  1.00  0.00     0.186 C 
HETATM   11  C5  UNL     1      -1.930   0.237   1.012  1.00  0.00     0.033 C 
HETATM   12  C6  UNL     1      -3.393   0.440   0.585  1.00  0.00     0.002 C 
HETATM   13  C7  UNL     1      -3.552  -0.687  -0.411  1.00  0.00     0.002 C 
HETATM   14  C8  UNL     1      -2.271  -0.499  -1.240  1.00  0.00     0.033 C 
ENDBRANCH   1  10
TORSDOF 4
