REMARK  4 active torsions:
REMARK  status: ('A' for Active; 'I' for Inactive)
REMARK    1  A    between atoms: C2_2  and  C3_3 
REMARK    2  A    between atoms: C3_3  and  O1_4 
REMARK    3  A    between atoms: O1_4  and  N1_5 
REMARK    4  A    between atoms: N1_5  and  C4_7 
ROOT
HETATM    1  C4  UNL     1      -1.172   0.174  -0.297  1.00  0.00     0.143 A 
HETATM    2  C5  UNL     1      -1.413   1.526  -0.187  1.00  0.00     0.139 A 
HETATM    3  N2  UNL     1      -2.732   1.663   0.110  1.00  0.00    -0.358 N 
ATOM      4  H2  UNL     1      -3.221   2.546   0.256  1.00  0.00     0.166 HD
HETATM    5  C6  UNL     1      -3.286   0.432   0.180  1.00  0.00     0.184 A 
HETATM    6  N3  UNL     1      -2.326  -0.477  -0.070  1.00  0.00    -0.331 N 
HETATM    7  C7  UNL     1      -2.462  -1.920  -0.100  1.00  0.00     0.158 C 
ENDROOT
BRANCH   1   8
HETATM    8  N1  UNL     1       0.094  -0.405  -0.601  1.00  0.00    -0.249 N 
ATOM      9  H1  UNL     1       0.170  -1.420  -0.661  1.00  0.00     0.196 HD
BRANCH   8  10
HETATM   10  O1  UNL     1       1.193   0.342  -0.812  1.00  0.00    -0.275 OA
BRANCH  10  11
HETATM   11  C3  UNL     1       2.304  -0.383  -0.379  1.00  0.00     0.228 C 
BRANCH  11  12
HETATM   12  C2  UNL     1       3.491   0.470  -0.628  1.00  0.00    -0.009 C 
HETATM   13  C1  UNL     1       4.274   0.849   0.356  1.00  0.00     0.009 C 
ENDBRANCH  11  12
ENDBRANCH  10  11
ENDBRANCH   8  10
ENDBRANCH   1   8
TORSDOF 4
