REMARK  4 active torsions:
REMARK  status: ('A' for Active; 'I' for Inactive)
REMARK    1  A    between atoms: C2_2  and  C3_3 
REMARK    2  A    between atoms: C3_3  and  N1_4 
REMARK    3  A    between atoms: N1_4  and  C4_7 
REMARK    4  A    between atoms: C4_7  and  C5_8 
ROOT
HETATM    1  C5  UNL     1       1.495   0.100   0.048  1.00  0.00     0.051 A 
HETATM    2  C6  UNL     1       1.977   1.331  -0.360  1.00  0.00     0.115 A 
HETATM    3  N2  UNL     1       3.282   1.253  -0.563  1.00  0.00    -0.360 N 
ATOM      4  H2  UNL     1       3.889   2.014  -0.868  1.00  0.00     0.166 HD
HETATM    5  C7  UNL     1       3.666  -0.010  -0.295  1.00  0.00     0.180 A 
HETATM    6  N3  UNL     1       2.567  -0.711   0.079  1.00  0.00    -0.353 N 
ATOM      7  H3  UNL     1       2.555  -1.696   0.342  1.00  0.00     0.166 HD
ENDROOT
BRANCH   1   8
HETATM    8  C4  UNL     1       0.092  -0.282   0.382  1.00  0.00     0.290 C 
BRANCH   8   9
HETATM    9  N1  UNL     1      -0.477  -1.133  -0.643  1.00  0.00    -0.067 N 
ATOM     10  H12 UNL     1       0.080  -1.968  -0.824  1.00  0.00     0.277 HD
ATOM     11  H11 UNL     1      -0.415  -0.729  -1.578  1.00  0.00     0.277 HD
BRANCH   9  12
HETATM   12  C3  UNL     1      -1.848  -1.435  -0.240  1.00  0.00     0.259 C 
BRANCH  12  13
HETATM   13  C2  UNL     1      -2.635  -0.158  -0.344  1.00  0.00    -0.010 C 
HETATM   14  C1  UNL     1      -3.245   0.396   0.683  1.00  0.00     0.008 C 
ENDBRANCH  12  13
ENDBRANCH   9  12
ENDBRANCH   8   9
ENDBRANCH   1   8
TORSDOF 4
