REMARK  2 active torsions:
REMARK  status: ('A' for Active; 'I' for Inactive)
REMARK    1  A    between atoms: N5_22  and  C12_23 
REMARK    2  A    between atoms: C12_23  and  C13_24 
ROOT
HETATM    1  C1  UNL     1       6.632  -0.482  -1.081  1.00  0.00     0.145 C 
HETATM    2  N1  UNL     1       5.810   0.492  -0.390  1.00  0.00    -0.399 N 
ATOM      3  H1  UNL     1       6.206   1.377  -0.072  1.00  0.00     0.158 HD
HETATM    4  C2  UNL     1       4.571   0.215  -0.187  1.00  0.00     0.009 C 
HETATM    5  C3  UNL     1       3.933  -1.054  -0.626  1.00  0.00     0.081 C 
HETATM    6  C4  UNL     1       3.832  -1.966   0.581  1.00  0.00     0.238 C 
HETATM    7  N2  UNL     1       3.396  -3.301   0.190  1.00  0.00    -0.073 N 
ATOM      8  H21 UNL     1       4.170  -3.963   0.130  1.00  0.00     0.277 HD
ATOM      9  H22 UNL     1       3.098  -3.345  -0.784  1.00  0.00     0.277 HD
HETATM   10  C5  UNL     1       2.374  -3.731   1.097  1.00  0.00     0.259 C 
HETATM   11  C6  UNL     1       1.219  -4.328   0.313  1.00  0.00     0.259 C 
HETATM   12  N3  UNL     1       0.216  -4.728   1.292  1.00  0.00    -0.073 N 
ATOM     13  H31 UNL     1       0.115  -4.036   2.034  1.00  0.00     0.277 HD
ATOM     14  H32 UNL     1       0.533  -5.515   1.858  1.00  0.00     0.277 HD
HETATM   15  C7  UNL     1      -1.070  -5.013   0.634  1.00  0.00     0.234 C 
HETATM   16  C8  UNL     1      -1.615  -3.753  -0.008  1.00  0.00     0.046 C 
HETATM   17  C9  UNL     1      -3.105  -3.598   0.198  1.00  0.00     0.115 C 
HETATM   18  N4  UNL     1      -3.678  -3.144  -1.022  1.00  0.00    -0.419 N 
ATOM     19  H4  UNL     1      -3.611  -3.687  -1.883  1.00  0.00     0.153 HD
HETATM   20  C10 UNL     1      -4.349  -1.891  -0.974  1.00  0.00     0.144 C 
HETATM   21  C11 UNL     1      -3.843  -0.946   0.094  1.00  0.00     0.292 C 
HETATM   22  N5  UNL     1      -3.812   0.383  -0.455  1.00  0.00     0.101 N 
HETATM   23  C14 UNL     1      -3.079   1.275   0.414  1.00  0.00     0.300 C 
HETATM   24  C15 UNL     1      -3.132   2.699  -0.000  1.00  0.00     0.262 C 
HETATM   25  N6  UNL     1      -2.113   3.057  -0.969  1.00  0.00    -0.072 N 
ATOM     26  H61 UNL     1      -2.479   3.038  -1.921  1.00  0.00     0.277 HD
ATOM     27  H62 UNL     1      -1.408   2.325  -1.057  1.00  0.00     0.277 HD
HETATM   28  C16 UNL     1      -1.510   4.343  -0.655  1.00  0.00     0.259 C 
HETATM   29  C17 UNL     1      -0.521   4.141   0.481  1.00  0.00     0.259 C 
HETATM   30  N7  UNL     1       0.601   3.413  -0.085  1.00  0.00    -0.073 N 
ATOM     31  H71 UNL     1       0.317   2.727  -0.784  1.00  0.00     0.277 HD
ATOM     32  H72 UNL     1       1.026   2.763   0.576  1.00  0.00     0.277 HD
HETATM   33  C18 UNL     1       1.529   4.375  -0.595  1.00  0.00     0.234 C 
HETATM   34  C19 UNL     1       2.945   3.863  -0.683  1.00  0.00     0.055 C 
HETATM   35  C20 UNL     1       3.555   3.603   0.661  1.00  0.00     0.234 C 
HETATM   36  N8  UNL     1       4.398   2.448   0.650  1.00  0.00    -0.070 N 
ATOM     37  H81 UNL     1       4.995   2.437   1.477  1.00  0.00     0.277 HD
ATOM     38  H82 UNL     1       5.107   2.534  -0.078  1.00  0.00     0.277 HD
HETATM   39  C21 UNL     1       3.699   1.200   0.522  1.00  0.00     0.284 C 
ENDROOT
BRANCH  22  40
HETATM   40  C12 UNL     1      -5.056   0.894  -0.898  1.00  0.00     0.385 C 
BRANCH  40  41
HETATM   41  C13 UNL     1      -6.041   1.242   0.131  1.00  0.00     0.202 C 
HETATM   42  O1  UNL     1      -7.212   1.501  -0.318  1.00  0.00    -0.647 OA
HETATM   43  O2  UNL     1      -5.855   1.324   1.476  1.00  0.00    -0.647 OA
ENDBRANCH  40  41
ENDBRANCH  22  40
TORSDOF 2
