REMARK  2 active torsions:
REMARK  status: ('A' for Active; 'I' for Inactive)
REMARK    1  A    between atoms: C3_4  and  C4_5 
REMARK    2  A    between atoms: C4_5  and  N2_6 
REMARK       I    between atoms: N2_6  and  C5_8 
REMARK       I    between atoms: C5_8  and  N3_10 
ROOT
HETATM    1  N1  UNL     1       4.511   3.954   0.333  1.00  0.00    -0.191 NA
HETATM    2  C1  UNL     1       4.855   2.847   0.467  1.00  0.00     0.102 C 
HETATM    3  C2  UNL     1       5.314   1.488   0.615  1.00  0.00     0.088 A 
HETATM    4  C3  UNL     1       4.473   0.420   0.892  1.00  0.00     0.050 A 
HETATM    5  N7  UNL     1       5.288  -0.679   0.857  1.00  0.00    -0.342 N 
ATOM      6  H7  UNL     1       4.981  -1.638   1.017  1.00  0.00     0.167 HD
HETATM    7  C16 UNL     1       6.568  -0.307   0.578  1.00  0.00     0.127 A 
HETATM    8  N8  UNL     1       7.726  -0.981   0.462  1.00  0.00    -0.293 N 
ATOM      9  H8  UNL     1       7.727  -1.993   0.587  1.00  0.00     0.172 HD
HETATM   10  C17 UNL     1       8.886  -0.352   0.184  1.00  0.00     0.328 A 
HETATM   11  O3  UNL     1       9.990  -0.999   0.071  1.00  0.00    -0.247 OA
HETATM   12  N9  UNL     1       8.947   1.008   0.004  1.00  0.00    -0.275 N 
ATOM     13  H9  UNL     1       9.823   1.483  -0.212  1.00  0.00     0.173 HD
HETATM   14  C18 UNL     1       7.790   1.678   0.128  1.00  0.00     0.265 A 
HETATM   15  O4  UNL     1       7.791   2.913  -0.028  1.00  0.00    -0.267 OA
HETATM   16  C19 UNL     1       6.606   1.064   0.412  1.00  0.00     0.099 A 
ENDROOT
BRANCH   4  17
HETATM   17  C4  UNL     1       3.078   0.416   1.401  1.00  0.00     0.183 C 
BRANCH  17  18
HETATM   18  N2  UNL     1       2.107   0.032   0.431  1.00  0.00    -0.337 N 
HETATM   19  C5  UNL     1       0.918  -0.651   0.704  1.00  0.00     0.324 C 
HETATM   20  O1  UNL     1       0.713  -1.095   1.870  1.00  0.00    -0.247 OA
HETATM   21  N3  UNL     1      -0.072  -0.859  -0.283  1.00  0.00    -0.286 N 
HETATM   22  C6  UNL     1      -0.056  -0.048  -1.503  1.00  0.00     0.179 C 
HETATM   23  C15 UNL     1      -1.025  -1.919  -0.092  1.00  0.00     0.233 C 
HETATM   24  C7  UNL     1      -1.353   0.741  -1.659  1.00  0.00     0.075 C 
HETATM   25  N4  UNL     1      -1.967   0.743  -2.923  1.00  0.00    -0.401 N 
HETATM   26  C8  UNL     1      -3.397   0.795  -2.941  1.00  0.00     0.120 C 
ATOM     27  H4  UNL     1      -1.421   0.709  -3.784  1.00  0.00     0.158 HD
HETATM   28  C9  UNL     1      -4.055   1.624  -1.897  1.00  0.00     0.047 C 
HETATM   29  C10 UNL     1      -5.118   0.785  -1.205  1.00  0.00     0.234 C 
HETATM   30  N5  UNL     1      -5.444   1.282   0.101  1.00  0.00    -0.074 N 
HETATM   31  C11 UNL     1      -6.070   0.204   0.905  1.00  0.00     0.251 C 
ATOM     32  H52 UNL     1      -4.635   1.690   0.570  1.00  0.00     0.277 HD
ATOM     33  H51 UNL     1      -6.027   2.118   0.059  1.00  0.00     0.277 HD
HETATM   34  C12 UNL     1      -5.046  -0.495   1.753  1.00  0.00     0.141 C 
HETATM   35  N6  UNL     1      -5.007  -1.891   1.484  1.00  0.00    -0.418 N 
HETATM   36  C13 UNL     1      -3.746  -2.560   1.832  1.00  0.00     0.140 C 
ATOM     37  H6  UNL     1      -5.798  -2.392   1.079  1.00  0.00     0.153 HD
HETATM   38  C14 UNL     1      -2.655  -1.626   1.460  1.00  0.00     0.195 C 
HETATM   39  O2  UNL     1      -1.419  -2.150   1.213  1.00  0.00    -0.345 OA
ATOM     40  H2  UNL     1       2.295   0.275  -0.542  1.00  0.00     0.164 HD
ENDBRANCH  17  18
ENDBRANCH   4  17
TORSDOF 2
