REMARK  1 active torsions:
REMARK  status: ('A' for Active; 'I' for Inactive)
REMARK    1  A    between atoms: C1_2  and  C2_4 
ROOT
HETATM    1  C2  UNL     1      -0.669  -2.665  -0.633  1.00  0.00     0.186 C 
HETATM    2  C3  UNL     1      -0.701  -1.773   0.572  1.00  0.00     0.166 C 
HETATM    3  N2  UNL     1      -1.761  -0.788   0.552  1.00  0.00    -0.319 N 
HETATM    4  N3  UNL     1      -2.737  -1.352   1.387  1.00  0.00    -0.276 N 
ATOM      5  H3  UNL     1      -2.492  -2.289   1.707  1.00  0.00     0.189 HD
HETATM    6  C4  UNL     1      -3.899  -0.941   1.849  1.00  0.00     0.203 C 
HETATM    7  N4  UNL     1      -4.552  -1.890   2.690  1.00  0.00    -0.062 NA
HETATM    8  N5  UNL     1      -4.604   0.280   1.650  1.00  0.00    -0.359 N 
ATOM      9  H5  UNL     1      -5.297   0.475   2.372  1.00  0.00     0.162 HD
HETATM   10  C5  UNL     1      -4.532   1.291   0.634  1.00  0.00     0.084 C 
HETATM   11  C6  UNL     1      -4.714   0.699  -0.734  1.00  0.00     0.025 C 
HETATM   12  C7  UNL     1      -3.647   1.098  -1.713  1.00  0.00     0.004 C 
HETATM   13  C8  UNL     1      -2.350   0.396  -1.518  1.00  0.00     0.027 C 
HETATM   14  C9  UNL     1      -1.714   0.463  -0.194  1.00  0.00     0.106 C 
HETATM   15  C10 UNL     1      -2.008   1.641   0.664  1.00  0.00     0.013 C 
HETATM   16  C11 UNL     1      -1.109   2.836   0.369  1.00  0.00     0.034 C 
HETATM   17  C12 UNL     1       0.303   2.497   0.119  1.00  0.00     0.232 C 
HETATM   18  N6  UNL     1       1.100   3.707   0.309  1.00  0.00    -0.074 N 
ATOM     19  H61 UNL     1       0.566   4.427   0.795  1.00  0.00     0.277 HD
ATOM     20  H62 UNL     1       1.255   4.189  -0.576  1.00  0.00     0.277 HD
HETATM   21  C13 UNL     1       2.343   3.440   0.979  1.00  0.00     0.259 C 
HETATM   22  C14 UNL     1       3.469   3.349  -0.036  1.00  0.00     0.259 C 
HETATM   23  N7  UNL     1       4.507   2.521   0.596  1.00  0.00    -0.073 N 
ATOM     24  H71 UNL     1       4.612   2.684   1.597  1.00  0.00     0.277 HD
ATOM     25  H72 UNL     1       5.458   2.781   0.335  1.00  0.00     0.277 HD
HETATM   26  C15 UNL     1       4.154   1.140   0.253  1.00  0.00     0.234 C 
HETATM   27  C16 UNL     1       5.115   0.149   0.831  1.00  0.00     0.055 C 
HETATM   28  C17 UNL     1       5.426  -0.965  -0.139  1.00  0.00     0.234 C 
HETATM   29  N8  UNL     1       4.413  -0.998  -1.199  1.00  0.00    -0.074 N 
ATOM     30  H81 UNL     1       4.804  -0.706  -2.095  1.00  0.00     0.277 HD
ATOM     31  H82 UNL     1       3.724  -0.256  -1.076  1.00  0.00     0.277 HD
HETATM   32  C18 UNL     1       3.787  -2.277  -1.298  1.00  0.00     0.251 C 
HETATM   33  C19 UNL     1       2.318  -2.187  -1.710  1.00  0.00     0.150 C 
HETATM   34  N9  UNL     1       1.695  -3.426  -1.280  1.00  0.00    -0.359 N 
ATOM     35  H9  UNL     1       2.122  -4.297  -1.595  1.00  0.00     0.162 HD
HETATM   36  C20 UNL     1       0.559  -3.526  -0.471  1.00  0.00     0.232 C 
HETATM   37  O2  UNL     1       0.515  -4.371   0.460  1.00  0.00    -0.273 OA
HETATM   38  C21 UNL     1      -3.362   2.193   0.732  1.00  0.00     0.032 C 
ENDROOT
BRANCH   1  39
HETATM   39  C1  UNL     1      -1.806  -3.623  -0.658  1.00  0.00     0.246 C 
HETATM   40  N1  UNL     1      -1.967  -4.557   0.371  1.00  0.00    -0.061 NA
HETATM   41  O1  UNL     1      -2.619  -3.589  -1.603  1.00  0.00    -0.276 OA
ENDBRANCH   1  39
TORSDOF 1
