REMARK  4 active torsions:
REMARK  status: ('A' for Active; 'I' for Inactive)
REMARK    1  A    between atoms: C2_2  and  C3_3 
REMARK    2  A    between atoms: C8_12  and  C9_13 
REMARK    3  A    between atoms: C9_13  and  O1_14 
REMARK    4  A    between atoms: C9_13  and  N3_16 
ROOT
HETATM    1  N3  UNL     1       0.030  -0.880   0.591  1.00  0.00    -0.362 N 
HETATM    2  C10 UNL     1      -0.547  -0.515  -0.665  1.00  0.00     0.152 C 
HETATM    3  C11 UNL     1      -1.583  -1.529  -1.141  1.00  0.00     0.252 C 
HETATM    4  N4  UNL     1      -2.853  -0.855  -1.161  1.00  0.00    -0.074 N 
ATOM      5  H41 UNL     1      -2.863  -0.125  -1.874  1.00  0.00     0.277 HD
ATOM      6  H42 UNL     1      -2.969  -0.280  -0.327  1.00  0.00     0.277 HD
HETATM    7  C12 UNL     1      -3.976  -1.745  -1.327  1.00  0.00     0.234 C 
HETATM    8  C13 UNL     1      -5.076  -0.949  -2.012  1.00  0.00     0.046 C 
HETATM    9  C14 UNL     1      -6.291  -0.786  -1.137  1.00  0.00     0.115 C 
HETATM   10  N5  UNL     1      -6.103   0.121  -0.048  1.00  0.00    -0.420 N 
ATOM     11  H5  UNL     1      -5.880  -0.194   0.896  1.00  0.00     0.153 HD
HETATM   12  C15 UNL     1      -6.251   1.503  -0.383  1.00  0.00     0.141 C 
HETATM   13  C16 UNL     1      -5.004   2.240   0.096  1.00  0.00     0.251 C 
HETATM   14  N6  UNL     1      -4.777   2.084   1.501  1.00  0.00    -0.072 N 
ATOM     15  H61 UNL     1      -5.474   1.469   1.920  1.00  0.00     0.277 HD
ATOM     16  H62 UNL     1      -4.993   2.943   2.006  1.00  0.00     0.277 HD
HETATM   17  C17 UNL     1      -3.414   1.622   1.800  1.00  0.00     0.259 C 
HETATM   18  C18 UNL     1      -3.538   0.280   2.479  1.00  0.00     0.259 C 
HETATM   19  N7  UNL     1      -2.413  -0.080   3.272  1.00  0.00    -0.072 N 
ATOM     20  H71 UNL     1      -2.543  -1.005   3.681  1.00  0.00     0.277 HD
ATOM     21  H72 UNL     1      -2.379   0.481   4.123  1.00  0.00     0.277 HD
HETATM   22  C19 UNL     1      -1.150  -0.008   2.562  1.00  0.00     0.252 C 
HETATM   23  C20 UNL     1      -0.961  -1.191   1.639  1.00  0.00     0.152 C 
ENDROOT
BRANCH   1  24
HETATM   24  C9  UNL     1       1.369  -0.977   0.953  1.00  0.00     0.127 C 
BRANCH  24  25
HETATM   25  C8  UNL     1       2.581  -0.718   0.123  1.00  0.00     0.154 C 
HETATM   26  C7  UNL     1       2.606  -1.435  -1.186  1.00  0.00     0.042 C 
HETATM   27  C6  UNL     1       3.656  -2.479  -1.410  1.00  0.00     0.120 C 
HETATM   28  N2  UNL     1       4.820  -2.089  -2.246  1.00  0.00    -0.401 N 
HETATM   29  C5  UNL     1       5.050  -0.786  -1.902  1.00  0.00     0.075 C 
ATOM     30  H2  UNL     1       5.329  -2.660  -2.920  1.00  0.00     0.158 HD
HETATM   31  C4  UNL     1       6.122   0.171  -2.085  1.00  0.00     0.165 C 
HETATM   32  N1  UNL     1       5.523   1.397  -1.586  1.00  0.00    -0.375 N 
HETATM   33  C3  UNL     1       5.200   1.640  -0.286  1.00  0.00     0.079 C 
ATOM     34  H1  UNL     1       5.329   2.134  -2.264  1.00  0.00     0.161 HD
HETATM   35  N8  UNL     1       3.926   1.523   0.312  1.00  0.00    -0.316 N 
HETATM   36  C21 UNL     1       2.753   0.759   0.145  1.00  0.00     0.235 C 
ATOM     37  H8  UNL     1       3.826   2.179   1.087  1.00  0.00     0.170 HD
HETATM   38  O2  UNL     1       1.694   1.475  -0.006  1.00  0.00    -0.272 OA
BRANCH  33  39
HETATM   39  C2  UNL     1       6.268   1.281   0.767  1.00  0.00     0.072 C 
HETATM   40  C1  UNL     1       5.734   1.623   2.163  1.00  0.00     0.013 C 
ENDBRANCH  33  39
ENDBRANCH  24  25
BRANCH  24  41
HETATM   41  O1  UNL     1       1.666  -1.338   2.167  1.00  0.00    -0.349 OA
ATOM     42  H1  UNL     1       0.894  -1.503   2.696  1.00  0.00     0.219 HD
ENDBRANCH  24  41
ENDBRANCH   1  24
TORSDOF 4
