REMARK  6 active torsions:
REMARK  status: ('A' for Active; 'I' for Inactive)
REMARK    1  A    between atoms: O1_1  and  C1_3 
REMARK    2  A    between atoms: C1_3  and  C2_4 
REMARK    3  A    between atoms: C2_4  and  N1_5 
REMARK    4  A    between atoms: N5_24  and  C12_25 
REMARK    5  A    between atoms: N7_36  and  C19_37 
REMARK    6  A    between atoms: C19_37  and  C20_38 
ROOT
HETATM    1  N1  UNL     1       5.017   0.417   0.590  1.00  0.00    -0.404 N 
HETATM    2  C3  UNL     1       4.229  -0.262  -0.401  1.00  0.00     0.144 C 
HETATM    3  C4  UNL     1       4.749  -1.656  -0.613  1.00  0.00     0.251 C 
HETATM    4  N2  UNL     1       4.427  -2.539   0.511  1.00  0.00    -0.074 N 
ATOM      5  H21 UNL     1       3.745  -2.122   1.144  1.00  0.00     0.277 HD
ATOM      6  H22 UNL     1       5.203  -2.624   1.167  1.00  0.00     0.277 HD
HETATM    7  C5  UNL     1       3.991  -3.828   0.012  1.00  0.00     0.234 C 
HETATM    8  C6  UNL     1       3.096  -4.550   0.964  1.00  0.00     0.055 C 
HETATM    9  C7  UNL     1       2.242  -5.533   0.182  1.00  0.00     0.234 C 
HETATM   10  N3  UNL     1       0.868  -5.543   0.647  1.00  0.00    -0.073 N 
ATOM     11  H31 UNL     1       0.777  -5.255   1.621  1.00  0.00     0.277 HD
ATOM     12  H32 UNL     1       0.491  -6.485   0.749  1.00  0.00     0.277 HD
HETATM   13  C8  UNL     1       0.098  -4.727  -0.251  1.00  0.00     0.259 C 
HETATM   14  C9  UNL     1      -1.388  -4.929  -0.099  1.00  0.00     0.259 C 
HETATM   15  N4  UNL     1      -2.054  -3.940  -0.895  1.00  0.00    -0.072 N 
ATOM     16  H41 UNL     1      -2.356  -4.334  -1.786  1.00  0.00     0.277 HD
ATOM     17  H42 UNL     1      -1.393  -3.242  -1.236  1.00  0.00     0.277 HD
HETATM   18  C10 UNL     1      -3.168  -3.305  -0.205  1.00  0.00     0.262 C 
HETATM   19  C11 UNL     1      -3.655  -2.197  -1.094  1.00  0.00     0.300 C 
HETATM   20  N5  UNL     1      -4.644  -1.341  -0.464  1.00  0.00     0.100 N 
HETATM   21  C15 UNL     1      -4.008  -0.331   0.362  1.00  0.00     0.299 C 
HETATM   22  C16 UNL     1      -4.130   0.978  -0.379  1.00  0.00     0.198 C 
HETATM   23  O2  UNL     1      -3.581   2.035   0.304  1.00  0.00    -0.384 OA
HETATM   24  C17 UNL     1      -2.302   1.814   0.753  1.00  0.00     0.212 C 
HETATM   25  C18 UNL     1      -1.526   3.105   0.981  1.00  0.00     0.089 C 
HETATM   26  N7  UNL     1      -1.021   3.628  -0.226  1.00  0.00    -0.366 N 
HETATM   27  C24 UNL     1       0.212   4.290  -0.246  1.00  0.00     0.065 C 
HETATM   28  C25 UNL     1       1.279   3.760   0.656  1.00  0.00     0.064 C 
HETATM   29  C26 UNL     1       1.674   2.344   0.447  1.00  0.00     0.124 C 
HETATM   30  N8  UNL     1       2.639   2.092  -0.554  1.00  0.00    -0.400 N 
ATOM     31  H8  UNL     1       2.375   1.649  -1.434  1.00  0.00     0.158 HD
HETATM   32  C27 UNL     1       3.975   2.468  -0.307  1.00  0.00     0.074 C 
HETATM   33  C28 UNL     1       4.689   1.776   0.803  1.00  0.00     0.161 C 
ENDROOT
BRANCH  20  34
HETATM   34  C12 UNL     1      -5.547  -2.168   0.291  1.00  0.00     0.274 C 
HETATM   35  C13 UNL     1      -6.763  -1.471   0.829  1.00  0.00     0.269 C 
HETATM   36  N6  UNL     1      -7.537  -2.644   0.405  1.00  0.00    -0.071 N 
HETATM   37  C14 UNL     1      -6.529  -2.877  -0.611  1.00  0.00     0.269 C 
ATOM     38  H62 UNL     1      -7.788  -3.375   1.071  1.00  0.00     0.277 HD
ATOM     39  H61 UNL     1      -8.522  -2.559   0.155  1.00  0.00     0.277 HD
ENDBRANCH  20  34
BRANCH  26  40
HETATM   40  C19 UNL     1      -2.012   4.342  -0.988  1.00  0.00     0.192 C 
BRANCH  40  41
HETATM   41  C20 UNL     1      -2.635   5.478  -0.288  1.00  0.00     0.070 A 
HETATM   42  C21 UNL     1      -2.218   6.784  -0.257  1.00  0.00     0.036 A 
HETATM   43  C22 UNL     1      -3.127   7.487   0.534  1.00  0.00     0.027 A 
HETATM   44  C23 UNL     1      -4.044   6.564   0.938  1.00  0.00     0.142 A 
HETATM   45  O3  UNL     1      -3.720   5.418   0.440  1.00  0.00    -0.325 OA
ENDBRANCH  40  41
ENDBRANCH  26  40
BRANCH   1  46
HETATM   46  C2  UNL     1       6.411   0.123   0.529  1.00  0.00     0.143 C 
BRANCH  46  47
HETATM   47  C1  UNL     1       7.093   0.671  -0.708  1.00  0.00     0.183 C 
BRANCH  47  48
HETATM   48  O1  UNL     1       8.444   0.323  -0.668  1.00  0.00    -0.399 OA
ATOM     49  H1  UNL     1       8.872   0.667  -1.444  1.00  0.00     0.209 HD
ENDBRANCH  47  48
ENDBRANCH  46  47
ENDBRANCH   1  46
TORSDOF 6
