REMARK  14 active torsions:
REMARK  status: ('A' for Active; 'I' for Inactive)
REMARK    1  A    between atoms: N1_1  and  C1_5 
REMARK    2  A    between atoms: N2_8  and  C4_9 
REMARK    3  A    between atoms: C4_9  and  S2_11 
REMARK    4  A    between atoms: S2_11  and  S3_12 
REMARK    5  A    between atoms: S3_12  and  C5_13 
REMARK    6  A    between atoms: C5_13  and  N3_15 
REMARK    7  A    between atoms: N3_15  and  C6_17 
REMARK    8  A    between atoms: C7_18  and  O1_19 
REMARK    9  A    between atoms: O1_19  and  C8_20 
REMARK   10  A    between atoms: C8_20  and  C9_22 
REMARK   11  A    between atoms: C9_22  and  C10_23 
REMARK   12  A    between atoms: C9_22  and  N4_26 
REMARK   13  A    between atoms: C16_32  and  O5_33 
REMARK   14  A    between atoms: C17_35  and  O6_36 
ROOT
HETATM    1  C6  UNL     1      -0.500   0.982  -0.549  1.00  0.00     0.144 C 
HETATM    2  C7  UNL     1      -1.206  -0.264  -0.071  1.00  0.00     0.159 C 
HETATM    3  C15 UNL     1      -0.755  -0.482   1.367  1.00  0.00     0.069 C 
HETATM    4  C16 UNL     1      -0.599   0.912   1.879  1.00  0.00     0.151 C 
HETATM    5  C17 UNL     1      -0.148   1.736   0.695  1.00  0.00     0.172 C 
ENDROOT
BRANCH   1   6
HETATM    6  N3  UNL     1       0.745   0.578  -1.195  1.00  0.00    -0.365 N 
ATOM      7  H3  UNL     1       0.992  -0.411  -1.241  1.00  0.00     0.161 HD
BRANCH   6   8
HETATM    8  C5  UNL     1       1.613   1.544  -1.758  1.00  0.00     0.146 C 
HETATM    9  S4  UNL     1       1.209   3.119  -1.681  1.00  0.00    -0.052 SA
BRANCH   8  10
HETATM   10  S3  UNL     1       3.132   1.000  -2.542  1.00  0.00    -0.021 SA
BRANCH  10  11
HETATM   11  S2  UNL     1       3.318  -1.088  -2.434  1.00  0.00    -0.020 SA
BRANCH  11  12
HETATM   12  C4  UNL     1       4.198  -1.592  -1.000  1.00  0.00     0.147 C 
HETATM   13  S1  UNL     1       4.187  -3.243  -0.702  1.00  0.00    -0.052 SA
BRANCH  12  14
HETATM   14  N2  UNL     1       4.894  -0.803  -0.094  1.00  0.00    -0.366 N 
HETATM   15  C3  UNL     1       5.567  -1.410   1.065  1.00  0.00     0.126 C 
HETATM   16  C2  UNL     1       7.032  -1.106   0.883  1.00  0.00     0.052 C 
HETATM   17  C1  UNL     1       7.256   0.367   0.951  1.00  0.00     0.186 C 
HETATM   18  C19 UNL     1       5.994   1.149   0.851  1.00  0.00     0.052 C 
HETATM   19  C18 UNL     1       5.035   0.616  -0.217  1.00  0.00     0.126 C 
BRANCH  17  20
HETATM   20  N1  UNL     1       8.247   0.806  -0.040  1.00  0.00    -0.075 N 
ATOM     21  H13 UNL     1       9.122   0.290   0.053  1.00  0.00     0.274 HD
ATOM     22  H12 UNL     1       7.990   0.510  -0.982  1.00  0.00     0.274 HD
ATOM     23  H11 UNL     1       8.400   1.813   0.007  1.00  0.00     0.274 HD
ENDBRANCH  17  20
ENDBRANCH  12  14
ENDBRANCH  11  12
ENDBRANCH  10  11
ENDBRANCH   8  10
ENDBRANCH   6   8
ENDBRANCH   1   6
BRANCH   2  24
HETATM   24  O1  UNL     1      -2.588  -0.198  -0.204  1.00  0.00    -0.312 OA
BRANCH  24  25
HETATM   25  C8  UNL     1      -3.253  -1.149  -0.956  1.00  0.00     0.293 C 
HETATM   26  O2  UNL     1      -2.568  -2.054  -1.499  1.00  0.00    -0.262 OA
BRANCH  25  27
HETATM   27  C9  UNL     1      -4.725  -1.160  -1.155  1.00  0.00     0.285 C 
BRANCH  27  28
HETATM   28  C10 UNL     1      -5.260  -2.503  -0.914  1.00  0.00     0.207 C 
HETATM   29  O3  UNL     1      -6.267  -2.632  -0.173  1.00  0.00    -0.646 OA
HETATM   30  O4  UNL     1      -4.715  -3.655  -1.462  1.00  0.00    -0.646 OA
ENDBRANCH  27  28
BRANCH  27  31
HETATM   31  N4  UNL     1      -5.403  -0.110  -0.504  1.00  0.00    -0.371 N 
HETATM   32  C11 UNL     1      -5.340  -0.050   0.913  1.00  0.00     0.123 C 
HETATM   33  C12 UNL     1      -6.563   0.766   1.352  1.00  0.00     0.025 C 
HETATM   34  C13 UNL     1      -7.576   0.388   0.307  1.00  0.00     0.046 C 
HETATM   35  C14 UNL     1      -6.719   0.177  -0.920  1.00  0.00     0.059 C 
ENDBRANCH  27  31
ENDBRANCH  25  27
ENDBRANCH  24  25
ENDBRANCH   2  24
BRANCH   5  36
HETATM   36  O6  UNL     1      -0.807   2.976   0.724  1.00  0.00    -0.391 OA
ATOM     37  H6  UNL     1      -0.584   3.455   1.514  1.00  0.00     0.210 HD
ENDBRANCH   5  36
BRANCH   4  38
HETATM   38  O5  UNL     1      -1.812   1.399   2.389  1.00  0.00    -0.393 OA
ATOM     39  H5  UNL     1      -1.713   2.286   2.715  1.00  0.00     0.210 HD
ENDBRANCH   4  38
TORSDOF 14
