REMARK  4 active torsions:
REMARK  status: ('A' for Active; 'I' for Inactive)
REMARK    1  A    between atoms: C9_15  and  C10_16 
REMARK    2  A    between atoms: C20_32  and  C21_33 
REMARK    3  A    between atoms: C21_33  and  C22_34 
REMARK    4  A    between atoms: C26_41  and  C27_42 
ROOT
HETATM    1  C1  UNL     1       2.691  -4.105   0.784  1.00  0.00     0.027 C 
HETATM    2  C2  UNL     1       2.360  -2.855   0.379  1.00  0.00     0.031 C 
HETATM    3  C3  UNL     1       0.947  -2.524   0.393  1.00  0.00     0.293 C 
HETATM    4  O1  UNL     1       0.381  -2.645   1.550  1.00  0.00    -0.259 OA
HETATM    5  O2  UNL     1       0.200  -2.105  -0.710  1.00  0.00    -0.285 OA
HETATM    6  C4  UNL     1      -0.026  -2.828  -1.891  1.00  0.00     0.276 C 
HETATM    7  O3  UNL     1      -0.235  -2.093  -3.047  1.00  0.00    -0.360 OA
HETATM    8  C5  UNL     1      -1.620  -2.105  -2.960  1.00  0.00     0.180 C 
HETATM    9  C6  UNL     1      -1.493  -3.203  -1.925  1.00  0.00     0.074 C 
HETATM   10  C7  UNL     1      -2.188  -2.825  -0.656  1.00  0.00     0.114 C 
HETATM   11  C8  UNL     1      -3.626  -2.606  -0.941  1.00  0.00     0.218 C 
HETATM   12  O4  UNL     1      -4.138  -3.253  -1.885  1.00  0.00    -0.274 OA
HETATM   13  N1  UNL     1      -4.462  -1.708  -0.212  1.00  0.00    -0.347 N 
ATOM     14  H1  UNL     1      -5.448  -1.939  -0.090  1.00  0.00     0.163 HD
HETATM   15  C9  UNL     1      -3.952  -0.478   0.361  1.00  0.00     0.180 C 
HETATM   16  C13 UNL     1      -3.780   0.594  -0.650  1.00  0.00     0.244 C 
HETATM   17  O5  UNL     1      -4.587   0.574  -1.615  1.00  0.00    -0.271 OA
HETATM   18  N2  UNL     1      -2.799   1.614  -0.608  1.00  0.00    -0.324 N 
HETATM   19  C14 UNL     1      -1.377   1.388  -0.340  1.00  0.00     0.181 C 
HETATM   20  C15 UNL     1      -1.169   2.496   0.691  1.00  0.00     0.050 C 
HETATM   21  C16 UNL     1      -1.834   3.655   0.006  1.00  0.00     0.090 A 
HETATM   22  C17 UNL     1      -3.242   3.931   0.320  1.00  0.00     0.157 A 
HETATM   23  O6  UNL     1      -4.059   4.494   1.028  1.00  0.00    -0.295 OA
HETATM   24  C18 UNL     1      -2.893   3.061  -0.800  1.00  0.00     0.169 A 
HETATM   25  C19 UNL     1      -0.564   1.596  -1.564  1.00  0.00     0.241 C 
HETATM   26  O7  UNL     1      -1.110   2.331  -2.464  1.00  0.00    -0.271 OA
HETATM   27  N3  UNL     1       0.701   1.093  -1.844  1.00  0.00    -0.346 N 
ATOM     28  H3  UNL     1       0.856   0.668  -2.758  1.00  0.00     0.163 HD
HETATM   29  C20 UNL     1       1.851   1.137  -0.886  1.00  0.00     0.177 C 
HETATM   30  C25 UNL     1       2.909   0.224  -1.389  1.00  0.00     0.241 C 
HETATM   31  O8  UNL     1       3.764   0.810  -2.165  1.00  0.00    -0.271 OA
HETATM   32  N4  UNL     1       3.125  -1.127  -1.173  1.00  0.00    -0.350 N 
ATOM     33  H4  UNL     1       3.009  -1.683  -2.020  1.00  0.00     0.163 HD
HETATM   34  C26 UNL     1       3.473  -1.922  -0.035  1.00  0.00     0.126 C 
ENDROOT
BRANCH  29  35
HETATM   35  C21 UNL     1       2.390   2.556  -0.909  1.00  0.00     0.038 C 
BRANCH  35  36
HETATM   36  C22 UNL     1       3.522   2.839  -0.005  1.00  0.00    -0.020 C 
HETATM   37  C23 UNL     1       3.189   2.609   1.456  1.00  0.00     0.009 C 
HETATM   38  C24 UNL     1       3.917   4.301  -0.229  1.00  0.00     0.009 C 
ENDBRANCH  35  36
ENDBRANCH  29  35
BRANCH  34  39
HETATM   39  C27 UNL     1       4.079  -1.185   1.118  1.00  0.00     0.005 C 
HETATM   40  C28 UNL     1       4.593  -2.232   2.124  1.00  0.00     0.012 C 
HETATM   41  C29 UNL     1       5.401  -0.555   0.615  1.00  0.00     0.012 C 
ENDBRANCH  34  39
BRANCH  15  42
HETATM   42  C10 UNL     1      -4.927   0.046   1.412  1.00  0.00     0.009 C 
HETATM   43  C11 UNL     1      -6.288   0.343   0.855  1.00  0.00     0.012 C 
HETATM   44  C12 UNL     1      -5.037  -0.950   2.567  1.00  0.00     0.012 C 
ENDBRANCH  15  42
TORSDOF 4
