REMARK  9 active torsions:
REMARK  status: ('A' for Active; 'I' for Inactive)
REMARK    1  A    between atoms: C2_2  and  C3_3 
REMARK    2  A    between atoms: C3_3  and  C5_5 
REMARK    3  A    between atoms: C7_10  and  C8_11 
REMARK    4  A    between atoms: C12_16  and  O2_17 
REMARK    5  A    between atoms: C16_24  and  C17_25 
REMARK    6  A    between atoms: C17_25  and  O5_26 
REMARK    7  A    between atoms: C22_36  and  O7_37 
REMARK    8  A    between atoms: C23_39  and  C24_40 
REMARK    9  A    between atoms: C28_45  and  O8_46 
ROOT
HETATM    1  C5  UNL     1      -1.449  -1.029  -0.345  1.00  0.00     0.163 C 
HETATM    2  N1  UNL     1      -0.868   0.323  -0.284  1.00  0.00    -0.347 N 
ATOM      3  H1  UNL     1       0.093   0.319   0.057  1.00  0.00     0.163 HD
HETATM    4  C6  UNL     1      -1.312   1.575  -0.575  1.00  0.00     0.241 C 
HETATM    5  O1  UNL     1      -0.804   2.221  -1.574  1.00  0.00    -0.271 OA
HETATM    6  C7  UNL     1      -2.352   2.423   0.085  1.00  0.00     0.183 C 
HETATM    7  N2  UNL     1      -1.712   3.484   0.874  1.00  0.00    -0.332 N 
HETATM    8  C11 UNL     1      -2.468   3.984   2.016  1.00  0.00     0.154 C 
HETATM    9  C12 UNL     1      -0.442   4.063   0.615  1.00  0.00     0.261 C 
HETATM   10  O3  UNL     1       0.771   3.436   0.478  1.00  0.00    -0.304 OA
HETATM   11  C13 UNL     1       1.530   2.718   1.368  1.00  0.00     0.200 C 
HETATM   12  C14 UNL     1       1.873   3.432   2.669  1.00  0.00     0.048 C 
HETATM   13  C15 UNL     1       2.775   2.153   0.823  1.00  0.00     0.180 C 
HETATM   14  O4  UNL     1       3.530   1.700   1.674  1.00  0.00    -0.293 OA
HETATM   15  C16 UNL     1       3.192   2.076  -0.556  1.00  0.00     0.180 C 
HETATM   16  N3  UNL     1       2.593   1.053  -1.379  1.00  0.00    -0.342 N 
ATOM     17  H3  UNL     1       1.935   1.381  -2.086  1.00  0.00     0.163 HD
HETATM   18  C18 UNL     1       2.801  -0.351  -1.331  1.00  0.00     0.264 C 
HETATM   19  O6  UNL     1       2.128  -1.003  -2.175  1.00  0.00    -0.266 OA
HETATM   20  C19 UNL     1       3.662  -1.134  -0.469  1.00  0.00     0.077 C 
HETATM   21  C20 UNL     1       4.502  -2.160  -1.260  1.00  0.00     0.074 C 
HETATM   22  N4  UNL     1       3.164  -1.685   0.774  1.00  0.00    -0.330 N 
HETATM   23  C21 UNL     1       4.335  -1.851   1.735  1.00  0.00     0.158 C 
HETATM   24  C22 UNL     1       1.899  -2.051   1.225  1.00  0.00     0.166 C 
HETATM   25  C23 UNL     1       0.874  -3.056   0.989  1.00  0.00     0.068 C 
HETATM   26  N5  UNL     1      -0.460  -2.693   1.414  1.00  0.00    -0.334 N 
HETATM   27  C27 UNL     1      -1.062  -3.471   2.538  1.00  0.00     0.158 C 
HETATM   28  C28 UNL     1      -1.330  -1.675   0.968  1.00  0.00     0.141 C 
ENDROOT
BRANCH   1  29
HETATM   29  C3  UNL     1      -2.746  -0.988  -1.045  1.00  0.00     0.012 C 
HETATM   30  C4  UNL     1      -2.355  -0.582  -2.518  1.00  0.00     0.012 C 
BRANCH  29  31
HETATM   31  C2  UNL     1      -3.539  -2.213  -1.228  1.00  0.00     0.002 C 
HETATM   32  C1  UNL     1      -4.120  -2.837   0.010  1.00  0.00     0.005 C 
ENDBRANCH  29  31
ENDBRANCH   1  29
BRANCH  28  33
HETATM   33  O8  UNL     1      -2.195  -1.175   1.804  1.00  0.00    -0.348 OA
ATOM     34  H8  UNL     1      -2.118  -1.593   2.654  1.00  0.00     0.219 HD
ENDBRANCH  28  33
BRANCH   6  35
HETATM   35  C8  UNL     1      -3.332   2.934  -0.926  1.00  0.00     0.009 C 
HETATM   36  C9  UNL     1      -2.780   3.768  -2.023  1.00  0.00     0.012 C 
HETATM   37  C10 UNL     1      -4.569   3.557  -0.294  1.00  0.00     0.012 C 
ENDBRANCH   6  35
BRANCH  25  38
HETATM   38  C24 UNL     1       0.806  -3.823  -0.274  1.00  0.00     0.032 C 
HETATM   39  C25 UNL     1      -0.415  -4.765  -0.134  1.00  0.00     0.016 C 
HETATM   40  C26 UNL     1       1.920  -4.908  -0.331  1.00  0.00     0.016 C 
ENDBRANCH  25  38
BRANCH  24  41
HETATM   41  O7  UNL     1       1.511  -1.222   2.169  1.00  0.00    -0.344 OA
ATOM     42  H7  UNL     1       0.648  -1.472   2.477  1.00  0.00     0.219 HD
ENDBRANCH  24  41
BRANCH   9  43
HETATM   43  O2  UNL     1      -0.490   5.360   0.502  1.00  0.00    -0.327 OA
ATOM     44  H2  UNL     1       0.360   5.747   0.329  1.00  0.00     0.221 HD
ENDBRANCH   9  43
BRANCH  15  45
HETATM   45  C17 UNL     1       3.151   3.391  -1.309  1.00  0.00     0.197 C 
BRANCH  45  46
HETATM   46  O5  UNL     1       3.875   3.199  -2.487  1.00  0.00    -0.398 OA
ATOM     47  H5  UNL     1       3.849   4.023  -2.959  1.00  0.00     0.209 HD
ENDBRANCH  45  46
ENDBRANCH  15  45
TORSDOF 9
