REMARK  5 active torsions:
REMARK  status: ('A' for Active; 'I' for Inactive)
REMARK    1  A    between atoms: C2_2  and  C3_3 
REMARK    2  A    between atoms: C6_9  and  C7_10 
REMARK    3  A    between atoms: C19_28  and  C20_29 
REMARK    4  A    between atoms: C24_36  and  C25_37 
REMARK    5  A    between atoms: C25_37  and  C26_38 
ROOT
HETATM    1  C3  UNL     1       0.539  -2.988   1.503  1.00  0.00     0.176 C 
HETATM    2  N1  UNL     1       1.876  -2.553   1.820  1.00  0.00    -0.348 N 
ATOM      3  H1  UNL     1       2.507  -3.255   2.207  1.00  0.00     0.163 HD
HETATM    4  C4  UNL     1       2.400  -1.255   1.649  1.00  0.00     0.220 C 
HETATM    5  O1  UNL     1       3.084  -0.772   2.590  1.00  0.00    -0.274 OA
HETATM    6  C5  UNL     1       2.223  -0.389   0.453  1.00  0.00     0.128 C 
HETATM    7  C6  UNL     1       3.573  -0.078  -0.184  1.00  0.00     0.098 C 
HETATM    8  N2  UNL     1       4.317   0.930   0.512  1.00  0.00    -0.349 N 
HETATM    9  C10 UNL     1       5.794   0.704   0.562  1.00  0.00     0.153 C 
HETATM   10  C11 UNL     1       3.821   2.065   1.185  1.00  0.00     0.249 C 
HETATM   11  O2  UNL     1       4.431   2.321   2.296  1.00  0.00    -0.270 OA
HETATM   12  C12 UNL     1       2.746   3.004   0.861  1.00  0.00     0.219 C 
HETATM   13  C13 UNL     1       3.318   4.402   1.199  1.00  0.00     0.050 C 
HETATM   14  O3  UNL     1       2.378   3.051  -0.458  1.00  0.00    -0.305 OA
HETATM   15  C14 UNL     1       1.252   3.421  -1.103  1.00  0.00     0.282 C 
HETATM   16  O4  UNL     1       1.453   3.919  -2.271  1.00  0.00    -0.263 OA
HETATM   17  C15 UNL     1      -0.110   3.277  -0.535  1.00  0.00     0.182 C 
HETATM   18  C16 UNL     1      -0.284   4.481   0.400  1.00  0.00     0.043 C 
HETATM   19  N3  UNL     1      -1.166   3.265  -1.514  1.00  0.00    -0.341 N 
HETATM   20  C17 UNL     1      -1.060   4.132  -2.706  1.00  0.00     0.153 C 
HETATM   21  C18 UNL     1      -2.300   2.464  -1.381  1.00  0.00     0.243 C 
HETATM   22  O5  UNL     1      -3.277   2.652  -2.161  1.00  0.00    -0.271 OA
HETATM   23  C19 UNL     1      -2.530   1.352  -0.392  1.00  0.00     0.180 C 
HETATM   24  N4  UNL     1      -2.505   0.099  -1.117  1.00  0.00    -0.346 N 
ATOM     25  H4  UNL     1      -2.907   0.149  -2.053  1.00  0.00     0.163 HD
HETATM   26  C23 UNL     1      -2.031  -1.161  -0.766  1.00  0.00     0.241 C 
HETATM   27  O6  UNL     1      -1.011  -1.594  -1.444  1.00  0.00    -0.271 OA
HETATM   28  C24 UNL     1      -2.489  -2.119   0.260  1.00  0.00     0.177 C 
HETATM   29  N5  UNL     1      -1.840  -2.006   1.541  1.00  0.00    -0.346 N 
ATOM     30  H5  UNL     1      -2.467  -1.937   2.342  1.00  0.00     0.163 HD
HETATM   31  C29 UNL     1      -0.486  -1.977   1.845  1.00  0.00     0.241 C 
HETATM   32  O7  UNL     1      -0.045  -0.964   2.501  1.00  0.00    -0.271 OA
ENDROOT
BRANCH  28  33
HETATM   33  C25 UNL     1      -2.410  -3.563  -0.300  1.00  0.00     0.038 C 
BRANCH  33  34
HETATM   34  C26 UNL     1      -3.334  -3.589  -1.531  1.00  0.00    -0.020 C 
HETATM   35  C27 UNL     1      -3.313  -4.975  -2.142  1.00  0.00     0.009 C 
HETATM   36  C28 UNL     1      -4.764  -3.304  -1.120  1.00  0.00     0.009 C 
ENDBRANCH  33  34
ENDBRANCH  28  33
BRANCH  23  37
HETATM   37  C20 UNL     1      -3.947   1.673   0.130  1.00  0.00     0.009 C 
HETATM   38  C21 UNL     1      -3.864   3.082   0.742  1.00  0.00     0.012 C 
HETATM   39  C22 UNL     1      -4.365   0.793   1.265  1.00  0.00     0.012 C 
ENDBRANCH  23  37
BRANCH   1  40
HETATM   40  C2  UNL     1       0.291  -4.296   2.273  1.00  0.00     0.030 C 
HETATM   41  C1  UNL     1       0.436  -4.038   3.772  1.00  0.00     0.007 C 
ENDBRANCH   1  40
BRANCH   7  42
HETATM   42  C7  UNL     1       3.500   0.033  -1.653  1.00  0.00     0.001 C 
HETATM   43  C8  UNL     1       3.019  -1.263  -2.308  1.00  0.00     0.011 C 
HETATM   44  C9  UNL     1       4.778   0.392  -2.366  1.00  0.00     0.011 C 
ENDBRANCH   7  42
TORSDOF 5
