REMARK  7 active torsions:
REMARK  status: ('A' for Active; 'I' for Inactive)
REMARK    1  A    between atoms: O1_1  and  C1_3 
REMARK    2  A    between atoms: C2_4  and  C3_5 
REMARK    3  A    between atoms: C3_5  and  N1_6 
REMARK    4  A    between atoms: N1_6  and  C4_9 
REMARK    5  A    between atoms: C4_9  and  C5_10 
REMARK    6  A    between atoms: C11_20  and  C12_21 
REMARK    7  A    between atoms: C13_24  and  C14_25 
ROOT
HETATM    1  C1  UNL     1       1.153   1.861  -1.210  1.00  0.00     0.093 A 
HETATM    2  C2  UNL     1       1.716   0.786  -0.565  1.00  0.00     0.005 A 
HETATM    3  C6  UNL     1       0.992  -0.340  -0.336  1.00  0.00     0.051 A 
HETATM    4  C7  UNL     1      -0.338  -0.402  -0.763  1.00  0.00     0.105 A 
HETATM    5  C8  UNL     1      -0.922   0.662  -1.412  1.00  0.00     0.122 A 
HETATM    6  C9  UNL     1      -0.159   1.793  -1.629  1.00  0.00     0.080 A 
HETATM    7 BR1  UNL     1      -1.002   3.260  -2.536  1.00  0.00    -0.045 Br
HETATM    8  O2  UNL     1      -2.248   0.578  -1.828  1.00  0.00    -0.344 OA
HETATM    9  C10 UNL     1      -2.796  -0.714  -2.007  1.00  0.00     0.217 C 
HETATM   10  C11 UNL     1      -2.432  -1.605  -0.838  1.00  0.00     0.230 C 
HETATM   11  O4  UNL     1      -1.079  -1.556  -0.529  1.00  0.00    -0.333 OA
ENDROOT
BRANCH  10  12
HETATM   12  C12 UNL     1      -3.295  -1.224   0.318  1.00  0.00     0.180 A 
HETATM   13  N2  UNL     1      -4.343  -0.410   0.283  1.00  0.00    -0.324 N 
HETATM   14  C13 UNL     1      -4.896  -0.283   1.504  1.00  0.00     0.117 A 
ATOM     15  H2  UNL     1      -4.684   0.057  -0.557  1.00  0.00     0.169 HD
HETATM   16  N3  UNL     1      -4.132  -1.063   2.300  1.00  0.00    -0.246 N 
HETATM   17  O3  UNL     1      -3.190  -1.609   1.572  1.00  0.00    -0.220 OA
ATOM     18  H3  UNL     1      -4.266  -1.203   3.301  1.00  0.00     0.196 HD
BRANCH  14  19
HETATM   19  C14 UNL     1      -6.079   0.531   1.892  1.00  0.00     0.193 C 
HETATM   20 CL1  UNL     1      -7.536  -0.487   1.715  1.00  0.00    -0.122 Cl
ENDBRANCH  14  19
ENDBRANCH  10  12
BRANCH   2  21
HETATM   21  C3  UNL     1       3.134   0.923  -0.139  1.00  0.00     0.274 C 
BRANCH  21  22
HETATM   22  N1  UNL     1       3.614  -0.261   0.524  1.00  0.00    -0.066 N 
ATOM     23  H12 UNL     1       3.031  -0.537   1.314  1.00  0.00     0.277 HD
ATOM     24  H11 UNL     1       3.491  -1.106  -0.035  1.00  0.00     0.277 HD
BRANCH  22  25
HETATM   25  C4  UNL     1       4.997  -0.027   0.897  1.00  0.00     0.303 C 
BRANCH  25  26
HETATM   26  C5  UNL     1       5.575  -1.248   1.609  1.00  0.00     0.378 C 
HETATM   27  F1  UNL     1       5.529  -2.343   0.799  1.00  0.00    -0.213 F 
HETATM   28  F2  UNL     1       4.958  -1.470   2.819  1.00  0.00    -0.213 F 
ENDBRANCH  25  26
ENDBRANCH  22  25
ENDBRANCH  21  22
ENDBRANCH   2  21
BRANCH   1  29
HETATM   29  O1  UNL     1       1.856   3.029  -1.464  1.00  0.00    -0.359 OA
ATOM     30  H1  UNL     1       1.467   3.772  -1.910  1.00  0.00     0.217 HD
ENDBRANCH   1  29
TORSDOF 7
