REMARK  4 active torsions:
REMARK  status: ('A' for Active; 'I' for Inactive)
REMARK    1  A    between atoms: C2_2  and  C3_3 
REMARK    2  A    between atoms: C14_16  and  O3_17 
REMARK    3  A    between atoms: C15_19  and  O4_20 
REMARK    4  A    between atoms: O4_20  and  C16_21 
ROOT
HETATM    1  C3  UNL     1      -1.644  -0.955  -0.188  1.00  0.00     0.052 C 
HETATM    2  C4  UNL     1      -0.558  -1.978  -0.315  1.00  0.00     0.189 C 
HETATM    3  C5  UNL     1       0.161  -1.579  -1.588  1.00  0.00     0.005 C 
HETATM    4  C6  UNL     1       0.533  -0.284  -1.490  1.00  0.00    -0.013 C 
HETATM    5  C7  UNL     1       0.242   0.545  -0.286  1.00  0.00     0.033 C 
HETATM    6  C8  UNL     1       0.891   1.854  -0.669  1.00  0.00     0.019 C 
HETATM    7  C9  UNL     1       2.359   1.471  -0.901  1.00  0.00     0.009 C 
HETATM    8  C10 UNL     1       2.939   0.313  -0.213  1.00  0.00     0.021 C 
HETATM    9  C11 UNL     1       3.878  -0.478  -1.142  1.00  0.00     0.013 C 
HETATM   10  C12 UNL     1       2.129  -0.579   0.645  1.00  0.00     0.122 C 
HETATM   11  C13 UNL     1       2.810  -0.885   1.993  1.00  0.00     0.052 C 
HETATM   12  O1  UNL     1       1.658  -1.769   0.189  1.00  0.00    -0.226 OA
HETATM   13  O2  UNL     1       0.413  -2.036   0.617  1.00  0.00    -0.230 OA
HETATM   14  C14 UNL     1       0.933   0.258   1.001  1.00  0.00     0.170 C 
HETATM   15  C15 UNL     1      -1.204   0.482  -0.051  1.00  0.00     0.153 C 
ENDROOT
BRANCH  15  16
HETATM   16  O4  UNL     1      -2.004   1.400  -0.721  1.00  0.00    -0.315 OA
BRANCH  16  17
HETATM   17  C16 UNL     1      -2.834   2.344  -0.215  1.00  0.00     0.255 C 
HETATM   18  C17 UNL     1      -3.591   3.215  -1.151  1.00  0.00     0.126 C 
HETATM   19  O5  UNL     1      -2.905   2.417   1.016  1.00  0.00    -0.266 OA
ENDBRANCH  16  17
ENDBRANCH  15  16
BRANCH   1  20
HETATM   20  C2  UNL     1      -2.731  -1.332   0.788  1.00  0.00     0.006 C 
HETATM   21  C1  UNL     1      -3.391  -2.641   0.331  1.00  0.00     0.006 C 
ENDBRANCH   1  20
BRANCH  14  22
HETATM   22  O3  UNL     1       0.169  -0.183   2.053  1.00  0.00    -0.391 OA
ATOM     23  H3  UNL     1       0.610  -0.366   2.874  1.00  0.00     0.210 HD
ENDBRANCH  14  22
TORSDOF 4
