REMARK  4 active torsions:
REMARK  status: ('A' for Active; 'I' for Inactive)
REMARK    1  A    between atoms: C2_2  and  O1_3 
REMARK    2  A    between atoms: O1_3  and  C3_4 
REMARK    3  A    between atoms: C3_4  and  C4_6 
REMARK       I    between atoms: N1_12  and  C8_13 
REMARK       I    between atoms: C8_13  and  N2_15 
REMARK    4  A    between atoms: N2_15  and  C9_17 
ROOT
HETATM    1  C4  UNL     1       0.440  -1.741  -0.697  1.00  0.00     0.198 C 
HETATM    2  C5  UNL     1       0.816  -2.433  -1.990  1.00  0.00     0.111 C 
HETATM    3  S1  UNL     1       0.036  -1.719  -3.435  1.00  0.00    -0.149 SA
HETATM    4  C6  UNL     1       0.016   0.082  -3.237  1.00  0.00     0.138 C 
HETATM    5  S2  UNL     1       0.686   0.940  -4.667  1.00  0.00    -0.079 SA
HETATM    6  C7  UNL     1       0.819   0.393  -1.978  1.00  0.00     0.155 C 
HETATM    7  N1  UNL     1       0.192  -0.325  -0.908  1.00  0.00    -0.318 N 
HETATM    8  C8  UNL     1      -0.694   0.331  -0.022  1.00  0.00     0.319 C 
HETATM    9  O3  UNL     1      -1.234  -0.314   0.924  1.00  0.00    -0.247 OA
HETATM   10  N2  UNL     1      -1.041   1.705  -0.108  1.00  0.00    -0.335 N 
ATOM     11  H2  UNL     1      -0.628   2.260  -0.857  1.00  0.00     0.165 HD
ENDROOT
BRANCH   1  12
HETATM   12  C3  UNL     1       1.563  -1.955   0.252  1.00  0.00     0.282 C 
HETATM   13  O2  UNL     1       2.124  -0.935   0.727  1.00  0.00    -0.263 OA
BRANCH  12  14
HETATM   14  O1  UNL     1       2.013  -3.189   0.632  1.00  0.00    -0.320 OA
BRANCH  14  15
HETATM   15  C2  UNL     1       3.066  -3.436   1.522  1.00  0.00     0.174 C 
HETATM   16  C1  UNL     1       2.822  -2.857   2.891  1.00  0.00     0.034 C 
ENDBRANCH  14  15
ENDBRANCH  12  14
ENDBRANCH   1  12
BRANCH  10  17
HETATM   17  C9  UNL     1      -1.942   2.356   0.802  1.00  0.00     0.023 C 
HETATM   18  C10 UNL     1      -2.107   3.824   0.429  1.00  0.00     0.037 C 
HETATM   19  C11 UNL     1      -1.384   2.341   2.207  1.00  0.00     0.037 C 
HETATM   20  C12 UNL     1      -3.322   1.750   0.785  1.00  0.00     0.037 C 
ENDBRANCH  10  17
TORSDOF 4
