REMARK  5 active torsions:
REMARK  status: ('A' for Active; 'I' for Inactive)
REMARK    1  A    between atoms: C2_2  and  C3_3 
REMARK    2  A    between atoms: C2_2  and  C4_6 
REMARK    3  A    between atoms: C3_3  and  O1_4 
REMARK    4  A    between atoms: C4_6  and  O3_8 
REMARK    5  A    between atoms: O3_8  and  C5_9 
ROOT
HETATM    1  C5  UNL     1       0.322  -0.885  -1.333  1.00  0.00     0.159 C 
HETATM    2  C6  UNL     1      -0.987  -0.166  -1.591  1.00  0.00     0.103 C 
HETATM    3  C7  UNL     1      -1.702  -1.421  -1.199  1.00  0.00    -0.065 C 
HETATM    4  C8  UNL     1      -2.933  -1.827  -1.435  1.00  0.00     0.016 C 
HETATM    5  C9  UNL     1      -0.464  -1.854  -0.524  1.00  0.00     0.008 C 
HETATM    6  C10 UNL     1      -0.074  -3.287  -0.913  1.00  0.00     0.023 C 
HETATM    7  C11 UNL     1      -0.423  -1.686   0.934  1.00  0.00     0.021 C 
HETATM    8  C12 UNL     1      -1.299  -0.645   1.526  1.00  0.00     0.039 C 
HETATM    9  C13 UNL     1      -1.368   0.610   0.758  1.00  0.00    -0.036 A 
HETATM   10  C14 UNL     1      -1.245   0.856  -0.533  1.00  0.00     0.070 A 
HETATM   11  O4  UNL     1      -1.381   2.192  -0.826  1.00  0.00    -0.282 OA
HETATM   12  C15 UNL     1      -1.613   2.913   0.338  1.00  0.00     0.271 A 
HETATM   13  O5  UNL     1      -1.788   4.140   0.493  1.00  0.00    -0.264 OA
HETATM   14  C16 UNL     1      -1.618   1.928   1.432  1.00  0.00     0.113 A 
HETATM   15  C17 UNL     1      -2.935   1.870   2.159  1.00  0.00     0.025 C 
ENDROOT
BRANCH   1  16
HETATM   16  O3  UNL     1       1.297  -0.140  -0.682  1.00  0.00    -0.310 OA
BRANCH  16  17
HETATM   17  C4  UNL     1       2.559  -0.004  -1.270  1.00  0.00     0.291 C 
HETATM   18  O2  UNL     1       2.741  -0.586  -2.394  1.00  0.00    -0.260 OA
BRANCH  17  19
HETATM   19  C2  UNL     1       3.623   0.754  -0.653  1.00  0.00     0.031 C 
HETATM   20  C1  UNL     1       4.784   0.849  -1.247  1.00  0.00     0.027 C 
BRANCH  19  21
HETATM   21  C3  UNL     1       3.400   1.418   0.639  1.00  0.00     0.208 C 
BRANCH  21  22
HETATM   22  O1  UNL     1       2.356   2.327   0.476  1.00  0.00    -0.396 OA
ATOM     23  H1  UNL     1       2.212   2.756   1.311  1.00  0.00     0.209 HD
ENDBRANCH  21  22
ENDBRANCH  19  21
ENDBRANCH  17  19
ENDBRANCH  16  17
ENDBRANCH   1  16
TORSDOF 5
