REMARK  4 active torsions:
REMARK  status: ('A' for Active; 'I' for Inactive)
REMARK    1  A    between atoms: C6_8  and  O3_9 
REMARK    2  A    between atoms: O3_9  and  C7_10 
REMARK    3  A    between atoms: C13_17  and  C15_19 
REMARK    4  A    between atoms: C17_21  and  O5_22 
ROOT
HETATM    1  C1  UNL     1       0.460   3.856  -0.730  1.00  0.00     0.028 C 
HETATM    2  C2  UNL     1      -0.316   2.801  -0.734  1.00  0.00     0.045 C 
HETATM    3  C3  UNL     1      -1.398   2.567  -1.670  1.00  0.00     0.292 C 
HETATM    4  O1  UNL     1      -1.864   3.379  -2.493  1.00  0.00    -0.259 OA
HETATM    5  O2  UNL     1      -1.833   1.263  -1.489  1.00  0.00    -0.300 OA
HETATM    6  C4  UNL     1      -1.506   0.803  -0.189  1.00  0.00     0.129 C 
HETATM    7  C5  UNL     1      -2.674   1.238   0.708  1.00  0.00     0.053 C 
HETATM    8  C6  UNL     1      -1.340  -0.655  -0.151  1.00  0.00     0.170 C 
HETATM    9  C9  UNL     1      -0.239  -1.194   0.682  1.00  0.00     0.041 C 
HETATM   10  C10 UNL     1       1.029  -0.427   0.692  1.00  0.00     0.003 C 
HETATM   11  C11 UNL     1       0.995   0.923   0.089  1.00  0.00     0.034 C 
HETATM   12  C12 UNL     1       1.465   0.359  -1.192  1.00  0.00     0.018 C 
HETATM   13  C13 UNL     1       2.031  -0.790  -0.384  1.00  0.00    -0.040 C 
HETATM   14  C14 UNL     1       1.830  -2.152  -0.958  1.00  0.00     0.015 C 
HETATM   15  C17 UNL     1      -0.307   1.621   0.160  1.00  0.00     0.128 C 
ENDROOT
BRANCH   8  16
HETATM   16  O3  UNL     1      -2.564  -1.226   0.345  1.00  0.00    -0.313 OA
BRANCH  16  17
HETATM   17  C7  UNL     1      -3.359  -2.066  -0.378  1.00  0.00     0.255 C 
HETATM   18  C8  UNL     1      -4.625  -2.617   0.225  1.00  0.00     0.126 C 
HETATM   19  O4  UNL     1      -3.005  -2.362  -1.549  1.00  0.00    -0.266 OA
ENDBRANCH  16  17
ENDBRANCH   8  16
BRANCH  15  20
HETATM   20  O5  UNL     1      -0.459   2.071   1.476  1.00  0.00    -0.381 OA
ATOM     21  H5  UNL     1      -0.453   1.314   2.050  1.00  0.00     0.211 HD
ENDBRANCH  15  20
BRANCH  13  22
HETATM   22  C15 UNL     1       3.432  -0.457   0.057  1.00  0.00     0.005 C 
HETATM   23  C16 UNL     1       4.459  -0.810  -0.998  1.00  0.00     0.006 C 
ENDBRANCH  13  22
TORSDOF 4
