REMARK  6 active torsions:
REMARK  status: ('A' for Active; 'I' for Inactive)
REMARK    1  A    between atoms: C2_2  and  C3_3 
REMARK    2  A    between atoms: C3_3  and  O1_4 
REMARK       I    between atoms: N1_8  and  C6_9 
REMARK    3  A    between atoms: C6_9  and  O3_11 
REMARK    4  A    between atoms: O3_11  and  C7_12 
REMARK    5  A    between atoms: C12_17  and  C14_19 
REMARK    6  A    between atoms: C14_19  and  O5_21 
ROOT
HETATM    1  C3  UNL     1      -2.176   0.671   0.154  1.00  0.00     0.077 C 
HETATM    2  C4  UNL     1      -1.197   1.762  -0.043  1.00  0.00     0.059 C 
HETATM    3  C5  UNL     1       0.219   1.441   0.211  1.00  0.00     0.131 C 
HETATM    4  N1  UNL     1       0.538   0.082   0.463  1.00  0.00    -0.327 N 
HETATM    5  C6  UNL     1       1.890  -0.337   0.340  1.00  0.00     0.363 C 
HETATM    6  O2  UNL     1       2.235  -1.542   0.553  1.00  0.00    -0.238 OA
HETATM    7  C11 UNL     1      -0.448  -0.882   0.835  1.00  0.00     0.150 C 
HETATM    8  C12 UNL     1      -1.617  -0.714  -0.144  1.00  0.00     0.091 C 
HETATM    9  C13 UNL     1      -1.131  -0.702  -1.561  1.00  0.00     0.031 C 
ENDROOT
BRANCH   5  10
HETATM   10  O3  UNL     1       2.916   0.527  -0.015  1.00  0.00    -0.294 OA
BRANCH  10  11
HETATM   11  C7  UNL     1       4.262   0.123  -0.140  1.00  0.00     0.061 C 
HETATM   12  C8  UNL     1       4.458  -0.949  -1.177  1.00  0.00     0.046 C 
HETATM   13  C9  UNL     1       5.041   1.351  -0.610  1.00  0.00     0.046 C 
HETATM   14  C10 UNL     1       4.851  -0.276   1.204  1.00  0.00     0.046 C 
ENDBRANCH  10  11
ENDBRANCH   5  10
BRANCH   8  15
HETATM   15  C14 UNL     1      -2.631  -1.740   0.062  1.00  0.00     0.271 C 
HETATM   16  O4  UNL     1      -2.971  -2.476  -0.897  1.00  0.00    -0.264 OA
BRANCH  15  17
HETATM   17  O5  UNL     1      -3.249  -1.950   1.283  1.00  0.00    -0.326 OA
HETATM   18  C15 UNL     1      -4.244  -2.964   1.470  1.00  0.00     0.213 C 
ENDBRANCH  15  17
ENDBRANCH   8  15
BRANCH   1  19
HETATM   19  C2  UNL     1      -3.357   0.899  -0.766  1.00  0.00     0.035 C 
HETATM   20  C1  UNL     1      -4.030   2.216  -0.519  1.00  0.00     0.008 C 
ENDBRANCH   1  19
BRANCH   1  21
HETATM   21  O1  UNL     1      -2.678   0.703   1.471  1.00  0.00    -0.388 OA
ATOM     22  H1  UNL     1      -1.937   0.560   2.048  1.00  0.00     0.210 HD
ENDBRANCH   1  21
TORSDOF 6
