REMARK  6 active torsions:
REMARK  status: ('A' for Active; 'I' for Inactive)
REMARK    1  A    between atoms: O1_2  and  C2_3 
REMARK    2  A    between atoms: C2_3  and  C3_5 
REMARK    3  A    between atoms: C3_5  and  S1_6 
REMARK    4  A    between atoms: S1_6  and  C4_7 
REMARK    5  A    between atoms: N2_13  and  C7_15 
REMARK    6  A    between atoms: C7_15  and  C8_19 
ROOT
HETATM    1  C4  UNL     1       1.749   0.304  -1.225  1.00  0.00     0.117 A 
HETATM    2  N1  UNL     1       2.010  -0.836  -0.771  1.00  0.00    -0.310 N 
ATOM      3  H1  UNL     1       2.978  -1.151  -0.709  1.00  0.00     0.170 HD
HETATM    4  C5  UNL     1       0.990  -1.663  -0.356  1.00  0.00     0.280 A 
HETATM    5  O3  UNL     1       1.183  -2.838   0.117  1.00  0.00    -0.265 OA
HETATM    6  C6  UNL     1      -0.356  -1.126  -0.482  1.00  0.00     0.147 A 
HETATM    7  N2  UNL     1      -1.485  -1.638  -0.188  1.00  0.00    -0.333 N 
ATOM      8  H2  UNL     1      -1.559  -2.576   0.206  1.00  0.00     0.168 HD
HETATM    9  S2  UNL     1      -0.019   0.516  -1.185  1.00  0.00    -0.042 SA
ENDROOT
BRANCH   7  10
HETATM   10  C7  UNL     1      -2.658  -0.828  -0.439  1.00  0.00     0.099 C 
HETATM   11  N3  UNL     1      -2.852  -0.347  -1.601  1.00  0.00    -0.385 N 
ATOM     12  H32 UNL     1      -2.216  -0.502  -2.384  1.00  0.00     0.157 HD
ATOM     13  H31 UNL     1      -3.679   0.224  -1.778  1.00  0.00     0.157 HD
BRANCH  10  14
HETATM   14  C8  UNL     1      -3.559  -0.609   0.670  1.00  0.00     0.050 C 
HETATM   15  C9  UNL     1      -4.650   0.111   0.539  1.00  0.00    -0.084 C 
HETATM   16  C10 UNL     1      -5.097   0.774  -0.697  1.00  0.00     0.043 C 
HETATM   17  C11 UNL     1      -5.488   0.241   1.801  1.00  0.00     0.043 C 
ENDBRANCH  10  14
ENDBRANCH   7  10
BRANCH   1  18
HETATM   18  S1  UNL     1       2.902   1.518  -1.810  1.00  0.00    -0.095 SA
BRANCH  18  19
HETATM   19  C3  UNL     1       4.607   0.860  -1.665  1.00  0.00     0.192 C 
BRANCH  19  20
HETATM   20  C2  UNL     1       4.952   0.687  -0.242  1.00  0.00     0.268 C 
HETATM   21  O2  UNL     1       4.108   0.979   0.642  1.00  0.00    -0.264 OA
BRANCH  20  22
HETATM   22  O1  UNL     1       6.177   0.211   0.165  1.00  0.00    -0.326 OA
HETATM   23  C1  UNL     1       6.441   0.069   1.537  1.00  0.00     0.213 C 
ENDBRANCH  20  22
ENDBRANCH  19  20
ENDBRANCH  18  19
ENDBRANCH   1  18
TORSDOF 6
