REMARK  7 active torsions:
REMARK  status: ('A' for Active; 'I' for Inactive)
REMARK    1  A    between atoms: C2_2  and  C4_4 
REMARK    2  A    between atoms: C4_4  and  C5_5 
REMARK    3  A    between atoms: C5_5  and  C6_6 
REMARK       I    between atoms: C6_6  and  N1_8 
REMARK    4  A    between atoms: C8_10  and  O2_11 
REMARK    5  A    between atoms: C9_13  and  N2_14 
REMARK    6  A    between atoms: N2_14  and  S1_16 
REMARK    7  A    between atoms: S1_16  and  C10_19 
ROOT
HETATM    1  C6  UNL     1      -1.075  -0.707   0.712  1.00  0.00     0.228 C 
HETATM    2  O1  UNL     1      -1.174  -1.693   1.544  1.00  0.00    -0.273 OA
HETATM    3  N1  UNL     1       0.231  -0.468   0.262  1.00  0.00    -0.347 N 
HETATM    4  C7  UNL     1       0.701   0.522  -0.642  1.00  0.00     0.159 C 
HETATM    5  C8  UNL     1       2.087   0.090  -1.100  1.00  0.00     0.161 C 
HETATM    6  C9  UNL     1       2.619  -0.659   0.102  1.00  0.00     0.141 C 
HETATM    7  C14 UNL     1       1.380  -1.283   0.704  1.00  0.00     0.154 C 
ENDROOT
BRANCH   1   8
HETATM    8  C5  UNL     1      -2.336  -0.032   0.402  1.00  0.00     0.041 C 
HETATM    9  C15 UNL     1      -3.396  -0.522   1.389  1.00  0.00     0.020 C 
HETATM   10  C16 UNL     1      -4.648   0.256   1.424  1.00  0.00     0.005 C 
HETATM   11  C17 UNL     1      -4.453   1.746   1.528  1.00  0.00    -0.019 C 
HETATM   12  C18 UNL     1      -4.051   2.072   2.957  1.00  0.00     0.010 C 
HETATM   13  C19 UNL     1      -3.400   2.266   0.619  1.00  0.00     0.005 C 
HETATM   14  C20 UNL     1      -2.142   1.451   0.797  1.00  0.00     0.020 C 
BRANCH   8  15
HETATM   15  C4  UNL     1      -2.784  -0.004  -0.998  1.00  0.00     0.023 C 
BRANCH  15  16
HETATM   16  C2  UNL     1      -3.014  -1.235  -1.764  1.00  0.00    -0.021 C 
HETATM   17  C1  UNL     1      -1.821  -2.150  -1.936  1.00  0.00     0.009 C 
HETATM   18  C3  UNL     1      -4.269  -2.006  -1.466  1.00  0.00     0.009 C 
ENDBRANCH  15  16
ENDBRANCH   8  15
ENDBRANCH   1   8
BRANCH   5  19
HETATM   19  O2  UNL     1       2.046  -0.796  -2.171  1.00  0.00    -0.392 OA
ATOM     20  H2  UNL     1       2.911  -1.066  -2.457  1.00  0.00     0.210 HD
ENDBRANCH   5  19
BRANCH   6  21
HETATM   21  N2  UNL     1       3.270   0.251   0.948  1.00  0.00    -0.310 N 
ATOM     22  H2  UNL     1       2.753   1.053   1.308  1.00  0.00     0.172 HD
BRANCH  21  23
HETATM   23  S1  UNL     1       4.869   0.054   1.379  1.00  0.00     0.231 S 
HETATM   24  O3  UNL     1       5.038  -1.257   2.168  1.00  0.00    -0.206 OA
HETATM   25  O4  UNL     1       5.229   1.163   2.382  1.00  0.00    -0.206 OA
BRANCH  23  26
HETATM   26  C10 UNL     1       6.095   0.088   0.151  1.00  0.00     0.129 C 
HETATM   27  C11 UNL     1       6.085  -0.846  -0.993  1.00  0.00     0.022 C 
HETATM   28  C12 UNL     1       5.883   0.364  -1.915  1.00  0.00     0.003 C 
HETATM   29  C13 UNL     1       6.124   1.297  -0.746  1.00  0.00     0.022 C 
ENDBRANCH  23  26
ENDBRANCH  21  23
ENDBRANCH   6  21
TORSDOF 7
