REMARK  6 active torsions:
REMARK  status: ('A' for Active; 'I' for Inactive)
REMARK    1  A    between atoms: C2_2  and  C3_3 
REMARK    2  A    between atoms: C2_2  and  C11_20 
REMARK    3  A    between atoms: C3_3  and  C4_4 
REMARK    4  A    between atoms: C4_4  and  N1_5 
REMARK       I    between atoms: N1_5  and  C5_7 
REMARK    5  A    between atoms: C5_7  and  C6_9 
REMARK       I    between atoms: C6_9  and  N2_11 
REMARK    6  A    between atoms: N2_11  and  C7_13 
ROOT
HETATM    1  N1  UNL     1       1.506  -0.686  -1.040  1.00  0.00    -0.353 N 
ATOM      2  H1  UNL     1       1.618  -1.646  -1.366  1.00  0.00     0.162 HD
HETATM    3  C5  UNL     1       2.662   0.027  -0.685  1.00  0.00     0.309 C 
HETATM    4  O1  UNL     1       2.622   1.207  -0.279  1.00  0.00    -0.262 OA
ENDROOT
BRANCH   1   5
HETATM    5  C4  UNL     1       0.147  -0.139  -0.972  1.00  0.00     0.127 C 
BRANCH   5   6
HETATM    6  C3  UNL     1      -0.229   0.235   0.410  1.00  0.00     0.053 C 
BRANCH   6   7
HETATM    7  C2  UNL     1      -1.586   0.840   0.594  1.00  0.00    -0.079 C 
HETATM    8  C1  UNL     1      -1.599   2.116   0.927  1.00  0.00     0.015 C 
BRANCH   7   9
HETATM    9  C11 UNL     1      -2.861   0.039   0.457  1.00  0.00    -0.017 C 
HETATM   10  C12 UNL     1      -2.612  -1.164   1.398  1.00  0.00     0.020 C 
HETATM   11  C13 UNL     1      -3.081  -0.488  -0.899  1.00  0.00     0.014 C 
HETATM   12  C14 UNL     1      -4.486  -0.537  -1.424  1.00  0.00     0.002 C 
HETATM   13  C15 UNL     1      -5.469   0.360  -0.789  1.00  0.00     0.009 C 
HETATM   14  C16 UNL     1      -5.369   0.388   0.717  1.00  0.00    -0.043 C 
HETATM   15  C17 UNL     1      -5.919  -0.824   1.345  1.00  0.00     0.015 C 
HETATM   16  C18 UNL     1      -6.287   1.553   1.144  1.00  0.00     0.015 C 
HETATM   17  C19 UNL     1      -3.989   0.821   1.066  1.00  0.00     0.001 C 
HETATM   18  C20 UNL     1      -3.800   1.027   2.551  1.00  0.00     0.012 C 
ENDBRANCH   7   9
ENDBRANCH   6   7
ENDBRANCH   5   6
ENDBRANCH   1   5
BRANCH   3  19
HETATM   19  C6  UNL     1       3.981  -0.619  -0.786  1.00  0.00     0.309 C 
HETATM   20  O2  UNL     1       4.049  -1.802  -1.206  1.00  0.00    -0.262 OA
HETATM   21  N2  UNL     1       5.166   0.040  -0.430  1.00  0.00    -0.347 N 
ATOM     22  H2  UNL     1       5.092   0.999  -0.091  1.00  0.00     0.163 HD
BRANCH  21  23
HETATM   23  C7  UNL     1       6.468  -0.537  -0.508  1.00  0.00     0.099 C 
HETATM   24  C8  UNL     1       7.428   0.280  -1.324  1.00  0.00     0.041 C 
HETATM   25  C9  UNL     1       8.707  -0.529  -1.352  1.00  0.00     0.142 C 
HETATM   26  S1  UNL     1       8.799  -1.073   0.357  1.00  0.00     0.146 S 
HETATM   27  O3  UNL     1       9.804  -0.250   1.069  1.00  0.00    -0.228 OA
HETATM   28  O4  UNL     1       9.049  -2.546   0.446  1.00  0.00    -0.228 OA
HETATM   29  C10 UNL     1       7.119  -0.682   0.872  1.00  0.00     0.165 C 
ENDBRANCH  21  23
ENDBRANCH   3  19
TORSDOF 6
