REMARK  7 active torsions:
REMARK  status: ('A' for Active; 'I' for Inactive)
REMARK    1  A    between atoms: C2_2  and  C3_3 
REMARK    2  A    between atoms: C2_2  and  C22_28 
REMARK    3  A    between atoms: C3_3  and  C4_4 
REMARK    4  A    between atoms: C4_4  and  C5_5 
REMARK       I    between atoms: C5_5  and  N1_7 
REMARK    5  A    between atoms: N1_7  and  C6_9 
REMARK    6  A    between atoms: C10_13  and  C11_14 
REMARK       I    between atoms: C11_14  and  N2_16 
REMARK    7  A    between atoms: C16_21  and  C17_22 
ROOT
HETATM    1  C6  UNL     1       0.232  -0.476   0.665  1.00  0.00     0.093 C 
HETATM    2  C7  UNL     1      -0.560  -1.599   1.279  1.00  0.00     0.010 C 
HETATM    3  C8  UNL     1      -1.658  -0.909   2.106  1.00  0.00     0.013 C 
HETATM    4  C9  UNL     1      -2.419  -0.214   1.015  1.00  0.00     0.010 C 
HETATM    5  C10 UNL     1      -1.787   1.034   0.514  1.00  0.00     0.089 C 
HETATM    6  C14 UNL     1      -0.578   0.455  -0.177  1.00  0.00     0.023 C 
HETATM    7  C15 UNL     1      -1.350  -0.432  -1.179  1.00  0.00     0.020 C 
HETATM    8  C16 UNL     1      -2.281  -1.145  -0.195  1.00  0.00    -0.009 C 
HETATM    9  C21 UNL     1      -1.449  -2.325   0.281  1.00  0.00     0.019 C 
ENDROOT
BRANCH   1  10
HETATM   10  N1  UNL     1       1.385  -0.920  -0.041  1.00  0.00    -0.356 N 
HETATM   11  C5  UNL     1       2.730  -0.568   0.401  1.00  0.00     0.217 C 
HETATM   12  O1  UNL     1       2.784   0.145   1.435  1.00  0.00    -0.274 OA
ATOM     13  H1  UNL     1       1.269  -1.497  -0.874  1.00  0.00     0.162 HD
BRANCH  11  14
HETATM   14  C4  UNL     1       3.863  -1.065  -0.383  1.00  0.00     0.103 C 
BRANCH  14  15
HETATM   15  C3  UNL     1       5.225  -0.606  -0.118  1.00  0.00     0.024 C 
BRANCH  15  16
HETATM   16  C2  UNL     1       5.596   0.810  -0.303  1.00  0.00     0.083 C 
HETATM   17  C1  UNL     1       5.325   1.297  -1.722  1.00  0.00     0.021 C 
BRANCH  16  18
HETATM   18  C22 UNL     1       5.202   1.812   0.669  1.00  0.00     0.176 C 
HETATM   19  O4  UNL     1       4.495   2.808   0.325  1.00  0.00    -0.648 OA
HETATM   20  O5  UNL     1       5.593   1.699   1.999  1.00  0.00    -0.648 OA
ENDBRANCH  16  18
ENDBRANCH  15  16
ENDBRANCH  14  15
ENDBRANCH  11  14
ENDBRANCH   1  10
BRANCH   5  21
HETATM   21  C11 UNL     1      -1.577   2.118   1.431  1.00  0.00     0.224 C 
HETATM   22  O2  UNL     1      -1.859   2.004   2.637  1.00  0.00    -0.273 OA
HETATM   23  N2  UNL     1      -1.045   3.340   0.992  1.00  0.00    -0.360 N 
HETATM   24  C12 UNL     1      -0.666   3.674  -0.363  1.00  0.00     0.152 C 
HETATM   25  C13 UNL     1      -0.835   4.412   1.973  1.00  0.00     0.152 C 
ENDBRANCH   5  21
BRANCH   8  26
HETATM   26  C17 UNL     1      -3.575  -1.520  -0.799  1.00  0.00     0.130 C 
HETATM   27  C18 UNL     1      -4.462  -2.228   0.164  1.00  0.00     0.035 C 
HETATM   28  C19 UNL     1      -4.943  -3.461  -0.610  1.00  0.00     0.029 C 
HETATM   29  C20 UNL     1      -4.573  -3.060  -2.039  1.00  0.00     0.168 C 
HETATM   30  O3  UNL     1      -3.328  -2.450  -1.809  1.00  0.00    -0.385 OA
ENDBRANCH   8  26
TORSDOF 7
