REMARK  8 active torsions:
REMARK  status: ('A' for Active; 'I' for Inactive)
REMARK    1  A    between atoms: N1_2  and  C3_4 
REMARK    2  A    between atoms: C10_11  and  C11_12 
REMARK    3  A    between atoms: C11_12  and  C12_13 
REMARK    4  A    between atoms: C12_13  and  C13_14 
REMARK    5  A    between atoms: C12_13  and  C14_17 
REMARK    6  A    between atoms: C13_14  and  O1_15 
REMARK    7  A    between atoms: C14_17  and  C15_18 
REMARK       I    between atoms: C15_18  and  N2_20 
REMARK    8  A    between atoms: C18_23  and  C19_24 
ROOT
HETATM    1  C12 UNL     1       0.487  -2.065   0.055  1.00  0.00     0.018 C 
ENDROOT
BRANCH   1   2
HETATM    2  C11 UNL     1      -0.281  -0.864   0.432  1.00  0.00     0.012 C 
BRANCH   2   3
HETATM    3  C10 UNL     1      -1.677  -1.136   0.935  1.00  0.00    -0.010 C 
HETATM    4  C9  UNL     1      -1.702  -1.997   2.151  1.00  0.00     0.005 C 
HETATM    5  C8  UNL     1      -3.074  -2.168   2.705  1.00  0.00     0.001 C 
HETATM    6  C7  UNL     1      -4.076  -1.151   2.230  1.00  0.00     0.005 C 
HETATM    7  C6  UNL     1      -3.403   0.181   2.210  1.00  0.00    -0.010 C 
HETATM    8  C5  UNL     1      -4.364   1.314   2.071  1.00  0.00     0.007 C 
HETATM    9  C22 UNL     1      -2.381   0.200   1.109  1.00  0.00    -0.004 C 
HETATM   10  C4  UNL     1      -5.154   1.114   0.821  1.00  0.00     0.025 C 
HETATM   11  C3  UNL     1      -4.353   0.732  -0.383  1.00  0.00     0.078 C 
HETATM   12  C23 UNL     1      -2.869   0.749  -0.188  1.00  0.00     0.030 C 
BRANCH  11  13
HETATM   13  N1  UNL     1      -4.713   1.638  -1.448  1.00  0.00    -0.417 N 
HETATM   14  C1  UNL     1      -4.413   3.008  -1.216  1.00  0.00     0.143 C 
HETATM   15  C2  UNL     1      -4.488   1.152  -2.768  1.00  0.00     0.143 C 
ENDBRANCH  11  13
ENDBRANCH   2   3
ENDBRANCH   1   2
BRANCH   1  16
HETATM   16  C13 UNL     1      -0.206  -2.857  -1.071  1.00  0.00     0.169 C 
BRANCH  16  17
HETATM   17  O1  UNL     1      -0.340  -2.065  -2.203  1.00  0.00    -0.400 OA
ATOM     18  H1  UNL     1      -0.767  -2.553  -2.897  1.00  0.00     0.209 HD
ENDBRANCH  16  17
ENDBRANCH   1  16
BRANCH   1  19
HETATM   19  C14 UNL     1       1.840  -1.707  -0.476  1.00  0.00     0.109 C 
BRANCH  19  20
HETATM   20  C15 UNL     1       2.742  -1.013   0.441  1.00  0.00     0.220 C 
HETATM   21  O2  UNL     1       2.448  -0.828   1.643  1.00  0.00    -0.273 OA
HETATM   22  N2  UNL     1       4.017  -0.505   0.007  1.00  0.00    -0.352 N 
HETATM   23  C16 UNL     1       4.871   0.173   0.949  1.00  0.00     0.126 C 
HETATM   24  C21 UNL     1       4.492  -0.646  -1.351  1.00  0.00     0.126 C 
HETATM   25  C17 UNL     1       6.214   0.477   0.314  1.00  0.00     0.033 C 
HETATM   26  C18 UNL     1       5.923   1.379  -0.878  1.00  0.00     0.078 C 
HETATM   27  C20 UNL     1       5.176   0.564  -1.892  1.00  0.00     0.033 C 
BRANCH  26  28
HETATM   28  C19 UNL     1       7.175   1.925  -1.444  1.00  0.00     0.235 C 
HETATM   29  N3  UNL     1       7.995   2.717  -0.596  1.00  0.00    -0.062 NA
HETATM   30  O3  UNL     1       7.567   1.740  -2.623  1.00  0.00    -0.277 OA
ENDBRANCH  26  28
ENDBRANCH  19  20
ENDBRANCH   1  19
TORSDOF 8
