REMARK  3 active torsions:
REMARK  status: ('A' for Active; 'I' for Inactive)
REMARK    1  A    between atoms: C1_2  and  C2_3 
REMARK       I    between atoms: C1_2  and  N2_12 
REMARK    2  A    between atoms: C2_3  and  N1_4 
REMARK    3  A    between atoms: N1_4  and  C3_6 
ROOT
HETATM    1  O1  UNL     1       0.765  -1.763  -0.225  1.00  0.00    -0.272 OA
HETATM    2  C1  UNL     1       1.018  -0.545  -0.266  1.00  0.00     0.237 C 
HETATM    3  N2  UNL     1       2.306  -0.109   0.151  1.00  0.00    -0.351 N 
HETATM    4  C9  UNL     1       3.237  -1.129   0.600  1.00  0.00     0.128 C 
HETATM    5  C10 UNL     1       4.496  -0.548   1.146  1.00  0.00     0.057 C 
HETATM    6  C11 UNL     1       4.965   0.520   0.170  1.00  0.00     0.173 C 
HETATM    7  F1  UNL     1       4.823   0.041  -1.110  1.00  0.00    -0.249 F 
HETATM    8  C12 UNL     1       4.005   1.686   0.312  1.00  0.00     0.057 C 
HETATM    9  C13 UNL     1       2.588   1.296   0.109  1.00  0.00     0.128 C 
ENDROOT
BRANCH   2  10
HETATM   10  C2  UNL     1       0.039   0.467  -0.729  1.00  0.00     0.217 C 
BRANCH  10  11
HETATM   11  N1  UNL     1      -1.195  -0.148  -1.051  1.00  0.00    -0.409 N 
ATOM     12  H1  UNL     1      -1.503  -0.247  -2.018  1.00  0.00     0.154 HD
BRANCH  11  13
HETATM   13  C3  UNL     1      -1.998  -0.628   0.045  1.00  0.00     0.077 C 
HETATM   14  C4  UNL     1      -2.509   0.463   0.917  1.00  0.00     0.024 C 
HETATM   15  C5  UNL     1      -3.909   0.914   0.663  1.00  0.00     0.002 C 
HETATM   16  C6  UNL     1      -4.683   0.084  -0.313  1.00  0.00     0.000 C 
HETATM   17  C7  UNL     1      -4.393  -1.379   0.045  1.00  0.00     0.002 C 
HETATM   18  C8  UNL     1      -2.994  -1.618  -0.466  1.00  0.00     0.024 C 
ENDBRANCH  11  13
ENDBRANCH  10  11
ENDBRANCH   2  10
TORSDOF 3
