REMARK  3 active torsions:
REMARK  status: ('A' for Active; 'I' for Inactive)
REMARK       I    between atoms: C1_2  and  N1_3 
REMARK    1  A    between atoms: C1_2  and  C6_9 
REMARK    2  A    between atoms: N1_3  and  C2_5 
REMARK    3  A    between atoms: C2_5  and  C3_6 
ROOT
HETATM    1  C6  UNL     1      -0.600  -0.342   0.123  1.00  0.00     0.044 C 
HETATM    2  C7  UNL     1      -1.247  -1.392  -0.743  1.00  0.00     0.024 C 
HETATM    3  C8  UNL     1      -2.755  -1.201  -0.732  1.00  0.00    -0.010 C 
HETATM    4  C9  UNL     1      -3.081   0.132  -1.354  1.00  0.00     0.009 C 
HETATM    5  C10 UNL     1      -2.374   1.205  -0.567  1.00  0.00    -0.010 C 
HETATM    6  C11 UNL     1      -2.880   1.186   0.869  1.00  0.00     0.048 C 
HETATM    7  C12 UNL     1      -2.619  -0.150   1.497  1.00  0.00     0.105 C 
HETATM    8  F1  UNL     1      -3.079  -0.135   2.784  1.00  0.00    -0.243 F 
HETATM    9  C13 UNL     1      -3.196  -1.294   0.710  1.00  0.00     0.048 C 
HETATM   10  C14 UNL     1      -1.103  -0.345   1.531  1.00  0.00     0.062 C 
HETATM   11  C15 UNL     1      -0.886   1.003  -0.516  1.00  0.00     0.024 C 
ENDROOT
BRANCH   1  12
HETATM   12  C1  UNL     1       0.867  -0.616   0.139  1.00  0.00     0.226 C 
HETATM   13  O1  UNL     1       1.355  -1.586  -0.501  1.00  0.00    -0.273 OA
HETATM   14  N1  UNL     1       1.709   0.228   0.883  1.00  0.00    -0.360 N 
ATOM     15  H1  UNL     1       1.290   1.005   1.394  1.00  0.00     0.162 HD
BRANCH  14  16
HETATM   16  C2  UNL     1       3.132   0.048   0.958  1.00  0.00     0.127 C 
BRANCH  16  17
HETATM   17  C3  UNL     1       3.842   0.139  -0.364  1.00  0.00     0.003 A 
HETATM   18  C4  UNL     1       5.349  -0.058  -0.239  1.00  0.00     0.007 A 
HETATM   19  C5  UNL     1       4.792   1.248  -0.637  1.00  0.00     0.007 A 
ENDBRANCH  16  17
ENDBRANCH  14  16
ENDBRANCH   1  12
TORSDOF 3
