REMARK  3 active torsions:
REMARK  status: ('A' for Active; 'I' for Inactive)
REMARK       I    between atoms: C1_2  and  N1_3 
REMARK    1  A    between atoms: C1_2  and  C13_17 
REMARK    2  A    between atoms: N1_3  and  C2_5 
REMARK    3  A    between atoms: C2_5  and  C3_6 
ROOT
HETATM    1  C3  UNL     1      -0.652  -0.377   0.545  1.00  0.00    -0.021 C 
HETATM    2  C4  UNL     1      -0.876  -0.753  -0.904  1.00  0.00     0.016 C 
HETATM    3  C5  UNL     1      -2.223  -0.253  -1.330  1.00  0.00    -0.010 C 
HETATM    4  C6  UNL     1      -2.427   1.216  -1.083  1.00  0.00     0.009 C 
HETATM    5  C7  UNL     1      -2.193   1.534   0.376  1.00  0.00    -0.010 C 
HETATM    6  C8  UNL     1      -3.166   0.801   1.234  1.00  0.00     0.048 C 
HETATM    7  C9  UNL     1      -3.049  -0.686   0.959  1.00  0.00     0.105 C 
HETATM    8  F1  UNL     1      -4.035  -1.368   1.651  1.00  0.00    -0.243 F 
HETATM    9  C10 UNL     1      -3.264  -0.996  -0.511  1.00  0.00     0.048 C 
HETATM   10  C11 UNL     1      -1.670  -1.129   1.371  1.00  0.00     0.054 C 
HETATM   11  C12 UNL     1      -0.798   1.106   0.772  1.00  0.00     0.016 C 
ENDROOT
BRANCH   1  12
HETATM   12  C2  UNL     1       0.735  -0.759   1.007  1.00  0.00     0.132 C 
BRANCH  12  13
HETATM   13  N1  UNL     1       1.747  -0.091   0.221  1.00  0.00    -0.360 N 
HETATM   14  C1  UNL     1       3.131  -0.261   0.432  1.00  0.00     0.221 C 
HETATM   15  O1  UNL     1       3.510  -1.027   1.344  1.00  0.00    -0.273 OA
ATOM     16  H1  UNL     1       1.445   0.536  -0.525  1.00  0.00     0.162 HD
BRANCH  14  17
HETATM   17  C13 UNL     1       4.098   0.462  -0.420  1.00  0.00     0.078 A 
HETATM   18  C14 UNL     1       5.352  -0.378  -0.824  1.00  0.00     0.015 A 
HETATM   19  C15 UNL     1       5.452   0.795   0.090  1.00  0.00     0.015 A 
ENDBRANCH  14  17
ENDBRANCH  12  13
ENDBRANCH   1  12
TORSDOF 3
