REMARK  2 active torsions:
REMARK  status: ('A' for Active; 'I' for Inactive)
REMARK    1  A    between atoms: C10_11  and  C11_12 
REMARK    2  A    between atoms: C11_12  and  C13_14 
ROOT
HETATM    1  C1  UNL     1      -3.623  -0.260  -0.354  1.00  0.00     0.014 C 
HETATM    2  C2  UNL     1      -2.338   0.178   0.268  1.00  0.00     0.026 C 
HETATM    3  C3  UNL     1      -1.611   1.161  -0.621  1.00  0.00    -0.006 C 
HETATM    4  C4  UNL     1      -1.047   0.412  -1.835  1.00  0.00     0.010 C 
HETATM    5  C5  UNL     1      -0.010  -0.441  -1.134  1.00  0.00    -0.001 C 
HETATM    6  C6  UNL     1      -0.847  -1.618  -0.594  1.00  0.00     0.049 C 
HETATM    7  C7  UNL     1      -1.479  -0.986   0.606  1.00  0.00     0.111 C 
HETATM    8  F1  UNL     1      -2.131  -1.868   1.418  1.00  0.00    -0.242 F 
HETATM    9  C8  UNL     1      -0.232  -0.409   1.287  1.00  0.00     0.031 C 
HETATM   10  C9  UNL     1       0.473  -1.474   1.998  1.00  0.00     0.014 C 
HETATM   11  C10 UNL     1       0.428   0.258   0.109  1.00  0.00    -0.019 C 
HETATM   12  C14 UNL     1      -0.321   1.601   0.040  1.00  0.00     0.016 C 
ENDROOT
BRANCH  11  13
HETATM   13  C11 UNL     1       1.866   0.513   0.273  1.00  0.00     0.080 C 
HETATM   14  C12 UNL     1       2.717  -0.753   0.286  1.00  0.00     0.020 C 
BRANCH  13  15
HETATM   15  C13 UNL     1       2.480   1.366  -0.744  1.00  0.00     0.235 C 
HETATM   16  N1  UNL     1       3.773   1.926  -0.492  1.00  0.00    -0.062 NA
HETATM   17  O1  UNL     1       1.960   1.640  -1.821  1.00  0.00    -0.276 OA
ENDBRANCH  13  15
ENDBRANCH  11  13
TORSDOF 2
