REMARK  4 active torsions:
REMARK  status: ('A' for Active; 'I' for Inactive)
REMARK    1  A    between atoms: C4_4  and  C5_5 
REMARK    2  A    between atoms: C5_5  and  N1_6 
REMARK    3  A    between atoms: C5_5  and  C11_13 
REMARK    4  A    between atoms: N1_6  and  C6_8 
ROOT
HETATM    1  C1  UNL     1       3.914   1.086  -2.427  1.00  0.00     0.017 C 
HETATM    2  C2  UNL     1       3.231   0.290  -1.825  1.00  0.00    -0.090 C 
HETATM    3  C3  UNL     1       2.444  -0.658  -1.128  1.00  0.00     0.062 C 
HETATM    4  C4  UNL     1       1.618  -0.283  -0.190  1.00  0.00     0.012 C 
ENDROOT
BRANCH   4   5
HETATM    5  C5  UNL     1       0.760  -1.189   0.590  1.00  0.00     0.140 C 
BRANCH   5   6
HETATM    6  N1  UNL     1      -0.457  -0.593   1.061  1.00  0.00    -0.405 N 
ATOM      7  H1  UNL     1      -0.644  -0.492   2.059  1.00  0.00     0.154 HD
BRANCH   6   8
HETATM    8  C6  UNL     1      -1.384  -0.153   0.096  1.00  0.00     0.077 C 
HETATM    9  C7  UNL     1      -0.972   0.945  -0.820  1.00  0.00     0.024 C 
HETATM   10  C8  UNL     1      -2.363   1.371  -1.339  1.00  0.00     0.002 C 
HETATM   11  C9  UNL     1      -3.091   1.564  -0.031  1.00  0.00     0.002 C 
HETATM   12  C10 UNL     1      -2.581   0.438   0.843  1.00  0.00     0.024 C 
ENDBRANCH   6   8
ENDBRANCH   5   6
BRANCH   5  13
HETATM   13  C11 UNL     1       1.453  -1.794   1.753  1.00  0.00     0.005 C 
HETATM   14  C12 UNL     1       2.712  -1.574   2.065  1.00  0.00     0.029 C 
HETATM   15 BR1  UNL     1       0.451  -2.969   2.863  1.00  0.00    -0.054 Br
ENDBRANCH   5  13
ENDBRANCH   4   5
TORSDOF 4
