REMARK  3 active torsions:
REMARK  status: ('A' for Active; 'I' for Inactive)
REMARK    1  A    between atoms: N1_2  and  C2_5 
REMARK    2  A    between atoms: C4_8  and  C5_9 
REMARK    3  A    between atoms: C6_10  and  C7_11 
ROOT
HETATM    1  C2  UNL     1       2.639  -0.059   0.108  1.00  0.00     0.209 A 
HETATM    2  C3  UNL     1       2.447   1.152  -0.731  1.00  0.00     0.099 A 
HETATM    3 BR1  UNL     1       1.496   0.932  -2.403  1.00  0.00    -0.088 Br
HETATM    4  C4  UNL     1       1.710   1.012   0.559  1.00  0.00     0.056 A 
ENDROOT
BRANCH   4   5
HETATM    5  C5  UNL     1       0.248   0.877   0.475  1.00  0.00    -0.022 C 
HETATM    6  C6  UNL     1      -0.456  -0.153   0.908  1.00  0.00    -0.026 C 
BRANCH   6   7
HETATM    7  C7  UNL     1      -1.925  -0.236   0.798  1.00  0.00     0.008 C 
HETATM    8  C8  UNL     1      -2.539   0.927   0.061  1.00  0.00     0.008 C 
HETATM    9  C9  UNL     1      -3.971   0.448  -0.100  1.00  0.00     0.001 C 
HETATM   10  C10 UNL     1      -3.886  -1.064  -0.162  1.00  0.00     0.001 C 
HETATM   11  C11 UNL     1      -2.409  -1.408  -0.006  1.00  0.00     0.008 C 
ENDBRANCH   6   7
ENDBRANCH   4   5
BRANCH   1  12
HETATM   12  N1  UNL     1       3.937  -0.261   0.704  1.00  0.00    -0.073 N 
HETATM   13  C1  UNL     1       4.917  -0.442  -0.361  1.00  0.00     0.267 C 
ATOM     14  H12 UNL     1       3.943  -1.029   1.375  1.00  0.00     0.277 HD
ATOM     15  H11 UNL     1       4.193   0.489   1.346  1.00  0.00     0.277 HD
ENDBRANCH   1  12
TORSDOF 3
