REMARK  2 active torsions:
REMARK  status: ('A' for Active; 'I' for Inactive)
REMARK       I    between atoms: N1_2  and  C3_4 
REMARK    1  A    between atoms: N3_6  and  C4_8 
REMARK    2  A    between atoms: C4_8  and  C5_9 
ROOT
HETATM    1  C5  UNL     1       0.459  -0.493  -0.753  1.00  0.00     0.013 C 
HETATM    2  C6  UNL     1       0.771   1.027  -0.943  1.00  0.00     0.086 C 
HETATM    3  C7  UNL     1       1.986   1.219  -0.266  1.00  0.00    -0.183 C 
HETATM    4  C8  UNL     1       3.171   1.794   0.221  1.00  0.00     0.080 C 
HETATM    5  C9  UNL     1       3.901   0.610   0.939  1.00  0.00     0.011 C 
HETATM    6  C10 UNL     1       3.802  -0.702   0.291  1.00  0.00     0.001 C 
HETATM    7  C11 UNL     1       2.542  -1.550   0.424  1.00  0.00     0.000 C 
HETATM    8  C12 UNL     1       1.606  -1.403  -0.734  1.00  0.00     0.007 C 
ENDROOT
BRANCH   1   9
HETATM    9  C4  UNL     1      -0.381  -0.660   0.484  1.00  0.00     0.127 C 
BRANCH   9  10
HETATM   10  N3  UNL     1      -1.607   0.116   0.257  1.00  0.00    -0.364 N 
HETATM   11  C3  UNL     1      -2.762  -0.332   0.515  1.00  0.00     0.185 C 
HETATM   12  N1  UNL     1      -3.892   0.478   0.268  1.00  0.00    -0.364 N 
HETATM   13  N2  UNL     1      -2.955  -1.629   1.048  1.00  0.00    -0.064 NA
HETATM   14  C1  UNL     1      -4.540   0.388  -1.019  1.00  0.00     0.151 C 
HETATM   15  C2  UNL     1      -4.414   1.388   1.260  1.00  0.00     0.151 C 
ATOM     16  H3  UNL     1      -1.524   1.058  -0.126  1.00  0.00     0.162 HD
ENDBRANCH   9  10
ENDBRANCH   1   9
TORSDOF 2
