REMARK  2 active torsions:
REMARK  status: ('A' for Active; 'I' for Inactive)
REMARK    1  A    between atoms: C1_2  and  C2_3 
REMARK    2  A    between atoms: C2_3  and  C3_4 
ROOT
HETATM    1  C3  UNL     1       1.119  -0.501  -0.075  1.00  0.00    -0.034 A 
HETATM    2  C4  UNL     1       0.882  -1.851  -0.160  1.00  0.00     0.095 A 
HETATM    3  N1  UNL     1      -0.423  -2.093  -0.384  1.00  0.00    -0.368 N 
ATOM      4  H1  UNL     1      -0.864  -3.007  -0.487  1.00  0.00     0.165 HD
HETATM    5  C5  UNL     1      -1.036  -0.888  -0.446  1.00  0.00     0.015 A 
HETATM    6  C6  UNL     1      -0.095   0.108  -0.257  1.00  0.00    -0.028 A 
HETATM    7  C7  UNL     1      -0.586   1.523  -0.291  1.00  0.00     0.041 C 
HETATM    8  C8  UNL     1      -1.841   1.675   0.545  1.00  0.00     0.005 C 
HETATM    9  C9  UNL     1      -2.809   0.557   0.374  1.00  0.00     0.006 C 
HETATM   10  C10 UNL     1      -2.438  -0.445  -0.664  1.00  0.00     0.057 C 
ENDROOT
BRANCH   1  11
HETATM   11  C2  UNL     1       2.380   0.241   0.158  1.00  0.00     0.051 C 
BRANCH  11  12
HETATM   12  C1  UNL     1       3.566  -0.658   0.325  1.00  0.00     0.089 C 
HETATM   13 BR1  UNL     1       5.112   0.501   0.620  1.00  0.00    -0.096 Br
ENDBRANCH  11  12
ENDBRANCH   1  11
TORSDOF 2
