REMARK  3 active torsions:
REMARK  status: ('A' for Active; 'I' for Inactive)
REMARK    1  A    between atoms: C2_2  and  C3_3 
REMARK    2  A    between atoms: C2_2  and  N2_10 
REMARK    3  A    between atoms: N2_10  and  C8_12 
ROOT
HETATM    1  C3  UNL     1       1.526  -0.345   0.230  1.00  0.00     0.059 A 
HETATM    2  C4  UNL     1       1.561   0.716  -0.677  1.00  0.00     0.052 A 
HETATM    3  C5  UNL     1       2.870   1.029  -0.946  1.00  0.00     0.028 A 
HETATM    4 BR1  UNL     1       3.544   2.391  -2.111  1.00  0.00    -0.050 Br
HETATM    5  C6  UNL     1       3.636   0.163  -0.207  1.00  0.00     0.107 A 
HETATM    6  N1  UNL     1       2.804  -0.637   0.478  1.00  0.00    -0.363 N 
ATOM      7  H1  UNL     1       3.111  -1.377   1.110  1.00  0.00     0.165 HD
ENDROOT
BRANCH   1   8
HETATM    8  C2  UNL     1       0.321  -0.964   0.761  1.00  0.00     0.047 C 
HETATM    9  C1  UNL     1       0.439  -1.950   1.603  1.00  0.00     0.045 C 
BRANCH   8  10
HETATM   10  N2  UNL     1      -0.979  -0.533   0.394  1.00  0.00    -0.379 N 
HETATM   11  C7  UNL     1      -1.543  -1.064  -0.834  1.00  0.00     0.150 C 
BRANCH  10  12
HETATM   12  C8  UNL     1      -1.708   0.413   1.237  1.00  0.00     0.084 A 
HETATM   13  C9  UNL     1      -3.048   0.873   0.884  1.00  0.00     0.027 A 
HETATM   14  C10 UNL     1      -1.887   1.763   0.581  1.00  0.00     0.027 A 
ENDBRANCH  10  12
ENDBRANCH   8  10
ENDBRANCH   1   8
TORSDOF 3
