REMARK  3 active torsions:
REMARK  status: ('A' for Active; 'I' for Inactive)
REMARK    1  A    between atoms: C1_2  and  C2_3 
REMARK    2  A    between atoms: C2_3  and  C3_4 
REMARK    3  A    between atoms: C3_4  and  C4_5 
ROOT
HETATM    1  C4  UNL     1       0.692  -0.103  -0.250  1.00  0.00    -0.013 A 
HETATM    2  C5  UNL     1       0.795  -1.471  -0.188  1.00  0.00     0.100 A 
HETATM    3  N1  UNL     1      -0.432  -2.022  -0.103  1.00  0.00    -0.368 N 
ATOM      4  H1  UNL     1      -0.635  -3.020  -0.043  1.00  0.00     0.165 HD
HETATM    5  C6  UNL     1      -1.340  -1.036  -0.111  1.00  0.00     0.016 A 
HETATM    6  C7  UNL     1      -0.686   0.150  -0.199  1.00  0.00    -0.024 A 
HETATM    7  C8  UNL     1      -1.694   1.259  -0.215  1.00  0.00     0.042 C 
HETATM    8  C9  UNL     1      -2.882   0.624   0.437  1.00  0.00     0.011 C 
HETATM    9  C10 UNL     1      -2.825  -0.792  -0.076  1.00  0.00     0.058 C 
ENDROOT
BRANCH   1  10
HETATM   10  C3  UNL     1       1.646   0.970  -0.387  1.00  0.00     0.014 C 
BRANCH  10  11
HETATM   11  C2  UNL     1       3.029   0.787  -0.001  1.00  0.00     0.008 C 
BRANCH  11  12
HETATM   12  C1  UNL     1       3.626  -0.158   0.662  1.00  0.00     0.056 C 
HETATM   13 BR1  UNL     1       5.536  -0.005   0.949  1.00  0.00    -0.064 Br
ENDBRANCH  11  12
ENDBRANCH  10  11
ENDBRANCH   1  10
TORSDOF 3
