REMARK  2 active torsions:
REMARK  status: ('A' for Active; 'I' for Inactive)
REMARK    1  A    between atoms: C1_2  and  C2_3 
REMARK    2  A    between atoms: C2_3  and  C3_4 
ROOT
HETATM    1  C3  UNL     1       1.341  -0.028  -0.078  1.00  0.00     0.027 A 
HETATM    2  C4  UNL     1       1.329   1.183   0.735  1.00  0.00     0.067 A 
HETATM    3  C5  UNL     1      -0.097   1.309   0.394  1.00  0.00     0.017 A 
HETATM    4  N1  UNL     1      -1.373   1.817   0.355  1.00  0.00    -0.362 N 
ATOM      5  H1  UNL     1      -1.689   2.662   0.831  1.00  0.00     0.165 HD
HETATM    6  C6  UNL     1      -2.146   1.012  -0.420  1.00  0.00     0.016 A 
HETATM    7  C7  UNL     1      -1.368   0.006  -0.866  1.00  0.00    -0.027 A 
HETATM    8  C8  UNL     1      -0.073   0.206  -0.344  1.00  0.00    -0.023 A 
HETATM    9  C9  UNL     1      -2.461  -0.621  -1.617  1.00  0.00     0.047 A 
HETATM   10  C10 UNL     1      -3.319   0.490  -1.123  1.00  0.00     0.062 A 
ENDROOT
BRANCH   1  11
HETATM   11  C2  UNL     1       1.593  -1.341   0.646  1.00  0.00     0.020 C 
BRANCH  11  12
HETATM   12  C1  UNL     1       2.944  -1.299   1.327  1.00  0.00     0.086 C 
HETATM   13 BR1  UNL     1       4.326  -1.026   0.014  1.00  0.00    -0.096 Br
ENDBRANCH  11  12
ENDBRANCH   1  11
TORSDOF 2
