REMARK  3 active torsions:
REMARK  status: ('A' for Active; 'I' for Inactive)
REMARK    1  A    between atoms: C4_4  and  C5_5 
REMARK    2  A    between atoms: C7_9  and  C8_10 
REMARK    3  A    between atoms: C8_10  and  C9_11 
ROOT
HETATM    1  C1  UNL     1       5.684  -2.379   0.857  1.00  0.00     0.017 C 
HETATM    2  C2  UNL     1       4.652  -1.769   0.743  1.00  0.00    -0.089 C 
HETATM    3  C3  UNL     1       3.393  -1.004   0.616  1.00  0.00     0.066 C 
HETATM    4  C4  UNL     1       2.513  -1.371  -0.250  1.00  0.00     0.039 C 
ENDROOT
BRANCH   4   5
HETATM    5  C5  UNL     1       1.235  -0.759  -0.520  1.00  0.00     0.050 A 
HETATM    6  N1  UNL     1       0.320  -1.174  -1.451  1.00  0.00    -0.364 N 
HETATM    7  C6  UNL     1      -0.760  -0.382  -1.440  1.00  0.00     0.097 A 
ATOM      8  H1  UNL     1       0.444  -1.976  -2.068  1.00  0.00     0.165 HD
HETATM    9  C7  UNL     1      -0.604   0.597  -0.496  1.00  0.00    -0.023 A 
HETATM   10  C12 UNL     1       0.660   0.334   0.065  1.00  0.00     0.045 A 
HETATM   11 BR1  UNL     1       1.354   1.449   1.462  1.00  0.00    -0.048 Br
BRANCH   9  12
HETATM   12  C8  UNL     1      -1.528   1.712  -0.107  1.00  0.00     0.046 C 
BRANCH  12  13
HETATM   13  C9  UNL     1      -2.225   1.423   1.187  1.00  0.00    -0.010 A 
HETATM   14  C10 UNL     1      -3.093   0.201   1.265  1.00  0.00     0.005 A 
HETATM   15  C11 UNL     1      -3.722   1.578   1.159  1.00  0.00     0.005 A 
ENDBRANCH  12  13
ENDBRANCH   9  12
ENDBRANCH   4   5
TORSDOF 3
