REMARK  3 active torsions:
REMARK  status: ('A' for Active; 'I' for Inactive)
REMARK    1  A    between atoms: C2_2  and  N1_3 
REMARK    2  A    between atoms: N1_3  and  C3_4 
REMARK    3  A    between atoms: C11_14  and  O1_16 
ROOT
HETATM    1  N1  UNL     1      -0.953   0.222  -0.441  1.00  0.00    -0.031 N 
HETATM    2  C9  UNL     1      -1.498  -0.567  -1.546  1.00  0.00     0.246 C 
HETATM    3  C10 UNL     1      -2.040  -1.620  -0.627  1.00  0.00     0.096 C 
HETATM    4  C11 UNL     1      -1.563  -0.637   0.451  1.00  0.00     0.226 C 
HETATM    5  C12 UNL     1      -0.848  -1.418   1.495  1.00  0.00     0.079 C 
ENDROOT
BRANCH   1   6
HETATM    6  C2  UNL     1      -1.623   1.523  -0.509  1.00  0.00     0.237 C 
HETATM    7  C1  UNL     1      -1.552   2.403   0.645  1.00  0.00     0.035 C 
ENDBRANCH   1   6
BRANCH   1   8
HETATM    8  C3  UNL     1       0.492   0.363  -0.545  1.00  0.00     0.199 C 
HETATM    9  C4  UNL     1       1.137   0.907   0.667  1.00  0.00     0.034 C 
HETATM   10  C5  UNL     1       2.439   0.263   1.095  1.00  0.00     0.008 C 
HETATM   11  C6  UNL     1       3.260   0.156  -0.180  1.00  0.00     0.079 C 
HETATM   12  C7  UNL     1       2.595  -1.003  -0.889  1.00  0.00     0.245 C 
HETATM   13  F1  UNL     1       2.746  -2.102  -0.028  1.00  0.00    -0.206 F 
HETATM   14  F2  UNL     1       3.406  -1.301  -1.984  1.00  0.00    -0.206 F 
HETATM   15  C8  UNL     1       1.173  -0.770  -1.241  1.00  0.00     0.112 C 
ENDBRANCH   1   8
BRANCH   4  16
HETATM   16  O1  UNL     1      -2.737  -0.096   1.042  1.00  0.00    -0.365 OA
ATOM     17  H1  UNL     1      -3.157  -0.687   1.656  1.00  0.00     0.212 HD
ENDBRANCH   4  16
TORSDOF 3
