REMARK  2 active torsions:
REMARK  status: ('A' for Active; 'I' for Inactive)
REMARK    1  A    between atoms: C2_2  and  C3_3 
REMARK       I    between atoms: C3_3  and  N1_5 
REMARK    2  A    between atoms: N1_5  and  C4_7 
ROOT
HETATM    1  C4  UNL     1      -0.045   0.070   0.628  1.00  0.00     0.120 C 
HETATM    2  C5  UNL     1      -0.993   1.070  -0.001  1.00  0.00     0.042 C 
HETATM    3  C6  UNL     1      -2.359   0.852   0.630  1.00  0.00     0.019 C 
HETATM    4  C7  UNL     1      -2.670  -0.573   0.178  1.00  0.00     0.035 C 
HETATM    5  C8  UNL     1      -1.958  -1.534   1.119  1.00  0.00     0.040 C 
HETATM    6  C9  UNL     1      -0.713  -1.257   0.294  1.00  0.00     0.099 C 
HETATM    7 CL1  UNL     1       0.367  -2.611   0.070  1.00  0.00    -0.113 Cl
HETATM    8  C10 UNL     1      -1.641  -0.939  -0.860  1.00  0.00     0.153 C 
HETATM    9  F1  UNL     1      -1.913  -1.879  -1.750  1.00  0.00    -0.235 F 
HETATM   10  C11 UNL     1      -1.210   0.405  -1.306  1.00  0.00    -0.042 C 
HETATM   11  C12 UNL     1      -1.072   0.845  -2.517  1.00  0.00     0.018 C 
ENDROOT
BRANCH   1  12
HETATM   12  N1  UNL     1       1.195   0.108  -0.148  1.00  0.00    -0.350 N 
HETATM   13  C3  UNL     1       2.447   0.321   0.477  1.00  0.00     0.240 C 
HETATM   14  O1  UNL     1       2.464   0.477   1.721  1.00  0.00    -0.269 OA
ATOM     15  H1  UNL     1       1.156  -0.022  -1.159  1.00  0.00     0.163 HD
BRANCH  13  16
HETATM   16  C2  UNL     1       3.670   0.357  -0.305  1.00  0.00     0.064 C 
HETATM   17  C1  UNL     1       4.825   0.558   0.309  1.00  0.00     0.017 C 
ENDBRANCH  13  16
ENDBRANCH   1  12
TORSDOF 2
