REMARK  3 active torsions:
REMARK  status: ('A' for Active; 'I' for Inactive)
REMARK    1  A    between atoms: C2_2  and  C4_4 
REMARK    2  A    between atoms: C4_4  and  N1_5 
REMARK    3  A    between atoms: C6_7  and  C7_8 
ROOT
HETATM    1  N1  UNL     1      -0.323   0.255  -0.681  1.00  0.00    -0.341 N 
HETATM    2  C5  UNL     1       0.490   1.196  -0.099  1.00  0.00     0.120 A 
HETATM    3  C6  UNL     1       1.743   0.668   0.115  1.00  0.00     0.065 A 
HETATM    4  N2  UNL     1       1.679  -0.593  -0.342  1.00  0.00    -0.346 N 
ATOM      5  H2  UNL     1       2.445  -1.266  -0.333  1.00  0.00     0.167 HD
HETATM    6  C9  UNL     1       0.434  -0.825  -0.816  1.00  0.00     0.079 A 
HETATM    7  C10 UNL     1       0.048  -2.122  -1.422  1.00  0.00     0.089 C 
ENDROOT
BRANCH   1   8
HETATM    8  C4  UNL     1      -1.680   0.509  -1.047  1.00  0.00     0.162 C 
BRANCH   8   9
HETATM    9  C2  UNL     1      -2.715   0.220  -0.061  1.00  0.00    -0.075 C 
HETATM   10  C1  UNL     1      -3.448   1.258   0.386  1.00  0.00     0.015 C 
HETATM   11  C3  UNL     1      -3.096  -1.108   0.488  1.00  0.00     0.044 C 
ENDBRANCH   8   9
ENDBRANCH   1   8
BRANCH   3  12
HETATM   12  C7  UNL     1       2.935   1.336   0.710  1.00  0.00     0.152 C 
HETATM   13  C8  UNL     1       3.873   0.290   1.259  1.00  0.00     0.057 C 
HETATM   14 CL1  UNL     1       3.857   2.177  -0.598  1.00  0.00    -0.095 Cl
HETATM   15 CL2  UNL     1       2.446   2.501   1.917  1.00  0.00    -0.095 Cl
ENDBRANCH   3  12
TORSDOF 3
