REMARK  3 active torsions:
REMARK  status: ('A' for Active; 'I' for Inactive)
REMARK    1  A    between atoms: C4_6  and  C5_7 
REMARK    2  A    between atoms: N3_8  and  N4_10 
REMARK    3  A    between atoms: N4_10  and  C6_12 
ROOT
HETATM    1  N1  UNL     1      -1.691   1.973   0.350  1.00  0.00    -0.191 NA
HETATM    2  C1  UNL     1      -2.367   1.010   0.376  1.00  0.00     0.111 C 
HETATM    3  C2  UNL     1      -3.218  -0.135   0.406  1.00  0.00     0.126 C 
HETATM    4  C3  UNL     1      -4.658   0.032   0.649  1.00  0.00     0.111 C 
HETATM    5  N2  UNL     1      -5.794   0.145   0.828  1.00  0.00    -0.191 NA
HETATM    6  C4  UNL     1      -2.755  -1.341   0.221  1.00  0.00     0.052 C 
ENDROOT
BRANCH   6   7
HETATM    7  C5  UNL     1      -1.371  -1.683  -0.031  1.00  0.00     0.109 C 
HETATM    8  N3  UNL     1      -0.471  -0.782  -0.094  1.00  0.00    -0.311 N 
ATOM      9  H3  UNL     1      -0.753   0.189   0.040  1.00  0.00     0.186 HD
BRANCH   8  10
HETATM   10  N4  UNL     1       0.870  -1.047  -0.334  1.00  0.00    -0.294 N 
ATOM     11  H4  UNL     1       1.170  -1.983  -0.607  1.00  0.00     0.187 HD
BRANCH  10  12
HETATM   12  C6  UNL     1       1.820   0.001  -0.195  1.00  0.00     0.088 A 
HETATM   13  C7  UNL     1       2.862   0.121   0.687  1.00  0.00     0.039 A 
HETATM   14  C8  UNL     1       3.625   1.216   0.610  1.00  0.00     0.010 A 
HETATM   15  C9  UNL     1       3.315   2.145  -0.348  1.00  0.00     0.052 A 
HETATM   16  S1  UNL     1       1.959   1.461  -1.115  1.00  0.00    -0.083 SA
ENDBRANCH  10  12
ENDBRANCH   8  10
ENDBRANCH   6   7
TORSDOF 3
