REMARK  4 active torsions:
REMARK  status: ('A' for Active; 'I' for Inactive)
REMARK    1  A    between atoms: O1_2  and  C2_3 
REMARK    2  A    between atoms: C2_3  and  C3_5 
REMARK    3  A    between atoms: N2_8  and  N3_10 
REMARK    4  A    between atoms: N3_10  and  C5_12 
ROOT
HETATM    1  C3  UNL     1       1.596  -1.085   1.063  1.00  0.00     0.204 C 
HETATM    2  C4  UNL     1       1.268  -2.293   1.784  1.00  0.00     0.125 C 
HETATM    3  N1  UNL     1       1.005  -3.262   2.345  1.00  0.00    -0.190 NA
HETATM    4  N2  UNL     1       0.626  -0.309   0.682  1.00  0.00    -0.285 N 
ATOM      5  H2  UNL     1       0.860   0.542   0.170  1.00  0.00     0.188 HD
ENDROOT
BRANCH   1   6
HETATM    6  C2  UNL     1       2.950  -0.724   0.757  1.00  0.00     0.322 C 
HETATM    7  O2  UNL     1       3.925  -1.452   1.110  1.00  0.00    -0.257 OA
BRANCH   6   8
HETATM    8  O1  UNL     1       3.216   0.433   0.066  1.00  0.00    -0.321 OA
HETATM    9  C1  UNL     1       4.511   0.871  -0.274  1.00  0.00     0.213 C 
ENDBRANCH   6   8
ENDBRANCH   1   6
BRANCH   4  10
HETATM   10  N3  UNL     1      -0.696  -0.574   0.932  1.00  0.00    -0.300 N 
ATOM     11  H3  UNL     1      -0.951  -1.174   1.716  1.00  0.00     0.187 HD
BRANCH  10  12
HETATM   12  C5  UNL     1      -1.706  -0.024   0.115  1.00  0.00     0.048 A 
HETATM   13  C6  UNL     1      -2.237   1.241   0.328  1.00  0.00     0.031 A 
HETATM   14  C7  UNL     1      -3.233   1.773  -0.458  1.00  0.00     0.002 A 
HETATM   15  C8  UNL     1      -3.744   1.043  -1.506  1.00  0.00     0.000 A 
HETATM   16  C9  UNL     1      -3.249  -0.218  -1.756  1.00  0.00     0.002 A 
HETATM   17  C10 UNL     1      -2.250  -0.727  -0.954  1.00  0.00     0.031 A 
ENDBRANCH  10  12
ENDBRANCH   4  10
TORSDOF 4
