REMARK  4 active torsions:
REMARK  status: ('A' for Active; 'I' for Inactive)
REMARK    1  A    between atoms: C2_2  and  N1_3 
REMARK    2  A    between atoms: N1_3  and  C3_4 
REMARK    3  A    between atoms: N1_3  and  C10_15 
REMARK    4  A    between atoms: C8_12  and  C9_13 
ROOT
HETATM    1  C3  UNL     1      -0.503  -0.608   0.445  1.00  0.00     0.099 C 
HETATM    2  C4  UNL     1       0.748  -0.316   0.266  1.00  0.00     0.037 C 
HETATM    3  C5  UNL     1       1.476   0.731  -0.399  1.00  0.00     0.256 C 
HETATM    4  O1  UNL     1       1.086   1.898  -0.581  1.00  0.00    -0.267 OA
HETATM    5  N2  UNL     1       2.752   0.182  -0.816  1.00  0.00    -0.312 N 
HETATM    6  C6  UNL     1       3.787   0.892  -1.519  1.00  0.00     0.160 C 
HETATM    7  C7  UNL     1       2.774  -1.183  -0.399  1.00  0.00     0.092 C 
HETATM    8  S1  UNL     1       3.566  -2.405  -1.089  1.00  0.00    -0.064 SA
HETATM    9  C8  UNL     1       1.884  -1.204   0.809  1.00  0.00     0.101 C 
ENDROOT
BRANCH   1  10
HETATM   10  N1  UNL     1      -1.720  -0.061   0.082  1.00  0.00    -0.390 N 
BRANCH  10  11
HETATM   11  C2  UNL     1      -2.114   1.286   0.287  1.00  0.00     0.118 C 
HETATM   12  C1  UNL     1      -2.425   2.032  -1.002  1.00  0.00     0.026 C 
ENDBRANCH  10  11
BRANCH  10  13
HETATM   13  C10 UNL     1      -2.707  -0.985  -0.487  1.00  0.00     0.118 C 
HETATM   14  C11 UNL     1      -3.744  -1.259   0.575  1.00  0.00     0.026 C 
ENDBRANCH  10  13
ENDBRANCH   1  10
BRANCH   9  15
HETATM   15  C9  UNL     1       2.602  -0.487   1.905  1.00  0.00     0.131 C 
HETATM   16 CL1  UNL     1       3.900  -1.600   2.467  1.00  0.00    -0.129 Cl
ENDBRANCH   9  15
TORSDOF 4
