REMARK  3 active torsions:
REMARK  status: ('A' for Active; 'I' for Inactive)
REMARK    1  A    between atoms: C2_2  and  N1_3 
REMARK    2  A    between atoms: N1_3  and  C3_4 
REMARK    3  A    between atoms: N1_3  and  S1_15 
ROOT
HETATM    1  C3  UNL     1      -0.653  -0.375   0.751  1.00  0.00     0.141 A 
HETATM    2  N2  UNL     1      -1.413  -1.002   1.698  1.00  0.00    -0.283 N 
ATOM      3  H2  UNL     1      -1.106  -1.207   2.649  1.00  0.00     0.188 HD
HETATM    4  N3  UNL     1      -2.601  -1.304   1.207  1.00  0.00    -0.284 N 
ATOM      5  H3  UNL     1      -3.347  -1.776   1.717  1.00  0.00     0.188 HD
HETATM    6  C4  UNL     1      -2.673  -0.893  -0.068  1.00  0.00     0.123 A 
HETATM    7  N4  UNL     1      -3.660  -0.997  -0.898  1.00  0.00    -0.384 N 
ATOM      8  H41 UNL     1      -3.715  -0.685  -1.867  1.00  0.00     0.157 HD
ATOM      9  H42 UNL     1      -4.559  -1.428  -0.684  1.00  0.00     0.157 HD
HETATM   10  C5  UNL     1      -1.433  -0.299  -0.363  1.00  0.00     0.029 A 
HETATM   11  C6  UNL     1      -1.126   0.280  -1.679  1.00  0.00     0.056 C 
ENDROOT
BRANCH   1  12
HETATM   12  N1  UNL     1       0.660   0.081   0.952  1.00  0.00    -0.260 N 
BRANCH  12  13
HETATM   13  C2  UNL     1       0.886   1.413   1.448  1.00  0.00     0.138 C 
HETATM   14  C1  UNL     1       1.080   2.464   0.416  1.00  0.00     0.028 C 
ENDBRANCH  12  13
BRANCH  12  15
HETATM   15  S1  UNL     1       1.999  -0.940   0.644  1.00  0.00     0.230 S 
HETATM   16  C7  UNL     1       2.131  -1.473  -1.031  1.00  0.00     0.186 C 
HETATM   17  O1  UNL     1       1.975  -2.175   1.502  1.00  0.00    -0.206 OA
HETATM   18  O2  UNL     1       3.255  -0.186   1.059  1.00  0.00    -0.206 OA
ENDBRANCH  12  15
ENDBRANCH   1  12
TORSDOF 3
