REMARK  3 active torsions:
REMARK  status: ('A' for Active; 'I' for Inactive)
REMARK    1  A    between atoms: C5_5  and  C7_7 
REMARK       I    between atoms: C7_7  and  N1_9 
REMARK    2  A    between atoms: N1_9  and  C8_11 
REMARK    3  A    between atoms: C10_13  and  C11_14 
ROOT
HETATM    1  C7  UNL     1      -0.797   0.006  -0.332  1.00  0.00     0.227 C 
HETATM    2  O1  UNL     1      -0.723   1.126  -0.968  1.00  0.00    -0.273 OA
HETATM    3  N1  UNL     1       0.366  -0.689   0.040  1.00  0.00    -0.356 N 
ATOM      4  H1  UNL     1       0.299  -1.545   0.590  1.00  0.00     0.162 HD
ENDROOT
BRANCH   3   5
HETATM    5  C8  UNL     1       1.629  -0.194  -0.353  1.00  0.00     0.086 C 
HETATM    6  C9  UNL     1       2.584   0.504   0.548  1.00  0.00     0.039 C 
HETATM    7  C10 UNL     1       3.680  -0.171  -0.338  1.00  0.00     0.079 C 
HETATM    8  C12 UNL     1       2.697  -1.297  -0.487  1.00  0.00     0.039 C 
BRANCH   7   9
HETATM    9  C11 UNL     1       4.924  -0.397   0.327  1.00  0.00     0.235 C 
HETATM   10  N2  UNL     1       5.848   0.649   0.536  1.00  0.00    -0.062 NA
HETATM   11  O2  UNL     1       5.222  -1.532   0.743  1.00  0.00    -0.277 OA
ENDBRANCH   7   9
ENDBRANCH   3   5
BRANCH   1  12
HETATM   12  C5  UNL     1      -2.196  -0.426  -0.076  1.00  0.00     0.045 A 
HETATM   13  C2  UNL     1      -3.193   0.629   0.259  1.00  0.00    -0.030 A 
HETATM   14  C1  UNL     1      -4.554   0.576  -0.407  1.00  0.00     0.016 C 
HETATM   15  C3  UNL     1      -2.708   2.051   0.557  1.00  0.00     0.016 C 
HETATM   16  C4  UNL     1      -2.793  -0.330   1.296  1.00  0.00     0.029 A 
HETATM   17  C6  UNL     1      -2.572  -1.722  -0.769  1.00  0.00     0.026 C 
ENDBRANCH   1  12
TORSDOF 3
