REMARK  6 active torsions:
REMARK  status: ('A' for Active; 'I' for Inactive)
REMARK    1  A    between atoms: C2_2  and  C3_3 
REMARK    2  A    between atoms: C3_3  and  C6_6 
REMARK    3  A    between atoms: C6_6  and  N1_7 
REMARK    4  A    between atoms: C6_6  and  C7_11 
REMARK       I    between atoms: C7_11  and  N2_13 
REMARK    5  A    between atoms: N2_13  and  C8_14 
REMARK    6  A    between atoms: C8_14  and  N3_16 
ROOT
HETATM    1  C6  UNL     1      -0.762  -0.427  -0.563  1.00  0.00     0.297 C 
ENDROOT
BRANCH   1   2
HETATM    2  C3  UNL     1      -2.089  -0.317   0.075  1.00  0.00    -0.010 C 
HETATM    3  C4  UNL     1      -2.423  -1.470   0.985  1.00  0.00     0.017 C 
HETATM    4  C5  UNL     1      -2.286   0.949   0.882  1.00  0.00     0.017 C 
BRANCH   2   5
HETATM    5  C2  UNL     1      -3.098  -0.243  -1.055  1.00  0.00     0.007 C 
HETATM    6  C1  UNL     1      -4.508  -0.050  -0.657  1.00  0.00     0.006 C 
ENDBRANCH   2   5
ENDBRANCH   1   2
BRANCH   1   7
HETATM    7  N1  UNL     1      -0.428   0.670  -1.405  1.00  0.00    -0.065 N 
ATOM      8  H13 UNL     1      -1.152   0.813  -2.109  1.00  0.00     0.275 HD
ATOM      9  H12 UNL     1      -0.507   1.549  -0.894  1.00  0.00     0.275 HD
ATOM     10  H11 UNL     1       0.489   0.594  -1.846  1.00  0.00     0.275 HD
ENDBRANCH   1   7
BRANCH   1  11
HETATM   11  C7  UNL     1       0.397  -0.678   0.367  1.00  0.00     0.325 C 
HETATM   12  O1  UNL     1       0.171  -1.379   1.402  1.00  0.00    -0.255 OA
HETATM   13  N2  UNL     1       1.562  -0.144   0.021  1.00  0.00    -0.339 NA
BRANCH  13  14
HETATM   14  C8  UNL     1       2.779   0.413  -0.339  1.00  0.00     0.250 C 
HETATM   15  S1  UNL     1       2.739   1.296  -1.772  1.00  0.00    -0.025 SA
BRANCH  14  16
HETATM   16  N3  UNL     1       4.006   0.347   0.276  1.00  0.00    -0.355 N 
HETATM   17  C9  UNL     1       4.354  -0.337   1.506  1.00  0.00     0.152 C 
HETATM   18  C10 UNL     1       5.141   1.035  -0.370  1.00  0.00     0.152 C 
ENDBRANCH  14  16
ENDBRANCH  13  14
ENDBRANCH   1  11
TORSDOF 6
