REMARK  4 active torsions:
REMARK  status: ('A' for Active; 'I' for Inactive)
REMARK    1  A    between atoms: C2_2  and  C4_4 
REMARK    2  A    between atoms: C4_4  and  N1_5 
REMARK    3  A    between atoms: C4_4  and  C9_14 
REMARK       I    between atoms: N1_5  and  C5_7 
REMARK       I    between atoms: C5_7  and  N2_9 
REMARK    4  A    between atoms: N2_9  and  C6_11 
REMARK       I    between atoms: C9_14  and  N3_16 
ROOT
HETATM    1  C4  UNL     1      -1.033   0.211   0.033  1.00  0.00     0.206 C 
ENDROOT
BRANCH   1   2
HETATM    2  C2  UNL     1      -1.641   1.542  -0.294  1.00  0.00    -0.061 C 
HETATM    3  C1  UNL     1      -0.928   2.676  -0.122  1.00  0.00     0.016 C 
HETATM    4  C3  UNL     1      -3.023   1.709  -0.820  1.00  0.00     0.045 C 
ENDBRANCH   1   2
BRANCH   1   5
HETATM    5  N1  UNL     1       0.324   0.474   0.498  1.00  0.00    -0.326 N 
HETATM    6  C5  UNL     1       1.422  -0.044  -0.263  1.00  0.00     0.317 C 
HETATM    7  O1  UNL     1       1.235  -0.720  -1.302  1.00  0.00    -0.247 OA
HETATM    8  N2  UNL     1       2.756   0.193   0.137  1.00  0.00    -0.339 N 
ATOM      9  H2  UNL     1       2.957   0.743   0.972  1.00  0.00     0.164 HD
ATOM     10  H1  UNL     1       0.488   1.015   1.347  1.00  0.00     0.165 HD
BRANCH   8  11
HETATM   11  C6  UNL     1       3.834  -0.359  -0.660  1.00  0.00     0.078 C 
HETATM   12  C7  UNL     1       4.769  -1.203   0.164  1.00  0.00     0.032 C 
HETATM   13  C8  UNL     1       4.543   0.810  -1.328  1.00  0.00     0.032 C 
ENDBRANCH   8  11
ENDBRANCH   1   5
BRANCH   1  14
HETATM   14  C9  UNL     1      -1.807  -0.447   1.088  1.00  0.00     0.246 C 
HETATM   15  O2  UNL     1      -1.383  -0.275   2.285  1.00  0.00    -0.271 OA
HETATM   16  N3  UNL     1      -2.965  -1.250   0.900  1.00  0.00    -0.359 N 
HETATM   17  C10 UNL     1      -3.638  -1.801   2.077  1.00  0.00     0.152 C 
HETATM   18  C11 UNL     1      -3.538  -1.606  -0.367  1.00  0.00     0.152 C 
ENDBRANCH   1  14
TORSDOF 4
