REMARK  3 active torsions:
REMARK  status: ('A' for Active; 'I' for Inactive)
REMARK    1  A    between atoms: N1_6  and  N2_7 
REMARK    2  A    between atoms: N2_7  and  C6_9 
REMARK    3  A    between atoms: C6_9  and  N3_11 
ROOT
HETATM    1  N2  UNL     1      -0.752  -0.292   0.209  1.00  0.00    -0.295 N 
ATOM      2  H2  UNL     1      -0.605   0.715   0.274  1.00  0.00     0.183 HD
ENDROOT
BRANCH   1   3
HETATM    3  N1  UNL     1      -2.018  -0.783   0.511  1.00  0.00    -0.220 NA
HETATM    4  C2  UNL     1      -3.047   0.201   0.235  1.00  0.00     0.026 C 
HETATM    5  C1  UNL     1      -3.789  -0.079  -1.045  1.00  0.00     0.034 C 
HETATM    6  C3  UNL     1      -2.608   1.637   0.316  1.00  0.00     0.034 C 
HETATM    7  C4  UNL     1      -3.759  -0.239   1.494  1.00  0.00     0.042 C 
HETATM    8  C5  UNL     1      -2.384  -0.709   1.909  1.00  0.00     0.116 C 
ENDBRANCH   1   3
BRANCH   1   9
HETATM    9  C6  UNL     1       0.351  -1.098  -0.184  1.00  0.00     0.184 C 
HETATM   10  S1  UNL     1       0.143  -2.727  -0.296  1.00  0.00    -0.040 SA
BRANCH   9  11
HETATM   11  N3  UNL     1       1.626  -0.570  -0.484  1.00  0.00    -0.357 N 
HETATM   12  C7  UNL     1       2.694  -1.421  -0.871  1.00  0.00     0.125 C 
HETATM   13  C8  UNL     1       4.038  -1.019  -0.335  1.00  0.00     0.020 C 
HETATM   14  C9  UNL     1       4.197   0.440  -0.109  1.00  0.00     0.003 C 
HETATM   15  C10 UNL     1       3.201   1.217  -0.967  1.00  0.00     0.020 C 
HETATM   16  C11 UNL     1       1.823   0.874  -0.388  1.00  0.00     0.125 C 
ENDBRANCH   9  11
ENDBRANCH   1   9
TORSDOF 3
