REMARK  2 active torsions:
REMARK  status: ('A' for Active; 'I' for Inactive)
REMARK    1  A    between atoms: N2_7  and  C4_8 
REMARK    2  A    between atoms: N3_12  and  C8_14 
ROOT
HETATM    1  C1  UNL     1      -0.351   3.303  -0.266  1.00  0.00     0.072 C 
HETATM    2  C2  UNL     1       0.469   2.089  -0.432  1.00  0.00     0.052 A 
HETATM    3  N1  UNL     1       1.296   1.918  -1.403  1.00  0.00    -0.333 N 
ATOM      4  H1  UNL     1       1.470   2.587  -2.153  1.00  0.00     0.168 HD
HETATM    5  C3  UNL     1       1.935   0.642  -1.269  1.00  0.00     0.180 A 
HETATM    6  S1  UNL     1       3.041   0.074  -2.303  1.00  0.00    -0.040 SA
HETATM    7  N2  UNL     1       1.448  -0.010  -0.107  1.00  0.00    -0.304 N 
HETATM    8  C7  UNL     1       0.467   0.868   0.452  1.00  0.00     0.129 A 
HETATM    9  N3  UNL     1      -0.741   0.418   0.904  1.00  0.00    -0.366 N 
ATOM     10  H3  UNL     1      -0.856   0.434   1.917  1.00  0.00     0.162 HD
ENDROOT
BRANCH   7  11
HETATM   11  C4  UNL     1       1.927  -1.259   0.368  1.00  0.00     0.086 C 
HETATM   12  C5  UNL     1       3.365  -1.187   0.876  1.00  0.00     0.032 C 
HETATM   13  C6  UNL     1       2.000  -2.357  -0.681  1.00  0.00     0.032 C 
ENDBRANCH   7  11
BRANCH   9  14
HETATM   14  C8  UNL     1      -1.822  -0.052   0.204  1.00  0.00     0.021 C 
HETATM   15  C9  UNL     1      -2.540   0.865  -0.760  1.00  0.00     0.037 C 
HETATM   16  C10 UNL     1      -1.679  -1.386  -0.517  1.00  0.00     0.037 C 
HETATM   17  C11 UNL     1      -2.913  -0.361   1.274  1.00  0.00     0.037 C 
ENDBRANCH   9  14
TORSDOF 2
