REMARK  4 active torsions:
REMARK  status: ('A' for Active; 'I' for Inactive)
REMARK    1  A    between atoms: C2_2  and  C4_4 
REMARK    2  A    between atoms: N1_6  and  C6_8 
REMARK    3  A    between atoms: C7_11  and  N3_12 
REMARK    4  A    between atoms: C8_16  and  C9_17 
ROOT
HETATM    1  C6  UNL     1       0.524  -0.888  -0.035  1.00  0.00     0.121 A 
HETATM    2  N2  UNL     1       0.708  -2.174  -0.189  1.00  0.00    -0.322 N 
ATOM      3  H2  UNL     1      -0.081  -2.816  -0.112  1.00  0.00     0.169 HD
HETATM    4  C7  UNL     1       1.934  -2.647  -0.448  1.00  0.00     0.144 A 
HETATM    5  S1  UNL     1       2.888  -1.235  -0.478  1.00  0.00    -0.055 SA
HETATM    6  C8  UNL     1       1.670  -0.080  -0.150  1.00  0.00     0.034 A 
ENDROOT
BRANCH   1   7
HETATM    7  N1  UNL     1      -0.746  -0.225  -0.033  1.00  0.00    -0.345 N 
HETATM    8  C4  UNL     1      -1.934  -0.534   0.091  1.00  0.00     0.012 C 
HETATM    9  C5  UNL     1      -2.423  -1.957   0.269  1.00  0.00     0.068 C 
ATOM     10  H1  UNL     1      -0.638   0.780  -0.173  1.00  0.00     0.167 HD
BRANCH   8  11
HETATM   11  C2  UNL     1      -2.972   0.535   0.019  1.00  0.00    -0.049 C 
HETATM   12  C1  UNL     1      -4.245   0.308   0.155  1.00  0.00     0.020 C 
HETATM   13  C3  UNL     1      -2.570   1.917  -0.324  1.00  0.00     0.049 C 
ENDBRANCH   8  11
ENDBRANCH   1   7
BRANCH   6  14
HETATM   14  C9  UNL     1       1.833   1.367   0.195  1.00  0.00     0.021 C 
HETATM   15  C10 UNL     1       2.493   2.137  -0.964  1.00  0.00     0.015 C 
HETATM   16  C11 UNL     1       3.094   1.292   1.205  1.00  0.00     0.015 C 
ENDBRANCH   6  14
BRANCH   4  17
HETATM   17  N3  UNL     1       2.313  -3.910  -0.605  1.00  0.00    -0.380 N 
ATOM     18  H32 UNL     1       1.742  -4.755  -0.587  1.00  0.00     0.158 HD
ATOM     19  H31 UNL     1       3.247  -4.270  -0.802  1.00  0.00     0.158 HD
ENDBRANCH   4  17
TORSDOF 4
