REMARK  2 active torsions:
REMARK  status: ('A' for Active; 'I' for Inactive)
REMARK    1  A    between atoms: C4_6  and  N2_7 
REMARK    2  A    between atoms: N2_7  and  C5_9 
ROOT
HETATM    1  N2  UNL     1       1.175  -1.209  -0.421  1.00  0.00    -0.358 N 
ATOM      2  H2  UNL     1       1.388  -2.183  -0.638  1.00  0.00     0.163 HD
ENDROOT
BRANCH   1   3
HETATM    3  C4  UNL     1       2.219  -0.263  -0.209  1.00  0.00     0.171 C 
HETATM    4  N1  UNL     1       2.555   0.698  -0.995  1.00  0.00    -0.360 N 
HETATM    5  C3  UNL     1       3.661   1.451  -0.446  1.00  0.00     0.147 C 
ATOM      6  H1  UNL     1       2.102   0.902  -1.886  1.00  0.00     0.162 HD
HETATM    7  C2  UNL     1       4.183   0.564   0.632  1.00  0.00     0.098 C 
HETATM    8  C1  UNL     1       5.245  -0.344   0.030  1.00  0.00     0.034 C 
HETATM    9  N3  UNL     1       3.047  -0.273   0.950  1.00  0.00    -0.357 N 
ATOM     10  H3  UNL     1       2.874  -0.769   1.825  1.00  0.00     0.163 HD
ENDBRANCH   1   3
BRANCH   1  11
HETATM   11  C5  UNL     1      -0.197  -0.752  -0.321  1.00  0.00     0.084 C 
HETATM   12  C6  UNL     1      -0.506  -0.191   1.049  1.00  0.00     0.025 C 
HETATM   13  C7  UNL     1      -1.008   1.215   1.015  1.00  0.00     0.002 C 
HETATM   14  C8  UNL     1      -2.523   1.296   1.002  1.00  0.00     0.000 C 
HETATM   15  C9  UNL     1      -3.033   1.451  -0.395  1.00  0.00     0.000 C 
HETATM   16  C10 UNL     1      -3.971   0.382  -0.837  1.00  0.00     0.000 C 
HETATM   17  C11 UNL     1      -3.477  -1.015  -0.625  1.00  0.00     0.000 C 
HETATM   18  C12 UNL     1      -2.292  -1.352  -1.510  1.00  0.00     0.002 C 
HETATM   19  C13 UNL     1      -1.128  -1.881  -0.692  1.00  0.00     0.025 C 
ENDBRANCH   1  11
TORSDOF 2
