REMARK  3 active torsions:
REMARK  status: ('A' for Active; 'I' for Inactive)
REMARK    1  A    between atoms: C4_4  and  C5_5 
REMARK    2  A    between atoms: C5_5  and  N1_6 
REMARK    3  A    between atoms: N1_6  and  C6_9 
ROOT
HETATM    1  C6  UNL     1       0.260  -0.547  -0.238  1.00  0.00     0.231 C 
HETATM    2  C7  UNL     1       0.445   0.866   0.178  1.00  0.00     0.039 C 
HETATM    3  C8  UNL     1       1.419   1.039   1.325  1.00  0.00     0.002 C 
HETATM    4  C9  UNL     1       2.552   1.874   0.848  1.00  0.00     0.000 C 
HETATM    5  C10 UNL     1       3.830   1.086   0.589  1.00  0.00     0.000 C 
HETATM    6  C11 UNL     1       3.959   0.583  -0.794  1.00  0.00     0.000 C 
HETATM    7  C12 UNL     1       3.156  -0.598  -1.194  1.00  0.00     0.006 C 
HETATM    8  C13 UNL     1       2.717  -1.524  -0.132  1.00  0.00     0.054 C 
HETATM    9  C14 UNL     1       1.266  -1.507   0.188  1.00  0.00     0.010 C 
HETATM   10  N2  UNL     1       0.788  -2.459   0.949  1.00  0.00    -0.404 N 
ATOM     11  H21 UNL     1       1.494  -3.132   1.248  1.00  0.00     0.155 HD
ATOM     12  H22 UNL     1      -0.208  -2.447   1.169  1.00  0.00     0.155 HD
ENDROOT
BRANCH   1  13
HETATM   13  N1  UNL     1      -1.085  -1.013  -0.000  1.00  0.00    -0.063 N 
ATOM     14  H12 UNL     1      -1.307  -0.961   0.994  1.00  0.00     0.278 HD
ATOM     15  H11 UNL     1      -1.141  -2.022  -0.140  1.00  0.00     0.278 HD
BRANCH  13  16
HETATM   16  C5  UNL     1      -2.099  -0.342  -0.776  1.00  0.00     0.260 C 
BRANCH  16  17
HETATM   17  C4  UNL     1      -3.413  -0.909  -0.432  1.00  0.00     0.002 C 
HETATM   18  C2  UNL     1      -4.360  -0.134   0.068  1.00  0.00    -0.090 C 
HETATM   19  C1  UNL     1      -5.701  -0.732   0.416  1.00  0.00     0.042 C 
HETATM   20  C3  UNL     1      -4.116   1.318   0.291  1.00  0.00     0.042 C 
ENDBRANCH  16  17
ENDBRANCH  13  16
ENDBRANCH   1  13
TORSDOF 3
