REMARK  5 active torsions:
REMARK  status: ('A' for Active; 'I' for Inactive)
REMARK    1  A    between atoms: C2_2  and  C3_3 
REMARK    2  A    between atoms: C3_3  and  C4_4 
REMARK    3  A    between atoms: C5_5  and  C6_6 
REMARK    4  A    between atoms: C6_6  and  O1_7 
REMARK    5  A    between atoms: N1_9  and  O2_11 
ROOT
HETATM    1  C3  UNL     1       0.136  -0.632  -0.077  1.00  0.00    -0.049 C 
HETATM    2  C7  UNL     1      -0.998  -0.320   0.531  1.00  0.00    -0.006 C 
HETATM    3  C8  UNL     1      -1.073   0.821   1.500  1.00  0.00     0.043 C 
HETATM    4  C9  UNL     1      -2.490   0.847   2.018  1.00  0.00     0.005 C 
HETATM    5  C10 UNL     1      -3.426   1.005   0.812  1.00  0.00     0.008 C 
HETATM    6  C11 UNL     1      -3.454  -0.303   0.029  1.00  0.00     0.083 C 
HETATM    7  C12 UNL     1      -2.208  -1.061   0.309  1.00  0.00     0.156 C 
HETATM    8  O3  UNL     1      -2.195  -2.304   0.353  1.00  0.00    -0.293 OA
ENDROOT
BRANCH   1   9
HETATM    9  C2  UNL     1       0.353  -1.715  -1.045  1.00  0.00     0.035 C 
HETATM   10  C1  UNL     1       0.700  -1.176  -2.443  1.00  0.00     0.010 C 
ENDBRANCH   1   9
BRANCH   1  11
HETATM   11  C4  UNL     1       1.301   0.181   0.258  1.00  0.00     0.012 C 
HETATM   12  C5  UNL     1       2.511   0.017  -0.229  1.00  0.00     0.058 C 
BRANCH  12  13
HETATM   13  C6  UNL     1       3.571   0.916   0.207  1.00  0.00     0.159 C 
HETATM   14  N1  UNL     1       4.784   0.798  -0.243  1.00  0.00    -0.248 N 
ATOM     15  H1  UNL     1       5.509   1.440   0.077  1.00  0.00     0.196 HD
BRANCH  13  16
HETATM   16  O1  UNL     1       3.350   1.940   1.118  1.00  0.00    -0.345 OA
ATOM     17  H1  UNL     1       4.041   2.526   1.402  1.00  0.00     0.219 HD
ENDBRANCH  13  16
BRANCH  14  18
HETATM   18  O2  UNL     1       5.091  -0.177  -1.139  1.00  0.00    -0.288 OA
ATOM     19  H2  UNL     1       5.978  -0.263  -1.468  1.00  0.00     0.244 HD
ENDBRANCH  14  18
ENDBRANCH  12  13
ENDBRANCH   1  11
TORSDOF 5
