REMARK  3 active torsions:
REMARK  status: ('A' for Active; 'I' for Inactive)
REMARK    1  A    between atoms: C2_2  and  C3_3 
REMARK    2  A    between atoms: C3_3  and  C4_4 
REMARK    3  A    between atoms: C9_9  and  C10_10 
ROOT
HETATM    1  C4  UNL     1       3.198  -0.327   0.358  1.00  0.00     0.009 A 
HETATM    2  C5  UNL     1       3.225  -0.531   1.662  1.00  0.00     0.025 A 
HETATM    3  C6  UNL     1       2.018  -0.354   2.442  1.00  0.00     0.004 A 
HETATM    4  C7  UNL     1       0.850   0.016   1.878  1.00  0.00     0.029 A 
HETATM    5  C8  UNL     1       0.775   0.250   0.451  1.00  0.00     0.032 A 
HETATM    6  C9  UNL     1      -0.361   0.618  -0.142  1.00  0.00     0.030 C 
HETATM    7  N1  UNL     1       1.994   0.064  -0.283  1.00  0.00    -0.360 N 
ATOM      8  H1  UNL     1       1.995   0.217  -1.291  1.00  0.00     0.166 HD
ENDROOT
BRANCH   6   9
HETATM    9  C10 UNL     1      -1.606   0.824   0.502  1.00  0.00     0.008 C 
HETATM   10  C11 UNL     1      -2.703   1.186  -0.108  1.00  0.00    -0.046 C 
HETATM   11  C12 UNL     1      -3.927   1.350   0.773  1.00  0.00     0.037 C 
HETATM   12  C17 UNL     1      -2.720   1.408  -1.545  1.00  0.00     0.199 C 
HETATM   13  C13 UNL     1      -4.881   0.206   0.538  1.00  0.00     0.004 C 
HETATM   14  C14 UNL     1      -5.092  -0.127  -0.906  1.00  0.00     0.000 C 
HETATM   15  C15 UNL     1      -3.958  -0.786  -1.590  1.00  0.00     0.003 C 
HETATM   16  C16 UNL     1      -2.965   0.108  -2.236  1.00  0.00     0.042 C 
HETATM   17  F1  UNL     1      -3.643   2.382  -1.924  1.00  0.00    -0.245 F 
ENDBRANCH   6   9
BRANCH   1  18
HETATM   18  C3  UNL     1       4.451  -0.517  -0.406  1.00  0.00     0.056 C 
BRANCH  18  19
HETATM   19  C2  UNL     1       5.601  -0.929   0.458  1.00  0.00     0.002 C 
HETATM   20  C1  UNL     1       6.815  -1.086  -0.460  1.00  0.00     0.005 C 
ENDBRANCH  18  19
ENDBRANCH   1  18
TORSDOF 3
