REMARK  3 active torsions:
REMARK  status: ('A' for Active; 'I' for Inactive)
REMARK    1  A    between atoms: C2_2  and  C3_3 
REMARK    2  A    between atoms: C3_3  and  C4_4 
REMARK    3  A    between atoms: C14_17  and  C15_18 
ROOT
HETATM    1  C4  UNL     1      -0.667   0.848  -0.082  1.00  0.00     0.045 C 
HETATM    2  C5  UNL     1       0.765   0.587   0.098  1.00  0.00     0.024 A 
HETATM    3  C6  UNL     1       1.053  -0.695  -0.026  1.00  0.00     0.012 A 
HETATM    4  C7  UNL     1       2.438  -1.112   0.125  1.00  0.00     0.127 A 
HETATM    5  F1  UNL     1       2.794  -2.439   0.005  1.00  0.00    -0.205 F 
HETATM    6  C8  UNL     1       3.445  -0.296   0.382  1.00  0.00     0.071 A 
HETATM    7  C9  UNL     1       3.169   1.124   0.526  1.00  0.00     0.025 A 
HETATM    8  C10 UNL     1       4.104   2.014   0.782  1.00  0.00     0.043 C 
HETATM    9  N1  UNL     1       1.816   1.529   0.378  1.00  0.00    -0.359 N 
ATOM     10  H1  UNL     1       1.582   2.517   0.473  1.00  0.00     0.166 HD
HETATM   11  C11 UNL     1      -0.136  -1.514  -0.295  1.00  0.00    -0.006 C 
HETATM   12  C12 UNL     1      -0.167  -2.326  -1.540  1.00  0.00     0.021 C 
HETATM   13  C13 UNL     1      -0.676  -2.274   0.902  1.00  0.00     0.023 C 
HETATM   14  C14 UNL     1      -1.390  -1.027   1.366  1.00  0.00     0.014 C 
HETATM   15  C17 UNL     1      -1.263  -0.532  -0.078  1.00  0.00     0.016 C 
ENDROOT
BRANCH   1  16
HETATM   16  C3  UNL     1      -1.034   1.470  -1.408  1.00  0.00     0.037 C 
BRANCH  16  17
HETATM   17  C2  UNL     1      -0.388   2.774  -1.642  1.00  0.00    -0.036 C 
HETATM   18  C1  UNL     1      -1.140   3.852  -1.806  1.00  0.00     0.007 C 
ENDBRANCH  16  17
ENDBRANCH   1  16
BRANCH  14  19
HETATM   19  C15 UNL     1      -2.823  -1.187   1.692  1.00  0.00    -0.032 C 
HETATM   20  C16 UNL     1      -3.373  -2.325   2.052  1.00  0.00     0.007 C 
ENDBRANCH  14  19
TORSDOF 3
