REMARK  2 active torsions:
REMARK  status: ('A' for Active; 'I' for Inactive)
REMARK    1  A    between atoms: C2_2  and  C3_3 
REMARK    2  A    between atoms: C7_7  and  C8_8 
ROOT
HETATM    1  C3  UNL     1      -0.800   0.319  -0.213  1.00  0.00    -0.022 C 
HETATM    2  C4  UNL     1      -1.112   1.183  -1.451  1.00  0.00     0.017 C 
HETATM    3  C5  UNL     1       0.333   0.893   0.584  1.00  0.00     0.005 C 
HETATM    4  C6  UNL     1       1.111   1.995  -0.075  1.00  0.00     0.011 C 
HETATM    5  C7  UNL     1       0.970  -0.466   0.562  1.00  0.00     0.099 C 
HETATM    6  C9  UNL     1       0.090  -0.823  -0.597  1.00  0.00     0.034 C 
HETATM    7  C10 UNL     1      -0.445  -2.204  -0.493  1.00  0.00     0.029 C 
HETATM    8 BR1  UNL     1       0.893  -0.610  -2.367  1.00  0.00    -0.084 Br
ENDROOT
BRANCH   1   9
HETATM    9  C2  UNL     1      -2.080   0.077   0.476  1.00  0.00     0.006 C 
HETATM   10  C1  UNL     1      -2.116  -0.719   1.716  1.00  0.00     0.006 C 
ENDBRANCH   1   9
BRANCH   5  11
HETATM   11  C8  UNL     1       2.403  -0.430   0.433  1.00  0.00     0.237 C 
HETATM   12  N1  UNL     1       3.225  -0.010  -0.619  1.00  0.00    -0.062 NA
HETATM   13  O1  UNL     1       3.080  -0.853   1.456  1.00  0.00    -0.276 OA
ENDBRANCH   5  11
TORSDOF 2
