REMARK  2 active torsions:
REMARK  status: ('A' for Active; 'I' for Inactive)
REMARK    1  A    between atoms: C5_6  and  C6_7 
REMARK    2  A    between atoms: C6_7  and  C7_8 
ROOT
HETATM    1  C7  UNL     1       1.195  -0.601   0.314  1.00  0.00     0.028 C 
HETATM    2  C8  UNL     1       2.184  -1.326  -0.575  1.00  0.00     0.238 C 
HETATM    3  N1  UNL     1       3.266  -0.369  -0.802  1.00  0.00    -0.074 N 
ATOM      4  H11 UNL     1       3.125   0.277  -1.579  1.00  0.00     0.277 HD
ATOM      5  H12 UNL     1       4.131  -0.764  -1.171  1.00  0.00     0.277 HD
HETATM    6  C9  UNL     1       3.369   0.244   0.507  1.00  0.00     0.248 C 
HETATM    7  C10 UNL     1       1.930   0.611   0.785  1.00  0.00     0.089 C 
HETATM    8 BR1  UNL     1       1.659   0.953   2.672  1.00  0.00    -0.089 Br
ENDROOT
BRANCH   1   9
HETATM    9  C6  UNL     1      -0.087  -0.287  -0.454  1.00  0.00     0.015 C 
BRANCH   9  10
HETATM   10  C5  UNL     1      -1.015   0.428   0.486  1.00  0.00     0.025 C 
HETATM   11  C2  UNL     1      -2.352   0.819  -0.108  1.00  0.00     0.103 C 
HETATM   12  C1  UNL     1      -2.327   1.158  -1.572  1.00  0.00     0.052 C 
HETATM   13  F1  UNL     1      -2.960   1.777   0.645  1.00  0.00    -0.243 F 
HETATM   14  C3  UNL     1      -2.814  -0.585   0.219  1.00  0.00     0.044 C 
HETATM   15  C4  UNL     1      -1.789  -0.561   1.336  1.00  0.00     0.011 C 
ENDBRANCH   9  10
ENDBRANCH   1   9
TORSDOF 2
