REMARK  5 active torsions:
REMARK  status: ('A' for Active; 'I' for Inactive)
REMARK    1  A    between atoms: N1_1  and  N2_4 
REMARK    2  A    between atoms: N3_6  and  O1_7 
REMARK    3  A    between atoms: N3_6  and  C1_9 
REMARK    4  A    between atoms: C4_12  and  N4_13 
REMARK    5  A    between atoms: C5_15  and  C6_16 
ROOT
HETATM    1  C1  UNL     1       2.469   0.002   0.099  1.00  0.00     0.196 A 
HETATM    2  C2  UNL     1       2.281  -0.940   1.085  1.00  0.00     0.065 A 
HETATM    3  C3  UNL     1       0.924  -0.946   1.343  1.00  0.00     0.061 A 
HETATM    4  C4  UNL     1       0.349  -0.006   0.501  1.00  0.00     0.150 A 
HETATM    5  O3  UNL     1       1.316   0.520  -0.211  1.00  0.00    -0.273 OA
ENDROOT
BRANCH   1   6
HETATM    6  N3  UNL     1       3.715   0.358  -0.492  1.00  0.00    -0.125 N 
HETATM    7  N2  UNL     1       4.784  -0.219  -0.108  1.00  0.00    -0.221 N 
ATOM      8  H2  UNL     1       4.732  -0.931   0.620  1.00  0.00     0.210 HD
BRANCH   7   9
HETATM    9  N1  UNL     1       6.015   0.099  -0.657  1.00  0.00    -0.329 N 
ATOM     10  H12 UNL     1       6.049   0.813  -1.384  1.00  0.00     0.178 HD
ATOM     11  H11 UNL     1       6.871  -0.363  -0.350  1.00  0.00     0.178 HD
ENDBRANCH   7   9
BRANCH   6  12
HETATM   12  O1  UNL     1       3.798   1.311  -1.470  1.00  0.00    -0.265 OA
ATOM     13  H1  UNL     1       3.001   1.741  -1.756  1.00  0.00     0.247 HD
ENDBRANCH   6  12
ENDBRANCH   1   6
BRANCH   4  14
HETATM   14  N4  UNL     1      -1.027   0.336   0.410  1.00  0.00    -0.344 N 
HETATM   15  C5  UNL     1      -1.882  -0.463  -0.130  1.00  0.00     0.127 C 
ATOM     16  H4  UNL     1      -1.345   1.232   0.780  1.00  0.00     0.167 HD
BRANCH  15  17
HETATM   17  C6  UNL     1      -3.289  -0.114  -0.224  1.00  0.00     0.090 A 
HETATM   18  C7  UNL     1      -3.851   1.070   0.238  1.00  0.00     0.040 A 
HETATM   19  C8  UNL     1      -5.206   1.025  -0.034  1.00  0.00     0.027 A 
HETATM   20  C9  UNL     1      -5.393  -0.206  -0.657  1.00  0.00     0.142 A 
HETATM   21  O2  UNL     1      -4.238  -0.829  -0.740  1.00  0.00    -0.321 OA
ENDBRANCH  15  17
ENDBRANCH   4  14
TORSDOF 5
