REMARK  3 active torsions:
REMARK  status: ('A' for Active; 'I' for Inactive)
REMARK    1  A    between atoms: O1_1  and  C1_3 
REMARK    2  A    between atoms: C4_7  and  C5_8 
REMARK    3  A    between atoms: C6_9  and  C7_10 
ROOT
HETATM    1  C1  UNL     1       4.251   0.762  -0.377  1.00  0.00     0.187 A 
HETATM    2  C2  UNL     1       3.028   1.391  -0.394  1.00  0.00     0.105 A 
HETATM    3  C3  UNL     1       2.074   0.390  -0.275  1.00  0.00     0.133 A 
HETATM    4  O2  UNL     1       0.801   0.100  -0.209  1.00  0.00    -0.289 OA
HETATM    5  C4  UNL     1       0.558  -1.162  -0.089  1.00  0.00     0.150 A 
HETATM    6  N1  UNL     1       1.825  -1.734  -0.078  1.00  0.00    -0.315 N 
ATOM      7  H1  UNL     1       2.011  -2.734   0.005  1.00  0.00     0.170 HD
HETATM    8  C11 UNL     1       2.766  -0.792  -0.192  1.00  0.00     0.186 A 
HETATM    9  O4  UNL     1       4.048  -0.524  -0.256  1.00  0.00    -0.268 OA
ENDROOT
BRANCH   5  10
HETATM   10  C5  UNL     1      -0.614  -1.975   0.020  1.00  0.00     0.059 C 
HETATM   11  C6  UNL     1      -1.861  -1.783   0.042  1.00  0.00     0.041 C 
BRANCH  11  12
HETATM   12  C7  UNL     1      -2.697  -0.624  -0.035  1.00  0.00     0.075 A 
HETATM   13  C8  UNL     1      -2.425   0.704  -0.162  1.00  0.00     0.039 A 
HETATM   14  C9  UNL     1      -3.647   1.384  -0.184  1.00  0.00     0.027 A 
HETATM   15  C10 UNL     1      -4.606   0.433  -0.069  1.00  0.00     0.142 A 
HETATM   16  O3  UNL     1      -4.060  -0.727   0.017  1.00  0.00    -0.323 OA
ENDBRANCH  11  12
ENDBRANCH   5  10
BRANCH   1  17
HETATM   17  O1  UNL     1       5.521   1.325  -0.467  1.00  0.00    -0.341 OA
ATOM     18  H1  UNL     1       6.366   0.891  -0.455  1.00  0.00     0.220 HD
ENDBRANCH   1  17
TORSDOF 3
