REMARK  4 active torsions:
REMARK  status: ('A' for Active; 'I' for Inactive)
REMARK    1  A    between atoms: O1_1  and  C1_3 
REMARK    2  A    between atoms: C3_5  and  C4_6 
REMARK    3  A    between atoms: C4_6  and  N1_7 
REMARK    4  A    between atoms: N2_9  and  N3_11 
ROOT
HETATM    1  N1  UNL     1       0.894  -0.300  -1.091  1.00  0.00    -0.318 N 
ATOM      2  H1  UNL     1       1.473  -0.608  -1.872  1.00  0.00     0.182 HD
HETATM    3  N2  UNL     1      -0.369  -0.302  -1.194  1.00  0.00    -0.249 N 
ATOM      4  H2  UNL     1      -0.775  -0.619  -2.075  1.00  0.00     0.207 HD
ENDROOT
BRANCH   1   5
HETATM    5  C4  UNL     1       1.508   0.142   0.140  1.00  0.00     0.181 C 
BRANCH   5   6
HETATM    6  C3  UNL     1       2.929  -0.312   0.126  1.00  0.00    -0.012 A 
HETATM    7  C2  UNL     1       3.962   0.432  -0.385  1.00  0.00     0.074 A 
HETATM    8  C1  UNL     1       5.096  -0.338  -0.206  1.00  0.00     0.183 A 
HETATM    9  O3  UNL     1       4.763  -1.459   0.370  1.00  0.00    -0.300 OA
HETATM   10  C10 UNL     1       3.463  -1.496   0.593  1.00  0.00     0.153 A 
BRANCH   8  11
HETATM   11  O1  UNL     1       6.378   0.012  -0.573  1.00  0.00    -0.341 OA
ATOM     12  H1  UNL     1       7.157  -0.517  -0.450  1.00  0.00     0.220 HD
ENDBRANCH   8  11
ENDBRANCH   5   6
ENDBRANCH   1   5
BRANCH   3  13
HETATM   13  N3  UNL     1      -1.238   0.099  -0.186  1.00  0.00    -0.312 N 
HETATM   14  C5  UNL     1      -1.628   1.512  -0.227  1.00  0.00     0.146 C 
HETATM   15  C6  UNL     1      -3.106   1.495  -0.645  1.00  0.00     0.048 C 
HETATM   16  C7  UNL     1      -3.818   0.683   0.443  1.00  0.00     0.169 C 
HETATM   17  O2  UNL     1      -3.976  -0.616   0.047  1.00  0.00    -0.389 OA
HETATM   18  C8  UNL     1      -3.003  -1.485   0.445  1.00  0.00     0.189 C 
HETATM   19  C9  UNL     1      -1.692  -0.837   0.799  1.00  0.00     0.170 C 
ENDBRANCH   3  13
TORSDOF 4
