REMARK  4 active torsions:
REMARK  status: ('A' for Active; 'I' for Inactive)
REMARK    1  A    between atoms: C2_2  and  N1_4 
REMARK    2  A    between atoms: N1_4  and  C4_6 
REMARK    3  A    between atoms: C4_6  and  N2_8 
REMARK       I    between atoms: N2_8  and  C5_10 
REMARK    4  A    between atoms: C5_10  and  C6_12 
ROOT
HETATM    1  N2  UNL     1      -0.116   0.032  -0.240  1.00  0.00    -0.304 N 
ATOM      2  H2  UNL     1       0.054   0.799  -0.891  1.00  0.00     0.171 HD
HETATM    3  C5  UNL     1       0.957  -0.835   0.094  1.00  0.00     0.228 C 
HETATM    4  O1  UNL     1       0.757  -1.774   0.887  1.00  0.00    -0.273 OA
ENDROOT
BRANCH   1   5
HETATM    5  C4  UNL     1      -1.414  -0.131   0.299  1.00  0.00     0.174 C 
HETATM    6  S1  UNL     1      -1.696  -1.352   1.337  1.00  0.00    -0.041 SA
BRANCH   5   7
HETATM    7  N1  UNL     1      -2.456   0.758  -0.060  1.00  0.00    -0.363 N 
ATOM      8  H1  UNL     1      -2.270   1.522  -0.710  1.00  0.00     0.162 HD
BRANCH   7   9
HETATM    9  C2  UNL     1      -3.781   0.590   0.489  1.00  0.00     0.075 C 
HETATM   10  C1  UNL     1      -4.712   1.665  -0.034  1.00  0.00     0.032 C 
HETATM   11  C3  UNL     1      -4.274  -0.792   0.123  1.00  0.00     0.032 C 
ENDBRANCH   7   9
ENDBRANCH   5   7
ENDBRANCH   1   5
BRANCH   3  12
HETATM   12  C6  UNL     1       2.273  -0.604  -0.503  1.00  0.00     0.078 C 
HETATM   13  C7  UNL     1       2.835   0.771  -0.157  1.00  0.00     0.014 C 
HETATM   14  C8  UNL     1       4.265   0.589  -0.684  1.00  0.00     0.001 C 
HETATM   15  C9  UNL     1       4.634  -0.719   0.022  1.00  0.00     0.001 C 
HETATM   16  C10 UNL     1       3.342  -1.509   0.061  1.00  0.00     0.014 C 
ENDBRANCH   3  12
TORSDOF 4
