REMARK  4 active torsions:
REMARK  status: ('A' for Active; 'I' for Inactive)
REMARK    1  A    between atoms: C1_2  and  N1_3 
REMARK    2  A    between atoms: C1_2  and  N2_9 
REMARK    3  A    between atoms: N1_3  and  C2_5 
REMARK    4  A    between atoms: N2_9  and  C6_11 
ROOT
HETATM    1  N2  UNL     1      -0.351  -0.237  -0.580  1.00  0.00    -0.362 N 
ATOM      2  H2  UNL     1      -0.318  -1.186  -0.953  1.00  0.00     0.162 HD
ENDROOT
BRANCH   1   3
HETATM    3  C1  UNL     1       0.811   0.347  -0.053  1.00  0.00     0.168 C 
HETATM    4  S1  UNL     1       0.740   1.866   0.533  1.00  0.00    -0.041 SA
BRANCH   3   5
HETATM    5  N1  UNL     1       2.016  -0.391  -0.044  1.00  0.00    -0.363 N 
ATOM      6  H1  UNL     1       2.042  -1.340  -0.417  1.00  0.00     0.162 HD
BRANCH   5   7
HETATM    7  C2  UNL     1       3.213   0.214   0.500  1.00  0.00     0.083 C 
HETATM    8  C3  UNL     1       4.411  -0.696   0.438  1.00  0.00     0.025 C 
HETATM    9  C4  UNL     1       5.215   0.471  -0.092  1.00  0.00     0.004 C 
HETATM   10  C5  UNL     1       3.903   1.136  -0.470  1.00  0.00     0.025 C 
ENDBRANCH   5   7
ENDBRANCH   3   5
ENDBRANCH   1   3
BRANCH   1  11
HETATM   11  C6  UNL     1      -1.586   0.494  -0.596  1.00  0.00     0.088 C 
HETATM   12  C7  UNL     1      -1.986   0.844   0.831  1.00  0.00     0.030 C 
HETATM   13  C8  UNL     1      -3.379   0.300   0.953  1.00  0.00    -0.012 C 
HETATM   14  C9  UNL     1      -3.374  -1.224   0.957  1.00  0.00     0.005 C 
HETATM   15  C12 UNL     1      -3.890   0.519  -0.482  1.00  0.00     0.011 C 
HETATM   16  C10 UNL     1      -2.880  -1.585  -0.448  1.00  0.00     0.007 C 
HETATM   17  C11 UNL     1      -2.750  -0.277  -1.149  1.00  0.00     0.009 C 
ENDBRANCH   1  11
TORSDOF 4
