REMARK  3 active torsions:
REMARK  status: ('A' for Active; 'I' for Inactive)
REMARK       I    between atoms: N1_2  and  C2_4 
REMARK       I    between atoms: C2_4  and  N3_12 
REMARK    1  A    between atoms: N2_5  and  C3_7 
REMARK    2  A    between atoms: C3_7  and  S1_10 
REMARK    3  A    between atoms: N3_12  and  C6_14 
ROOT
HETATM    1  C1  UNL     1       1.422   2.527  -1.645  1.00  0.00     0.165 C 
HETATM    2  N1  UNL     1       0.744   1.268  -1.831  1.00  0.00    -0.231 N 
ATOM      3  H1  UNL     1       0.146   1.105  -2.641  1.00  0.00     0.177 HD
HETATM    4  C2  UNL     1       0.937   0.263  -0.847  1.00  0.00     0.674 C 
HETATM    5  N2  UNL     1       1.806  -0.652  -1.074  1.00  0.00    -0.184 N 
ATOM      6  H2  UNL     1       2.318  -0.612  -1.955  1.00  0.00     0.185 HD
HETATM    7  N3  UNL     1       0.153   0.333   0.334  1.00  0.00    -0.222 N 
ATOM      8  H3  UNL     1       0.472   0.861   1.146  1.00  0.00     0.178 HD
ENDROOT
BRANCH   5   9
HETATM    9  C3  UNL     1       2.104  -1.714  -0.187  1.00  0.00     0.112 C 
HETATM   10  C4  UNL     1       1.673  -2.950  -0.372  1.00  0.00     0.225 C 
HETATM   11  F1  UNL     1       1.980  -3.934   0.498  1.00  0.00    -0.216 F 
BRANCH   9  12
HETATM   12  S1  UNL     1       3.105  -1.358   1.238  1.00  0.00    -0.114 SA
HETATM   13  C5  UNL     1       3.598   0.363   1.327  1.00  0.00     0.097 C 
ENDBRANCH   9  12
ENDBRANCH   5   9
BRANCH   7  14
HETATM   14  C6  UNL     1      -1.104  -0.363   0.350  1.00  0.00     0.099 C 
HETATM   15  C7  UNL     1      -2.050   0.147  -0.746  1.00  0.00     0.026 C 
HETATM   16  C8  UNL     1      -3.340  -0.562  -0.308  1.00  0.00     0.002 C 
HETATM   17  C9  UNL     1      -3.338  -0.377   1.182  1.00  0.00     0.002 C 
HETATM   18  C10 UNL     1      -1.921  -0.035   1.588  1.00  0.00     0.026 C 
ENDBRANCH   7  14
TORSDOF 3
