REMARK  4 active torsions:
REMARK  status: ('A' for Active; 'I' for Inactive)
REMARK    1  A    between atoms: C4_4  and  N1_5 
REMARK    2  A    between atoms: N1_5  and  C5_7 
REMARK    3  A    between atoms: C5_7  and  N2_9 
REMARK    4  A    between atoms: N2_9  and  C6_11 
ROOT
HETATM    1  C5  UNL     1       0.212  -1.246   1.048  1.00  0.00     0.168 C 
HETATM    2  S1  UNL     1       1.026  -1.528   2.416  1.00  0.00    -0.041 SA
ENDROOT
BRANCH   1   3
HETATM    3  N1  UNL     1      -1.184  -1.426   1.016  1.00  0.00    -0.360 N 
ATOM      4  H1  UNL     1      -1.650  -1.743   1.866  1.00  0.00     0.162 HD
BRANCH   3   5
HETATM    5  C4  UNL     1      -1.995  -1.185  -0.162  1.00  0.00     0.118 C 
HETATM    6  C3  UNL     1      -2.045   0.265  -0.595  1.00  0.00     0.035 C 
HETATM    7  C2  UNL     1      -3.286   0.406   0.274  1.00  0.00     0.019 C 
HETATM    8  C1  UNL     1      -4.384   1.233  -0.346  1.00  0.00     0.013 C 
HETATM    9  C11 UNL     1      -3.476  -1.084   0.131  1.00  0.00     0.196 C 
HETATM   10  F1  UNL     1      -3.879  -1.728   1.279  1.00  0.00    -0.247 F 
ENDBRANCH   3   5
ENDBRANCH   1   3
BRANCH   1  11
HETATM   11  N2  UNL     1       0.902  -0.819  -0.111  1.00  0.00    -0.363 N 
ATOM     12  H2  UNL     1       0.393  -0.642  -0.977  1.00  0.00     0.162 HD
BRANCH  11  13
HETATM   13  C6  UNL     1       2.353  -0.633  -0.057  1.00  0.00     0.083 C 
HETATM   14  C7  UNL     1       2.702   0.415   0.985  1.00  0.00     0.025 C 
HETATM   15  C8  UNL     1       3.540   1.454   0.303  1.00  0.00     0.002 C 
HETATM   16  C9  UNL     1       4.119   0.710  -0.876  1.00  0.00     0.002 C 
HETATM   17  C10 UNL     1       2.892  -0.080  -1.347  1.00  0.00     0.025 C 
ENDBRANCH  11  13
ENDBRANCH   1  11
TORSDOF 4
