REMARK  2 active torsions:
REMARK  status: ('A' for Active; 'I' for Inactive)
REMARK    1  A    between atoms: N1_1  and  C1_4 
REMARK    2  A    between atoms: C2_7  and  N3_8 
ROOT
HETATM    1  C1  UNL     1       2.768   0.927  -0.709  1.00  0.00     0.680 A 
HETATM    2  N2  UNL     1       1.409   0.883  -0.645  1.00  0.00    -0.175 N 
ATOM      3  H2  UNL     1       0.859   1.599  -1.120  1.00  0.00     0.186 HD
HETATM    4  C2  UNL     1       0.780  -0.094   0.037  1.00  0.00     0.149 A 
HETATM    5  C7  UNL     1       1.563  -1.036   0.664  1.00  0.00     0.159 A 
HETATM    6  N5  UNL     1       0.896  -2.080   1.399  1.00  0.00    -0.092 NA
HETATM    7  C8  UNL     1       2.939  -1.016   0.618  1.00  0.00     0.287 A 
HETATM    8  O1  UNL     1       3.619  -1.897   1.205  1.00  0.00    -0.265 OA
HETATM    9  N6  UNL     1       3.498  -0.012  -0.082  1.00  0.00    -0.155 N 
ATOM     10  H6  UNL     1       4.515   0.039  -0.139  1.00  0.00     0.187 HD
ENDROOT
BRANCH   4  11
HETATM   11  N3  UNL     1      -0.623  -0.183   0.125  1.00  0.00    -0.362 N 
HETATM   12  C3  UNL     1      -1.337  -0.581  -1.071  1.00  0.00     0.152 C 
HETATM   13  C4  UNL     1      -2.299   0.535  -1.440  1.00  0.00     0.252 C 
HETATM   14  N4  UNL     1      -2.897   1.169  -0.304  1.00  0.00    -0.072 N 
HETATM   15  C5  UNL     1      -2.837   0.352   0.888  1.00  0.00     0.252 C 
ATOM     16  H42 UNL     1      -2.485   2.087  -0.139  1.00  0.00     0.277 HD
ATOM     17  H41 UNL     1      -3.856   1.452  -0.506  1.00  0.00     0.277 HD
HETATM   18  C6  UNL     1      -1.407   0.081   1.312  1.00  0.00     0.152 C 
ENDBRANCH   4  11
BRANCH   1  19
HETATM   19  N1  UNL     1       3.383   1.855  -1.374  1.00  0.00    -0.234 N 
ATOM     20  H12 UNL     1       2.829   2.567  -1.850  1.00  0.00     0.174 HD
ATOM     21  H11 UNL     1       4.401   1.888  -1.422  1.00  0.00     0.174 HD
ENDBRANCH   1  19
TORSDOF 2
