REMARK  2 active torsions:
REMARK  status: ('A' for Active; 'I' for Inactive)
REMARK    1  A    between atoms: N1_1  and  C1_4 
REMARK    2  A    between atoms: C3_9  and  C4_10 
REMARK       I    between atoms: C4_10  and  N4_12 
ROOT
HETATM    1  C1  UNL     1      -3.120  -0.569   0.120  1.00  0.00     0.677 A 
HETATM    2  N2  UNL     1      -3.371   0.732  -0.012  1.00  0.00    -0.177 N 
ATOM      3  H2  UNL     1      -4.301   1.150  -0.000  1.00  0.00     0.185 HD
HETATM    4  C2  UNL     1      -2.233   1.409  -0.162  1.00  0.00     0.164 A 
HETATM    5  N3  UNL     1      -2.099   2.830  -0.332  1.00  0.00    -0.080 NA
HETATM    6  C3  UNL     1      -1.189   0.473  -0.123  1.00  0.00     0.158 A 
HETATM    7  N6  UNL     1      -1.784  -0.709   0.049  1.00  0.00    -0.183 N 
ATOM      8  H6  UNL     1      -1.292  -1.600   0.117  1.00  0.00     0.184 HD
ENDROOT
BRANCH   6   9
HETATM    9  C4  UNL     1       0.205   0.779  -0.264  1.00  0.00     0.275 C 
HETATM   10  O1  UNL     1       0.472   2.029  -0.469  1.00  0.00    -0.266 OA
HETATM   11  N4  UNL     1       1.334  -0.042  -0.219  1.00  0.00    -0.321 N 
HETATM   12  C5  UNL     1       1.585  -1.445  -0.006  1.00  0.00     0.155 C 
HETATM   13  C7  UNL     1       2.718   0.475  -0.451  1.00  0.00     0.359 C 
HETATM   14  C6  UNL     1       2.807  -1.380   0.936  1.00  0.00     0.254 C 
HETATM   15  N5  UNL     1       3.596  -0.364   0.302  1.00  0.00    -0.058 N 
ATOM     16  H52 UNL     1       4.170   0.159   0.963  1.00  0.00     0.279 HD
ATOM     17  H51 UNL     1       4.354  -0.749  -0.262  1.00  0.00     0.279 HD
ENDBRANCH   6   9
BRANCH   1  18
HETATM   18  N1  UNL     1      -3.982  -1.547   0.287  1.00  0.00    -0.234 N 
ATOM     19  H12 UNL     1      -4.995  -1.441   0.341  1.00  0.00     0.174 HD
ATOM     20  H11 UNL     1      -3.790  -2.544   0.388  1.00  0.00     0.174 HD
ENDBRANCH   1  18
TORSDOF 2
