REMARK  4 active torsions:
REMARK  status: ('A' for Active; 'I' for Inactive)
REMARK       I    between atoms: C2_2  and  N1_4 
REMARK    1  A    between atoms: N1_4  and  C3_5 
REMARK    2  A    between atoms: C6_13  and  N5_14 
REMARK    3  A    between atoms: N5_14  and  N6_16 
REMARK    4  A    between atoms: C7_19  and  N7_20 
ROOT
HETATM    1  C3  UNL     1      -0.292  -0.651  -0.112  1.00  0.00     0.179 A 
HETATM    2  C4  UNL     1      -0.333  -1.726  -0.935  1.00  0.00     0.172 A 
HETATM    3  C5  UNL     1      -1.268  -2.814  -0.709  1.00  0.00     0.122 C 
HETATM    4  N2  UNL     1      -2.022  -3.662  -0.513  1.00  0.00    -0.190 NA
HETATM    5  N3  UNL     1       0.511  -1.789  -2.012  1.00  0.00    -0.286 N 
ATOM      6  H3  UNL     1       0.474  -2.601  -2.628  1.00  0.00     0.188 HD
HETATM    7  N4  UNL     1       1.361  -0.833  -2.266  1.00  0.00    -0.281 N 
ATOM      8  H4  UNL     1       1.976  -0.910  -3.076  1.00  0.00     0.188 HD
HETATM    9  C6  UNL     1       1.442   0.278  -1.459  1.00  0.00     0.164 A 
HETATM   10  C7  UNL     1       0.633   0.410  -0.371  1.00  0.00     0.117 A 
ENDROOT
BRANCH   1  11
HETATM   11  N1  UNL     1      -1.081  -0.455   1.010  1.00  0.00    -0.365 NA
HETATM   12  C2  UNL     1      -1.832  -0.270   2.079  1.00  0.00     0.288 C 
HETATM   13  C1  UNL     1      -2.129   1.126   2.673  1.00  0.00     0.135 C 
HETATM   14  O1  UNL     1      -2.412  -1.151   2.770  1.00  0.00    -0.258 OA
ENDBRANCH   1  11
BRANCH  10  15
HETATM   15  N7  UNL     1       0.568   1.346   0.470  1.00  0.00    -0.393 N 
ATOM     16  H72 UNL     1      -0.038   1.445   1.285  1.00  0.00     0.156 HD
ATOM     17  H71 UNL     1       1.227   2.102   0.285  1.00  0.00     0.156 HD
ENDBRANCH  10  15
BRANCH   9  18
HETATM   18  N5  UNL     1       2.308   1.124  -1.804  1.00  0.00    -0.289 N 
ATOM     19  H5  UNL     1       2.830   0.861  -2.640  1.00  0.00     0.188 HD
BRANCH  18  20
HETATM   20  N6  UNL     1       2.686   2.332  -1.273  1.00  0.00    -0.344 N 
ATOM     21  H62 UNL     1       2.152   2.576  -0.439  1.00  0.00     0.176 HD
ATOM     22  H61 UNL     1       3.388   3.017  -1.553  1.00  0.00     0.176 HD
ENDBRANCH  18  20
ENDBRANCH   9  18
TORSDOF 4
