REMARK  3 active torsions:
REMARK  status: ('A' for Active; 'I' for Inactive)
REMARK    1  A    between atoms: N1_1  and  C1_4 
REMARK    2  A    between atoms: C5_13  and  N4_14 
REMARK    3  A    between atoms: N6_19  and  C6_20 
ROOT
HETATM    1  C1  UNL     1      -1.795  -0.623   0.124  1.00  0.00     0.120 A 
HETATM    2  N2  UNL     1      -2.419   0.491   0.598  1.00  0.00    -0.294 N 
ATOM      3  H2  UNL     1      -3.434   0.480   0.693  1.00  0.00     0.172 HD
HETATM    4  C2  UNL     1      -1.752   1.600   0.944  1.00  0.00     0.327 A 
HETATM    5  O1  UNL     1      -2.393   2.611   1.381  1.00  0.00    -0.247 OA
HETATM    6  N3  UNL     1      -0.404   1.638   0.827  1.00  0.00    -0.292 N 
ATOM      7  H3  UNL     1       0.095   2.487   1.093  1.00  0.00     0.172 HD
HETATM    8  C3  UNL     1       0.289   0.591   0.372  1.00  0.00     0.151 A 
HETATM    9  C4  UNL     1      -0.415  -0.557   0.015  1.00  0.00     0.099 A 
HETATM   10  C5  UNL     1       0.568  -1.426  -0.403  1.00  0.00     0.132 A 
HETATM   11  N5  UNL     1       1.785  -0.845  -0.306  1.00  0.00    -0.274 N 
ATOM     12  H5  UNL     1       2.679  -1.271  -0.551  1.00  0.00     0.189 HD
HETATM   13  N6  UNL     1       1.606   0.362   0.159  1.00  0.00    -0.212 N 
ENDROOT
BRANCH   1  14
HETATM   14  N1  UNL     1      -2.467  -1.660  -0.195  1.00  0.00    -0.384 N 
ATOM     15  H12 UNL     1      -3.483  -1.709  -0.115  1.00  0.00     0.157 HD
ATOM     16  H11 UNL     1      -2.000  -2.494  -0.550  1.00  0.00     0.157 HD
ENDBRANCH   1  14
BRANCH  10  17
HETATM   17  N4  UNL     1       0.319  -2.622  -0.822  1.00  0.00    -0.384 N 
ATOM     18  H42 UNL     1      -0.599  -3.060  -0.895  1.00  0.00     0.157 HD
ATOM     19  H41 UNL     1       1.047  -3.266  -1.132  1.00  0.00     0.157 HD
ENDBRANCH  10  17
BRANCH  13  20
HETATM   20  C6  UNL     1       2.629   1.327   0.417  1.00  0.00     0.378 C 
HETATM   21  O2  UNL     1       3.818   1.027   0.191  1.00  0.00    -0.281 OA
ENDBRANCH  13  20
TORSDOF 3
