REMARK  4 active torsions:
REMARK  status: ('A' for Active; 'I' for Inactive)
REMARK    1  A    between atoms: N1_1  and  C1_4 
REMARK    2  A    between atoms: C2_7  and  N3_8 
REMARK    3  A    between atoms: N4_11  and  C3_12 
REMARK    4  A    between atoms: C3_12  and  C4_13 
ROOT
HETATM    1  C1  UNL     1       1.148  -1.547   0.010  1.00  0.00     0.145 A 
HETATM    2  N2  UNL     1      -0.078  -2.003  -0.280  1.00  0.00    -0.174 N 
ATOM      3  H2  UNL     1      -0.227  -3.006  -0.388  1.00  0.00     0.186 HD
HETATM    4  C2  UNL     1      -1.115  -1.162  -0.431  1.00  0.00     0.685 A 
HETATM    5  N4  UNL     1      -0.954   0.183  -0.296  1.00  0.00    -0.138 N 
HETATM    6  C5  UNL     1       0.267   0.651  -0.006  1.00  0.00     0.163 A 
HETATM    7  N5  UNL     1       0.731   1.906   0.186  1.00  0.00    -0.292 N 
ATOM      8  H5  UNL     1       0.175   2.759   0.136  1.00  0.00     0.172 HD
HETATM    9  C6  UNL     1       2.061   1.843   0.457  1.00  0.00     0.326 A 
HETATM   10  O2  UNL     1       2.797   2.850   0.687  1.00  0.00    -0.247 OA
HETATM   11  N6  UNL     1       2.454   0.563   0.442  1.00  0.00    -0.302 N 
ATOM     12  H6  UNL     1       3.398   0.217   0.613  1.00  0.00     0.171 HD
HETATM   13  C7  UNL     1       1.375  -0.178   0.161  1.00  0.00     0.126 A 
ENDROOT
BRANCH   1  14
HETATM   14  N1  UNL     1       2.178  -2.327   0.165  1.00  0.00    -0.383 N 
ATOM     15  H12 UNL     1       2.012  -3.327   0.055  1.00  0.00     0.157 HD
ATOM     16  H11 UNL     1       3.111  -1.980   0.386  1.00  0.00     0.157 HD
ENDBRANCH   1  14
BRANCH   4  17
HETATM   17  N3  UNL     1      -2.300  -1.588  -0.710  1.00  0.00    -0.234 N 
ATOM     18  H32 UNL     1      -2.421  -2.596  -0.811  1.00  0.00     0.174 HD
ATOM     19  H31 UNL     1      -3.087  -0.950  -0.825  1.00  0.00     0.174 HD
ENDBRANCH   4  17
BRANCH   5  20
HETATM   20  C3  UNL     1      -2.030   1.096  -0.450  1.00  0.00     0.158 C 
BRANCH  20  21
HETATM   21  C4  UNL     1      -2.871   1.344   0.518  1.00  0.00     0.276 C 
HETATM   22  O1  UNL     1      -3.793   1.194   1.361  1.00  0.00    -0.301 OA
ENDBRANCH  20  21
ENDBRANCH   5  20
TORSDOF 4
