REMARK  1 active torsions:
REMARK  status: ('A' for Active; 'I' for Inactive)
REMARK    1  A    between atoms: N1_2  and  N2_3 
ROOT
HETATM    1  N2  UNL     1       1.738  -0.448   0.250  1.00  0.00    -0.151 N 
HETATM    2  N3  UNL     1       1.390   0.724   0.897  1.00  0.00    -0.221 N 
ATOM      3  H3  UNL     1       1.679   0.900   1.859  1.00  0.00     0.210 HD
HETATM    4  N4  UNL     1       0.648   1.637   0.206  1.00  0.00    -0.281 N 
ATOM      5  H4  UNL     1       1.040   2.115  -0.605  1.00  0.00     0.189 HD
HETATM    6  C2  UNL     1      -0.681   1.912   0.633  1.00  0.00     0.194 C 
HETATM    7  N5  UNL     1      -1.664   2.208  -0.363  1.00  0.00    -0.383 N 
ATOM      8  H5  UNL     1      -1.624   3.036  -0.957  1.00  0.00     0.160 HD
HETATM    9  C3  UNL     1      -2.748   1.196  -0.450  1.00  0.00     0.148 C 
HETATM   10  C4  UNL     1      -2.252  -0.108   0.075  1.00  0.00     0.251 C 
HETATM   11  N6  UNL     1      -2.612  -1.335  -0.589  1.00  0.00    -0.073 N 
ATOM     12  H61 UNL     1      -3.019  -1.162  -1.508  1.00  0.00     0.277 HD
ATOM     13  H62 UNL     1      -3.415  -1.782  -0.147  1.00  0.00     0.277 HD
HETATM   14  C5  UNL     1      -1.449  -2.251  -0.668  1.00  0.00     0.241 C 
HETATM   15  C6  UNL     1      -0.366  -1.968   0.321  1.00  0.00     0.134 C 
HETATM   16  C7  UNL     1       0.917  -1.471  -0.250  1.00  0.00     0.257 C 
HETATM   17  O1  UNL     1       1.298  -2.051  -1.318  1.00  0.00    -0.270 OA
ENDROOT
BRANCH   1  18
HETATM   18  N1  UNL     1       3.131  -0.653   0.062  1.00  0.00    -0.118 NA
HETATM   19  C1  UNL     1       3.852   0.579   0.157  1.00  0.00     0.161 C 
ENDBRANCH   1  18
TORSDOF 1
