REMARK  3 active torsions:
REMARK  status: ('A' for Active; 'I' for Inactive)
REMARK    1  A    between atoms: N1_1  and  C1_4 
REMARK    2  A    between atoms: C5_15  and  N5_16 
REMARK    3  A    between atoms: N6_19  and  C6_20 
ROOT
HETATM    1  C1  UNL     1      -2.456   0.135  -0.036  1.00  0.00     0.680 A 
HETATM    2  N2  UNL     1      -2.038  -1.128   0.140  1.00  0.00    -0.154 N 
ATOM      3  H2  UNL     1      -2.722  -1.878   0.237  1.00  0.00     0.187 HD
HETATM    4  C2  UNL     1      -0.702  -1.418   0.190  1.00  0.00     0.291 A 
HETATM    5  O1  UNL     1      -0.324  -2.602   0.354  1.00  0.00    -0.265 OA
HETATM    6  C3  UNL     1       0.177  -0.363   0.051  1.00  0.00     0.172 A 
HETATM    7  C4  UNL     1      -0.267   0.929  -0.129  1.00  0.00     0.170 A 
HETATM    8  N3  UNL     1      -1.590   1.153  -0.169  1.00  0.00    -0.174 N 
ATOM      9  H3  UNL     1      -1.940   2.102  -0.301  1.00  0.00     0.186 HD
HETATM   10  N4  UNL     1       0.749   1.782  -0.239  1.00  0.00    -0.173 N 
ATOM     11  H4  UNL     1       0.693   2.791  -0.378  1.00  0.00     0.186 HD
HETATM   12  C5  UNL     1       1.887   1.024  -0.127  1.00  0.00     0.687 A 
HETATM   13  N6  UNL     1       1.537  -0.266   0.047  1.00  0.00    -0.114 N 
ENDROOT
BRANCH   1  14
HETATM   14  N1  UNL     1      -3.739   0.398  -0.081  1.00  0.00    -0.234 N 
ATOM     15  H12 UNL     1      -4.397  -0.375   0.020  1.00  0.00     0.174 HD
ATOM     16  H11 UNL     1      -4.057   1.358  -0.215  1.00  0.00     0.174 HD
ENDBRANCH   1  14
BRANCH  13  17
HETATM   17  C6  UNL     1       2.410  -1.358   0.203  1.00  0.00     0.377 C 
HETATM   18  O2  UNL     1       3.679  -1.244   0.196  1.00  0.00    -0.282 OA
ENDBRANCH  13  17
BRANCH  12  19
HETATM   19  N5  UNL     1       3.048   1.556  -0.192  1.00  0.00    -0.234 N 
ATOM     20  H52 UNL     1       3.313   2.532  -0.324  1.00  0.00     0.174 HD
ATOM     21  H51 UNL     1       3.894   0.992  -0.109  1.00  0.00     0.174 HD
ENDBRANCH  12  19
TORSDOF 3
