REMARK  10 active torsions:
REMARK  status: ('A' for Active; 'I' for Inactive)
REMARK    1  A    between atoms: C2_2  and  C3_3 
REMARK    2  A    between atoms: C3_3  and  O1_4 
REMARK    3  A    between atoms: C3_3  and  C4_8 
REMARK    4  A    between atoms: O1_4  and  N1_5 
REMARK    5  A    between atoms: C4_8  and  C5_9 
REMARK    6  A    between atoms: C4_8  and  N2_12 
REMARK    7  A    between atoms: C4_8  and  C9_20 
REMARK    8  A    between atoms: C5_9  and  O2_10 
REMARK    9  A    between atoms: N2_12  and  C6_14 
REMARK   10  A    between atoms: C6_14  and  C7_15 
REMARK       I    between atoms: C7_15  and  N3_17 
ROOT
HETATM    1  C4  UNL     1      -0.452   0.067  -0.709  1.00  0.00     0.159 C 
ENDROOT
BRANCH   1   2
HETATM    2  C3  UNL     1      -1.809   0.222  -0.012  1.00  0.00     0.190 C 
BRANCH   2   3
HETATM    3  C2  UNL     1      -3.029   0.111  -0.823  1.00  0.00     0.033 C 
HETATM    4  C1  UNL     1      -3.239   1.086  -1.931  1.00  0.00     0.007 C 
ENDBRANCH   2   3
BRANCH   2   5
HETATM    5  O1  UNL     1      -1.869  -0.807   0.997  1.00  0.00    -0.279 OA
BRANCH   5   6
HETATM    6  N1  UNL     1      -2.019  -0.315   2.220  1.00  0.00    -0.311 N 
ATOM      7  H12 UNL     1      -2.083   0.685   2.410  1.00  0.00     0.184 HD
ATOM      8  H11 UNL     1      -2.061  -1.043   2.934  1.00  0.00     0.184 HD
ENDBRANCH   5   6
ENDBRANCH   2   5
ENDBRANCH   1   2
BRANCH   1   9
HETATM    9  C5  UNL     1      -0.152   1.071  -1.742  1.00  0.00     0.207 C 
BRANCH   9  10
HETATM   10  O2  UNL     1       1.181   0.986  -2.228  1.00  0.00    -0.398 OA
ATOM     11  H2  UNL     1       1.375   1.634  -2.895  1.00  0.00     0.209 HD
ENDBRANCH   9  10
ENDBRANCH   1   9
BRANCH   1  12
HETATM   12  N2  UNL     1       0.465   0.230   0.440  1.00  0.00    -0.373 N 
ATOM     13  H2  UNL     1       0.111   0.329   1.392  1.00  0.00     0.160 HD
BRANCH  12  14
HETATM   14  C6  UNL     1       1.832   0.243   0.169  1.00  0.00     0.159 C 
BRANCH  14  15
HETATM   15  C7  UNL     1       2.562  -0.167   1.432  1.00  0.00     0.256 C 
HETATM   16  O3  UNL     1       1.919  -0.439   2.455  1.00  0.00    -0.267 OA
HETATM   17  N3  UNL     1       3.991  -0.229   1.407  1.00  0.00    -0.361 N 
HETATM   18  C8  UNL     1       4.680  -0.619   2.605  1.00  0.00     0.149 C 
ATOM     19  H3  UNL     1       4.508  -0.001   0.558  1.00  0.00     0.162 HD
ENDBRANCH  14  15
ENDBRANCH  12  14
ENDBRANCH   1  12
BRANCH   1  20
HETATM   20  C9  UNL     1      -0.323  -1.337  -1.131  1.00  0.00     0.264 C 
HETATM   21  N4  UNL     1      -0.988  -1.927  -2.241  1.00  0.00    -0.060 NA
HETATM   22  O4  UNL     1       0.416  -2.118  -0.498  1.00  0.00    -0.274 OA
ENDBRANCH   1  20
TORSDOF 10
