REMARK  7 active torsions:
REMARK  status: ('A' for Active; 'I' for Inactive)
REMARK    1  A    between atoms: C2_3  and  C3_4 
REMARK    2  A    between atoms: C3_4  and  C4_5 
REMARK    3  A    between atoms: C4_5  and  N2_6 
REMARK    4  A    between atoms: N5_11  and  C6_13 
REMARK    5  A    between atoms: C6_13  and  C7_14 
REMARK    6  A    between atoms: C7_14  and  C8_15 
REMARK    7  A    between atoms: C8_15  and  N6_16 
ROOT
HETATM    1  N1  UNL     1      -5.205  -0.341  -1.823  1.00  0.00    -0.197 NA
HETATM    2  C1  UNL     1      -4.660  -1.117  -1.131  1.00  0.00     0.059 C 
HETATM    3  C2  UNL     1      -4.002  -2.101  -0.273  1.00  0.00     0.131 C 
ENDROOT
BRANCH   3   4
HETATM    4  C3  UNL     1      -3.085  -1.433   0.734  1.00  0.00     0.090 C 
BRANCH   4   5
HETATM    5  C4  UNL     1      -2.009  -0.643   0.102  1.00  0.00     0.079 C 
HETATM    6  N5  UNL     1      -0.797  -0.927   0.309  1.00  0.00    -0.380 N 
ATOM      7  H5  UNL     1      -0.620  -1.719   0.926  1.00  0.00     0.160 HD
BRANCH   5   8
HETATM    8  N2  UNL     1      -2.360   0.437  -0.739  1.00  0.00    -0.323 N 
HETATM    9  C5  UNL     1      -2.320   1.664  -0.379  1.00  0.00     0.202 C 
HETATM   10  N3  UNL     1      -1.911   2.023   0.918  1.00  0.00    -0.066 NA
HETATM   11  N4  UNL     1      -2.693   2.662  -1.304  1.00  0.00    -0.066 NA
ATOM     12  H2  UNL     1      -2.663   0.226  -1.690  1.00  0.00     0.169 HD
ENDBRANCH   5   8
BRANCH   6  13
HETATM   13  C6  UNL     1       0.355  -0.270  -0.219  1.00  0.00     0.122 C 
BRANCH  13  14
HETATM   14  C7  UNL     1       1.497  -1.292  -0.213  1.00  0.00     0.039 C 
BRANCH  14  15
HETATM   15  C8  UNL     1       2.762  -0.650  -0.768  1.00  0.00     0.123 C 
BRANCH  15  16
HETATM   16  N6  UNL     1       3.156   0.484   0.026  1.00  0.00    -0.367 N 
HETATM   17  C9  UNL     1       4.324   0.558   0.580  1.00  0.00     0.196 C 
HETATM   18  N7  UNL     1       4.643   1.713   1.353  1.00  0.00    -0.067 NA
HETATM   19  N8  UNL     1       5.259  -0.496   0.414  1.00  0.00    -0.067 NA
ATOM     20  H6  UNL     1       2.496   1.251   0.156  1.00  0.00     0.161 HD
ENDBRANCH  15  16
ENDBRANCH  14  15
ENDBRANCH  13  14
ENDBRANCH   6  13
ENDBRANCH   4   5
ENDBRANCH   3   4
TORSDOF 7
