REMARK  7 active torsions:
REMARK  status: ('A' for Active; 'I' for Inactive)
REMARK    1  A    between atoms: N1_2  and  C2_3 
REMARK    2  A    between atoms: C2_3  and  C3_4 
REMARK    3  A    between atoms: C3_4  and  N2_5 
REMARK    4  A    between atoms: C5_10  and  C6_11 
REMARK    5  A    between atoms: C6_11  and  N3_12 
REMARK    6  A    between atoms: N3_12  and  C7_14 
REMARK    7  A    between atoms: N4_15  and  N5_17 
ROOT
HETATM    1  C6  UNL     1       1.257  -1.002   0.718  1.00  0.00     0.155 C 
ENDROOT
BRANCH   1   2
HETATM    2  C5  UNL     1      -0.145  -0.720   1.065  1.00  0.00     0.233 A 
HETATM    3  N1  UNL     1      -1.052  -0.110   0.105  1.00  0.00    -0.060 N 
HETATM    4  C1  UNL     1      -0.560   0.479  -1.091  1.00  0.00     0.273 C 
HETATM    5  C4  UNL     1      -0.719   0.610   1.316  1.00  0.00     0.272 A 
BRANCH   3   6
HETATM    6  C2  UNL     1      -2.321  -0.777  -0.001  1.00  0.00     0.264 C 
BRANCH   6   7
HETATM    7  C3  UNL     1      -3.454   0.059  -0.465  1.00  0.00     0.257 C 
BRANCH   7   8
HETATM    8  N2  UNL     1      -3.664   1.178   0.461  1.00  0.00    -0.078 N 
ATOM      9  H23 UNL     1      -3.792   0.860   1.422  1.00  0.00     0.274 HD
ATOM     10  H22 UNL     1      -2.815   1.726   0.597  1.00  0.00     0.274 HD
ATOM     11  H21 UNL     1      -4.444   1.753   0.142  1.00  0.00     0.274 HD
ENDBRANCH   7   8
ENDBRANCH   6   7
ENDBRANCH   3   6
ENDBRANCH   1   2
BRANCH   1  12
HETATM   12  N3  UNL     1       2.085   0.094   0.342  1.00  0.00    -0.383 N 
ATOM     13  H3  UNL     1       1.662   1.022   0.333  1.00  0.00     0.160 HD
BRANCH  12  14
HETATM   14  C7  UNL     1       3.448  -0.005  -0.020  1.00  0.00     0.194 C 
HETATM   15  N4  UNL     1       3.922   0.347  -1.158  1.00  0.00    -0.283 N 
ATOM     16  H4  UNL     1       3.296   0.727  -1.868  1.00  0.00     0.189 HD
BRANCH  15  17
HETATM   17  N5  UNL     1       5.277   0.218  -1.436  1.00  0.00    -0.248 N 
HETATM   18  N6  UNL     1       5.745  -0.956  -1.561  1.00  0.00    -0.331 N 
ATOM     19  H62 UNL     1       5.134  -1.766  -1.458  1.00  0.00     0.178 HD
ATOM     20  H61 UNL     1       6.740  -1.051  -1.765  1.00  0.00     0.178 HD
ATOM     21  H5  UNL     1       5.875   1.038  -1.536  1.00  0.00     0.207 HD
ENDBRANCH  15  17
ENDBRANCH  12  14
ENDBRANCH   1  12
TORSDOF 7
