REMARK  7 active torsions:
REMARK  status: ('A' for Active; 'I' for Inactive)
REMARK    1  A    between atoms: N1_2  and  C4_5 
REMARK    2  A    between atoms: C4_5  and  C5_6 
REMARK    3  A    between atoms: C5_6  and  N2_7 
REMARK    4  A    between atoms: C5_6  and  C6_11 
REMARK    5  A    between atoms: C6_11  and  N3_12 
REMARK    6  A    between atoms: C7_14  and  N4_15 
REMARK    7  A    between atoms: N4_15  and  N5_17 
ROOT
HETATM    1  C5  UNL     1      -0.535  -0.106   0.016  1.00  0.00     0.227 C 
ENDROOT
BRANCH   1   2
HETATM    2  C4  UNL     1      -1.948  -0.087   0.493  1.00  0.00     0.270 C 
BRANCH   2   3
HETATM    3  N1  UNL     1      -2.930   0.167  -0.498  1.00  0.00    -0.076 N 
HETATM    4  C1  UNL     1      -3.842  -0.966  -0.702  1.00  0.00     0.271 C 
HETATM    5  C2  UNL     1      -3.789   1.257  -0.009  1.00  0.00     0.271 C 
HETATM    6  C3  UNL     1      -2.447   0.558  -1.781  1.00  0.00     0.271 C 
ENDBRANCH   2   3
ENDBRANCH   1   2
BRANCH   1   7
HETATM    7  N2  UNL     1      -0.297  -1.108  -0.981  1.00  0.00    -0.072 N 
ATOM      8  H23 UNL     1      -0.582  -2.029  -0.648  1.00  0.00     0.274 HD
ATOM      9  H22 UNL     1      -0.945  -1.006  -1.762  1.00  0.00     0.274 HD
ATOM     10  H21 UNL     1       0.669  -1.121  -1.307  1.00  0.00     0.274 HD
ENDBRANCH   1   7
BRANCH   1  11
HETATM   11  C6  UNL     1       0.346  -0.466   1.221  1.00  0.00     0.154 C 
BRANCH  11  12
HETATM   12  N3  UNL     1       1.739  -0.500   0.818  1.00  0.00    -0.383 N 
HETATM   13  C7  UNL     1       2.295   0.577   0.359  1.00  0.00     0.192 C 
ATOM     14  H3  UNL     1       2.276  -1.364   0.895  1.00  0.00     0.160 HD
BRANCH  13  15
HETATM   15  N4  UNL     1       3.666   0.461  -0.015  1.00  0.00    -0.296 N 
ATOM     16  H4  UNL     1       3.951   0.519  -0.993  1.00  0.00     0.187 HD
BRANCH  15  17
HETATM   17  N5  UNL     1       4.605   0.266   0.996  1.00  0.00    -0.298 N 
HETATM   18  C8  UNL     1       5.799  -0.077   0.683  1.00  0.00     0.206 C 
HETATM   19  N6  UNL     1       6.795  -0.288   1.698  1.00  0.00    -0.095 NA
ATOM     20  H5  UNL     1       4.345   0.395   1.974  1.00  0.00     0.187 HD
ENDBRANCH  15  17
ENDBRANCH  13  15
ENDBRANCH  11  12
ENDBRANCH   1  11
TORSDOF 7
