REMARK  2 active torsions:
REMARK  status: ('A' for Active; 'I' for Inactive)
REMARK    1  A    between atoms: C2_2  and  C4_4 
REMARK    2  A    between atoms: C7_7  and  N1_8 
ROOT
HETATM    1  C4  UNL     1       2.141  -0.063  -0.029  1.00  0.00     0.061 C 
HETATM    2  C5  UNL     1       1.274   0.971  -0.717  1.00  0.00     0.013 C 
HETATM    3  C6  UNL     1       0.066   1.194   0.203  1.00  0.00     0.034 C 
HETATM    4  C7  UNL     1      -0.667  -0.079   0.448  1.00  0.00     0.195 C 
HETATM    5  C13 UNL     1      -0.061  -1.195  -0.416  1.00  0.00     0.113 C 
HETATM    6  C14 UNL     1       1.409  -1.369  -0.108  1.00  0.00     0.249 C 
HETATM    7  F1  UNL     1       1.926  -2.145  -1.146  1.00  0.00    -0.206 F 
HETATM    8  F2  UNL     1       1.604  -2.057   1.083  1.00  0.00    -0.206 F 
ENDROOT
BRANCH   4   9
HETATM    9  N1  UNL     1      -2.073  -0.022   0.312  1.00  0.00    -0.066 N 
HETATM   10  C8  UNL     1      -2.688  -0.036   1.654  1.00  0.00     0.273 C 
HETATM   11  C9  UNL     1      -2.684  -1.086  -0.413  1.00  0.00     0.237 C 
HETATM   12  C10 UNL     1      -3.965  -0.538  -1.030  1.00  0.00     0.029 C 
HETATM   13  C11 UNL     1      -4.033   0.855  -0.509  1.00  0.00     0.029 C 
HETATM   14  C12 UNL     1      -2.568   1.195  -0.311  1.00  0.00     0.237 C 
ENDBRANCH   4   9
BRANCH   1  15
HETATM   15  C2  UNL     1       3.521  -0.114  -0.607  1.00  0.00    -0.013 C 
HETATM   16  C1  UNL     1       4.131   1.280  -0.416  1.00  0.00     0.010 C 
HETATM   17  C3  UNL     1       4.368  -1.070   0.163  1.00  0.00     0.010 C 
ENDBRANCH   1  15
TORSDOF 2
