REMARK  2 active torsions:
REMARK  status: ('A' for Active; 'I' for Inactive)
REMARK    1  A    between atoms: C6_6  and  C7_8 
REMARK    2  A    between atoms: C7_8  and  C8_9 
ROOT
HETATM    1  C1  UNL     1      -2.465  -0.695   0.836  1.00  0.00     0.016 C 
HETATM    2  C2  UNL     1      -1.288   0.196   0.429  1.00  0.00    -0.034 A 
HETATM    3  C3  UNL     1      -1.065   1.345   1.353  1.00  0.00     0.016 C 
HETATM    4  C4  UNL     1      -1.149   0.470  -1.014  1.00  0.00     0.006 A 
HETATM    5  C5  UNL     1       0.073   1.064  -1.613  1.00  0.00     0.028 A 
HETATM    6  C6  UNL     1       0.987   0.156  -0.843  1.00  0.00     0.028 A 
HETATM    7 BR1  UNL     1       1.985  -0.965  -2.096  1.00  0.00    -0.085 Br
HETATM    8  C9  UNL     1      -0.194  -0.513  -0.257  1.00  0.00    -0.015 A 
HETATM    9  C10 UNL     1      -0.435  -1.970  -0.676  1.00  0.00     0.018 C 
ENDROOT
BRANCH   6  10
HETATM   10  C7  UNL     1       1.960   0.857   0.049  1.00  0.00     0.037 C 
BRANCH  10  11
HETATM   11  C8  UNL     1       2.859  -0.071   0.805  1.00  0.00     0.116 C 
HETATM   12 CL1  UNL     1       1.946  -1.170   1.855  1.00  0.00    -0.130 Cl
ENDBRANCH  10  11
ENDBRANCH   6  10
TORSDOF 2
