REMARK  2 active torsions:
REMARK  status: ('A' for Active; 'I' for Inactive)
REMARK    1  A    between atoms: C2_2  and  C3_3 
REMARK    2  A    between atoms: C7_11  and  C9_13 
ROOT
HETATM    1  C3  UNL     1      -0.187  -0.392  -0.922  1.00  0.00     0.196 C 
HETATM    2  N1  UNL     1       0.758  -1.243  -0.250  1.00  0.00    -0.065 N 
ATOM      3  H11 UNL     1       0.983  -2.122  -0.716  1.00  0.00     0.278 HD
ATOM      4  H12 UNL     1       0.430  -1.693   0.605  1.00  0.00     0.278 HD
HETATM    5  C4  UNL     1       1.861  -0.291  -0.097  1.00  0.00     0.197 C 
HETATM    6  C5  UNL     1       2.968  -0.864   0.751  1.00  0.00     0.041 C 
HETATM    7  C6  UNL     1       1.176   0.882   0.522  1.00  0.00     0.099 C 
HETATM    8 BR1  UNL     1       1.069   0.539   2.442  1.00  0.00    -0.088 Br
HETATM    9  C7  UNL     1      -0.231   0.823  -0.087  1.00  0.00     0.012 C 
HETATM   10  C8  UNL     1      -1.202   0.867   1.030  1.00  0.00     0.020 C 
ENDROOT
BRANCH   9  11
HETATM   11  C9  UNL     1      -0.398   2.069  -0.926  1.00  0.00     0.127 C 
HETATM   12 CL1  UNL     1      -0.436   3.456   0.202  1.00  0.00    -0.130 Cl
ENDBRANCH   9  11
BRANCH   1  13
HETATM   13  C2  UNL     1      -1.448  -1.024  -1.328  1.00  0.00     0.029 C 
HETATM   14  C1  UNL     1      -2.303  -1.617  -0.281  1.00  0.00     0.007 C 
ENDBRANCH   1  13
TORSDOF 2
