REMARK  2 active torsions:
REMARK  status: ('A' for Active; 'I' for Inactive)
REMARK    1  A    between atoms: C4_4  and  C5_5 
REMARK       I    between atoms: C5_5  and  N1_7 
REMARK    2  A    between atoms: N1_7  and  C6_9 
ROOT
HETATM    1  C5  UNL     1      -1.084  -0.293  -0.337  1.00  0.00     0.227 C 
HETATM    2  O1  UNL     1      -1.026   0.328  -1.436  1.00  0.00    -0.273 OA
HETATM    3  N1  UNL     1       0.134  -0.458   0.376  1.00  0.00    -0.356 N 
ATOM      4  H1  UNL     1       0.118  -0.954   1.267  1.00  0.00     0.162 HD
ENDROOT
BRANCH   1   5
HETATM    5  C4  UNL     1      -2.334  -0.834   0.216  1.00  0.00     0.146 A 
HETATM    6  C2  UNL     1      -3.564   0.002  -0.050  1.00  0.00     0.020 A 
HETATM    7  C1  UNL     1      -4.431   0.217   1.172  1.00  0.00     0.020 C 
HETATM    8  C3  UNL     1      -3.489   1.188  -0.963  1.00  0.00     0.020 C 
HETATM    9  C13 UNL     1      -3.423  -1.321  -0.666  1.00  0.00     0.199 A 
HETATM   10  F1  UNL     1      -3.170  -1.376  -2.029  1.00  0.00    -0.224 F 
HETATM   11 CL1  UNL     1      -4.453  -2.644  -0.091  1.00  0.00    -0.081 Cl
ENDBRANCH   1   5
BRANCH   3  12
HETATM   12  C6  UNL     1       1.394   0.050  -0.113  1.00  0.00     0.088 C 
HETATM   13  C7  UNL     1       1.969   1.122   0.814  1.00  0.00     0.030 C 
HETATM   14  C8  UNL     1       3.419   0.699   0.875  1.00  0.00    -0.012 C 
HETATM   15  C9  UNL     1       3.980   0.786  -0.509  1.00  0.00     0.005 C 
HETATM   16  C12 UNL     1       3.250  -0.823   1.012  1.00  0.00     0.011 C 
HETATM   17  C10 UNL     1       3.468  -0.441  -1.273  1.00  0.00     0.007 C 
HETATM   18  C11 UNL     1       2.444  -0.991  -0.286  1.00  0.00     0.009 C 
ENDBRANCH   3  12
TORSDOF 2
