REMARK  2 active torsions:
REMARK  status: ('A' for Active; 'I' for Inactive)
REMARK    1  A    between atoms: C8_10  and  C9_11 
REMARK    2  A    between atoms: C10_12  and  C11_13 
ROOT
HETATM    1  C1  UNL     1      -1.680   1.919  -1.130  1.00  0.00     0.015 C 
HETATM    2  C2  UNL     1      -2.457   0.789  -0.505  1.00  0.00     0.011 C 
HETATM    3  C3  UNL     1      -3.383   0.114  -1.496  1.00  0.00     0.014 C 
HETATM    4  C4  UNL     1      -4.343  -0.742  -0.709  1.00  0.00     0.080 C 
HETATM    5  C5  UNL     1      -3.757  -1.360   0.508  1.00  0.00     0.247 C 
HETATM    6  F1  UNL     1      -4.094  -0.650   1.669  1.00  0.00    -0.206 F 
HETATM    7  F2  UNL     1      -4.273  -2.651   0.687  1.00  0.00    -0.206 F 
HETATM    8  C6  UNL     1      -2.258  -1.503   0.508  1.00  0.00     0.113 C 
HETATM    9  C7  UNL     1      -1.584  -0.282   0.017  1.00  0.00    -0.070 C 
HETATM   10  C8  UNL     1      -0.241  -0.186   0.059  1.00  0.00     0.003 C 
ENDROOT
BRANCH  10  11
HETATM   11  C9  UNL     1       0.511  -1.285   0.584  1.00  0.00     0.003 C 
HETATM   12  C10 UNL     1       1.765  -1.511   0.762  1.00  0.00     0.031 C 
BRANCH  12  13
HETATM   13  C11 UNL     1       2.917  -0.694   0.480  1.00  0.00     0.048 A 
HETATM   14  C12 UNL     1       3.017   0.556  -0.056  1.00  0.00     0.120 A 
HETATM   15  N1  UNL     1       4.333   0.958  -0.148  1.00  0.00    -0.355 N 
HETATM   16  C13 UNL     1       4.818   2.228  -0.668  1.00  0.00     0.156 C 
HETATM   17  C14 UNL     1       5.028  -0.069   0.342  1.00  0.00     0.182 A 
HETATM   18  N2  UNL     1       4.227  -1.062   0.722  1.00  0.00    -0.351 N 
ATOM     19  H2  UNL     1       4.530  -1.948   1.125  1.00  0.00     0.166 HD
ENDBRANCH  12  13
ENDBRANCH  10  11
TORSDOF 2
