REMARK  3 active torsions:
REMARK  status: ('A' for Active; 'I' for Inactive)
REMARK    1  A    between atoms: C4_4  and  C5_5 
REMARK    2  A    between atoms: C6_6  and  C7_7 
REMARK    3  A    between atoms: C7_7  and  C9_9 
ROOT
HETATM    1  C1  UNL     1       1.973   2.221   1.441  1.00  0.00     0.018 C 
HETATM    2  C2  UNL     1       2.112   1.200   0.826  1.00  0.00    -0.074 C 
HETATM    3  C3  UNL     1       2.311  -0.015   0.096  1.00  0.00     0.062 A 
HETATM    4  C4  UNL     1       1.413  -0.883  -0.471  1.00  0.00     0.001 A 
HETATM    5  C10 UNL     1       2.148  -1.933  -1.078  1.00  0.00     0.101 A 
HETATM    6  N1  UNL     1       3.432  -1.672  -0.864  1.00  0.00    -0.358 N 
ATOM      7  H1  UNL     1       4.202  -2.257  -1.187  1.00  0.00     0.166 HD
HETATM    8  C11 UNL     1       3.581  -0.540  -0.169  1.00  0.00     0.099 A 
HETATM    9 BR1  UNL     1       5.226   0.246   0.380  1.00  0.00    -0.030 Br
ENDROOT
BRANCH   4  10
HETATM   10  C5  UNL     1      -0.030  -0.800  -0.482  1.00  0.00     0.011 C 
HETATM   11  C6  UNL     1      -0.781   0.111   0.040  1.00  0.00    -0.020 C 
BRANCH  11  12
HETATM   12  C7  UNL     1      -2.282  -0.051  -0.123  1.00  0.00     0.018 C 
HETATM   13  C8  UNL     1      -2.756   1.168  -0.856  1.00  0.00     0.015 C 
BRANCH  12  14
HETATM   14  C9  UNL     1      -2.934  -0.142   1.243  1.00  0.00     0.122 C 
HETATM   15 CL1  UNL     1      -2.581   1.360   2.148  1.00  0.00    -0.130 Cl
ENDBRANCH  12  14
ENDBRANCH  11  12
ENDBRANCH   4  10
TORSDOF 3
