REMARK  3 active torsions:
REMARK  status: ('A' for Active; 'I' for Inactive)
REMARK    1  A    between atoms: N1_8  and  C7_9 
REMARK    2  A    between atoms: N1_8  and  C9_12 
REMARK    3  A    between atoms: C7_9  and  C8_10 
ROOT
HETATM    1  C1  UNL     1      -2.890   3.022   0.350  1.00  0.00     0.015 C 
HETATM    2  C2  UNL     1      -3.114   1.882   0.055  1.00  0.00    -0.073 C 
HETATM    3  C3  UNL     1      -3.406   0.538  -0.302  1.00  0.00     0.166 C 
HETATM    4  F1  UNL     1      -4.796   0.369  -0.220  1.00  0.00    -0.229 F 
HETATM    5  C4  UNL     1      -2.960   0.083  -1.658  1.00  0.00     0.059 C 
HETATM    6  C5  UNL     1      -1.445   0.331  -1.688  1.00  0.00     0.032 C 
HETATM    7  C6  UNL     1      -0.625  -0.754  -1.160  1.00  0.00     0.238 C 
HETATM    8  N1  UNL     1      -0.384  -0.846   0.264  1.00  0.00    -0.060 N 
HETATM    9  C16 UNL     1      -1.471  -0.404   1.053  1.00  0.00     0.242 C 
HETATM   10  C17 UNL     1      -2.846  -0.521   0.656  1.00  0.00     0.085 C 
ENDROOT
BRANCH   8  11
HETATM   11  C7  UNL     1       0.016  -2.219   0.477  1.00  0.00     0.269 C 
BRANCH  11  12
HETATM   12  C8  UNL     1      -0.921  -3.315   0.634  1.00  0.00     0.250 C 
HETATM   13  F2  UNL     1      -1.744  -3.233   1.743  1.00  0.00    -0.254 F 
ENDBRANCH  11  12
ENDBRANCH   8  11
BRANCH   8  14
HETATM   14  C9  UNL     1       0.798  -0.087   0.692  1.00  0.00     0.190 C 
HETATM   15  C10 UNL     1       2.122  -0.694   0.565  1.00  0.00     0.033 C 
HETATM   16  C11 UNL     1       2.996  -0.272  -0.593  1.00  0.00     0.002 C 
HETATM   17  C12 UNL     1       4.022   0.795  -0.206  1.00  0.00     0.000 C 
HETATM   18  C13 UNL     1       3.261   2.073  -0.122  1.00  0.00     0.000 C 
HETATM   19  C14 UNL     1       2.070   2.011   0.793  1.00  0.00     0.002 C 
HETATM   20  C15 UNL     1       0.868   1.310   0.133  1.00  0.00     0.033 C 
ENDBRANCH   8  14
TORSDOF 3
