REMARK  4 active torsions:
REMARK  status: ('A' for Active; 'I' for Inactive)
REMARK    1  A    between atoms: C1_4  and  C2_6 
REMARK    2  A    between atoms: C2_6  and  C3_7 
REMARK    3  A    between atoms: C3_7  and  C4_8 
REMARK    4  A    between atoms: C4_8  and  C5_9 
ROOT
HETATM    1  C2  UNL     1       0.130   0.611  -0.195  1.00  0.00    -0.014 C 
HETATM    2  C6  UNL     1      -1.109   0.163  -0.103  1.00  0.00    -0.053 C 
HETATM    3  C7  UNL     1      -2.474   0.540   0.306  1.00  0.00     0.041 C 
HETATM    4  C8  UNL     1      -2.732  -0.413   1.411  1.00  0.00     0.002 C 
HETATM    5  C9  UNL     1      -2.242  -1.568   0.902  1.00  0.00     0.017 C 
HETATM    6 CL1  UNL     1      -2.201  -3.147   1.651  1.00  0.00    -0.088 Cl
HETATM    7  C10 UNL     1      -1.761  -1.150  -0.432  1.00  0.00     0.061 C 
HETATM    8  C11 UNL     1      -2.931  -0.294  -0.902  1.00  0.00     0.027 C 
ENDROOT
BRANCH   1   9
HETATM    9  C1  UNL     1       0.403   1.970   0.230  1.00  0.00     0.116 C 
HETATM   10  N1  UNL     1      -0.542   2.714   0.691  1.00  0.00    -0.387 N 
ATOM     11  H12 UNL     1      -0.350   3.670   0.990  1.00  0.00     0.157 HD
ATOM     12  H11 UNL     1      -1.467   2.288   0.738  1.00  0.00     0.157 HD
HETATM   13  N2  UNL     1       1.692   2.564   0.165  1.00  0.00    -0.083 NA
ENDBRANCH   1   9
BRANCH   1  14
HETATM   14  C3  UNL     1       1.167  -0.287  -0.732  1.00  0.00     0.043 C 
BRANCH  14  15
HETATM   15  C4  UNL     1       2.270  -0.616   0.238  1.00  0.00     0.015 C 
BRANCH  15  16
HETATM   16  C5  UNL     1       3.271  -1.556  -0.436  1.00  0.00     0.085 C 
HETATM   17 BR1  UNL     1       2.289  -3.146  -0.933  1.00  0.00    -0.097 Br
ENDBRANCH  15  16
ENDBRANCH  14  15
ENDBRANCH   1  14
TORSDOF 4
