REMARK  6 active torsions:
REMARK  status: ('A' for Active; 'I' for Inactive)
REMARK    1  A    between atoms: C2_2  and  C4_4 
REMARK    2  A    between atoms: C4_4  and  C5_5 
REMARK    3  A    between atoms: C5_5  and  C6_6 
REMARK    4  A    between atoms: C6_6  and  N1_7 
REMARK       I    between atoms: N1_7  and  C7_9 
REMARK       I    between atoms: C7_9  and  N3_13 
REMARK    5  A    between atoms: N4_21  and  C15_22 
REMARK    6  A    between atoms: C15_22  and  C16_23 
ROOT
HETATM    1  N1  UNL     1       2.815   1.116   0.130  1.00  0.00    -0.226 N 
ATOM      2  H1  UNL     1       2.729   0.688   1.052  1.00  0.00     0.177 HD
HETATM    3  C7  UNL     1       1.706   1.085  -0.739  1.00  0.00     0.673 C 
HETATM    4  N2  UNL     1       1.719   1.738  -1.844  1.00  0.00    -0.235 N 
ATOM      5  H21 UNL     1       0.916   1.716  -2.473  1.00  0.00     0.174 HD
ATOM      6  H22 UNL     1       2.548   2.282  -2.084  1.00  0.00     0.174 HD
HETATM    7  N3  UNL     1       0.555   0.329  -0.406  1.00  0.00    -0.194 N 
HETATM    8  C8  UNL     1       0.238  -0.831  -1.163  1.00  0.00     0.106 C 
HETATM    9  C9  UNL     1      -0.950  -1.405  -1.063  1.00  0.00     0.010 C 
HETATM   10  C10 UNL     1      -1.940  -0.822  -0.155  1.00  0.00     0.063 C 
HETATM   11  C11 UNL     1      -1.331  -0.183   1.074  1.00  0.00     0.044 C 
HETATM   12  C12 UNL     1      -0.254   0.783   0.707  1.00  0.00     0.148 C 
HETATM   13  C13 UNL     1      -2.895  -1.902   0.267  1.00  0.00     0.043 C 
HETATM   14  C14 UNL     1      -3.913  -1.884  -0.856  1.00  0.00     0.127 C 
HETATM   15  N4  UNL     1      -4.150  -0.458  -1.011  1.00  0.00    -0.351 N 
HETATM   16  C19 UNL     1      -2.849   0.141  -0.830  1.00  0.00     0.232 C 
HETATM   17  O1  UNL     1      -2.503   1.301  -1.179  1.00  0.00    -0.272 OA
ENDROOT
BRANCH   1  18
HETATM   18  C6  UNL     1       4.079   1.736  -0.240  1.00  0.00     0.138 C 
BRANCH  18  19
HETATM   19  C5  UNL     1       5.093   1.632   0.862  1.00  0.00     0.020 C 
BRANCH  19  20
HETATM   20  C4  UNL     1       5.398   0.196   1.226  1.00  0.00     0.005 C 
BRANCH  20  21
HETATM   21  C2  UNL     1       5.946  -0.592   0.082  1.00  0.00    -0.023 C 
HETATM   22  C1  UNL     1       7.237   0.090  -0.361  1.00  0.00     0.009 C 
HETATM   23  C3  UNL     1       6.328  -1.974   0.582  1.00  0.00     0.009 C 
ENDBRANCH  20  21
ENDBRANCH  19  20
ENDBRANCH  18  19
ENDBRANCH   1  18
BRANCH  15  24
HETATM   24  C15 UNL     1      -5.346   0.273  -1.282  1.00  0.00     0.129 C 
BRANCH  24  25
HETATM   25  C16 UNL     1      -6.087   0.691  -0.042  1.00  0.00    -0.005 C 
HETATM   26  C17 UNL     1      -7.344   1.464  -0.399  1.00  0.00     0.011 C 
HETATM   27  C18 UNL     1      -6.526  -0.575   0.699  1.00  0.00     0.011 C 
ENDBRANCH  24  25
ENDBRANCH  15  24
TORSDOF 6
