REMARK  6 active torsions:
REMARK  status: ('A' for Active; 'I' for Inactive)
REMARK       I    between atoms: N1_8  and  C8_9 
REMARK    1  A    between atoms: C8_9  and  C9_11 
REMARK    2  A    between atoms: C9_11  and  C10_12 
REMARK    3  A    between atoms: C10_12  and  C11_13 
REMARK    4  A    between atoms: C11_13  and  N2_14 
REMARK       I    between atoms: N2_14  and  C12_16 
REMARK       I    between atoms: C12_16  and  N3_18 
REMARK    5  A    between atoms: N3_18  and  C13_20 
REMARK    6  A    between atoms: C13_20  and  C14_21 
ROOT
HETATM    1  C11 UNL     1       0.250  -0.759  -0.502  1.00  0.00     0.125 C 
ENDROOT
BRANCH   1   2
HETATM    2  C10 UNL     1      -0.346   0.453  -1.141  1.00  0.00     0.029 C 
BRANCH   2   3
HETATM    3  C9  UNL     1      -1.723   0.808  -0.650  1.00  0.00     0.104 C 
BRANCH   3   4
HETATM    4  C8  UNL     1      -2.739  -0.210  -0.894  1.00  0.00     0.220 C 
HETATM    5  N1  UNL     1      -4.031  -0.018  -0.306  1.00  0.00    -0.347 N 
HETATM    6  C2  UNL     1      -4.479   1.096   0.533  1.00  0.00     0.084 C 
HETATM    7  C7  UNL     1      -5.180  -0.883  -0.411  1.00  0.00     0.135 C 
HETATM    8  C1  UNL     1      -5.413   1.977  -0.253  1.00  0.00     0.032 C 
HETATM    9  C3  UNL     1      -5.180   0.362   1.659  1.00  0.00     0.035 C 
HETATM   10  C4  UNL     1      -5.856  -0.773   0.941  1.00  0.00    -0.030 C 
HETATM   11  C5  UNL     1      -5.606  -2.032   1.758  1.00  0.00     0.016 C 
HETATM   12  C6  UNL     1      -7.339  -0.595   0.824  1.00  0.00     0.016 C 
HETATM   13  O1  UNL     1      -2.565  -1.239  -1.582  1.00  0.00    -0.273 OA
ENDBRANCH   3   4
ENDBRANCH   2   3
ENDBRANCH   1   2
BRANCH   1  14
HETATM   14  N2  UNL     1       1.567  -1.067  -0.998  1.00  0.00    -0.343 N 
HETATM   15  C12 UNL     1       2.683  -0.199  -0.890  1.00  0.00     0.316 C 
HETATM   16  O2  UNL     1       2.557   0.915  -0.329  1.00  0.00    -0.247 OA
HETATM   17  N3  UNL     1       3.965  -0.529  -1.393  1.00  0.00    -0.343 N 
ATOM     18  H3  UNL     1       4.074  -1.434  -1.852  1.00  0.00     0.164 HD
ATOM     19  H2  UNL     1       1.706  -1.968  -1.456  1.00  0.00     0.164 HD
BRANCH  17  20
HETATM   20  C13 UNL     1       5.117   0.313  -1.305  1.00  0.00     0.129 C 
BRANCH  20  21
HETATM   21  C14 UNL     1       5.505   0.633   0.107  1.00  0.00     0.004 C 
HETATM   22  C15 UNL     1       5.828  -0.656   0.891  1.00  0.00     0.011 C 
HETATM   23  C16 UNL     1       6.936  -0.136   1.719  1.00  0.00    -0.010 A 
HETATM   24  C17 UNL     1       8.333  -0.157   1.635  1.00  0.00     0.010 A 
HETATM   25  C18 UNL     1       7.764   0.352   0.458  1.00  0.00    -0.010 A 
HETATM   26  C19 UNL     1       6.820   1.442   0.140  1.00  0.00     0.011 C 
ENDBRANCH  20  21
ENDBRANCH  17  20
ENDBRANCH   1  14
TORSDOF 6
