REMARK  9 active torsions:
REMARK  status: ('A' for Active; 'I' for Inactive)
REMARK    1  A    between atoms: C2_2  and  O1_3 
REMARK    2  A    between atoms: C2_2  and  N1_5 
REMARK    3  A    between atoms: N1_5  and  C4_7 
REMARK    4  A    between atoms: C13_18  and  O4_19 
REMARK    5  A    between atoms: O4_19  and  C14_20 
REMARK    6  A    between atoms: C14_20  and  C16_22 
REMARK    7  A    between atoms: C16_22  and  C17_23 
REMARK    8  A    between atoms: C22_28  and  C23_29 
REMARK    9  A    between atoms: C23_29  and  O5_32 
ROOT
HETATM    1  C4  UNL     1       5.483   0.386   1.047  1.00  0.00     0.103 C 
HETATM    2  C5  UNL     1       4.575  -0.218   0.371  1.00  0.00     0.009 C 
HETATM    3  C6  UNL     1       3.466   0.072  -0.509  1.00  0.00     0.176 C 
HETATM    4  O2  UNL     1       3.471   0.852  -1.457  1.00  0.00    -0.291 OA
HETATM    5  C7  UNL     1       2.374  -0.769  -0.015  1.00  0.00     0.118 C 
HETATM    6  C8  UNL     1       2.973  -1.984   0.595  1.00  0.00     0.038 C 
HETATM    7  C9  UNL     1       4.464  -1.785   0.479  1.00  0.00     0.021 C 
HETATM    8  C10 UNL     1       5.077  -2.351  -0.753  1.00  0.00     0.015 C 
HETATM    9  C11 UNL     1       1.511   0.028   0.919  1.00  0.00     0.156 C 
HETATM   10  O3  UNL     1       1.674   0.316   2.089  1.00  0.00    -0.296 OA
HETATM   11  C12 UNL     1       0.565   0.208  -0.195  1.00  0.00     0.124 C 
HETATM   12  C13 UNL     1      -0.802  -0.347   0.213  1.00  0.00     0.168 C 
HETATM   13  C22 UNL     1      -0.442  -1.773   0.411  1.00  0.00     0.185 C 
HETATM   14  O6  UNL     1       0.451  -2.091  -0.609  1.00  0.00    -0.367 OA
HETATM   15  C26 UNL     1       1.182  -0.956  -0.894  1.00  0.00     0.093 C 
HETATM   16  C27 UNL     1       1.403  -0.808  -2.369  1.00  0.00     0.048 C 
ENDROOT
BRANCH   1  17
HETATM   17  N1  UNL     1       5.951   1.637   1.358  1.00  0.00    -0.345 N 
HETATM   18  C3  UNL     1       7.314   1.633   2.043  1.00  0.00     0.157 C 
BRANCH  17  19
HETATM   19  C2  UNL     1       5.490   2.911   1.124  1.00  0.00     0.113 C 
HETATM   20  C1  UNL     1       4.212   3.407   0.590  1.00  0.00     0.097 C 
BRANCH  19  21
HETATM   21  O1  UNL     1       6.333   3.886   1.437  1.00  0.00    -0.349 OA
ATOM     22  H1  UNL     1       7.158   3.566   1.782  1.00  0.00     0.219 HD
ENDBRANCH  19  21
ENDBRANCH  17  19
ENDBRANCH   1  17
BRANCH  12  23
HETATM   23  O4  UNL     1      -1.678  -0.054  -0.798  1.00  0.00    -0.377 OA
BRANCH  23  24
HETATM   24  C14 UNL     1      -2.636   0.923  -0.420  1.00  0.00     0.118 C 
HETATM   25  C15 UNL     1      -2.447   2.149  -1.269  1.00  0.00     0.039 C 
BRANCH  24  26
HETATM   26  C16 UNL     1      -4.018   0.393  -0.522  1.00  0.00     0.036 C 
BRANCH  26  27
HETATM   27  C17 UNL     1      -5.119   1.305  -0.127  1.00  0.00    -0.012 C 
HETATM   28  C18 UNL     1      -6.461   0.520  -0.271  1.00  0.00     0.005 C 
HETATM   29  C19 UNL     1      -7.437   1.636   0.028  1.00  0.00     0.000 C 
HETATM   30  C20 UNL     1      -6.874   2.824  -0.732  1.00  0.00     0.000 C 
HETATM   31  C21 UNL     1      -5.432   2.436  -1.061  1.00  0.00     0.005 C 
ENDBRANCH  26  27
ENDBRANCH  24  26
ENDBRANCH  23  24
ENDBRANCH  12  23
BRANCH  13  32
HETATM   32  C23 UNL     1      -1.560  -2.745   0.527  1.00  0.00     0.079 C 
HETATM   33  C24 UNL     1      -0.927  -4.072   0.997  1.00  0.00     0.048 C 
HETATM   34  C25 UNL     1      -2.276  -3.055  -0.748  1.00  0.00     0.048 C 
BRANCH  32  35
HETATM   35  O5  UNL     1      -2.412  -2.363   1.549  1.00  0.00    -0.388 OA
ATOM     36  H5  UNL     1      -3.127  -2.984   1.623  1.00  0.00     0.210 HD
ENDBRANCH  32  35
ENDBRANCH  13  32
TORSDOF 9
