REMARK  9 active torsions:
REMARK  status: ('A' for Active; 'I' for Inactive)
REMARK    1  A    between atoms: C7_7  and  C8_8 
REMARK    2  A    between atoms: C8_8  and  O2_10 
REMARK    3  A    between atoms: O2_10  and  C9_11 
REMARK    4  A    between atoms: C9_11  and  C10_12 
REMARK    5  A    between atoms: C10_12  and  C11_13 
REMARK    6  A    between atoms: C11_13  and  O3_14 
REMARK    7  A    between atoms: C13_19  and  N1_20 
REMARK    8  A    between atoms: N1_20  and  C15_22 
REMARK    9  A    between atoms: N2_27  and  O6_28 
ROOT
HETATM    1  C10 UNL     1       1.720  -1.170   0.185  1.00  0.00     0.123 C 
HETATM    2  O4  UNL     1       1.391   0.157   0.644  1.00  0.00    -0.303 OA
HETATM    3  C12 UNL     1       0.412   0.572  -0.271  1.00  0.00     0.283 C 
HETATM    4  O5  UNL     1       0.343   1.655  -0.929  1.00  0.00    -0.263 OA
HETATM    5  C13 UNL     1      -0.522  -0.599  -0.262  1.00  0.00     0.190 C 
HETATM    6  C24 UNL     1       0.394  -1.744  -0.278  1.00  0.00     0.018 C 
HETATM    7  C25 UNL     1       0.642  -2.447  -1.564  1.00  0.00     0.021 C 
HETATM    8  C26 UNL     1      -0.125  -2.806   0.688  1.00  0.00     0.021 C 
ENDROOT
BRANCH   1   9
HETATM    9  C9  UNL     1       2.656  -0.924  -0.982  1.00  0.00     0.220 C 
BRANCH   9  10
HETATM   10  O2  UNL     1       3.779  -0.185  -0.460  1.00  0.00    -0.314 OA
BRANCH  10  11
HETATM   11  C8  UNL     1       4.820   0.202  -1.252  1.00  0.00     0.293 C 
HETATM   12  O1  UNL     1       4.720  -0.145  -2.479  1.00  0.00    -0.259 OA
BRANCH  11  13
HETATM   13  C7  UNL     1       6.001   0.947  -0.866  1.00  0.00     0.045 A 
HETATM   14  C2  UNL     1       6.184   1.394   0.416  1.00  0.00    -0.046 A 
HETATM   15  C1  UNL     1       5.147   1.111   1.432  1.00  0.00     0.049 C 
HETATM   16  C3  UNL     1       7.342   2.109   0.747  1.00  0.00     0.008 A 
HETATM   17  C4  UNL     1       8.320   2.384  -0.185  1.00  0.00     0.001 A 
HETATM   18  C5  UNL     1       8.136   1.937  -1.469  1.00  0.00     0.001 A 
HETATM   19  C6  UNL     1       7.005   1.236  -1.799  1.00  0.00     0.018 A 
ENDBRANCH  11  13
ENDBRANCH  10  11
ENDBRANCH   9  10
ENDBRANCH   1   9
BRANCH   1  20
HETATM   20  C11 UNL     1       2.393  -1.989   1.219  1.00  0.00     0.205 C 
BRANCH  20  21
HETATM   21  O3  UNL     1       2.681  -3.237   0.672  1.00  0.00    -0.398 OA
ATOM     22  H3  UNL     1       3.113  -3.762   1.335  1.00  0.00     0.209 HD
ENDBRANCH  20  21
ENDBRANCH   1  20
BRANCH   5  23
HETATM   23  N1  UNL     1      -1.558  -0.432  -1.129  1.00  0.00    -0.399 N 
HETATM   24  C14 UNL     1      -1.418  -0.304  -2.510  1.00  0.00     0.144 C 
BRANCH  23  25
HETATM   25  C15 UNL     1      -2.825   0.052  -0.692  1.00  0.00     0.083 C 
HETATM   26  C16 UNL     1      -3.510  -0.829   0.315  1.00  0.00     0.051 C 
HETATM   27  C17 UNL     1      -4.971  -0.436   0.366  1.00  0.00     0.034 C 
HETATM   28  C18 UNL     1      -5.528  -1.143   1.618  1.00  0.00     0.034 C 
HETATM   29  C19 UNL     1      -5.752  -1.012  -0.794  1.00  0.00     0.034 C 
HETATM   30  N2  UNL     1      -5.176   0.954   0.581  1.00  0.00    -0.182 NA
HETATM   31  C20 UNL     1      -4.361   1.849  -0.133  1.00  0.00     0.034 C 
HETATM   32  C21 UNL     1      -4.824   2.144  -1.545  1.00  0.00     0.034 C 
HETATM   33  C22 UNL     1      -4.383   3.197   0.600  1.00  0.00     0.034 C 
HETATM   34  C23 UNL     1      -2.876   1.457  -0.195  1.00  0.00     0.051 C 
BRANCH  30  35
HETATM   35  O6  UNL     1      -5.314   1.293   1.886  1.00  0.00    -0.312 OA
ATOM     36  H6  UNL     1      -5.451   2.222   2.030  1.00  0.00     0.237 HD
ENDBRANCH  30  35
ENDBRANCH  23  25
ENDBRANCH   5  23
TORSDOF 9
