REMARK  6 active torsions:
REMARK  status: ('A' for Active; 'I' for Inactive)
REMARK    1  A    between atoms: O1_2  and  C2_3 
REMARK    2  A    between atoms: C2_3  and  C3_4 
REMARK    3  A    between atoms: C11_13  and  C12_14 
REMARK    4  A    between atoms: C12_14  and  O3_15 
REMARK    5  A    between atoms: C15_19  and  O4_20 
REMARK    6  A    between atoms: C15_19  and  C17_22 
ROOT
HETATM    1  C3  UNL     1       5.156  -1.518  -0.095  1.00  0.00     0.179 C 
HETATM    2  O2  UNL     1       5.802  -1.703  -1.287  1.00  0.00    -0.374 OA
HETATM    3  C4  UNL     1       5.380  -0.708  -2.159  1.00  0.00     0.208 C 
HETATM    4  C5  UNL     1       4.022  -0.340  -1.706  1.00  0.00    -0.023 A 
HETATM    5  C6  UNL     1       2.994   0.354  -2.310  1.00  0.00     0.047 A 
HETATM    6  C7  UNL     1       1.794   0.560  -1.643  1.00  0.00     0.077 A 
HETATM    7  C8  UNL     1       1.673   0.044  -0.355  1.00  0.00    -0.011 A 
HETATM    8  C9  UNL     1       2.687  -0.646   0.255  1.00  0.00     0.021 A 
HETATM    9  C10 UNL     1       3.886  -0.842  -0.435  1.00  0.00    -0.018 A 
HETATM   10  C11 UNL     1       0.391   0.236   0.421  1.00  0.00     0.045 C 
HETATM   11  C13 UNL     1      -0.310  -1.070   0.364  1.00  0.00     0.022 C 
HETATM   12  C14 UNL     1      -1.686  -1.122   0.883  1.00  0.00     0.042 C 
HETATM   13  C15 UNL     1      -2.806  -0.572   0.012  1.00  0.00     0.101 C 
HETATM   14  C22 UNL     1      -2.418   0.712  -0.644  1.00  0.00     0.261 C 
HETATM   15  C23 UNL     1      -1.574   0.625  -1.856  1.00  0.00     0.080 C 
HETATM   16  C24 UNL     1      -0.388   1.529  -1.589  1.00  0.00     0.103 C 
HETATM   17  C25 UNL     1      -0.932   2.936  -1.647  1.00  0.00     0.071 C 
HETATM   18  C26 UNL     1      -1.811   2.955  -0.397  1.00  0.00     0.277 C 
HETATM   19  N1  UNL     1      -1.666   1.618   0.224  1.00  0.00     0.105 N 
HETATM   20  C27 UNL     1      -0.276   1.407  -0.078  1.00  0.00     0.273 C 
HETATM   21  O6  UNL     1       0.756   1.266  -2.267  1.00  0.00    -0.337 OA
ENDROOT
BRANCH  13  22
HETATM   22  O4  UNL     1      -2.994  -1.531  -0.954  1.00  0.00    -0.382 OA
HETATM   23  C16 UNL     1      -3.925  -1.393  -1.913  1.00  0.00     0.202 C 
ENDBRANCH  13  22
BRANCH  13  24
HETATM   24  C17 UNL     1      -3.974  -0.481   0.926  1.00  0.00     0.092 C 
HETATM   25  C18 UNL     1      -5.183   0.258   0.440  1.00  0.00     0.015 C 
HETATM   26  C19 UNL     1      -6.401  -0.494   0.914  1.00  0.00     0.008 C 
HETATM   27  C20 UNL     1      -5.862  -1.399   1.979  1.00  0.00     0.079 C 
HETATM   28  C21 UNL     1      -4.537  -1.780   1.384  1.00  0.00     0.134 C 
HETATM   29  O5  UNL     1      -4.132  -2.895   1.341  1.00  0.00    -0.297 OA
ENDBRANCH  13  24
BRANCH  10  30
HETATM   30  C12 UNL     1       0.778   0.500   1.877  1.00  0.00     0.180 C 
BRANCH  30  31
HETATM   31  O3  UNL     1       1.572   1.615   2.019  1.00  0.00    -0.400 OA
ATOM     32  H3  UNL     1       1.812   1.779   2.923  1.00  0.00     0.209 HD
ENDBRANCH  30  31
ENDBRANCH  10  30
BRANCH   1  33
HETATM   33  C2  UNL     1       6.015  -0.560   0.740  1.00  0.00     0.203 C 
BRANCH  33  34
HETATM   34  O1  UNL     1       7.276  -1.120   0.948  1.00  0.00    -0.393 OA
HETATM   35  C1  UNL     1       8.010  -0.211   1.709  1.00  0.00     0.201 C 
ENDBRANCH  33  34
ENDBRANCH   1  33
TORSDOF 6
