REMARK  8 active torsions:
REMARK  status: ('A' for Active; 'I' for Inactive)
REMARK    1  A    between atoms: C2_2  and  C3_3 
REMARK    2  A    between atoms: C3_3  and  O2_5 
REMARK    3  A    between atoms: O2_5  and  C4_6 
REMARK    4  A    between atoms: C4_6  and  C5_7 
REMARK    5  A    between atoms: C22_25  and  O4_26 
REMARK    6  A    between atoms: C24_28  and  O5_29 
REMARK    7  A    between atoms: C25_31  and  O6_32 
REMARK    8  A    between atoms: O6_32  and  C26_33 
ROOT
HETATM    1  C5  UNL     1      -0.987  -0.055  -0.514  1.00  0.00     0.018 C 
HETATM    2  C6  UNL     1      -0.118   0.902   0.359  1.00  0.00     0.016 C 
HETATM    3  C7  UNL     1       1.128   0.292   0.885  1.00  0.00     0.019 C 
HETATM    4  C8  UNL     1       2.274   0.709   0.014  1.00  0.00     0.028 C 
HETATM    5  C9  UNL     1       2.368   2.144  -0.153  1.00  0.00     0.136 C 
HETATM    6  O3  UNL     1       2.166   2.851  -1.100  1.00  0.00    -0.297 OA
HETATM    7  C10 UNL     1       2.803   2.624   1.196  1.00  0.00     0.079 C 
HETATM    8  C11 UNL     1       3.547   1.414   1.813  1.00  0.00     0.013 C 
HETATM    9  C12 UNL     1       3.661   0.550   0.653  1.00  0.00     0.006 C 
HETATM   10  C13 UNL     1       4.137  -0.816   0.664  1.00  0.00    -0.013 C 
HETATM   11  C14 UNL     1       5.402  -0.918   1.490  1.00  0.00     0.010 C 
HETATM   12  C15 UNL     1       4.515  -1.153  -0.796  1.00  0.00     0.005 C 
HETATM   13  C16 UNL     1       3.620  -0.345  -1.759  1.00  0.00     0.006 C 
HETATM   14  C17 UNL     1       2.290  -0.215  -1.127  1.00  0.00     0.002 C 
HETATM   15  C18 UNL     1       1.090  -0.023  -1.978  1.00  0.00     0.015 C 
HETATM   16  C19 UNL     1      -0.052  -0.823  -1.429  1.00  0.00     0.021 C 
HETATM   17  C20 UNL     1      -0.826  -1.439  -2.519  1.00  0.00    -0.022 C 
HETATM   18  C21 UNL     1      -1.942  -2.157  -2.393  1.00  0.00     0.004 C 
HETATM   19  C22 UNL     1      -2.731  -2.552  -1.201  1.00  0.00     0.174 C 
HETATM   20  C24 UNL     1      -1.978  -2.340   0.084  1.00  0.00     0.181 C 
HETATM   21  C25 UNL     1      -1.758  -0.885   0.392  1.00  0.00     0.174 C 
ENDROOT
BRANCH   1  22
HETATM   22  C4  UNL     1      -1.724   0.899  -1.392  1.00  0.00     0.191 C 
BRANCH  22  23
HETATM   23  O2  UNL     1      -2.525   1.875  -0.942  1.00  0.00    -0.321 OA
BRANCH  23  24
HETATM   24  C3  UNL     1      -3.731   2.087  -0.424  1.00  0.00     0.258 C 
HETATM   25  O1  UNL     1      -4.521   1.138  -0.259  1.00  0.00    -0.265 OA
BRANCH  24  26
HETATM   26  C2  UNL     1      -4.240   3.440  -0.004  1.00  0.00     0.106 C 
HETATM   27  C1  UNL     1      -3.172   4.478  -0.265  1.00  0.00     0.015 C 
ENDBRANCH  24  26
ENDBRANCH  23  24
ENDBRANCH  22  23
ENDBRANCH   1  22
BRANCH  21  28
HETATM   28  O6  UNL     1      -1.252  -0.774   1.753  1.00  0.00    -0.313 OA
BRANCH  28  29
HETATM   29  C26 UNL     1      -2.012  -0.381   2.787  1.00  0.00     0.255 C 
HETATM   30  C27 UNL     1      -1.548  -0.247   4.199  1.00  0.00     0.126 C 
HETATM   31  O7  UNL     1      -3.189  -0.106   2.566  1.00  0.00    -0.266 OA
ENDBRANCH  28  29
ENDBRANCH  21  28
BRANCH  20  32
HETATM   32  O5  UNL     1      -0.966  -3.216   0.210  1.00  0.00    -0.390 OA
ATOM     33  H5  UNL     1      -0.490  -3.082   1.021  1.00  0.00     0.210 HD
ENDBRANCH  20  32
BRANCH  19  34
HETATM   34  O4  UNL     1      -3.243  -3.835  -1.311  1.00  0.00    -0.384 OA
HETATM   35  C23 UNL     1      -4.630  -3.844  -1.391  1.00  0.00     0.202 C 
ENDBRANCH  19  34
TORSDOF 8
