REMARK  8 active torsions:
REMARK  status: ('A' for Active; 'I' for Inactive)
REMARK    1  A    between atoms: C2_2  and  C3_3 
REMARK    2  A    between atoms: C3_3  and  C4_4 
REMARK    3  A    between atoms: C13_13  and  C14_14 
REMARK    4  A    between atoms: C14_14  and  O2_16 
REMARK    5  A    between atoms: O2_16  and  C15_17 
REMARK    6  A    between atoms: C15_17  and  C16_18 
REMARK    7  A    between atoms: C16_18  and  C18_20 
REMARK    8  A    between atoms: C18_20  and  O3_21 
ROOT
HETATM    1  C4  UNL     1      -2.120   1.513   0.202  1.00  0.00    -0.016 A 
HETATM    2  C5  UNL     1      -3.452   1.088   0.132  1.00  0.00     0.088 A 
HETATM    3  C6  UNL     1      -3.731  -0.254  -0.072  1.00  0.00     0.010 A 
HETATM    4  C7  UNL     1      -2.666  -1.106  -0.196  1.00  0.00     0.020 A 
HETATM    5  C8  UNL     1      -1.349  -0.703  -0.128  1.00  0.00    -0.049 A 
HETATM    6  C9  UNL     1      -1.039   0.635   0.074  1.00  0.00    -0.034 A 
HETATM    7  C10 UNL     1       0.404   0.807   0.141  1.00  0.00     0.058 C 
HETATM    8  C11 UNL     1       1.128   1.037  -1.124  1.00  0.00    -0.019 C 
HETATM    9  C12 UNL     1       2.412   0.693  -1.271  1.00  0.00    -0.008 C 
HETATM   10  C13 UNL     1       3.136   0.066  -0.142  1.00  0.00     0.178 C 
HETATM   11  C19 UNL     1       2.239  -0.851   0.570  1.00  0.00     0.153 C 
HETATM   12  O4  UNL     1       2.694  -1.871   1.105  1.00  0.00    -0.296 OA
HETATM   13  C20 UNL     1       0.808  -0.592   0.673  1.00  0.00     0.033 C 
HETATM   14  C21 UNL     1       0.364  -0.793   2.099  1.00  0.00     0.025 C 
HETATM   15  C22 UNL     1      -0.065  -1.486  -0.201  1.00  0.00     0.057 C 
HETATM   16  C23 UNL     1      -5.222  -0.390  -0.100  1.00  0.00     0.216 C 
HETATM   17  O5  UNL     1      -5.728  -0.750   1.148  1.00  0.00    -0.341 OA
HETATM   18  C24 UNL     1      -6.988  -0.142   1.128  1.00  0.00     0.161 C 
HETATM   19  C25 UNL     1      -7.652  -0.228   2.484  1.00  0.00     0.078 C 
HETATM   20  C26 UNL     1      -7.882  -0.787   0.077  1.00  0.00     0.078 C 
HETATM   21  O6  UNL     1      -6.743   1.159   0.712  1.00  0.00    -0.323 OA
HETATM   22  C27 UNL     1      -5.702   1.022  -0.225  1.00  0.00     0.303 C 
HETATM   23  O7  UNL     1      -4.631   1.812   0.237  1.00  0.00    -0.316 OA
ENDROOT
BRANCH  10  24
HETATM   24  C14 UNL     1       4.395  -0.545  -0.631  1.00  0.00     0.274 C 
HETATM   25  O1  UNL     1       4.793  -0.219  -1.764  1.00  0.00    -0.264 OA
BRANCH  24  26
HETATM   26  O2  UNL     1       5.169  -1.421   0.022  1.00  0.00    -0.320 OA
BRANCH  26  27
HETATM   27  C15 UNL     1       6.313  -2.078  -0.171  1.00  0.00     0.185 C 
BRANCH  27  28
HETATM   28  C16 UNL     1       7.640  -1.480  -0.253  1.00  0.00     0.029 C 
HETATM   29  C17 UNL     1       7.883  -0.470  -1.339  1.00  0.00     0.014 C 
BRANCH  28  30
HETATM   30  C18 UNL     1       8.620  -2.628  -0.570  1.00  0.00     0.170 C 
BRANCH  30  31
HETATM   31  O3  UNL     1       8.584  -3.596   0.441  1.00  0.00    -0.400 OA
ATOM     32  H3  UNL     1       9.188  -4.303   0.246  1.00  0.00     0.209 HD
ENDBRANCH  30  31
ENDBRANCH  28  30
ENDBRANCH  27  28
ENDBRANCH  26  27
ENDBRANCH  24  26
ENDBRANCH  10  24
BRANCH   1  33
HETATM   33  C3  UNL     1      -1.845   2.923   0.488  1.00  0.00     0.042 C 
BRANCH  33  34
HETATM   34  C2  UNL     1      -2.320   3.801  -0.641  1.00  0.00     0.000 C 
HETATM   35  C1  UNL     1      -1.692   3.488  -1.937  1.00  0.00     0.005 C 
ENDBRANCH  33  34
ENDBRANCH   1  33
TORSDOF 8
