REMARK  10 active torsions:
REMARK  status: ('A' for Active; 'I' for Inactive)
REMARK    1  A    between atoms: O1_2  and  C2_3 
REMARK    2  A    between atoms: C2_3  and  C3_4 
REMARK    3  A    between atoms: C8_11  and  C9_12 
REMARK    4  A    between atoms: C9_12  and  O2_13 
REMARK    5  A    between atoms: C9_12  and  N2_15 
REMARK    6  A    between atoms: N2_15  and  N3_16 
REMARK    7  A    between atoms: N3_16  and  C10_18 
REMARK    8  A    between atoms: C10_18  and  N4_20 
REMARK    9  A    between atoms: C11_22  and  C12_23 
REMARK   10  A    between atoms: C16_27  and  C17_28 
ROOT
HETATM    1  C3  UNL     1      -5.137  -0.089  -0.344  1.00  0.00     0.024 A 
HETATM    2  C4  UNL     1      -5.275  -0.834  -1.559  1.00  0.00     0.018 A 
HETATM    3  C5  UNL     1      -6.532  -1.038  -2.323  1.00  0.00     0.069 C 
HETATM    4  N1  UNL     1      -4.075  -1.291  -1.847  1.00  0.00    -0.358 N 
ATOM      5  H1  UNL     1      -3.853  -1.861  -2.663  1.00  0.00     0.166 HD
HETATM    6  C6  UNL     1      -3.172  -0.902  -0.911  1.00  0.00     0.048 A 
HETATM    7  C7  UNL     1      -1.830  -1.171  -0.791  1.00  0.00     0.042 A 
HETATM    8  C8  UNL     1      -1.089  -0.712   0.270  1.00  0.00     0.009 A 
HETATM    9  C16 UNL     1      -1.716   0.032   1.231  1.00  0.00     0.109 A 
HETATM   10  C18 UNL     1      -3.092   0.341   1.160  1.00  0.00     0.201 A 
HETATM   11  O3  UNL     1      -3.714   1.034   2.061  1.00  0.00    -0.287 OA
HETATM   12  C19 UNL     1      -3.808  -0.147   0.051  1.00  0.00     0.056 A 
ENDROOT
BRANCH   8  13
HETATM   13  C9  UNL     1       0.332  -1.043   0.297  1.00  0.00     0.266 C 
BRANCH  13  14
HETATM   14  O2  UNL     1       0.547  -2.413   0.015  1.00  0.00    -0.374 OA
ATOM     15  H2  UNL     1       1.472  -2.628   0.033  1.00  0.00     0.212 HD
ENDBRANCH  13  14
BRANCH  13  16
HETATM   16  N2  UNL     1       0.937  -0.330  -0.854  1.00  0.00    -0.102 NA
BRANCH  16  17
HETATM   17  N3  UNL     1       2.301  -0.510  -0.903  1.00  0.00    -0.277 N 
ATOM     18  H3  UNL     1       2.698  -1.446  -0.828  1.00  0.00     0.185 HD
BRANCH  17  19
HETATM   19  C10 UNL     1       3.147   0.611  -1.058  1.00  0.00     0.187 C 
HETATM   20  S1  UNL     1       2.512   2.095  -1.182  1.00  0.00    -0.040 SA
BRANCH  19  21
HETATM   21  N4  UNL     1       4.545   0.426  -1.105  1.00  0.00    -0.345 N 
HETATM   22  C11 UNL     1       5.165   0.148  -0.010  1.00  0.00     0.072 C 
ATOM     23  H4  UNL     1       5.053   0.510  -1.985  1.00  0.00     0.167 HD
BRANCH  22  24
HETATM   24  C12 UNL     1       6.636  -0.041  -0.089  1.00  0.00    -0.019 C 
HETATM   25  C13 UNL     1       7.022  -1.434  -0.537  1.00  0.00     0.020 C 
HETATM   26  C14 UNL     1       7.174   0.914  -1.143  1.00  0.00     0.020 C 
HETATM   27  C15 UNL     1       7.209   0.280   1.277  1.00  0.00     0.020 C 
ENDBRANCH  22  24
ENDBRANCH  19  21
ENDBRANCH  17  19
ENDBRANCH  16  17
ENDBRANCH  13  16
ENDBRANCH   8  13
BRANCH   9  28
HETATM   28  C17 UNL     1      -0.870   0.482   2.359  1.00  0.00     0.421 C 
HETATM   29  F1  UNL     1      -1.538   1.228   3.305  1.00  0.00    -0.166 F 
HETATM   30  F2  UNL     1      -0.386  -0.614   3.103  1.00  0.00    -0.166 F 
HETATM   31  F3  UNL     1       0.179   1.312   1.959  1.00  0.00    -0.166 F 
ENDBRANCH   9  28
BRANCH   1  32
HETATM   32  C2  UNL     1      -6.318   0.477   0.256  1.00  0.00     0.148 C 
BRANCH  32  33
HETATM   33  O1  UNL     1      -6.344   1.370   1.260  1.00  0.00    -0.367 OA
HETATM   34  C1  UNL     1      -6.104   2.695   0.789  1.00  0.00     0.208 C 
ENDBRANCH  32  33
ENDBRANCH   1  32
TORSDOF 10
