REMARK  10 active torsions:
REMARK  status: ('A' for Active; 'I' for Inactive)
REMARK    1  A    between atoms: C2_2  and  C5_5 
REMARK    2  A    between atoms: C7_7  and  C8_8 
REMARK    3  A    between atoms: C11_15  and  C12_16 
REMARK    4  A    between atoms: C12_16  and  O1_17 
REMARK    5  A    between atoms: O1_17  and  C13_18 
REMARK       I    between atoms: C13_18  and  N2_20 
REMARK    6  A    between atoms: N2_20  and  C14_22 
REMARK    7  A    between atoms: C14_22  and  C15_23 
REMARK    8  A    between atoms: C15_23  and  O3_24 
REMARK    9  A    between atoms: C16_28  and  C17_29 
REMARK   10  A    between atoms: C21_33  and  O4_34 
ROOT
HETATM    1  C8  UNL     1       0.658   1.780  -0.134  1.00  0.00     0.072 A 
HETATM    2  N1  UNL     1       0.760   3.017  -0.575  1.00  0.00    -0.342 N 
ATOM      3  H1  UNL     1      -0.035   3.598  -0.843  1.00  0.00     0.167 HD
HETATM    4  C9  UNL     1       2.038   3.417  -0.628  1.00  0.00     0.143 A 
HETATM    5 CL1  UNL     1       2.669   4.950  -1.140  1.00  0.00    -0.061 Cl
HETATM    6  C10 UNL     1       2.842   2.355  -0.184  1.00  0.00     0.165 A 
HETATM    7  F1  UNL     1       4.203   2.421  -0.064  1.00  0.00    -0.202 F 
HETATM    8  C11 UNL     1       1.967   1.340   0.119  1.00  0.00     0.037 A 
ENDROOT
BRANCH   1   9
HETATM    9  C7  UNL     1      -0.584   1.048   0.051  1.00  0.00     0.060 A 
HETATM   10  C6  UNL     1      -1.811   1.653  -0.251  1.00  0.00     0.042 A 
HETATM   11  C5  UNL     1      -3.027   1.029  -0.105  1.00  0.00    -0.013 A 
HETATM   12  C21 UNL     1      -3.019  -0.265   0.368  1.00  0.00     0.096 A 
HETATM   13  C16 UNL     1      -1.819  -0.879   0.672  1.00  0.00     0.051 A 
HETATM   14  N3  UNL     1      -0.674  -0.210   0.504  1.00  0.00    -0.355 N 
ATOM     15  H3  UNL     1       0.194  -0.692   0.738  1.00  0.00     0.166 HD
BRANCH  11  16
HETATM   16  C2  UNL     1      -4.295   1.731  -0.452  1.00  0.00    -0.021 C 
HETATM   17  C1  UNL     1      -3.914   3.119  -0.926  1.00  0.00     0.019 C 
HETATM   18  C3  UNL     1      -5.158   1.932   0.792  1.00  0.00     0.019 C 
HETATM   19  C4  UNL     1      -5.055   1.073  -1.547  1.00  0.00     0.019 C 
ENDBRANCH  11  16
BRANCH  12  20
HETATM   20  O4  UNL     1      -4.171  -0.977   0.552  1.00  0.00    -0.358 OA
ATOM     21  H4  UNL     1      -4.165  -1.869   0.878  1.00  0.00     0.217 HD
ENDBRANCH  12  20
BRANCH  13  22
HETATM   22  C17 UNL     1      -1.844  -2.290   1.186  1.00  0.00    -0.006 C 
HETATM   23  C18 UNL     1      -2.639  -2.362   2.473  1.00  0.00     0.021 C 
HETATM   24  C19 UNL     1      -2.519  -3.205   0.184  1.00  0.00     0.021 C 
HETATM   25  C20 UNL     1      -0.439  -2.790   1.383  1.00  0.00     0.021 C 
ENDBRANCH  13  22
ENDBRANCH   1   9
BRANCH   8  26
HETATM   26  C12 UNL     1       2.231   0.017   0.674  1.00  0.00     0.225 C 
BRANCH  26  27
HETATM   27  O1  UNL     1       3.568  -0.344   0.791  1.00  0.00    -0.299 OA
BRANCH  27  28
HETATM   28  C13 UNL     1       4.455  -0.590  -0.235  1.00  0.00     0.360 C 
HETATM   29  O2  UNL     1       4.045  -0.513  -1.435  1.00  0.00    -0.239 OA
HETATM   30  N2  UNL     1       5.823  -0.931  -0.008  1.00  0.00    -0.335 N 
ATOM     31  H2  UNL     1       6.149  -0.994   0.956  1.00  0.00     0.164 HD
BRANCH  30  32
HETATM   32  C14 UNL     1       6.759  -1.189  -1.052  1.00  0.00     0.151 C 
BRANCH  32  33
HETATM   33  C15 UNL     1       8.112  -1.518  -0.466  1.00  0.00     0.183 C 
BRANCH  33  34
HETATM   34  O3  UNL     1       9.054  -1.777  -1.471  1.00  0.00    -0.399 OA
ATOM     35  H3  UNL     1       9.905  -1.984  -1.102  1.00  0.00     0.209 HD
ENDBRANCH  33  34
ENDBRANCH  32  33
ENDBRANCH  30  32
ENDBRANCH  27  28
ENDBRANCH  26  27
ENDBRANCH   8  26
TORSDOF 10
