REMARK  6 active torsions:
REMARK  status: ('A' for Active; 'I' for Inactive)
REMARK       I    between atoms: C2_2  and  N1_4 
REMARK    1  A    between atoms: N1_4  and  C3_6 
REMARK    2  A    between atoms: C7_11  and  C8_12 
REMARK    3  A    between atoms: C9_14  and  C10_15 
REMARK    4  A    between atoms: C11_18  and  N3_19 
REMARK    5  A    between atoms: N3_19  and  C12_21 
REMARK    6  A    between atoms: C15_24  and  O3_25 
ROOT
HETATM    1  C8  UNL     1       1.713   0.581   0.054  1.00  0.00     0.045 A 
HETATM    2  S1  UNL     1       1.882  -1.174   0.051  1.00  0.00    -0.080 SA
HETATM    3  C9  UNL     1       0.309  -1.611   0.479  1.00  0.00     0.099 A 
HETATM    4  C11 UNL     1      -0.318  -0.413   0.616  1.00  0.00     0.076 A 
HETATM    5  C20 UNL     1       0.408   0.708   0.399  1.00  0.00     0.092 A 
HETATM    6  N4  UNL     1      -0.173   2.024   0.625  1.00  0.00    -0.099 NA
ENDROOT
BRANCH   1   7
HETATM    7  C7  UNL     1       2.841   1.469  -0.213  1.00  0.00     0.024 A 
HETATM    8  C6  UNL     1       2.777   2.772  -0.542  1.00  0.00     0.128 A 
HETATM    9  C5  UNL     1       3.946   3.549  -0.705  1.00  0.00     0.045 A 
HETATM   10  F1  UNL     1       1.653   3.463  -0.804  1.00  0.00    -0.205 F 
HETATM   11  C4  UNL     1       5.174   2.996  -0.535  1.00  0.00     0.032 A 
HETATM   12  C3  UNL     1       5.296   1.633  -0.191  1.00  0.00     0.035 A 
HETATM   13  C21 UNL     1       4.136   0.933  -0.046  1.00  0.00     0.045 A 
BRANCH  12  14
HETATM   14  N1  UNL     1       6.606   1.178  -0.028  1.00  0.00    -0.327 N 
HETATM   15  C2  UNL     1       6.991  -0.164   0.028  1.00  0.00     0.218 C 
HETATM   16  C1  UNL     1       8.467  -0.532   0.217  1.00  0.00     0.117 C 
HETATM   17  O1  UNL     1       6.205  -1.139  -0.066  1.00  0.00    -0.274 OA
ATOM     18  H1  UNL     1       7.340   1.881   0.057  1.00  0.00     0.169 HD
ENDBRANCH  12  14
ENDBRANCH   1   7
BRANCH   3  19
HETATM   19  C10 UNL     1      -0.112  -2.994   0.664  1.00  0.00     0.274 C 
HETATM   20  N2  UNL     1       0.791  -4.061   0.413  1.00  0.00    -0.057 NA
HETATM   21  O2  UNL     1      -1.268  -3.342   1.047  1.00  0.00    -0.270 OA
ENDBRANCH   3  19
BRANCH   4  22
HETATM   22  N3  UNL     1      -1.714  -0.415   0.986  1.00  0.00    -0.382 N 
ATOM     23  H3  UNL     1      -1.955  -0.303   1.971  1.00  0.00     0.160 HD
BRANCH  22  24
HETATM   24  C12 UNL     1      -2.773  -0.566   0.039  1.00  0.00     0.089 C 
HETATM   25  C13 UNL     1      -2.800   0.460  -1.070  1.00  0.00     0.028 C 
HETATM   26  C14 UNL     1      -3.709  -0.068  -2.159  1.00  0.00     0.034 C 
HETATM   27  C15 UNL     1      -5.052  -0.445  -1.570  1.00  0.00     0.119 C 
HETATM   28  C16 UNL     1      -5.114   0.099  -0.155  1.00  0.00     0.042 C 
HETATM   29  C17 UNL     1      -4.113  -0.595   0.760  1.00  0.00    -0.025 C 
HETATM   30  C18 UNL     1      -4.640  -1.986   0.976  1.00  0.00     0.017 C 
HETATM   31  C19 UNL     1      -4.092   0.134   2.073  1.00  0.00     0.017 C 
BRANCH  27  32
HETATM   32  O3  UNL     1      -6.039   0.179  -2.302  1.00  0.00    -0.396 OA
ATOM     33  H3  UNL     1      -6.882  -0.058  -1.932  1.00  0.00     0.210 HD
ENDBRANCH  27  32
ENDBRANCH  22  24
ENDBRANCH   4  22
TORSDOF 6
