REMARK  5 active torsions:
REMARK  status: ('A' for Active; 'I' for Inactive)
REMARK    1  A    between atoms: C2_2  and  N1_3 
REMARK       I    between atoms: N1_3  and  C3_5 
REMARK       I    between atoms: C3_5  and  N2_7 
REMARK    2  A    between atoms: N2_7  and  C4_9 
REMARK    3  A    between atoms: C6_11  and  O2_12 
REMARK    4  A    between atoms: O2_12  and  C7_13 
REMARK    5  A    between atoms: C8_16  and  C9_17 
ROOT
HETATM    1  C7  UNL     1      -0.136  -0.272   0.693  1.00  0.00     0.189 A 
HETATM    2  N3  UNL     1      -0.980  -0.551  -0.319  1.00  0.00    -0.336 N 
ATOM      3  H3  UNL     1      -0.694  -0.887  -1.239  1.00  0.00     0.168 HD
HETATM    4  C8  UNL     1      -2.263  -0.323   0.056  1.00  0.00     0.039 A 
HETATM    5  C16 UNL     1      -2.188   0.117   1.359  1.00  0.00     0.074 A 
HETATM    6  C17 UNL     1      -0.865   0.152   1.767  1.00  0.00     0.169 A 
HETATM    7  F1  UNL     1      -0.384   0.528   2.976  1.00  0.00    -0.201 F 
ENDROOT
BRANCH   1   8
HETATM    8  O2  UNL     1       1.245  -0.397   0.645  1.00  0.00    -0.274 OA
BRANCH   8   9
HETATM    9  C6  UNL     1       1.997   0.665   0.116  1.00  0.00     0.152 A 
HETATM   10  C5  UNL     1       3.394   0.530   0.070  1.00  0.00     0.089 A 
HETATM   11  C4  UNL     1       4.166   1.530  -0.433  1.00  0.00     0.080 A 
HETATM   12  C19 UNL     1       3.485   2.666  -0.887  1.00  0.00     0.158 A 
HETATM   13  C18 UNL     1       2.108   2.765  -0.827  1.00  0.00     0.134 A 
HETATM   14  F2  UNL     1       4.243   3.666  -1.388  1.00  0.00    -0.202 F 
HETATM   15  N7  UNL     1       1.390   1.773  -0.331  1.00  0.00    -0.344 N 
ATOM     16  H7  UNL     1       0.374   1.850  -0.288  1.00  0.00     0.167 HD
BRANCH  11  17
HETATM   17  N2  UNL     1       5.556   1.467  -0.510  1.00  0.00    -0.306 N 
HETATM   18  C3  UNL     1       6.435   0.451  -0.127  1.00  0.00     0.320 C 
HETATM   19  N1  UNL     1       7.836   0.609  -0.302  1.00  0.00    -0.343 N 
HETATM   20  O1  UNL     1       6.055  -0.615   0.373  1.00  0.00    -0.247 OA
ATOM     21  H1  UNL     1       8.181   1.477  -0.711  1.00  0.00     0.164 HD
ATOM     22  H2  UNL     1       6.002   2.293  -0.909  1.00  0.00     0.171 HD
BRANCH  19  23
HETATM   23  C2  UNL     1       8.794  -0.405   0.074  1.00  0.00     0.120 C 
HETATM   24  C1  UNL     1       8.727  -0.719   1.545  1.00  0.00     0.026 C 
ENDBRANCH  19  23
ENDBRANCH  11  17
ENDBRANCH   8   9
ENDBRANCH   1   8
BRANCH   4  25
HETATM   25  C9  UNL     1      -3.485  -0.509  -0.773  1.00  0.00     0.152 C 
HETATM   26  C10 UNL     1      -3.930   0.816  -1.341  1.00  0.00     0.033 C 
HETATM   27  C11 UNL     1      -5.341   0.818  -1.829  1.00  0.00     0.004 C 
HETATM   28  C12 UNL     1      -6.313   0.221  -0.861  1.00  0.00     0.028 C 
HETATM   29  C13 UNL     1      -5.502  -0.243   0.363  1.00  0.00     0.112 C 
HETATM   30  C14 UNL     1      -6.516  -0.698   1.363  1.00  0.00     0.109 C 
HETATM   31  N6  UNL     1      -4.555  -1.173  -0.093  1.00  0.00    -0.310 N 
HETATM   32  S1  UNL     1      -6.831  -2.502   1.210  1.00  0.00    -0.091 SA
HETATM   33  C15 UNL     1      -5.153  -3.177   1.094  1.00  0.00     0.152 C 
HETATM   34  N4  UNL     1      -4.878  -4.404   1.349  1.00  0.00    -0.379 N 
HETATM   35  N5  UNL     1      -4.186  -2.217   0.697  1.00  0.00    -0.281 N 
ATOM     36  H42 UNL     1      -5.573  -5.094   1.634  1.00  0.00     0.158 HD
ATOM     37  H41 UNL     1      -3.934  -4.784   1.284  1.00  0.00     0.158 HD
ATOM     38  H5  UNL     1      -3.217  -2.310   1.003  1.00  0.00     0.189 HD
ENDBRANCH   4  25
TORSDOF 5
