REMARK  7 active torsions:
REMARK  status: ('A' for Active; 'I' for Inactive)
REMARK    1  A    between atoms: C2_2  and  C4_4 
REMARK    2  A    between atoms: C4_4  and  N1_5 
REMARK    3  A    between atoms: N1_5  and  C5_8 
REMARK    4  A    between atoms: N2_11  and  C8_12 
REMARK    5  A    between atoms: C9_13  and  O1_14 
REMARK    6  A    between atoms: C10_16  and  C11_17 
REMARK    7  A    between atoms: C17_26  and  N4_27 
ROOT
HETATM    1  C8  UNL     1       0.939  -1.276  -0.082  1.00  0.00     0.107 A 
HETATM    2  C9  UNL     1       2.143  -0.633  -0.290  1.00  0.00     0.109 A 
HETATM    3  C10 UNL     1       3.355  -1.284  -0.141  1.00  0.00     0.055 A 
HETATM    4  C18 UNL     1       3.358  -2.610   0.224  1.00  0.00     0.172 A 
HETATM    5  F1  UNL     1       4.552  -3.231   0.365  1.00  0.00    -0.202 F 
HETATM    6  C19 UNL     1       2.169  -3.271   0.436  1.00  0.00     0.196 A 
HETATM    7  F2  UNL     1       2.154  -4.575   0.791  1.00  0.00    -0.199 F 
HETATM    8  C20 UNL     1       0.952  -2.599   0.281  1.00  0.00     0.187 A 
HETATM    9  F3  UNL     1      -0.232  -3.235   0.485  1.00  0.00    -0.200 F 
ENDROOT
BRANCH   1  10
HETATM   10  N2  UNL     1      -0.283  -0.552  -0.240  1.00  0.00    -0.376 N 
HETATM   11  C7  UNL     1      -0.988  -0.472  -1.474  1.00  0.00     0.125 C 
HETATM   12  C6  UNL     1      -2.486  -0.517  -1.364  1.00  0.00     0.053 C 
HETATM   13  C5  UNL     1      -2.937  -0.538   0.058  1.00  0.00     0.189 C 
HETATM   14  C22 UNL     1      -2.192   0.592   0.777  1.00  0.00     0.053 C 
HETATM   15  C21 UNL     1      -0.778   0.125   0.937  1.00  0.00     0.125 C 
BRANCH  13  16
HETATM   16  N1  UNL     1      -4.351  -0.410   0.263  1.00  0.00    -0.070 N 
ATOM     17  H12 UNL     1      -4.585  -0.588   1.240  1.00  0.00     0.277 HD
ATOM     18  H11 UNL     1      -4.845  -1.184  -0.180  1.00  0.00     0.277 HD
BRANCH  16  19
HETATM   19  C4  UNL     1      -4.901   0.835  -0.159  1.00  0.00     0.236 C 
BRANCH  19  20
HETATM   20  C2  UNL     1      -6.382   0.956   0.112  1.00  0.00     0.003 C 
HETATM   21  C1  UNL     1      -6.786   2.345  -0.394  1.00  0.00     0.011 C 
HETATM   22  C3  UNL     1      -7.220  -0.030  -0.630  1.00  0.00     0.011 C 
ENDBRANCH  19  20
ENDBRANCH  16  19
ENDBRANCH  13  16
ENDBRANCH   1  10
BRANCH   2  23
HETATM   23  O1  UNL     1       2.091   0.719  -0.662  1.00  0.00    -0.357 OA
ATOM     24  H1  UNL     1       2.919   1.161  -0.805  1.00  0.00     0.217 HD
ENDBRANCH   2  23
BRANCH   3  25
HETATM   25  C11 UNL     1       4.630  -0.560  -0.367  1.00  0.00     0.023 A 
HETATM   26  C12 UNL     1       5.185  -0.560  -1.625  1.00  0.00     0.103 A 
HETATM   27  N3  UNL     1       6.338   0.100  -1.785  1.00  0.00    -0.359 N 
HETATM   28  C13 UNL     1       6.940   0.748  -0.737  1.00  0.00     0.086 A 
ATOM     29  H3  UNL     1       6.778   0.122  -2.705  1.00  0.00     0.166 HD
HETATM   30  S1  UNL     1       8.375   1.661  -0.609  1.00  0.00    -0.083 SA
HETATM   31  C16 UNL     1       6.435   0.780   0.526  1.00  0.00     0.025 A 
HETATM   32  C14 UNL     1       8.293   2.058   1.055  1.00  0.00     0.053 A 
HETATM   33  C15 UNL     1       7.136   1.459   1.459  1.00  0.00     0.024 A 
HETATM   34  C17 UNL     1       5.224   0.087   0.692  1.00  0.00     0.051 A 
BRANCH  34  35
HETATM   35  N4  UNL     1       4.636   0.038   1.839  1.00  0.00    -0.398 N 
ATOM     36  H42 UNL     1       3.757  -0.465   1.960  1.00  0.00     0.156 HD
ATOM     37  H41 UNL     1       5.076   0.518   2.624  1.00  0.00     0.156 HD
ENDBRANCH  34  35
ENDBRANCH   3  25
TORSDOF 7
