REMARK  3 active torsions:
REMARK  status: ('A' for Active; 'I' for Inactive)
REMARK    1  A    between atoms: C2_2  and  C4_4 
REMARK    2  A    between atoms: C9_12  and  C10_13 
REMARK    3  A    between atoms: C10_13  and  O1_14 
ROOT
HETATM    1  C4  UNL     1      -1.417  -0.300  -0.237  1.00  0.00    -0.005 C 
HETATM    2  C5  UNL     1      -1.650  -1.773  -0.230  1.00  0.00     0.005 C 
HETATM    3  C6  UNL     1      -0.513  -2.658  -0.543  1.00  0.00     0.002 C 
HETATM    4  C7  UNL     1       0.630  -2.239   0.397  1.00  0.00     0.033 C 
HETATM    5  C8  UNL     1       0.975  -0.855  -0.108  1.00  0.00     0.191 C 
HETATM    6  N1  UNL     1       2.265  -0.513   0.424  1.00  0.00    -0.064 N 
ATOM      7  H11 UNL     1       2.963  -1.199   0.136  1.00  0.00     0.278 HD
ATOM      8  H12 UNL     1       2.285  -0.658   1.433  1.00  0.00     0.278 HD
HETATM    9  C9  UNL     1       2.702   0.815   0.099  1.00  0.00     0.209 C 
HETATM   10  C11 UNL     1       1.638   1.869   0.267  1.00  0.00     0.036 C 
HETATM   11  C12 UNL     1       0.412   1.412  -0.511  1.00  0.00     0.009 C 
HETATM   12  C13 UNL     1      -0.090   0.171   0.224  1.00  0.00     0.020 C 
ENDROOT
BRANCH   1  13
HETATM   13  C2  UNL     1      -2.593   0.293   0.491  1.00  0.00    -0.018 C 
HETATM   14  C1  UNL     1      -3.870  -0.073  -0.243  1.00  0.00     0.010 C 
HETATM   15  C3  UNL     1      -2.554   1.750   0.711  1.00  0.00     0.010 C 
ENDBRANCH   1  13
BRANCH   9  16
HETATM   16  C10 UNL     1       3.880   1.200   0.932  1.00  0.00     0.197 C 
BRANCH  16  17
HETATM   17  O1  UNL     1       4.978   0.374   0.769  1.00  0.00    -0.399 OA
ATOM     18  H1  UNL     1       5.727   0.619   1.299  1.00  0.00     0.209 HD
ENDBRANCH  16  17
ENDBRANCH   9  16
TORSDOF 3
