REMARK  4 active torsions:
REMARK  status: ('A' for Active; 'I' for Inactive)
REMARK    1  A    between atoms: N1_1  and  C1_5 
REMARK    2  A    between atoms: C1_5  and  C2_6 
REMARK    3  A    between atoms: C2_6  and  O1_7 
REMARK    4  A    between atoms: C7_13  and  C8_14 
ROOT
HETATM    1  C2  UNL     1      -1.622  -0.256  -0.442  1.00  0.00     0.085 C 
HETATM    2  C3  UNL     1      -2.540  -0.032   0.770  1.00  0.00     0.040 C 
HETATM    3  C4  UNL     1      -2.626   1.438   1.055  1.00  0.00     0.003 C 
HETATM    4  C5  UNL     1      -1.302   1.904   1.554  1.00  0.00     0.001 C 
HETATM    5  C6  UNL     1      -0.200   0.882   1.241  1.00  0.00     0.008 C 
HETATM    6  C7  UNL     1      -0.394   0.522  -0.243  1.00  0.00     0.026 C 
ENDROOT
BRANCH   1   7
HETATM    7  C1  UNL     1      -1.541  -1.715  -0.659  1.00  0.00     0.267 C 
BRANCH   7   8
HETATM    8  N1  UNL     1      -2.938  -2.202  -0.725  1.00  0.00    -0.076 N 
ATOM      9  H13 UNL     1      -3.496  -1.943   0.088  1.00  0.00     0.274 HD
ATOM     10  H12 UNL     1      -3.503  -1.719  -1.423  1.00  0.00     0.274 HD
ATOM     11  H11 UNL     1      -2.882  -3.209  -0.875  1.00  0.00     0.274 HD
ENDBRANCH   7   8
ENDBRANCH   1   7
BRANCH   1  12
HETATM   12  O1  UNL     1      -2.331   0.275  -1.554  1.00  0.00    -0.388 OA
ATOM     13  H1  UNL     1      -2.383   1.213  -1.414  1.00  0.00     0.210 HD
ENDBRANCH   1  12
BRANCH   6  14
HETATM   14  C8  UNL     1       0.878  -0.001  -0.838  1.00  0.00    -0.008 C 
HETATM   15  C9  UNL     1       1.358  -1.303  -0.283  1.00  0.00     0.005 C 
HETATM   16  C10 UNL     1       2.896  -1.299  -0.368  1.00  0.00     0.000 C 
HETATM   17  C11 UNL     1       3.318  -0.249   0.653  1.00  0.00     0.000 C 
HETATM   18  C12 UNL     1       3.024   1.083   0.001  1.00  0.00     0.000 C 
HETATM   19  C13 UNL     1       1.913   1.065  -0.973  1.00  0.00     0.005 C 
ENDBRANCH   6  14
TORSDOF 4
