REMARK  4 active torsions:
REMARK  status: ('A' for Active; 'I' for Inactive)
REMARK    1  A    between atoms: O1_2  and  N1_3 
REMARK    2  A    between atoms: N1_3  and  C2_5 
REMARK    3  A    between atoms: C2_5  and  C3_6 
REMARK    4  A    between atoms: C4_7  and  C5_8 
ROOT
HETATM    1  C5  UNL     1      -0.212   0.143  -0.016  1.00  0.00     0.020 C 
HETATM    2  C6  UNL     1       0.016   1.649  -0.328  1.00  0.00     0.029 C 
HETATM    3  C7  UNL     1      -0.836  -0.021   1.311  1.00  0.00     0.022 C 
HETATM    4  C8  UNL     1      -2.046   0.884   1.537  1.00  0.00     0.002 C 
HETATM    5  C9  UNL     1      -3.360   0.181   1.426  1.00  0.00     0.000 C 
HETATM    6  C10 UNL     1      -4.079   0.436   0.123  1.00  0.00     0.000 C 
HETATM    7  C11 UNL     1      -3.337   0.076  -1.114  1.00  0.00     0.000 C 
HETATM    8  C12 UNL     1      -2.280  -0.977  -0.930  1.00  0.00     0.002 C 
HETATM    9  C13 UNL     1      -0.916  -0.446  -1.188  1.00  0.00     0.022 C 
ENDROOT
BRANCH   1  10
HETATM   10  C4  UNL     1       1.136  -0.415  -0.006  1.00  0.00    -0.095 C 
HETATM   11  C3  UNL     1       2.234  -0.844  -0.076  1.00  0.00    -0.084 C 
BRANCH  11  12
HETATM   12  C2  UNL     1       3.634  -1.231  -0.279  1.00  0.00     0.239 C 
BRANCH  12  13
HETATM   13  N1  UNL     1       4.144  -1.416   1.030  1.00  0.00    -0.292 N 
ATOM     14  H1  UNL     1       3.808  -2.203   1.585  1.00  0.00     0.188 HD
BRANCH  13  15
HETATM   15  O1  UNL     1       5.019  -0.620   1.541  1.00  0.00    -0.289 OA
HETATM   16  C1  UNL     1       5.730   0.195   0.695  1.00  0.00     0.237 C 
ENDBRANCH  13  15
ENDBRANCH  12  13
ENDBRANCH  11  12
ENDBRANCH   1  10
TORSDOF 4
