REMARK  2 active torsions:
REMARK  status: ('A' for Active; 'I' for Inactive)
REMARK    1  A    between atoms: C2_2  and  O1_3 
REMARK    2  A    between atoms: O1_3  and  C3_4 
ROOT
HETATM    1  C3  UNL     1       0.844  -0.504  -0.254  1.00  0.00     0.065 C 
HETATM    2  C4  UNL     1       0.632  -0.812   1.197  1.00  0.00     0.071 C 
HETATM    3  C5  UNL     1      -0.783  -1.141   1.564  1.00  0.00     0.189 C 
HETATM    4  C6  UNL     1      -1.625   0.052   1.868  1.00  0.00     0.034 C 
HETATM    5  C7  UNL     1      -1.788   1.069   0.839  1.00  0.00     0.011 C 
HETATM    6  C8  UNL     1      -1.307   0.778  -0.534  1.00  0.00    -0.039 C 
HETATM    7  C9  UNL     1      -1.778   1.940  -1.426  1.00  0.00     0.015 C 
HETATM    8  C10 UNL     1      -1.936  -0.455  -1.072  1.00  0.00     0.042 C 
HETATM    9  C11 UNL     1      -1.262  -1.729  -0.719  1.00  0.00     0.190 C 
HETATM   10  C12 UNL     1       0.198  -1.620  -1.048  1.00  0.00     0.071 C 
HETATM   11  N1  UNL     1      -1.383  -2.083   0.671  1.00  0.00    -0.066 N 
ATOM     12  H11 UNL     1      -2.360  -2.238   0.918  1.00  0.00     0.278 HD
ATOM     13  H12 UNL     1      -1.013  -3.019   0.836  1.00  0.00     0.278 HD
HETATM   14  C13 UNL     1       0.184   0.805  -0.563  1.00  0.00     0.047 C 
ENDROOT
BRANCH   1  15
HETATM   15  O1  UNL     1       2.176  -0.432  -0.564  1.00  0.00    -0.380 OA
BRANCH  15  16
HETATM   16  C2  UNL     1       2.890   0.525   0.112  1.00  0.00     0.164 C 
HETATM   17  C1  UNL     1       4.354   0.523  -0.309  1.00  0.00     0.033 C 
ENDBRANCH  15  16
ENDBRANCH   1  15
TORSDOF 2
