REMARK  2 active torsions:
REMARK  status: ('A' for Active; 'I' for Inactive)
REMARK    1  A    between atoms: C8_10  and  C9_11 
REMARK    2  A    between atoms: C9_11  and  C10_12 
ROOT
HETATM    1  C1  UNL     1      -2.424   1.458   0.926  1.00  0.00     0.060 C 
HETATM    2  N1  UNL     1      -2.089   0.662   1.869  1.00  0.00    -0.397 N 
ATOM      3  H1  UNL     1      -2.353   0.983   2.801  1.00  0.00     0.159 HD
HETATM    4  C2  UNL     1      -1.400  -0.618   1.852  1.00  0.00     0.081 C 
HETATM    5  C3  UNL     1      -2.277  -1.562   1.068  1.00  0.00     0.029 C 
HETATM    6  C4  UNL     1      -2.240  -1.332  -0.402  1.00  0.00    -0.011 C 
HETATM    7  C5  UNL     1      -2.858  -0.070  -0.876  1.00  0.00     0.014 C 
HETATM    8  C6  UNL     1      -2.133   1.181  -0.532  1.00  0.00     0.025 C 
HETATM    9  C7  UNL     1      -0.638   1.086  -0.641  1.00  0.00     0.019 C 
HETATM   10  C8  UNL     1      -0.068  -0.229  -0.238  1.00  0.00    -0.036 C 
HETATM   11  C13 UNL     1      -0.820  -1.401  -0.882  1.00  0.00     0.014 C 
HETATM   12  C14 UNL     1      -0.058  -0.394   1.247  1.00  0.00     0.034 C 
ENDROOT
BRANCH  10  13
HETATM   13  C9  UNL     1       1.327  -0.334  -0.809  1.00  0.00     0.042 C 
BRANCH  13  14
HETATM   14  C10 UNL     1       2.248   0.749  -0.320  1.00  0.00     0.188 A 
HETATM   15  C11 UNL     1       3.620   0.570  -0.938  1.00  0.00     0.060 A 
HETATM   16  C12 UNL     1       4.199   0.394   0.431  1.00  0.00     0.235 A 
HETATM   17  N2  UNL     1       2.856   0.518   0.974  1.00  0.00    -0.071 N 
ATOM     18  H22 UNL     1       2.694   1.201   1.714  1.00  0.00     0.277 HD
ATOM     19  H21 UNL     1       2.494  -0.242   1.550  1.00  0.00     0.277 HD
ENDBRANCH  13  14
ENDBRANCH  10  13
TORSDOF 2
