REMARK  5 active torsions:
REMARK  status: ('A' for Active; 'I' for Inactive)
REMARK    1  A    between atoms: C3_4  and  C4_5 
REMARK    2  A    between atoms: C7_8  and  N2_9 
REMARK    3  A    between atoms: N2_9  and  C8_11 
REMARK    4  A    between atoms: C8_11  and  N3_13 
REMARK    5  A    between atoms: N3_13  and  C9_15 
ROOT
HETATM    1  N1  UNL     1       6.741   0.714  -0.579  1.00  0.00    -0.192 NA
HETATM    2  C1  UNL     1       5.761   0.212  -1.007  1.00  0.00     0.087 C 
HETATM    3  C2  UNL     1       4.623  -0.400  -1.553  1.00  0.00     0.090 C 
HETATM    4  C3  UNL     1       3.464  -0.547  -1.035  1.00  0.00    -0.009 C 
ENDROOT
BRANCH   4   5
HETATM    5  C4  UNL     1       3.019  -0.106   0.278  1.00  0.00     0.032 C 
HETATM    6  C5  UNL     1       3.869   1.042   0.841  1.00  0.00     0.012 C 
HETATM    7  C6  UNL     1       2.585   1.412   1.636  1.00  0.00     0.026 C 
HETATM    8  C7  UNL     1       1.861   0.844   0.399  1.00  0.00     0.091 C 
BRANCH   8   9
HETATM    9  N2  UNL     1       0.566   0.359   0.698  1.00  0.00    -0.362 N 
ATOM     10  H2  UNL     1       0.315   0.378   1.686  1.00  0.00     0.162 HD
BRANCH   9  11
HETATM   11  C8  UNL     1      -0.430  -0.146  -0.161  1.00  0.00     0.168 C 
HETATM   12  S1  UNL     1      -0.171  -0.165  -1.762  1.00  0.00    -0.041 SA
BRANCH  11  13
HETATM   13  N3  UNL     1      -1.680  -0.613   0.365  1.00  0.00    -0.363 N 
ATOM     14  H3  UNL     1      -1.849  -0.584   1.370  1.00  0.00     0.162 HD
BRANCH  13  15
HETATM   15  C9  UNL     1      -2.690  -1.119  -0.511  1.00  0.00     0.083 C 
HETATM   16  C10 UNL     1      -3.877  -1.680   0.260  1.00  0.00     0.025 C 
HETATM   17  C11 UNL     1      -4.531  -0.435   0.838  1.00  0.00     0.002 C 
HETATM   18  C12 UNL     1      -4.305   0.619  -0.209  1.00  0.00     0.002 C 
HETATM   19  C13 UNL     1      -3.421  -0.003  -1.275  1.00  0.00     0.025 C 
ENDBRANCH  13  15
ENDBRANCH  11  13
ENDBRANCH   9  11
ENDBRANCH   8   9
ENDBRANCH   4   5
TORSDOF 5
