REMARK  5 active torsions:
REMARK  status: ('A' for Active; 'I' for Inactive)
REMARK    1  A    between atoms: C2_3  and  C3_4 
REMARK    2  A    between atoms: C6_7  and  C7_8 
REMARK    3  A    between atoms: C7_8  and  N2_9 
REMARK    4  A    between atoms: C7_8  and  C8_13 
REMARK    5  A    between atoms: C8_13  and  O1_14 
ROOT
HETATM    1  C1  UNL     1      -1.895  -1.828   2.293  1.00  0.00     0.222 C 
HETATM    2  N1  UNL     1      -1.618  -1.374   1.253  1.00  0.00    -0.460 NA
HETATM    3  C2  UNL     1      -1.305  -0.830  -0.013  1.00  0.00     0.096 C 
HETATM    4  C5  UNL     1       0.122  -1.123  -0.410  1.00  0.00     0.057 C 
HETATM    5  C6  UNL     1       0.997   0.091  -0.182  1.00  0.00    -0.006 C 
HETATM    6  C9  UNL     1       0.996   0.403   1.268  1.00  0.00     0.012 C 
HETATM    7  C10 UNL     1      -0.056   1.279   1.783  1.00  0.00     0.006 C 
HETATM    8  C11 UNL     1      -1.295   1.462   1.054  1.00  0.00    -0.006 C 
HETATM    9  C12 UNL     1      -1.182   2.598   0.022  1.00  0.00     0.010 C 
HETATM   10  C13 UNL     1      -0.943   1.468  -0.996  1.00  0.00    -0.006 C 
HETATM   11  C14 UNL     1       0.521   1.251  -1.049  1.00  0.00     0.016 C 
HETATM   12  C15 UNL     1      -1.687   0.583  -0.034  1.00  0.00     0.035 C 
ENDROOT
BRANCH   3  13
HETATM   13  C3  UNL     1      -2.196  -1.584  -1.013  1.00  0.00     0.042 C 
HETATM   14  C4  UNL     1      -3.657  -1.391  -0.697  1.00  0.00     0.009 C 
ENDBRANCH   3  13
BRANCH   5  15
HETATM   15  C7  UNL     1       2.385  -0.232  -0.656  1.00  0.00     0.215 C 
BRANCH  15  16
HETATM   16  N2  UNL     1       3.319   0.848  -0.492  1.00  0.00    -0.072 N 
ATOM     17  H23 UNL     1       2.973   1.694  -0.944  1.00  0.00     0.274 HD
ATOM     18  H22 UNL     1       3.335   1.166   0.477  1.00  0.00     0.274 HD
ATOM     19  H21 UNL     1       4.262   0.629  -0.814  1.00  0.00     0.274 HD
ENDBRANCH  15  16
BRANCH  15  20
HETATM   20  C8  UNL     1       2.973  -1.468  -0.049  1.00  0.00     0.197 C 
BRANCH  20  21
HETATM   21  O1  UNL     1       3.248  -1.335   1.311  1.00  0.00    -0.399 OA
ATOM     22  H1  UNL     1       3.621  -2.119   1.696  1.00  0.00     0.209 HD
ENDBRANCH  20  21
ENDBRANCH  15  20
ENDBRANCH   5  15
TORSDOF 5
