REMARK  4 active torsions:
REMARK  status: ('A' for Active; 'I' for Inactive)
REMARK    1  A    between atoms: O1_1  and  C1_3 
REMARK    2  A    between atoms: C5_7  and  N1_8 
REMARK    3  A    between atoms: N1_8  and  C6_11 
REMARK    4  A    between atoms: C6_11  and  C7_12 
ROOT
HETATM    1  C7  UNL     1      -1.085  -0.226  -0.283  1.00  0.00    -0.012 C 
HETATM    2  C8  UNL     1      -1.383   1.151   0.184  1.00  0.00     0.016 C 
HETATM    3  C9  UNL     1      -2.848   1.256   0.604  1.00  0.00    -0.010 C 
HETATM    4  C10 UNL     1      -3.769   0.859  -0.508  1.00  0.00     0.037 C 
HETATM    5  C11 UNL     1      -3.419  -0.533  -1.014  1.00  0.00     0.187 C 
HETATM    6  C12 UNL     1      -1.965  -0.514  -1.481  1.00  0.00     0.044 C 
HETATM    7  N2  UNL     1      -3.642  -1.445   0.081  1.00  0.00    -0.067 N 
ATOM      8  H21 UNL     1      -3.521  -2.415  -0.209  1.00  0.00     0.278 HD
ATOM      9  H22 UNL     1      -4.627  -1.482   0.343  1.00  0.00     0.278 HD
HETATM   10  C13 UNL     1      -2.795  -1.117   1.224  1.00  0.00     0.187 C 
HETATM   11  C14 UNL     1      -3.034   0.270   1.749  1.00  0.00     0.037 C 
HETATM   12  C15 UNL     1      -1.386  -1.278   0.774  1.00  0.00     0.044 C 
ENDROOT
BRANCH   1  13
HETATM   13  C6  UNL     1       0.355  -0.336  -0.733  1.00  0.00     0.242 C 
BRANCH  13  14
HETATM   14  N1  UNL     1       1.304  -0.043   0.275  1.00  0.00    -0.068 N 
ATOM     15  H12 UNL     1       1.049  -0.503   1.149  1.00  0.00     0.277 HD
ATOM     16  H11 UNL     1       1.228   0.932   0.564  1.00  0.00     0.277 HD
BRANCH  14  17
HETATM   17  C5  UNL     1       2.639  -0.352  -0.076  1.00  0.00     0.214 C 
HETATM   18  C1  UNL     1       3.572  -0.271   1.138  1.00  0.00     0.148 C 
HETATM   19  C2  UNL     1       4.286   1.039   0.913  1.00  0.00     0.034 C 
HETATM   20  C3  UNL     1       4.567   0.984  -0.576  1.00  0.00     0.005 C 
HETATM   21  C4  UNL     1       3.179   0.617  -1.094  1.00  0.00     0.036 C 
BRANCH  18  22
HETATM   22  O1  UNL     1       4.510  -1.326   1.056  1.00  0.00    -0.393 OA
ATOM     23  H1  UNL     1       4.060  -2.151   1.198  1.00  0.00     0.210 HD
ENDBRANCH  18  22
ENDBRANCH  14  17
ENDBRANCH  13  14
ENDBRANCH   1  13
TORSDOF 4
