REMARK  4 active torsions:
REMARK  status: ('A' for Active; 'I' for Inactive)
REMARK    1  A    between atoms: C2_2  and  C3_3 
REMARK    2  A    between atoms: C8_8  and  O1_9 
REMARK    3  A    between atoms: C9_11  and  N1_12 
REMARK    4  A    between atoms: N1_12  and  C10_14 
ROOT
HETATM    1  C3  UNL     1      -1.437   1.125   0.495  1.00  0.00     0.032 C 
HETATM    2  C4  UNL     1      -2.881   0.892   0.748  1.00  0.00     0.011 C 
HETATM    3  C5  UNL     1      -3.256  -0.510   1.081  1.00  0.00     0.007 C 
HETATM    4  C6  UNL     1      -2.573  -1.545   0.274  1.00  0.00     0.012 C 
HETATM    5  C7  UNL     1      -3.319  -1.893  -1.021  1.00  0.00     0.012 C 
HETATM    6  C8  UNL     1      -1.100  -1.311   0.031  1.00  0.00     0.144 C 
HETATM    7  C9  UNL     1      -0.836   0.072  -0.404  1.00  0.00     0.113 C 
ENDROOT
BRANCH   7   8
HETATM    8  N1  UNL     1       0.468   0.447  -0.759  1.00  0.00    -0.410 N 
ATOM      9  H1  UNL     1       0.670   0.629  -1.742  1.00  0.00     0.154 HD
BRANCH   8  10
HETATM   10  C10 UNL     1       1.502   0.583   0.168  1.00  0.00     0.077 C 
HETATM   11  C11 UNL     1       1.894  -0.712   0.793  1.00  0.00     0.024 C 
HETATM   12  C12 UNL     1       3.400  -0.777   1.050  1.00  0.00     0.002 C 
HETATM   13  C13 UNL     1       4.161  -0.738  -0.255  1.00  0.00     0.000 C 
HETATM   14  C14 UNL     1       3.503   0.239  -1.243  1.00  0.00     0.002 C 
HETATM   15  C15 UNL     1       2.752   1.242  -0.441  1.00  0.00     0.024 C 
ENDBRANCH   8  10
ENDBRANCH   7   8
BRANCH   1  16
HETATM   16  C2  UNL     1      -1.394   2.408  -0.318  1.00  0.00    -0.030 C 
HETATM   17  C1  UNL     1      -0.744   3.459   0.139  1.00  0.00     0.007 C 
ENDBRANCH   1  16
BRANCH   6  18
HETATM   18  O1  UNL     1      -0.784  -2.171  -1.062  1.00  0.00    -0.393 OA
ATOM     19  H1  UNL     1       0.142  -2.024  -1.215  1.00  0.00     0.210 HD
ENDBRANCH   6  18
TORSDOF 4
