REMARK  4 active torsions:
REMARK  status: ('A' for Active; 'I' for Inactive)
REMARK    1  A    between atoms: C2_2  and  N1_3 
REMARK    2  A    between atoms: N1_3  and  C3_5 
REMARK    3  A    between atoms: C3_5  and  C4_6 
REMARK    4  A    between atoms: C4_6  and  O1_7 
ROOT
HETATM    1  C4  UNL     1       0.986  -0.096   0.487  1.00  0.00     0.078 C 
HETATM    2  C5  UNL     1       1.016  -1.578   0.933  1.00  0.00     0.045 C 
HETATM    3  C6  UNL     1      -0.432  -1.895   0.745  1.00  0.00    -0.002 A 
HETATM    4  C7  UNL     1      -1.639  -1.783   1.447  1.00  0.00    -0.005 A 
HETATM    5  C8  UNL     1      -2.934  -1.188   0.869  1.00  0.00     0.010 C 
HETATM    6  C9  UNL     1      -2.727  -0.166  -0.164  1.00  0.00    -0.010 C 
HETATM    7  C10 UNL     1      -3.690   0.998   0.103  1.00  0.00     0.005 C 
HETATM    8  C11 UNL     1      -3.139   1.952  -0.959  1.00  0.00     0.001 C 
HETATM    9  C12 UNL     1      -1.678   1.941  -0.570  1.00  0.00     0.005 C 
HETATM   10  C13 UNL     1      -1.376   0.439  -0.347  1.00  0.00    -0.003 C 
HETATM   11  C14 UNL     1      -0.452   0.365   0.783  1.00  0.00     0.031 C 
HETATM   12  C15 UNL     1      -0.806  -0.711   1.730  1.00  0.00     0.002 A 
ENDROOT
BRANCH   1  13
HETATM   13  C3  UNL     1       1.416   0.086  -0.893  1.00  0.00     0.152 C 
BRANCH  13  14
HETATM   14  N1  UNL     1       2.752  -0.343  -1.148  1.00  0.00    -0.419 N 
ATOM     15  H1  UNL     1       2.951  -1.174  -1.706  1.00  0.00     0.153 HD
BRANCH  14  16
HETATM   16  C2  UNL     1       3.792   0.445  -0.586  1.00  0.00     0.109 C 
HETATM   17  C1  UNL     1       5.123  -0.139  -1.089  1.00  0.00     0.026 C 
ENDBRANCH  14  16
ENDBRANCH  13  14
ENDBRANCH   1  13
BRANCH   1  18
HETATM   18  O1  UNL     1       1.778   0.586   1.407  1.00  0.00    -0.388 OA
ATOM     19  H1  UNL     1       1.498   0.467   2.307  1.00  0.00     0.210 HD
ENDBRANCH   1  18
TORSDOF 4
