REMARK  2 active torsions:
REMARK  status: ('A' for Active; 'I' for Inactive)
REMARK    1  A    between atoms: C4_4  and  C5_5 
REMARK    2  A    between atoms: C5_5  and  N1_6 
ROOT
HETATM    1  N1  UNL     1       1.282   1.025  -0.116  1.00  0.00    -0.371 N 
ATOM      2  H1  UNL     1       1.351   1.541  -0.993  1.00  0.00     0.161 HD
HETATM    3  C6  UNL     1       2.244   0.262   0.151  1.00  0.00     0.136 C 
HETATM    4  N2  UNL     1       3.407   0.026  -0.603  1.00  0.00    -0.370 N 
ATOM      5  H2  UNL     1       3.466   0.151  -1.614  1.00  0.00     0.161 HD
HETATM    6  C7  UNL     1       4.503  -0.412   0.218  1.00  0.00     0.132 C 
HETATM    7  C8  UNL     1       3.997  -1.538   1.113  1.00  0.00     0.102 C 
HETATM    8  S1  UNL     1       2.398  -0.756   1.603  1.00  0.00    -0.093 SA
ENDROOT
BRANCH   1   9
HETATM    9  C5  UNL     1       0.108   1.259   0.654  1.00  0.00     0.126 C 
BRANCH   9  10
HETATM   10  C4  UNL     1      -1.098   1.077  -0.243  1.00  0.00     0.003 C 
HETATM   11  C3  UNL     1      -2.368   1.320   0.548  1.00  0.00     0.006 C 
HETATM   12  C2  UNL     1      -3.533   0.707  -0.188  1.00  0.00     0.000 C 
HETATM   13  C1  UNL     1      -3.405  -0.764  -0.397  1.00  0.00     0.000 C 
HETATM   14  C10 UNL     1      -2.001  -1.174   0.016  1.00  0.00     0.000 C 
HETATM   15  C9  UNL     1      -1.052  -0.311  -0.812  1.00  0.00     0.006 C 
ENDBRANCH   9  10
ENDBRANCH   1   9
TORSDOF 2
