REMARK  2 active torsions:
REMARK  status: ('A' for Active; 'I' for Inactive)
REMARK    1  A    between atoms: C5_5  and  C6_6 
REMARK    2  A    between atoms: C6_6  and  N1_7 
ROOT
HETATM    1  N1  UNL     1       1.553   0.302  -0.506  1.00  0.00     0.092 N 
HETATM    2  C7  UNL     1       2.526   1.201  -1.085  1.00  0.00     0.300 C 
HETATM    3  C8  UNL     1       3.701   0.502  -1.693  1.00  0.00     0.262 C 
HETATM    4  N2  UNL     1       4.324  -0.419  -0.751  1.00  0.00    -0.072 N 
ATOM      5  H21 UNL     1       4.732   0.045   0.060  1.00  0.00     0.277 HD
ATOM      6  H22 UNL     1       5.186  -0.837  -1.102  1.00  0.00     0.277 HD
HETATM    7  C9  UNL     1       3.305  -1.399  -0.405  1.00  0.00     0.262 C 
HETATM    8  C10 UNL     1       2.210  -0.665   0.346  1.00  0.00     0.300 C 
ENDROOT
BRANCH   1   9
HETATM    9  C6  UNL     1       0.630   1.088   0.249  1.00  0.00     0.288 C 
BRANCH   9  10
HETATM   10  C5  UNL     1      -0.454   0.213   0.909  1.00  0.00     0.083 C 
HETATM   11  C4  UNL     1      -1.279  -0.558   0.078  1.00  0.00    -0.176 C 
HETATM   12  C3  UNL     1      -2.178  -1.284  -0.724  1.00  0.00     0.084 C 
HETATM   13  C2  UNL     1      -3.572  -0.592  -0.557  1.00  0.00     0.038 C 
HETATM   14  C1  UNL     1      -3.616   0.295   0.675  1.00  0.00    -0.030 C 
HETATM   15  C12 UNL     1      -2.720   1.393   0.892  1.00  0.00    -0.029 C 
HETATM   16  C11 UNL     1      -1.391   1.243   1.632  1.00  0.00     0.045 C 
ENDBRANCH   9  10
ENDBRANCH   1   9
TORSDOF 2
