REMARK  3 active torsions:
REMARK  status: ('A' for Active; 'I' for Inactive)
REMARK    1  A    between atoms: C8_8  and  C9_9 
REMARK    2  A    between atoms: C9_9  and  C10_10 
REMARK    3  A    between atoms: C10_10  and  N1_11 
ROOT
HETATM    1  C1  UNL     1      -2.280   1.270   1.134  1.00  0.00     0.015 C 
HETATM    2  C2  UNL     1      -1.918  -0.061   0.484  1.00  0.00    -0.040 C 
HETATM    3  C3  UNL     1      -3.062  -0.551  -0.304  1.00  0.00     0.009 C 
HETATM    4  C4  UNL     1      -3.116   0.502  -1.427  1.00  0.00     0.001 C 
HETATM    5  C5  UNL     1      -1.723   1.058  -1.556  1.00  0.00     0.006 C 
HETATM    6  C6  UNL     1      -0.902   0.166  -0.665  1.00  0.00    -0.001 C 
HETATM    7  C7  UNL     1       0.284   0.703  -0.049  1.00  0.00     0.004 A 
HETATM    8  C8  UNL     1       1.673   0.403   0.079  1.00  0.00     0.001 A 
HETATM    9  C11 UNL     1       0.822  -0.598   0.631  1.00  0.00    -0.035 A 
HETATM   10  C12 UNL     1       0.785  -1.898  -0.069  1.00  0.00     0.016 C 
HETATM   11  C13 UNL     1       0.067  -0.615   1.913  1.00  0.00     0.011 C 
HETATM   12  C14 UNL     1      -1.394  -0.943   1.552  1.00  0.00     0.010 C 
ENDROOT
BRANCH   8  13
HETATM   13  C9  UNL     1       2.599   0.111  -1.069  1.00  0.00     0.033 C 
BRANCH  13  14
HETATM   14  C10 UNL     1       4.027  -0.172  -0.588  1.00  0.00     0.230 C 
BRANCH  14  15
HETATM   15  N1  UNL     1       4.577   0.956   0.131  1.00  0.00    -0.079 N 
ATOM     16  H13 UNL     1       4.533   1.810  -0.424  1.00  0.00     0.274 HD
ATOM     17  H12 UNL     1       3.972   1.238   0.903  1.00  0.00     0.274 HD
ATOM     18  H11 UNL     1       5.527   0.768   0.451  1.00  0.00     0.274 HD
ENDBRANCH  14  15
ENDBRANCH  13  14
ENDBRANCH   8  13
TORSDOF 3
