REMARK  2 active torsions:
REMARK  status: ('A' for Active; 'I' for Inactive)
REMARK    1  A    between atoms: C1_2  and  C2_3 
REMARK    2  A    between atoms: C2_3  and  N1_4 
ROOT
HETATM    1  C2  UNL     1      -0.117   0.615   0.436  1.00  0.00     0.084 C 
ENDROOT
BRANCH   1   2
HETATM    2  C1  UNL     1      -1.421   0.269  -0.189  1.00  0.00     0.050 C 
HETATM    3  S1  UNL     1      -1.437   0.174  -1.972  1.00  0.00    -0.081 SA
HETATM    4  C8  UNL     1      -2.082  -0.961   0.386  1.00  0.00     0.027 C 
HETATM    5  C9  UNL     1      -3.525  -0.797  -0.099  1.00  0.00     0.002 C 
HETATM    6  C10 UNL     1      -3.683   0.651  -0.511  1.00  0.00     0.002 C 
HETATM    7  C11 UNL     1      -2.500   1.314   0.181  1.00  0.00     0.027 C 
ENDBRANCH   1   2
BRANCH   1   8
HETATM    8  N1  UNL     1       0.979  -0.230   0.208  1.00  0.00    -0.372 N 
HETATM    9  C3  UNL     1       1.571  -0.301  -1.058  1.00  0.00     0.063 C 
HETATM   10  C4  UNL     1       3.077  -0.128  -1.073  1.00  0.00     0.044 C 
HETATM   11  C5  UNL     1       3.421   0.713   0.157  1.00  0.00     0.007 C 
HETATM   12  C6  UNL     1       3.161  -0.237   1.336  1.00  0.00     0.021 C 
HETATM   13  C7  UNL     1       1.722  -0.698   1.322  1.00  0.00     0.127 C 
ENDBRANCH   1   8
TORSDOF 2
