REMARK  4 active torsions:
REMARK  status: ('A' for Active; 'I' for Inactive)
REMARK    1  A    between atoms: C2_2  and  C3_4 
REMARK       I    between atoms: C3_4  and  N1_6 
REMARK    2  A    between atoms: N1_6  and  O2_7 
REMARK       I    between atoms: N1_6  and  C4_9 
REMARK    3  A    between atoms: C4_9  and  C5_11 
REMARK    4  A    between atoms: C6_12  and  C7_13 
ROOT
HETATM    1  C5  UNL     1      -0.785  -0.435   0.718  1.00  0.00     0.102 A 
HETATM    2  C6  UNL     1      -2.007  -1.231   0.525  1.00  0.00     0.107 A 
HETATM    3  C8  UNL     1      -2.798   0.025   0.190  1.00  0.00     0.043 A 
HETATM    4  C9  UNL     1      -1.569   0.811   0.336  1.00  0.00     0.042 A 
HETATM    5  C10 UNL     1      -2.778   1.174   1.113  1.00  0.00     0.104 A 
HETATM    6 CL1  UNL     1      -2.702   0.935   2.865  1.00  0.00    -0.106 Cl
HETATM    7 BR2  UNL     1      -3.730   2.735   0.530  1.00  0.00    -0.067 Br
ENDROOT
BRANCH   1   8
HETATM    8  C4  UNL     1       0.397  -0.658  -0.098  1.00  0.00     0.256 C 
HETATM    9  N1  UNL     1       1.561   0.185   0.005  1.00  0.00    -0.151 N 
HETATM   10  C3  UNL     1       2.692  -0.031  -0.777  1.00  0.00     0.290 C 
HETATM   11  O1  UNL     1       2.628  -1.025  -1.591  1.00  0.00    -0.264 OA
HETATM   12  O3  UNL     1       0.439  -1.592  -0.917  1.00  0.00    -0.270 OA
BRANCH   9  13
HETATM   13  O2  UNL     1       1.554   1.217   0.890  1.00  0.00    -0.277 OA
ATOM     14  H2  UNL     1       0.782   1.364   1.424  1.00  0.00     0.245 HD
ENDBRANCH   9  13
BRANCH  10  15
HETATM   15  C2  UNL     1       3.916   0.715  -0.789  1.00  0.00     0.071 C 
HETATM   16  C1  UNL     1       4.226   1.754  -0.067  1.00  0.00     0.037 C 
HETATM   17 BR1  UNL     1       5.344   0.163  -2.015  1.00  0.00    -0.046 Br
ENDBRANCH  10  15
ENDBRANCH   1   8
BRANCH   2  18
HETATM   18  C7  UNL     1      -2.128  -2.189  -0.569  1.00  0.00     0.178 C 
HETATM   19  O4  UNL     1      -2.161  -3.422  -0.295  1.00  0.00    -0.648 OA
HETATM   20  O5  UNL     1      -2.203  -1.761  -1.876  1.00  0.00    -0.648 OA
ENDBRANCH   2  18
TORSDOF 4
