REMARK  4 active torsions:
REMARK  status: ('A' for Active; 'I' for Inactive)
REMARK    1  A    between atoms: C1_2  and  C2_4 
REMARK    2  A    between atoms: C8_10  and  N2_11 
REMARK    3  A    between atoms: N2_11  and  S1_13 
REMARK    4  A    between atoms: S1_13  and  C9_16 
ROOT
HETATM    1  N2  UNL     1       1.129  -1.758  -0.583  1.00  0.00    -0.310 N 
ATOM      2  H2  UNL     1       0.946  -2.601  -0.039  1.00  0.00     0.172 HD
ENDROOT
BRANCH   1   3
HETATM    3  C8  UNL     1       0.062  -0.915  -0.759  1.00  0.00     0.101 C 
HETATM    4  C6  UNL     1      -1.188  -1.415  -1.403  1.00  0.00     0.011 C 
HETATM    5  C5  UNL     1      -2.061  -2.258  -0.549  1.00  0.00     0.011 C 
HETATM    6  C7  UNL     1      -2.013  -0.179  -1.737  1.00  0.00     0.025 C 
HETATM    7  C4  UNL     1      -2.430  -1.504   0.703  1.00  0.00    -0.013 C 
HETATM    8  C3  UNL     1      -3.189  -0.253   0.405  1.00  0.00     0.023 C 
HETATM    9  C16 UNL     1      -1.146  -1.191   1.430  1.00  0.00     0.011 C 
HETATM   10  C2  UNL     1      -2.320   0.617  -0.509  1.00  0.00     0.040 C 
HETATM   11  C17 UNL     1      -1.085   0.968   0.290  1.00  0.00     0.025 C 
HETATM   12  C15 UNL     1      -0.300  -0.289   0.598  1.00  0.00     0.011 C 
BRANCH  10  13
HETATM   13  C1  UNL     1      -2.998   1.864  -0.873  1.00  0.00     0.239 C 
HETATM   14  N1  UNL     1      -3.402   2.790   0.118  1.00  0.00    -0.061 NA
HETATM   15  O1  UNL     1      -3.224   2.120  -2.079  1.00  0.00    -0.276 OA
ENDBRANCH  10  13
ENDBRANCH   1   3
BRANCH   1  16
HETATM   16  S1  UNL     1       2.658  -1.581  -1.135  1.00  0.00     0.265 S 
HETATM   17  O2  UNL     1       2.838  -1.448  -2.621  1.00  0.00    -0.200 OA
HETATM   18  O3  UNL     1       3.519  -2.721  -0.598  1.00  0.00    -0.200 OA
BRANCH  16  19
HETATM   19  C9  UNL     1       3.376  -0.128  -0.455  1.00  0.00     0.162 A 
HETATM   20  C10 UNL     1       3.993  -0.196   0.798  1.00  0.00     0.184 A 
HETATM   21  F1  UNL     1       4.022  -1.383   1.487  1.00  0.00    -0.201 F 
HETATM   22  C11 UNL     1       4.578   0.913   1.365  1.00  0.00     0.198 A 
HETATM   23  F2  UNL     1       5.180   0.850   2.587  1.00  0.00    -0.199 F 
HETATM   24  C12 UNL     1       4.584   2.136   0.728  1.00  0.00     0.199 A 
HETATM   25  F3  UNL     1       5.163   3.223   1.294  1.00  0.00    -0.199 F 
HETATM   26  C13 UNL     1       3.973   2.186  -0.505  1.00  0.00     0.198 A 
HETATM   27  F4  UNL     1       3.952   3.354  -1.168  1.00  0.00    -0.199 F 
HETATM   28  C14 UNL     1       3.377   1.075  -1.094  1.00  0.00     0.184 A 
HETATM   29  F5  UNL     1       2.798   1.205  -2.334  1.00  0.00    -0.201 F 
ENDBRANCH  16  19
ENDBRANCH   1  16
TORSDOF 4
