REMARK  5 active torsions:
REMARK  status: ('A' for Active; 'I' for Inactive)
REMARK    1  A    between atoms: C2_2  and  N1_4 
REMARK    2  A    between atoms: C8_9  and  N2_10 
REMARK    3  A    between atoms: N2_10  and  S1_12 
REMARK    4  A    between atoms: S1_12  and  C9_15 
REMARK    5  A    between atoms: C11_18  and  O3_19 
ROOT
HETATM    1  S1  UNL     1       1.799   2.201  -0.154  1.00  0.00     0.265 S 
HETATM    2  O1  UNL     1       1.649   2.773   1.260  1.00  0.00    -0.200 OA
HETATM    3  O2  UNL     1       2.207   3.328  -1.090  1.00  0.00    -0.200 OA
ENDROOT
BRANCH   1   4
HETATM    4  N2  UNL     1       0.283   1.592  -0.582  1.00  0.00    -0.301 N 
ATOM      5  H2  UNL     1      -0.240   1.894  -1.404  1.00  0.00     0.173 HD
BRANCH   4   6
HETATM    6  C8  UNL     1      -0.176   0.620   0.325  1.00  0.00     0.194 C 
HETATM    7  C5  UNL     1      -0.546  -0.709  -0.277  1.00  0.00    -0.002 C 
HETATM    8  C4  UNL     1      -1.922  -0.444  -0.833  1.00  0.00     0.137 C 
HETATM    9  C6  UNL     1      -0.726  -1.681   0.887  1.00  0.00     0.019 C 
HETATM   10  C7  UNL     1       0.388  -1.244  -1.293  1.00  0.00     0.019 C 
HETATM   11  N1  UNL     1      -2.548   0.303   0.236  1.00  0.00    -0.346 N 
HETATM   12  C15 UNL     1      -1.523   1.000   0.918  1.00  0.00     0.244 C 
HETATM   13  O4  UNL     1      -1.641   1.810   1.862  1.00  0.00    -0.271 OA
BRANCH  11  14
HETATM   14  C2  UNL     1      -3.970   0.354   0.580  1.00  0.00     0.079 C 
HETATM   15  C1  UNL     1      -4.674   0.967  -0.613  1.00  0.00     0.032 C 
HETATM   16  C3  UNL     1      -4.513  -1.009   0.857  1.00  0.00     0.032 C 
ENDBRANCH  11  14
ENDBRANCH   4   6
ENDBRANCH   1   4
BRANCH   1  17
HETATM   17  C9  UNL     1       3.112   1.094  -0.101  1.00  0.00     0.162 A 
HETATM   18  C10 UNL     1       3.536   0.583   1.099  1.00  0.00     0.177 A 
HETATM   19  F1  UNL     1       3.003   0.956   2.312  1.00  0.00    -0.201 F 
HETATM   20  C11 UNL     1       4.573  -0.335   1.211  1.00  0.00     0.131 A 
HETATM   21  C12 UNL     1       5.209  -0.754   0.063  1.00  0.00     0.112 A 
HETATM   22 CL1  UNL     1       6.518  -1.914   0.207  1.00  0.00    -0.078 Cl
HETATM   23  C13 UNL     1       4.799  -0.253  -1.148  1.00  0.00     0.181 A 
HETATM   24  F2  UNL     1       5.467  -0.704  -2.257  1.00  0.00    -0.201 F 
HETATM   25  C14 UNL     1       3.775   0.652  -1.244  1.00  0.00     0.183 A 
HETATM   26  F3  UNL     1       3.358   1.155  -2.423  1.00  0.00    -0.201 F 
BRANCH  20  27
HETATM   27  O3  UNL     1       4.958  -0.819   2.461  1.00  0.00    -0.356 OA
ATOM     28  H3  UNL     1       5.667  -1.447   2.538  1.00  0.00     0.218 HD
ENDBRANCH  20  27
ENDBRANCH   1  17
TORSDOF 5
