REMARK  6 active torsions:
REMARK  status: ('A' for Active; 'I' for Inactive)
REMARK    1  A    between atoms: C2_2  and  C3_4 
REMARK    2  A    between atoms: C3_4  and  C4_6 
REMARK    3  A    between atoms: C3_4  and  N2_14 
REMARK    4  A    between atoms: C4_6  and  C5_7 
REMARK    5  A    between atoms: C5_7  and  N1_8 
REMARK    6  A    between atoms: C5_7  and  O1_12 
ROOT
HETATM    1  C3  UNL     1      -0.290   0.464  -0.676  1.00  0.00     0.131 C 
HETATM    2 CL2  UNL     1      -0.238   0.763  -2.490  1.00  0.00    -0.094 Cl
ENDROOT
BRANCH   1   3
HETATM    3  C2  UNL     1      -0.914   1.735  -0.162  1.00  0.00     0.122 C 
HETATM    4  C1  UNL     1      -2.271   2.014  -0.692  1.00  0.00     0.030 C 
HETATM    5 CL1  UNL     1       0.144   3.104  -0.587  1.00  0.00    -0.121 Cl
ENDBRANCH   1   3
BRANCH   1   6
HETATM    6  C4  UNL     1      -1.075  -0.762  -0.567  1.00  0.00     0.110 C 
BRANCH   6   7
HETATM    7  C5  UNL     1      -1.529  -1.276   0.732  1.00  0.00     0.319 C 
BRANCH   7   8
HETATM    8  N1  UNL     1      -2.305  -2.511   0.432  1.00  0.00    -0.053 N 
ATOM      9  H13 UNL     1      -3.062  -2.365  -0.236  1.00  0.00     0.277 HD
ATOM     10  H12 UNL     1      -1.786  -3.195  -0.119  1.00  0.00     0.277 HD
ATOM     11  H11 UNL     1      -2.620  -2.868   1.334  1.00  0.00     0.277 HD
ENDBRANCH   7   8
BRANCH   7  12
HETATM   12  O1  UNL     1      -0.524  -1.757   1.578  1.00  0.00    -0.370 OA
ATOM     13  H1  UNL     1      -0.818  -2.089   2.418  1.00  0.00     0.212 HD
ENDBRANCH   7  12
ENDBRANCH   6   7
ENDBRANCH   1   6
BRANCH   1  14
HETATM   14  N2  UNL     1       1.087   0.441  -0.265  1.00  0.00    -0.345 N 
HETATM   15  C6  UNL     1       1.668   0.676   1.046  1.00  0.00     0.147 C 
HETATM   16  C7  UNL     1       2.783  -0.343   1.032  1.00  0.00     0.119 C 
HETATM   17 BR1  UNL     1       4.179   0.056   2.280  1.00  0.00    -0.084 Br
HETATM   18  C8  UNL     1       3.221  -0.302  -0.374  1.00  0.00     0.043 C 
HETATM   19 BR2  UNL     1       4.968  -0.844  -0.932  1.00  0.00    -0.051 Br
HETATM   20  C9  UNL     1       2.231   0.151  -1.104  1.00  0.00     0.118 C 
HETATM   21 CL3  UNL     1       2.276   0.375  -2.835  1.00  0.00    -0.063 Cl
ENDBRANCH   1  14
TORSDOF 6
