REMARK  4 active torsions:
REMARK  status: ('A' for Active; 'I' for Inactive)
REMARK    1  A    between atoms: O1_2  and  C2_3 
REMARK    2  A    between atoms: C2_3  and  C3_4 
REMARK    3  A    between atoms: C3_4  and  N1_5 
REMARK       I    between atoms: N1_5  and  C4_7 
REMARK    4  A    between atoms: C4_7  and  C5_9 
ROOT
HETATM    1  C5  UNL     1      -0.665   0.237  -0.609  1.00  0.00     0.100 A 
HETATM    2  C6  UNL     1      -1.482  -0.888  -0.699  1.00  0.00     0.038 A 
HETATM    3  C7  UNL     1      -2.762  -0.771  -0.211  1.00  0.00     0.014 A 
HETATM    4  C8  UNL     1      -3.649  -1.852  -0.235  1.00  0.00     0.065 A 
HETATM    5 BR1  UNL     1      -3.037  -3.508  -0.969  1.00  0.00    -0.047 Br
HETATM    6  C9  UNL     1      -4.930  -1.751   0.270  1.00  0.00     0.174 A 
HETATM    7  F1  UNL     1      -5.747  -2.832   0.228  1.00  0.00    -0.201 F 
HETATM    8  C10 UNL     1      -5.375  -0.554   0.823  1.00  0.00     0.175 A 
HETATM    9  F2  UNL     1      -6.633  -0.434   1.318  1.00  0.00    -0.201 F 
HETATM   10  C11 UNL     1      -4.513   0.529   0.857  1.00  0.00     0.080 A 
HETATM   11 BR2  UNL     1      -5.161   2.169   1.626  1.00  0.00    -0.045 Br
HETATM   12  C12 UNL     1      -3.242   0.402   0.348  1.00  0.00     0.067 A 
HETATM   13  N2  UNL     1      -2.444   1.481   0.428  1.00  0.00    -0.321 N 
ATOM     14  H2  UNL     1      -2.777   2.355   0.835  1.00  0.00     0.169 HD
HETATM   15  C13 UNL     1      -1.198   1.368  -0.045  1.00  0.00     0.261 A 
HETATM   16  O3  UNL     1      -0.468   2.414   0.046  1.00  0.00    -0.267 OA
ENDROOT
BRANCH   1  17
HETATM   17  C4  UNL     1       0.727   0.208  -1.021  1.00  0.00     0.257 C 
HETATM   18  N1  UNL     1       1.728   0.537  -0.097  1.00  0.00    -0.355 N 
ATOM     19  H1  UNL     1       1.480   0.792   0.859  1.00  0.00     0.162 HD
HETATM   20  O2  UNL     1       1.013  -0.120  -2.216  1.00  0.00    -0.267 OA
BRANCH  18  21
HETATM   21  C3  UNL     1       3.117   0.513  -0.509  1.00  0.00     0.149 C 
BRANCH  21  22
HETATM   22  C2  UNL     1       4.055   0.746   0.660  1.00  0.00     0.186 C 
BRANCH  22  23
HETATM   23  O1  UNL     1       5.351   0.742   0.216  1.00  0.00    -0.394 OA
HETATM   24  C1  UNL     1       5.724  -0.403  -0.422  1.00  0.00     0.201 C 
ENDBRANCH  22  23
ENDBRANCH  21  22
ENDBRANCH  18  21
ENDBRANCH   1  17
TORSDOF 4
