REMARK  2 active torsions:
REMARK  status: ('A' for Active; 'I' for Inactive)
REMARK    1  A    between atoms: C2_2  and  C4_4 
REMARK    2  A    between atoms: C8_9  and  C9_10 
ROOT
HETATM    1  C4  UNL     1      -1.694   0.167  -0.024  1.00  0.00     0.025 C 
HETATM    2  C5  UNL     1      -1.918   1.040   1.210  1.00  0.00     0.037 C 
HETATM    3  C6  UNL     1      -1.244   2.319   0.722  1.00  0.00     0.273 C 
HETATM    4  N1  UNL     1      -0.430   1.961  -0.425  1.00  0.00     0.090 N 
HETATM    5  C7  UNL     1      -1.001   2.411  -1.639  1.00  0.00     0.310 C 
HETATM    6  C8  UNL     1      -0.305   0.489  -0.355  1.00  0.00     0.247 C 
ENDROOT
BRANCH   6   7
HETATM    7  C9  UNL     1       0.779   0.077   0.551  1.00  0.00     0.131 C 
HETATM    8  N2  UNL     1       0.945  -1.298   0.817  1.00  0.00    -0.157 NA
HETATM    9  N3  UNL     1       2.260  -1.739   0.597  1.00  0.00    -0.234 NA
HETATM   10  C10 UNL     1       3.220  -1.052   1.429  1.00  0.00     0.110 C 
HETATM   11  C14 UNL     1       2.665  -1.577  -0.781  1.00  0.00     0.110 C 
HETATM   12  C11 UNL     1       3.143   0.435   1.164  1.00  0.00     0.022 C 
HETATM   13  C12 UNL     1       2.110   0.637   0.071  1.00  0.00     0.011 C 
HETATM   14  C13 UNL     1       2.608  -0.114  -1.145  1.00  0.00     0.022 C 
ENDBRANCH   6   7
BRANCH   1  15
HETATM   15  C2  UNL     1      -2.166  -1.196   0.084  1.00  0.00    -0.016 C 
HETATM   16  C1  UNL     1      -1.888  -1.940  -1.200  1.00  0.00     0.010 C 
HETATM   17  C3  UNL     1      -3.692  -1.155   0.247  1.00  0.00     0.010 C 
ENDBRANCH   1  15
TORSDOF 2
