REMARK  2 active torsions:
REMARK  status: ('A' for Active; 'I' for Inactive)
REMARK    1  A    between atoms: N2_15  and  C11_16 
REMARK    2  A    between atoms: C11_16  and  C12_17 
ROOT
HETATM    1  C1  UNL     1       1.179  -2.564   0.394  1.00  0.00     0.043 C 
HETATM    2  C2  UNL     1       0.677  -1.298  -0.259  1.00  0.00     0.221 C 
HETATM    3  C3  UNL     1      -0.785  -1.190   0.142  1.00  0.00     0.073 C 
HETATM    4  C4  UNL     1      -1.439   0.043  -0.389  1.00  0.00     0.066 C 
HETATM    5  C5  UNL     1      -2.617  -0.259  -1.287  1.00  0.00     0.065 C 
HETATM    6  C6  UNL     1      -3.583   0.902  -1.184  1.00  0.00     0.235 C 
HETATM    7  N1  UNL     1      -4.648   0.582  -0.244  1.00  0.00    -0.073 N 
ATOM      8  H11 UNL     1      -4.963  -0.386  -0.317  1.00  0.00     0.277 HD
ATOM      9  H12 UNL     1      -5.533   1.030  -0.481  1.00  0.00     0.277 HD
HETATM   10  C7  UNL     1      -4.181   0.925   1.089  1.00  0.00     0.258 C 
HETATM   11  C8  UNL     1      -2.906   0.151   1.345  1.00  0.00     0.196 C 
HETATM   12  O1  UNL     1      -1.866   0.836   0.698  1.00  0.00    -0.378 OA
HETATM   13  C9  UNL     1      -0.437   0.818  -1.178  1.00  0.00     0.068 C 
HETATM   14  C10 UNL     1       0.870   1.031  -0.473  1.00  0.00     0.276 C 
HETATM   15  N2  UNL     1       1.432  -0.142   0.103  1.00  0.00     0.093 N 
ENDROOT
BRANCH  15  16
HETATM   16  C11 UNL     1       2.790  -0.300  -0.299  1.00  0.00     0.277 C 
BRANCH  16  17
HETATM   17  C12 UNL     1       3.652   0.901   0.058  1.00  0.00     0.014 A 
HETATM   18  C13 UNL     1       5.127   0.755  -0.367  1.00  0.00     0.007 A 
HETATM   19  C14 UNL     1       4.691   0.807   1.085  1.00  0.00     0.007 A 
ENDBRANCH  16  17
ENDBRANCH  15  16
TORSDOF 2
