REMARK  3 active torsions:
REMARK  status: ('A' for Active; 'I' for Inactive)
REMARK    1  A    between atoms: C2_2  and  C3_3 
REMARK    2  A    between atoms: C3_3  and  O1_5 
REMARK    3  A    between atoms: C3_3  and  C5_7 
ROOT
HETATM    1  C5  UNL     1       1.037   0.483  -0.364  1.00  0.00     0.054 C 
HETATM    2  C6  UNL     1       0.616   1.222  -1.612  1.00  0.00     0.281 C 
HETATM    3  N1  UNL     1      -0.841   1.049  -1.688  1.00  0.00     0.094 N 
HETATM    4  C7  UNL     1      -1.433   1.986  -0.808  1.00  0.00     0.273 C 
HETATM    5  C8  UNL     1      -1.416   1.655   0.634  1.00  0.00     0.036 C 
HETATM    6  C9  UNL     1      -1.058   0.253   0.976  1.00  0.00     0.002 C 
HETATM    7  C10 UNL     1      -0.119  -0.379  -0.062  1.00  0.00     0.032 C 
HETATM    8  C11 UNL     1      -1.051  -0.318  -1.277  1.00  0.00     0.228 C 
HETATM    9  C12 UNL     1      -2.444  -0.549  -0.737  1.00  0.00     0.046 C 
HETATM   10  C13 UNL     1      -2.302  -0.601   0.739  1.00  0.00    -0.034 A 
HETATM   11  C14 UNL     1      -2.562  -1.794   1.546  1.00  0.00     0.011 A 
HETATM   12  C15 UNL     1      -3.411  -0.499   1.681  1.00  0.00     0.011 A 
ENDROOT
BRANCH   1  13
HETATM   13  C3  UNL     1       2.331  -0.217  -0.616  1.00  0.00     0.059 C 
HETATM   14  C4  UNL     1       2.324  -1.195  -1.727  1.00  0.00     0.046 C 
BRANCH  13  15
HETATM   15  C2  UNL     1       2.766  -0.971   0.650  1.00  0.00     0.033 C 
HETATM   16  C1  UNL     1       2.779   0.010   1.791  1.00  0.00     0.008 C 
ENDBRANCH  13  15
BRANCH  13  17
HETATM   17  O1  UNL     1       3.308   0.774  -0.802  1.00  0.00    -0.390 OA
ATOM     18  H1  UNL     1       3.039   1.240  -1.585  1.00  0.00     0.210 HD
ENDBRANCH  13  17
ENDBRANCH   1  13
TORSDOF 3
