REMARK  2 active torsions:
REMARK  status: ('A' for Active; 'I' for Inactive)
REMARK    1  A    between atoms: N1_4  and  C4_5 
REMARK    2  A    between atoms: C9_13  and  C10_14 
ROOT
HETATM    1  C1  UNL     1      -1.291   3.021   0.004  1.00  0.00     0.004 C 
HETATM    2  C2  UNL     1      -0.032   3.060  -0.790  1.00  0.00     0.030 C 
HETATM    3  C3  UNL     1       0.977   2.125  -0.121  1.00  0.00     0.273 C 
HETATM    4  N1  UNL     1       0.542   0.764  -0.379  1.00  0.00     0.098 N 
HETATM    5  C9  UNL     1      -0.821   0.611  -0.061  1.00  0.00     0.228 C 
HETATM    6  C16 UNL     1      -1.314   1.722   0.827  1.00  0.00     0.036 C 
ENDROOT
BRANCH   4   7
HETATM    7  C4  UNL     1       1.446  -0.205   0.180  1.00  0.00     0.226 C 
HETATM    8  C5  UNL     1       1.766  -1.315  -0.807  1.00  0.00     0.063 C 
HETATM    9  C6  UNL     1       3.241  -1.601  -0.928  1.00  0.00     0.234 C 
HETATM   10  N2  UNL     1       3.732  -1.755   0.434  1.00  0.00    -0.075 N 
HETATM   11  C7  UNL     1       3.825  -0.428   0.987  1.00  0.00     0.234 C 
ATOM     12  H22 UNL     1       3.166  -2.389   0.998  1.00  0.00     0.277 HD
ATOM     13  H21 UNL     1       4.605  -2.279   0.492  1.00  0.00     0.277 HD
HETATM   14  C8  UNL     1       2.778   0.502   0.402  1.00  0.00     0.063 C 
ENDBRANCH   4   7
BRANCH   5  15
HETATM   15  C10 UNL     1      -1.374  -0.730   0.212  1.00  0.00     0.023 C 
HETATM   16  C11 UNL     1      -1.633  -1.573  -1.029  1.00  0.00     0.011 C 
HETATM   17  C12 UNL     1      -3.099  -1.861  -0.812  1.00  0.00    -0.013 C 
HETATM   18  C13 UNL     1      -3.652  -0.540  -0.345  1.00  0.00     0.010 C 
HETATM   19  C15 UNL     1      -3.110  -2.249   0.675  1.00  0.00     0.010 C 
HETATM   20  C14 UNL     1      -2.715  -0.770   0.847  1.00  0.00    -0.008 C 
ENDBRANCH   5  15
TORSDOF 2
