REMARK  2 active torsions:
REMARK  status: ('A' for Active; 'I' for Inactive)
REMARK    1  A    between atoms: N2_14  and  C11_15 
REMARK    2  A    between atoms: C11_15  and  C12_16 
ROOT
HETATM    1  C1  UNL     1      -2.031  -0.631  -3.173  1.00  0.00     0.098 C 
HETATM    2  C2  UNL     1      -2.226  -0.660  -1.963  1.00  0.00    -0.175 C 
HETATM    3  C3  UNL     1      -2.485  -0.695  -0.522  1.00  0.00     0.040 C 
HETATM    4  C4  UNL     1      -2.738  -2.181  -0.210  1.00  0.00     0.031 C 
HETATM    5  C5  UNL     1      -3.830  -0.021  -0.331  1.00  0.00     0.254 C 
HETATM    6  N1  UNL     1      -3.720   1.258   0.310  1.00  0.00    -0.073 N 
ATOM      7  H11 UNL     1      -4.591   1.789   0.322  1.00  0.00     0.277 HD
ATOM      8  H12 UNL     1      -3.174   1.938  -0.219  1.00  0.00     0.277 HD
HETATM    9  C6  UNL     1      -3.185   0.976   1.636  1.00  0.00     0.233 C 
HETATM   10  C7  UNL     1      -1.741   0.642   1.486  1.00  0.00     0.040 C 
HETATM   11  C8  UNL     1      -1.372  -0.147   0.276  1.00  0.00    -0.002 C 
HETATM   12  C9  UNL     1      -0.519  -1.313   0.728  1.00  0.00     0.033 C 
HETATM   13  C10 UNL     1       0.813  -0.630   1.081  1.00  0.00     0.122 C 
HETATM   14  N2  UNL     1       0.908   0.386   0.149  1.00  0.00    -0.392 N 
HETATM   15  C16 UNL     1      -0.336   0.649  -0.486  1.00  0.00     0.133 C 
ENDROOT
BRANCH  14  16
HETATM   16  C11 UNL     1       1.963   1.271   0.028  1.00  0.00     0.062 C 
BRANCH  16  17
HETATM   17  C12 UNL     1       3.216   0.622  -0.495  1.00  0.00     0.024 C 
HETATM   18  C13 UNL     1       3.827  -0.486   0.275  1.00  0.00     0.010 C 
HETATM   19  C14 UNL     1       5.200   0.087  -0.105  1.00  0.00     0.001 C 
HETATM   20  C15 UNL     1       4.478   1.437  -0.221  1.00  0.00     0.010 C 
ENDBRANCH  16  17
ENDBRANCH  14  16
TORSDOF 2
