REMARK  5 active torsions:
REMARK  status: ('A' for Active; 'I' for Inactive)
REMARK    1  A    between atoms: C2_2  and  C3_3 
REMARK    2  A    between atoms: C3_3  and  C4_4 
REMARK    3  A    between atoms: C4_4  and  O1_5 
REMARK    4  A    between atoms: O1_5  and  C5_6 
REMARK    5  A    between atoms: C5_6  and  N1_8 
REMARK       I    between atoms: N2_13  and  C9_14 
ROOT
HETATM    1  C4  UNL     1      -0.535  -0.117   0.553  1.00  0.00     0.073 C 
HETATM    2  C7  UNL     1       0.502  -0.857   1.355  1.00  0.00     0.058 C 
HETATM    3  C8  UNL     1       1.703  -1.284   0.539  1.00  0.00     0.129 C 
HETATM    4  N2  UNL     1       2.354  -0.075   0.038  1.00  0.00    -0.352 N 
HETATM    5  C9  UNL     1       3.717  -0.007  -0.276  1.00  0.00     0.215 C 
HETATM    6  C10 UNL     1       4.646  -1.156  -0.133  1.00  0.00     0.117 C 
HETATM    7  O2  UNL     1       4.199   1.073  -0.702  1.00  0.00    -0.274 OA
HETATM    8  C11 UNL     1       1.483   1.073  -0.116  1.00  0.00     0.129 C 
HETATM    9  C12 UNL     1       0.148   0.530  -0.631  1.00  0.00     0.058 C 
ENDROOT
BRANCH   1  10
HETATM   10  C3  UNL     1      -1.678  -0.977   0.118  1.00  0.00     0.038 C 
BRANCH  10  11
HETATM   11  C2  UNL     1      -1.330  -2.142  -0.751  1.00  0.00    -0.002 C 
HETATM   12  C1  UNL     1      -2.670  -2.837  -1.049  1.00  0.00     0.005 C 
ENDBRANCH  10  11
ENDBRANCH   1  10
BRANCH   1  13
HETATM   13  O1  UNL     1      -1.062   0.911   1.362  1.00  0.00    -0.316 OA
BRANCH  13  14
HETATM   14  C5  UNL     1      -2.002   1.819   0.936  1.00  0.00     0.210 C 
HETATM   15  S1  UNL     1      -3.616   1.503   0.990  1.00  0.00    -0.033 SA
BRANCH  14  16
HETATM   16  N1  UNL     1      -1.637   3.090   0.422  1.00  0.00    -0.366 N 
HETATM   17  C6  UNL     1      -2.581   4.073  -0.036  1.00  0.00     0.149 C 
ATOM     18  H1  UNL     1      -0.645   3.320   0.374  1.00  0.00     0.161 HD
ENDBRANCH  14  16
ENDBRANCH  13  14
ENDBRANCH   1  13
TORSDOF 5
