REMARK  3 active torsions:
REMARK  status: ('A' for Active; 'I' for Inactive)
REMARK    1  A    between atoms: N2_5  and  N3_6 
REMARK       I    between atoms: N3_6  and  C4_8 
REMARK    2  A    between atoms: C4_8  and  C5_10 
REMARK    3  A    between atoms: C5_10  and  C6_11 
ROOT
HETATM    1  N3  UNL     1       1.126  -1.307   0.072  1.00  0.00    -0.289 N 
ATOM      2  H3  UNL     1       1.164  -2.310   0.252  1.00  0.00     0.183 HD
HETATM    3  C4  UNL     1      -0.142  -0.696   0.060  1.00  0.00     0.232 C 
HETATM    4  O1  UNL     1      -0.201   0.525  -0.157  1.00  0.00    -0.272 OA
ENDROOT
BRANCH   3   5
HETATM    5  C5  UNL     1      -1.335  -1.480   0.294  1.00  0.00     0.108 C 
BRANCH   5   6
HETATM    6  C6  UNL     1      -2.629  -0.719   0.273  1.00  0.00    -0.006 C 
HETATM    7  C7  UNL     1      -2.733   0.357   1.288  1.00  0.00     0.005 C 
HETATM    8  C8  UNL     1      -3.236   1.669   0.799  1.00  0.00     0.000 C 
HETATM    9  C9  UNL     1      -4.603   1.657   0.214  1.00  0.00     0.000 C 
HETATM   10  C10 UNL     1      -5.095   0.318  -0.229  1.00  0.00     0.000 C 
HETATM   11  C11 UNL     1      -4.322  -0.208  -1.430  1.00  0.00     0.000 C 
HETATM   12  C12 UNL     1      -2.845  -0.222  -1.148  1.00  0.00     0.005 C 
ENDBRANCH   5   6
ENDBRANCH   3   5
BRANCH   1  13
HETATM   13  N2  UNL     1       2.328  -0.647  -0.143  1.00  0.00    -0.226 NA
HETATM   14  C3  UNL     1       2.655   0.380   0.764  1.00  0.00     0.144 C 
HETATM   15  C2  UNL     1       4.066   0.811   0.819  1.00  0.00     0.288 C 
HETATM   16  N1  UNL     1       5.042  -0.066   0.276  1.00  0.00     0.086 N 
HETATM   17  C1  UNL     1       6.198   0.702  -0.152  1.00  0.00     0.310 C 
HETATM   18  C14 UNL     1       4.582  -0.787  -0.913  1.00  0.00     0.288 C 
HETATM   19  C13 UNL     1       3.359  -1.568  -0.467  1.00  0.00     0.144 C 
ENDBRANCH   1  13
TORSDOF 3
