REMARK  2 active torsions:
REMARK  status: ('A' for Active; 'I' for Inactive)
REMARK    1  A    between atoms: C2_2  and  N1_3 
REMARK    2  A    between atoms: N1_3  and  C3_5 
ROOT
HETATM    1  C3  UNL     1       0.728  -0.357  -0.205  1.00  0.00     0.105 C 
HETATM    2  C4  UNL     1       0.250   1.052  -0.357  1.00  0.00     0.049 C 
HETATM    3  C5  UNL     1      -1.045   1.420   0.251  1.00  0.00    -0.011 C 
HETATM    4  C6  UNL     1      -2.212   1.392  -0.683  1.00  0.00     0.006 C 
HETATM    5  C7  UNL     1      -2.181   0.284  -1.684  1.00  0.00     0.018 C 
HETATM    6  C8  UNL     1      -1.821  -1.061  -1.140  1.00  0.00     0.082 C 
HETATM    7  C9  UNL     1      -2.145  -1.319   0.271  1.00  0.00     0.022 C 
HETATM    8  C10 UNL     1      -1.198  -0.814   1.289  1.00  0.00    -0.010 C 
HETATM    9  C11 UNL     1      -1.421   0.661   1.500  1.00  0.00     0.009 C 
HETATM   10  C12 UNL     1       0.255  -1.026   1.060  1.00  0.00     0.049 C 
HETATM   11  S1  UNL     1      -0.068  -1.309  -1.497  1.00  0.00     0.048 S 
HETATM   12  O1  UNL     1       0.222  -2.942  -1.102  1.00  0.00    -0.255 OA
ENDROOT
BRANCH   1  13
HETATM   13  N1  UNL     1       2.131  -0.444  -0.416  1.00  0.00    -0.403 N 
ATOM     14  H1  UNL     1       2.523  -0.930  -1.223  1.00  0.00     0.154 HD
BRANCH  13  15
HETATM   15  C2  UNL     1       2.959   0.182   0.557  1.00  0.00     0.111 C 
HETATM   16  C1  UNL     1       4.391   0.305   0.060  1.00  0.00     0.026 C 
ENDBRANCH  13  15
ENDBRANCH   1  13
TORSDOF 2
