REMARK  4 active torsions:
REMARK  status: ('A' for Active; 'I' for Inactive)
REMARK    1  A    between atoms: C2_3  and  C3_4 
REMARK    2  A    between atoms: N2_6  and  C5_7 
REMARK    3  A    between atoms: C5_7  and  N3_9 
REMARK    4  A    between atoms: N3_9  and  C6_11 
ROOT
HETATM    1  N1  UNL     1       6.691  -0.254   0.924  1.00  0.00    -0.197 NA
HETATM    2  C1  UNL     1       5.551  -0.363   0.926  1.00  0.00     0.061 C 
HETATM    3  C2  UNL     1       4.081  -0.505   0.953  1.00  0.00     0.150 C 
ENDROOT
BRANCH   3   4
HETATM    4  C3  UNL     1       3.575  -0.667  -0.454  1.00  0.00     0.117 A 
HETATM    5  C4  UNL     1       3.809   0.352  -1.412  1.00  0.00     0.152 A 
HETATM    6  N2  UNL     1       2.449   0.161  -0.846  1.00  0.00    -0.349 N 
BRANCH   6   7
HETATM    7  C5  UNL     1       1.119   0.616  -0.851  1.00  0.00     0.170 C 
HETATM    8  S1  UNL     1       0.682   1.867  -1.794  1.00  0.00    -0.041 SA
BRANCH   7   9
HETATM    9  N3  UNL     1       0.151   0.007  -0.034  1.00  0.00    -0.362 N 
ATOM     10  H3  UNL     1       0.473  -0.763   0.552  1.00  0.00     0.162 HD
BRANCH   9  11
HETATM   11  C6  UNL     1      -1.234   0.345   0.069  1.00  0.00     0.083 C 
HETATM   12  C7  UNL     1      -2.041   0.096  -1.157  1.00  0.00     0.025 C 
HETATM   13  C8  UNL     1      -3.376   0.779  -0.917  1.00  0.00     0.002 C 
HETATM   14  C9  UNL     1      -4.093   0.043   0.154  1.00  0.00     0.000 C 
HETATM   15  C10 UNL     1      -3.278  -0.670   1.144  1.00  0.00     0.002 C 
HETATM   16  C11 UNL     1      -1.847  -0.308   1.271  1.00  0.00     0.025 C 
ENDBRANCH   9  11
ENDBRANCH   7   9
ENDBRANCH   6   7
ENDBRANCH   3   4
TORSDOF 4
