REMARK  2 active torsions:
REMARK  status: ('A' for Active; 'I' for Inactive)
REMARK       I    between atoms: C1_2  and  N1_3 
REMARK    1  A    between atoms: C1_2  and  C6_10 
REMARK    2  A    between atoms: N1_3  and  C2_5 
ROOT
HETATM    1  C6  UNL     1      -0.530  -0.195  -0.095  1.00  0.00     0.042 C 
HETATM    2  C7  UNL     1      -1.123   1.165   0.274  1.00  0.00     0.024 C 
HETATM    3  C8  UNL     1      -2.615   1.106   0.297  1.00  0.00    -0.013 C 
HETATM    4  C9  UNL     1      -3.030   0.042   1.290  1.00  0.00     0.009 C 
HETATM    5  C10 UNL     1      -2.567  -1.292   0.794  1.00  0.00    -0.013 C 
HETATM    6  C11 UNL     1      -3.012  -1.595  -0.608  1.00  0.00     0.009 C 
HETATM    7  C12 UNL     1      -2.467  -0.528  -1.546  1.00  0.00    -0.013 C 
HETATM    8  C13 UNL     1      -3.088   0.785  -1.108  1.00  0.00     0.009 C 
HETATM    9  C14 UNL     1      -0.960  -0.477  -1.512  1.00  0.00     0.024 C 
HETATM   10  C15 UNL     1      -1.036  -1.288   0.779  1.00  0.00     0.024 C 
ENDROOT
BRANCH   1  11
HETATM   11  C1  UNL     1       0.931  -0.066   0.047  1.00  0.00     0.226 C 
HETATM   12  O1  UNL     1       1.526  -0.812   0.863  1.00  0.00    -0.273 OA
HETATM   13  N1  UNL     1       1.711   0.860  -0.689  1.00  0.00    -0.354 N 
ATOM     14  H1  UNL     1       1.231   1.469  -1.352  1.00  0.00     0.163 HD
BRANCH  13  15
HETATM   15  C2  UNL     1       3.137   0.996  -0.560  1.00  0.00     0.110 C 
HETATM   16  C3  UNL     1       3.899  -0.278  -0.831  1.00  0.00     0.053 C 
HETATM   17  C4  UNL     1       4.789  -0.476   0.367  1.00  0.00     0.169 C 
HETATM   18  O2  UNL     1       4.831   0.742   1.004  1.00  0.00    -0.389 OA
HETATM   19  C5  UNL     1       3.598   1.334   0.839  1.00  0.00     0.192 C 
ENDBRANCH  13  15
ENDBRANCH   1  11
TORSDOF 2
