REMARK  2 active torsions:
REMARK  status: ('A' for Active; 'I' for Inactive)
REMARK    1  A    between atoms: C5_5  and  C6_6 
REMARK    2  A    between atoms: C6_6  and  N1_7 
ROOT
HETATM    1  C1  UNL     1      -2.724   1.604   1.904  1.00  0.00     0.010 C 
HETATM    2  C2  UNL     1      -3.072   0.563   0.891  1.00  0.00    -0.012 C 
HETATM    3  C3  UNL     1      -3.486   1.103  -0.448  1.00  0.00     0.006 C 
HETATM    4  C4  UNL     1      -2.305   1.036  -1.356  1.00  0.00     0.017 C 
HETATM    5  C5  UNL     1      -1.367  -0.029  -0.744  1.00  0.00     0.021 C 
HETATM    6  C14 UNL     1      -1.564  -1.266  -1.607  1.00  0.00     0.247 C 
HETATM    7  N2  UNL     1      -1.791  -2.348  -0.668  1.00  0.00    -0.074 N 
ATOM      8  H21 UNL     1      -0.943  -2.778  -0.298  1.00  0.00     0.277 HD
ATOM      9  H22 UNL     1      -2.165  -3.202  -1.082  1.00  0.00     0.277 HD
HETATM   10  C15 UNL     1      -2.632  -1.739   0.314  1.00  0.00     0.238 C 
HETATM   11  C16 UNL     1      -1.924  -0.384   0.569  1.00  0.00     0.030 C 
ENDROOT
BRANCH   5  12
HETATM   12  C6  UNL     1       0.004   0.525  -0.843  1.00  0.00     0.070 C 
BRANCH  12  13
HETATM   13  N1  UNL     1       1.102  -0.163  -0.389  1.00  0.00    -0.388 N 
HETATM   14  C7  UNL     1       1.325  -0.300   0.994  1.00  0.00     0.127 C 
HETATM   15  C8  UNL     1       2.814  -0.169   1.342  1.00  0.00     0.004 C 
HETATM   16  C9  UNL     1       3.559  -1.332   0.676  1.00  0.00     0.008 C 
HETATM   17  C13 UNL     1       3.417   1.094   0.790  1.00  0.00     0.008 C 
HETATM   18  C10 UNL     1       3.235  -1.246  -0.797  1.00  0.00     0.026 C 
HETATM   19  C11 UNL     1       2.337  -0.050  -1.102  1.00  0.00     0.083 C 
HETATM   20  C12 UNL     1       3.142   1.161  -0.687  1.00  0.00     0.026 C 
ENDBRANCH  12  13
ENDBRANCH   5  12
TORSDOF 2
