REMARK  2 active torsions:
REMARK  status: ('A' for Active; 'I' for Inactive)
REMARK       I    between atoms: C1_2  and  N1_3 
REMARK    1  A    between atoms: C1_2  and  C7_10 
REMARK    2  A    between atoms: N1_3  and  C2_5 
ROOT
HETATM    1  C7  UNL     1      -0.900   0.133  -0.948  1.00  0.00     0.206 C 
HETATM    2  C8  UNL     1      -1.140   1.469  -0.288  1.00  0.00     0.053 C 
HETATM    3  C9  UNL     1      -2.615   1.618  -0.050  1.00  0.00    -0.009 C 
HETATM    4  C10 UNL     1      -3.104   0.549   0.920  1.00  0.00     0.009 C 
HETATM    5  C11 UNL     1      -2.872  -0.802   0.289  1.00  0.00    -0.009 C 
HETATM    6  C12 UNL     1      -3.557  -0.946  -1.042  1.00  0.00     0.037 C 
HETATM    7  C13 UNL     1      -3.090   0.156  -1.954  1.00  0.00     0.188 C 
HETATM    8  C14 UNL     1      -3.429   1.471  -1.304  1.00  0.00     0.037 C 
HETATM    9  N2  UNL     1      -1.672   0.059  -2.146  1.00  0.00    -0.053 N 
ATOM     10  H21 UNL     1      -1.442  -0.790  -2.663  1.00  0.00     0.279 HD
ATOM     11  H22 UNL     1      -1.357   0.763  -2.814  1.00  0.00     0.279 HD
HETATM   12  C15 UNL     1      -1.375  -0.925   0.058  1.00  0.00     0.053 C 
ENDROOT
BRANCH   1  13
HETATM   13  C1  UNL     1       0.507  -0.145  -1.223  1.00  0.00     0.254 C 
HETATM   14  O1  UNL     1       0.830  -0.400  -2.428  1.00  0.00    -0.271 OA
HETATM   15  N1  UNL     1       1.521  -0.141  -0.207  1.00  0.00    -0.354 N 
ATOM     16  H1  UNL     1       1.279   0.062   0.763  1.00  0.00     0.162 HD
BRANCH  15  17
HETATM   17  C2  UNL     1       2.868  -0.424  -0.569  1.00  0.00     0.084 C 
HETATM   18  C3  UNL     1       3.778   0.754  -0.283  1.00  0.00     0.025 C 
HETATM   19  C4  UNL     1       4.482   0.378   0.988  1.00  0.00     0.002 C 
HETATM   20  C5  UNL     1       4.695  -1.110   0.806  1.00  0.00     0.002 C 
HETATM   21  C6  UNL     1       3.454  -1.614   0.143  1.00  0.00     0.025 C 
ENDBRANCH  15  17
ENDBRANCH   1  13
TORSDOF 2
