REMARK  4 active torsions:
REMARK  status: ('A' for Active; 'I' for Inactive)
REMARK    1  A    between atoms: C2_2  and  N1_4 
REMARK    2  A    between atoms: N1_4  and  C3_6 
REMARK    3  A    between atoms: C3_6  and  C5_8 
REMARK    4  A    between atoms: C5_8  and  N2_10 
ROOT
HETATM    1  C5  UNL     1       0.726  -0.690  -0.289  1.00  0.00     0.099 C 
HETATM    2  S2  UNL     1       1.359  -2.210  -0.476  1.00  0.00    -0.063 SA
ENDROOT
BRANCH   1   3
HETATM    3  C3  UNL     1       1.678   0.360   0.133  1.00  0.00     0.139 C 
HETATM    4  C4  UNL     1       1.413   0.808   1.562  1.00  0.00     0.039 C 
BRANCH   3   5
HETATM    5  N1  UNL     1       3.055  -0.109   0.121  1.00  0.00    -0.374 N 
ATOM      6  H1  UNL     1       3.242  -1.077  -0.139  1.00  0.00     0.161 HD
BRANCH   5   7
HETATM    7  C2  UNL     1       4.144   0.730   0.457  1.00  0.00     0.070 C 
HETATM    8  C1  UNL     1       5.525   0.216   0.431  1.00  0.00     0.081 C 
HETATM    9  S1  UNL     1       3.888   2.287   0.880  1.00  0.00    -0.066 SA
ENDBRANCH   5   7
ENDBRANCH   3   5
ENDBRANCH   1   3
BRANCH   1  10
HETATM   10  N2  UNL     1      -0.618  -0.531  -0.538  1.00  0.00    -0.364 N 
HETATM   11  C6  UNL     1      -1.270   0.763  -0.409  1.00  0.00     0.124 C 
HETATM   12  C7  UNL     1      -2.431   0.845   0.489  1.00  0.00     0.021 C 
HETATM   13  C8  UNL     1      -3.828   0.559   0.006  1.00  0.00     0.013 C 
HETATM   14  C9  UNL     1      -4.024  -0.925  -0.451  1.00  0.00     0.081 C 
HETATM   15  C10 UNL     1      -2.769  -1.479  -0.737  1.00  0.00    -0.164 C 
HETATM   16  C11 UNL     1      -1.388  -1.759  -0.940  1.00  0.00     0.203 C 
ENDBRANCH   1  10
TORSDOF 4
