REMARK  2 active torsions:
REMARK  status: ('A' for Active; 'I' for Inactive)
REMARK       I    between atoms: C1_2  and  N1_3 
REMARK    1  A    between atoms: C1_2  and  C8_11 
REMARK    2  A    between atoms: N1_3  and  C2_5 
ROOT
HETATM    1  O1  UNL     1       0.970  -1.072   1.507  1.00  0.00    -0.273 OA
HETATM    2  C1  UNL     1       0.434  -0.128   0.836  1.00  0.00     0.222 C 
HETATM    3  N1  UNL     1       1.283   0.663   0.049  1.00  0.00    -0.356 N 
ATOM      4  H1  UNL     1       0.868   1.421  -0.492  1.00  0.00     0.162 HD
ENDROOT
BRANCH   2   5
HETATM    5  C8  UNL     1      -1.014   0.077   0.921  1.00  0.00     0.081 C 
HETATM    6  C9  UNL     1      -1.657  -0.923   1.839  1.00  0.00     0.044 C 
HETATM    7  C10 UNL     1      -3.144  -0.921   1.725  1.00  0.00     0.273 C 
HETATM    8  N2  UNL     1      -3.655   0.164   0.918  1.00  0.00     0.093 N 
HETATM    9  C11 UNL     1      -5.077  -0.014   0.696  1.00  0.00     0.273 C 
HETATM   10  C14 UNL     1      -3.121   0.186  -0.406  1.00  0.00     0.224 C 
HETATM   11  C12 UNL     1      -5.249  -0.774  -0.589  1.00  0.00     0.032 C 
HETATM   12  C13 UNL     1      -3.904  -0.772  -1.256  1.00  0.00     0.037 C 
HETATM   13  C15 UNL     1      -1.636  -0.081  -0.449  1.00  0.00     0.050 C 
ENDBRANCH   2   5
BRANCH   3  14
HETATM   14  C2  UNL     1       2.693   0.470  -0.039  1.00  0.00     0.084 C 
HETATM   15  C3  UNL     1       3.178   0.118  -1.418  1.00  0.00     0.025 C 
HETATM   16  C4  UNL     1       4.596  -0.395  -1.278  1.00  0.00     0.002 C 
HETATM   17  C5  UNL     1       5.491   0.592  -0.584  1.00  0.00     0.000 C 
HETATM   18  C6  UNL     1       4.917   1.126   0.687  1.00  0.00     0.002 C 
HETATM   19  C7  UNL     1       3.502   1.652   0.444  1.00  0.00     0.025 C 
ENDBRANCH   3  14
TORSDOF 2
