REMARK  2 active torsions:
REMARK  status: ('A' for Active; 'I' for Inactive)
REMARK    1  A    between atoms: N2_11  and  C8_12 
REMARK    2  A    between atoms: C8_12  and  C9_13 
ROOT
HETATM    1  C1  UNL     1      -4.036   1.142  -0.706  1.00  0.00     0.032 C 
HETATM    2  C2  UNL     1      -3.923   0.827   0.763  1.00  0.00     0.235 C 
HETATM    3  N1  UNL     1      -2.505   0.498   1.008  1.00  0.00    -0.038 N 
ATOM      4  H11 UNL     1      -2.333  -0.079   1.831  1.00  0.00     0.280 HD
ATOM      5  H12 UNL     1      -1.928   1.281   1.315  1.00  0.00     0.280 HD
HETATM    6  C3  UNL     1      -2.116  -0.085  -0.224  1.00  0.00     0.320 C 
HETATM    7  C4  UNL     1      -2.616   0.994  -1.216  1.00  0.00     0.074 C 
HETATM    8  C5  UNL     1      -2.909  -1.306  -0.624  1.00  0.00     0.074 C 
HETATM    9  C6  UNL     1      -2.026  -2.423  -0.210  1.00  0.00     0.035 C 
HETATM   10  C7  UNL     1      -0.651  -1.858  -0.495  1.00  0.00     0.276 C 
HETATM   11  N2  UNL     1      -0.746  -0.389  -0.436  1.00  0.00     0.126 N 
ENDROOT
BRANCH  11  12
HETATM   12  C8  UNL     1       0.141  -0.002   0.625  1.00  0.00     0.285 C 
BRANCH  12  13
HETATM   13  C9  UNL     1       1.595   0.078   0.288  1.00  0.00    -0.009 C 
HETATM   14  C10 UNL     1       2.278   0.487   1.620  1.00  0.00     0.041 C 
HETATM   15  C11 UNL     1       3.760   0.603   1.455  1.00  0.00     0.273 C 
HETATM   16  N3  UNL     1       4.067   0.577   0.045  1.00  0.00     0.088 N 
HETATM   17  C12 UNL     1       3.767  -0.745  -0.432  1.00  0.00     0.273 C 
HETATM   18  C14 UNL     1       3.324   1.604  -0.611  1.00  0.00     0.273 C 
HETATM   19  C13 UNL     1       2.282  -1.108  -0.240  1.00  0.00     0.041 C 
HETATM   20  C15 UNL     1       1.882   1.257  -0.634  1.00  0.00     0.041 C 
ENDBRANCH  12  13
ENDBRANCH  11  12
TORSDOF 2
