REMARK  5 active torsions:
REMARK  status: ('A' for Active; 'I' for Inactive)
REMARK    1  A    between atoms: C1_2  and  C2_3 
REMARK       I    between atoms: C1_2  and  N2_12 
REMARK    2  A    between atoms: C2_3  and  S1_4 
REMARK    3  A    between atoms: S1_4  and  C3_5 
REMARK    4  A    between atoms: C3_5  and  N1_7 
REMARK    5  A    between atoms: N1_7  and  C4_9 
ROOT
HETATM    1  C2  UNL     1       0.004   1.093  -0.537  1.00  0.00     0.184 C 
ENDROOT
BRANCH   1   2
HETATM    2  C1  UNL     1      -0.643  -0.136  -0.057  1.00  0.00     0.229 C 
HETATM    3  O1  UNL     1       0.024  -1.164   0.197  1.00  0.00    -0.273 OA
HETATM    4  N2  UNL     1      -2.067  -0.173   0.129  1.00  0.00    -0.351 N 
HETATM    5  C7  UNL     1      -2.726  -1.368   0.597  1.00  0.00     0.125 C 
HETATM    6  C11 UNL     1      -2.876   0.991  -0.145  1.00  0.00     0.125 C 
HETATM    7  C8  UNL     1      -4.180  -1.326   0.244  1.00  0.00     0.020 C 
HETATM    8  C9  UNL     1      -4.285  -0.768  -1.156  1.00  0.00     0.003 C 
HETATM    9  C10 UNL     1      -3.994   0.689  -1.107  1.00  0.00     0.020 C 
ENDBRANCH   1   2
BRANCH   1  10
HETATM   10  S1  UNL     1       1.796   0.878  -0.643  1.00  0.00    -0.091 SA
BRANCH  10  11
HETATM   11  C3  UNL     1       2.457   0.678   0.986  1.00  0.00     0.135 C 
HETATM   12  S2  UNL     1       1.462   0.706   2.263  1.00  0.00    -0.053 SA
BRANCH  11  13
HETATM   13  N1  UNL     1       3.839   0.496   1.176  1.00  0.00    -0.371 N 
ATOM     14  H1  UNL     1       4.222   0.379   2.114  1.00  0.00     0.161 HD
BRANCH  13  15
HETATM   15  C4  UNL     1       4.713   0.477   0.015  1.00  0.00     0.083 A 
HETATM   16  C5  UNL     1       6.188   0.292   0.223  1.00  0.00     0.027 A 
HETATM   17  C6  UNL     1       5.374  -0.880  -0.217  1.00  0.00     0.027 A 
ENDBRANCH  13  15
ENDBRANCH  11  13
ENDBRANCH  10  11
ENDBRANCH   1  10
TORSDOF 5
