REMARK  3 active torsions:
REMARK  status: ('A' for Active; 'I' for Inactive)
REMARK    1  A    between atoms: C2_2  and  C4_4 
REMARK    2  A    between atoms: C4_4  and  N1_5 
REMARK       I    between atoms: N1_5  and  C5_7 
REMARK    3  A    between atoms: C5_7  and  C6_9 
ROOT
HETATM    1  C6  UNL     1      -0.529  -0.983   0.689  1.00  0.00     0.214 C 
HETATM    2  C7  UNL     1      -1.129  -2.310   0.326  1.00  0.00     0.042 C 
HETATM    3  C8  UNL     1      -2.514  -2.213  -0.216  1.00  0.00     0.006 C 
HETATM    4  C9  UNL     1      -2.827  -0.963  -0.946  1.00  0.00     0.041 C 
HETATM    5  C10 UNL     1      -2.050   0.237  -0.551  1.00  0.00     0.088 C 
HETATM    6  C11 UNL     1      -2.027   1.184  -1.765  1.00  0.00     0.206 C 
HETATM    7  O2  UNL     1      -3.091   2.043  -1.535  1.00  0.00    -0.388 OA
HETATM    8  C12 UNL     1      -2.842   2.462  -0.231  1.00  0.00     0.175 C 
HETATM    9  C13 UNL     1      -2.701   1.105   0.476  1.00  0.00     0.042 C 
HETATM   10  C14 UNL     1      -4.098   0.681   0.837  1.00  0.00     0.015 C 
HETATM   11  O3  UNL     1      -0.714  -0.021  -0.278  1.00  0.00    -0.363 OA
ENDROOT
BRANCH   1  12
HETATM   12  C5  UNL     1       0.945  -1.172   0.858  1.00  0.00     0.246 C 
HETATM   13  N1  UNL     1       1.889  -0.434   0.100  1.00  0.00    -0.359 N 
ATOM     14  H1  UNL     1       1.571   0.251  -0.586  1.00  0.00     0.162 HD
HETATM   15  O1  UNL     1       1.365  -2.014   1.701  1.00  0.00    -0.271 OA
BRANCH  13  16
HETATM   16  C4  UNL     1       3.283  -0.652   0.300  1.00  0.00     0.126 C 
BRANCH  16  17
HETATM   17  C2  UNL     1       4.179   0.177  -0.548  1.00  0.00    -0.005 C 
HETATM   18  C1  UNL     1       4.013   1.656  -0.351  1.00  0.00     0.011 C 
HETATM   19  C3  UNL     1       5.622  -0.157  -0.147  1.00  0.00     0.011 C 
ENDBRANCH  16  17
ENDBRANCH  13  16
ENDBRANCH   1  12
TORSDOF 3
