REMARK  4 active torsions:
REMARK  status: ('A' for Active; 'I' for Inactive)
REMARK       I    between atoms: N1_2  and  C2_4 
REMARK    1  A    between atoms: C2_4  and  O2_6 
REMARK    2  A    between atoms: O2_6  and  C3_7 
REMARK    3  A    between atoms: C12_17  and  N3_18 
REMARK    4  A    between atoms: N3_18  and  N4_20 
ROOT
HETATM    1  C3  UNL     1       1.022  -0.422  -0.213  1.00  0.00     0.184 C 
HETATM    2  C4  UNL     1      -0.207   0.008  -0.912  1.00  0.00     0.272 C 
HETATM    3  N2  UNL     1      -1.425  -0.587  -0.445  1.00  0.00    -0.065 N 
HETATM    4  C5  UNL     1      -1.779  -0.009   0.844  1.00  0.00     0.237 C 
HETATM    5  C6  UNL     1      -3.019   0.830   0.783  1.00  0.00     0.028 C 
HETATM    6  C7  UNL     1      -2.846   1.930  -0.261  1.00  0.00     0.003 C 
HETATM    7  C8  UNL     1      -2.626   1.236  -1.583  1.00  0.00     0.028 C 
HETATM    8  C9  UNL     1      -2.466  -0.244  -1.398  1.00  0.00     0.237 C 
HETATM    9  C10 UNL     1      -1.386  -2.025  -0.384  1.00  0.00     0.239 C 
HETATM   10  C11 UNL     1      -0.043  -2.592  -0.071  1.00  0.00     0.057 C 
HETATM   11  C12 UNL     1       0.836  -1.623   0.692  1.00  0.00     0.133 C 
ENDROOT
BRANCH  11  12
HETATM   12  N3  UNL     1       2.151  -2.230   0.848  1.00  0.00    -0.315 N 
ATOM     13  H3  UNL     1       2.984  -1.844   0.404  1.00  0.00     0.182 HD
BRANCH  12  14
HETATM   14  N4  UNL     1       2.191  -3.248   1.557  1.00  0.00    -0.253 N 
HETATM   15  N5  UNL     1       2.709  -4.024   2.359  1.00  0.00    -0.331 N 
ATOM     16  H52 UNL     1       3.599  -3.552   2.518  1.00  0.00     0.178 HD
ATOM     17  H51 UNL     1       2.742  -4.861   2.942  1.00  0.00     0.178 HD
ATOM     18  H4  UNL     1       1.290  -3.687   1.370  1.00  0.00     0.207 HD
ENDBRANCH  12  14
ENDBRANCH  11  12
BRANCH   1  19
HETATM   19  O2  UNL     1       1.643   0.629   0.524  1.00  0.00    -0.295 OA
BRANCH  19  20
HETATM   20  C2  UNL     1       2.935   1.072   0.234  1.00  0.00     0.360 C 
HETATM   21  N1  UNL     1       3.557   2.120   0.968  1.00  0.00    -0.341 N 
HETATM   22  C1  UNL     1       4.897   2.511   0.595  1.00  0.00     0.151 C 
ATOM     23  H1  UNL     1       3.071   2.582   1.736  1.00  0.00     0.164 HD
HETATM   24  O1  UNL     1       3.517   0.489  -0.716  1.00  0.00    -0.239 OA
ENDBRANCH  19  20
ENDBRANCH   1  19
TORSDOF 4
