REMARK  3 active torsions:
REMARK  status: ('A' for Active; 'I' for Inactive)
REMARK    1  A    between atoms: N2_5  and  C4_6 
REMARK    2  A    between atoms: C4_6  and  C5_7 
REMARK    3  A    between atoms: C5_7  and  C6_8 
ROOT
HETATM    1  C6  UNL     1      -1.485  -0.455   0.433  1.00  0.00     0.025 C 
HETATM    2  C7  UNL     1      -2.589   0.275   1.215  1.00  0.00     0.045 C 
HETATM    3  C8  UNL     1      -3.858   0.062   0.454  1.00  0.00     0.120 C 
HETATM    4  C9  UNL     1      -4.450   1.406   0.020  1.00  0.00     0.046 C 
HETATM    5  C10 UNL     1      -4.926  -0.595   1.318  1.00  0.00     0.046 C 
HETATM    6  N3  UNL     1      -3.561  -0.789  -0.647  1.00  0.00    -0.059 N 
ATOM      7  H31 UNL     1      -4.118  -0.574  -1.474  1.00  0.00     0.279 HD
ATOM      8  H32 UNL     1      -3.889  -1.745  -0.507  1.00  0.00     0.279 HD
HETATM    9  C11 UNL     1      -2.131  -0.716  -0.897  1.00  0.00     0.123 C 
HETATM   10  C12 UNL     1      -1.924   0.382  -1.912  1.00  0.00     0.046 C 
HETATM   11  C13 UNL     1      -1.605  -1.993  -1.489  1.00  0.00     0.046 C 
ENDROOT
BRANCH   1  12
HETATM   12  C5  UNL     1      -0.221   0.312   0.420  1.00  0.00     0.037 C 
BRANCH  12  13
HETATM   13  C4  UNL     1       0.888  -0.377  -0.331  1.00  0.00     0.273 C 
BRANCH  13  14
HETATM   14  N2  UNL     1       2.106   0.412  -0.306  1.00  0.00     0.091 N 
HETATM   15  C3  UNL     1       3.181  -0.221  -1.016  1.00  0.00     0.302 C 
HETATM   16  C2  UNL     1       4.075  -1.035  -0.097  1.00  0.00     0.302 C 
HETATM   17  N1  UNL     1       4.810  -0.220   0.822  1.00  0.00     0.087 N 
HETATM   18  C1  UNL     1       6.112   0.166   0.312  1.00  0.00     0.310 C 
HETATM   19  C15 UNL     1       4.037   1.009   1.032  1.00  0.00     0.302 C 
HETATM   20  C14 UNL     1       2.560   0.645   1.056  1.00  0.00     0.302 C 
ENDBRANCH  13  14
ENDBRANCH  12  13
ENDBRANCH   1  12
TORSDOF 3
