REMARK  2 active torsions:
REMARK  status: ('A' for Active; 'I' for Inactive)
REMARK    1  A    between atoms: N1_4  and  C4_5 
REMARK    2  A    between atoms: C4_5  and  C5_6 
ROOT
HETATM    1  C5  UNL     1       0.105  -0.613   0.167  1.00  0.00    -0.035 C 
HETATM    2  C6  UNL     1       0.334  -1.772   1.106  1.00  0.00     0.038 C 
HETATM    3  C7  UNL     1      -0.291  -3.006   0.487  1.00  0.00     0.009 C 
HETATM    4  C8  UNL     1      -1.164  -2.740  -0.695  1.00  0.00     0.038 C 
HETATM    5  C9  UNL     1      -1.974  -1.486  -0.516  1.00  0.00    -0.028 C 
HETATM    6  C10 UNL     1      -1.297  -0.431  -0.078  1.00  0.00     0.038 C 
HETATM    7  N2  UNL     1      -1.836   0.858   0.169  1.00  0.00    -0.374 N 
HETATM    8  C11 UNL     1      -1.332   1.725   1.203  1.00  0.00     0.123 C 
HETATM    9  C12 UNL     1      -2.580   2.512   1.574  1.00  0.00     0.022 C 
HETATM   10  C13 UNL     1      -3.436   2.540   0.336  1.00  0.00     0.028 C 
HETATM   11  C14 UNL     1      -2.929   1.457  -0.561  1.00  0.00     0.110 C 
HETATM   12  C15 UNL     1      -4.074   0.520  -0.813  1.00  0.00     0.257 C 
HETATM   13  N3  UNL     1      -3.795  -0.564  -1.697  1.00  0.00    -0.070 N 
ATOM     14  H31 UNL     1      -3.112  -0.328  -2.417  1.00  0.00     0.277 HD
ATOM     15  H32 UNL     1      -4.572  -0.782  -2.321  1.00  0.00     0.277 HD
HETATM   16  C16 UNL     1      -3.390  -1.691  -0.876  1.00  0.00     0.269 C 
ENDROOT
BRANCH   1  17
HETATM   17  C4  UNL     1       1.055   0.496   0.279  1.00  0.00     0.163 C 
BRANCH  17  18
HETATM   18  N1  UNL     1       2.413   0.064  -0.003  1.00  0.00    -0.370 N 
HETATM   19  C3  UNL     1       2.721  -0.294  -1.312  1.00  0.00     0.063 C 
HETATM   20  C2  UNL     1       3.917   0.413  -1.910  1.00  0.00     0.045 C 
HETATM   21  C1  UNL     1       5.081   0.177  -0.959  1.00  0.00     0.010 C 
HETATM   22  C18 UNL     1       4.736   0.802   0.355  1.00  0.00     0.045 C 
HETATM   23  C17 UNL     1       3.404   0.392   0.914  1.00  0.00     0.063 C 
ENDBRANCH  17  18
ENDBRANCH   1  17
TORSDOF 2
