REMARK  3 active torsions:
REMARK  status: ('A' for Active; 'I' for Inactive)
REMARK    1  A    between atoms: C2_2  and  C3_3 
REMARK    2  A    between atoms: C4_4  and  N1_5 
REMARK    3  A    between atoms: N2_11  and  C7_12 
ROOT
HETATM    1  C7  UNL     1      -0.621   0.935  -0.421  1.00  0.00     0.224 C 
HETATM    2  C8  UNL     1       0.164   2.089   0.132  1.00  0.00     0.036 C 
HETATM    3  C9  UNL     1       1.620   1.688   0.105  1.00  0.00     0.014 C 
HETATM    4  C10 UNL     1       1.635   0.188   0.022  1.00  0.00    -0.006 C 
HETATM    5  C11 UNL     1       1.984  -0.435   1.335  1.00  0.00     0.042 C 
HETATM    6  C12 UNL     1       2.668  -1.724   0.932  1.00  0.00     0.273 C 
HETATM    7  N3  UNL     1       3.301  -1.468  -0.327  1.00  0.00     0.093 N 
HETATM    8  C13 UNL     1       4.712  -1.264  -0.127  1.00  0.00     0.273 C 
HETATM    9  C14 UNL     1       5.101  -0.061  -0.942  1.00  0.00     0.032 C 
HETATM   10  C15 UNL     1       3.844   0.769  -0.918  1.00  0.00     0.038 C 
HETATM   11  C16 UNL     1       2.761  -0.260  -0.873  1.00  0.00     0.231 C 
HETATM   12  C17 UNL     1       0.291  -0.242  -0.509  1.00  0.00     0.047 C 
ENDROOT
BRANCH   1  13
HETATM   13  N2  UNL     1      -1.758   0.719   0.460  1.00  0.00     0.100 N 
HETATM   14  C3  UNL     1      -2.594  -0.373   0.030  1.00  0.00     0.253 C 
HETATM   15  C4  UNL     1      -3.949   0.175  -0.286  1.00  0.00     0.218 C 
HETATM   16  C5  UNL     1      -3.601   1.616  -0.675  1.00  0.00     0.065 C 
HETATM   17  C6  UNL     1      -2.564   1.925   0.397  1.00  0.00     0.275 C 
BRANCH  14  18
HETATM   18  C2  UNL     1      -2.757  -1.344   1.193  1.00  0.00     0.033 C 
HETATM   19  C1  UNL     1      -3.684  -2.473   0.850  1.00  0.00     0.007 C 
ENDBRANCH  14  18
BRANCH  15  20
HETATM   20  N1  UNL     1      -4.650  -0.516  -1.314  1.00  0.00    -0.073 N 
ATOM     21  H13 UNL     1      -4.082  -0.561  -2.160  1.00  0.00     0.274 HD
ATOM     22  H12 UNL     1      -4.714  -1.509  -1.091  1.00  0.00     0.274 HD
ATOM     23  H11 UNL     1      -5.574  -0.142  -1.530  1.00  0.00     0.274 HD
ENDBRANCH  15  20
ENDBRANCH   1  13
TORSDOF 3
