REMARK  3 active torsions:
REMARK  status: ('A' for Active; 'I' for Inactive)
REMARK    1  A    between atoms: C9_9  and  C10_10 
REMARK    2  A    between atoms: C10_10  and  O2_12 
REMARK    3  A    between atoms: O2_12  and  C11_13 
ROOT
HETATM    1  C1  UNL     1      -3.277  -1.172  -2.354  1.00  0.00     0.015 C 
HETATM    2  C2  UNL     1      -2.742  -0.648  -1.065  1.00  0.00    -0.042 C 
HETATM    3  C3  UNL     1      -3.343   0.672  -0.730  1.00  0.00     0.014 C 
HETATM    4  C4  UNL     1      -2.720   1.381   0.416  1.00  0.00    -0.013 C 
HETATM    5  C5  UNL     1      -3.255   0.907   1.766  1.00  0.00     0.005 C 
HETATM    6  C6  UNL     1      -2.604  -0.371   2.203  1.00  0.00     0.006 C 
HETATM    7  C7  UNL     1      -1.908  -1.101   1.083  1.00  0.00     0.005 C 
HETATM    8  C8  UNL     1      -2.916  -1.616   0.092  1.00  0.00     0.015 C 
HETATM    9  C9  UNL     1      -0.924  -0.254   0.342  1.00  0.00     0.053 C 
HETATM   10  C16 UNL     1      -1.219   1.233   0.489  1.00  0.00     0.025 C 
HETATM   11  C17 UNL     1      -1.219  -0.556  -1.133  1.00  0.00     0.029 C 
ENDROOT
BRANCH   9  12
HETATM   12  C10 UNL     1       0.471  -0.586   0.668  1.00  0.00     0.268 C 
HETATM   13  O1  UNL     1       0.812  -1.484   1.481  1.00  0.00    -0.264 OA
BRANCH  12  14
HETATM   14  O2  UNL     1       1.478   0.128   0.047  1.00  0.00    -0.315 OA
BRANCH  14  15
HETATM   15  C11 UNL     1       2.851  -0.083   0.264  1.00  0.00     0.135 C 
HETATM   16  C12 UNL     1       3.589  -0.494  -0.973  1.00  0.00     0.060 C 
HETATM   17  C13 UNL     1       5.039  -0.699  -0.564  1.00  0.00     0.235 C 
HETATM   18  N1  UNL     1       5.620   0.611  -0.367  1.00  0.00    -0.075 N 
HETATM   19  C14 UNL     1       4.687   1.607   0.033  1.00  0.00     0.235 C 
ATOM     20  H12 UNL     1       6.396   0.562   0.294  1.00  0.00     0.277 HD
ATOM     21  H11 UNL     1       6.123   0.908  -1.203  1.00  0.00     0.277 HD
HETATM   22  C15 UNL     1       3.543   1.114   0.855  1.00  0.00     0.060 C 
ENDBRANCH  14  15
ENDBRANCH  12  14
ENDBRANCH   9  12
TORSDOF 3
