REMARK  3 active torsions:
REMARK  status: ('A' for Active; 'I' for Inactive)
REMARK    1  A    between atoms: C4_4  and  C5_5 
REMARK    2  A    between atoms: C9_10  and  N1_11 
REMARK    3  A    between atoms: C14_16  and  C15_17 
ROOT
HETATM    1  C5  UNL     1      -1.047  -0.595  -0.959  1.00  0.00     0.040 C 
HETATM    2  C6  UNL     1      -1.603  -1.183  -2.264  1.00  0.00     0.084 C 
HETATM    3  S1  UNL     1      -2.124   0.168  -3.305  1.00  0.00    -0.168 SA
HETATM    4  C7  UNL     1      -1.552   1.779  -2.804  1.00  0.00     0.076 C 
HETATM    5  C8  UNL     1      -0.727   1.809  -1.562  1.00  0.00     0.036 C 
HETATM    6  C9  UNL     1      -0.058   0.452  -1.299  1.00  0.00     0.092 C 
ENDROOT
BRANCH   6   7
HETATM    7  N1  UNL     1       1.050   0.659  -0.495  1.00  0.00    -0.387 N 
HETATM    8  C10 UNL     1       1.007   1.082   0.823  1.00  0.00     0.128 C 
HETATM    9  C11 UNL     1       2.301   0.550   1.449  1.00  0.00     0.028 A 
HETATM   10  C12 UNL     1       3.137   0.168   0.290  1.00  0.00     0.045 A 
HETATM   11  C14 UNL     1       2.623  -0.879   1.219  1.00  0.00     0.102 A 
HETATM   12  C13 UNL     1       2.350   0.412  -0.980  1.00  0.00     0.064 C 
BRANCH  11  13
HETATM   13  C15 UNL     1       3.646  -1.529   2.060  1.00  0.00     0.178 C 
HETATM   14  O1  UNL     1       3.550  -2.733   2.403  1.00  0.00    -0.648 OA
HETATM   15  O2  UNL     1       4.761  -0.835   2.508  1.00  0.00    -0.648 OA
ENDBRANCH  11  13
ENDBRANCH   6   7
BRANCH   1  16
HETATM   16  C4  UNL     1      -2.230  -0.099  -0.203  1.00  0.00    -0.017 C 
HETATM   17  C2  UNL     1      -2.578  -0.552   0.982  1.00  0.00    -0.091 C 
HETATM   18  C1  UNL     1      -3.768  -0.003   1.666  1.00  0.00     0.042 C 
HETATM   19  C3  UNL     1      -1.796  -1.624   1.646  1.00  0.00     0.042 C 
ENDBRANCH   1  16
TORSDOF 3
