REMARK  3 active torsions:
REMARK  status: ('A' for Active; 'I' for Inactive)
REMARK       I    between atoms: N2_3  and  C2_4 
REMARK    1  A    between atoms: N2_3  and  C9_14 
REMARK       I    between atoms: C2_4  and  N3_6 
REMARK    2  A    between atoms: N3_6  and  C3_8 
REMARK    3  A    between atoms: C14_19  and  N4_20 
ROOT
HETATM    1  N1  UNL     1      -0.075  -4.542  -0.735  1.00  0.00    -0.172 NA
HETATM    2  C1  UNL     1      -0.010  -3.431  -0.345  1.00  0.00     0.188 C 
HETATM    3  N2  UNL     1       0.108  -2.082   0.110  1.00  0.00    -0.230 N 
HETATM    4  C2  UNL     1       1.422  -1.718   0.519  1.00  0.00     0.332 C 
HETATM    5  O1  UNL     1       2.319  -2.642   0.419  1.00  0.00    -0.246 OA
HETATM    6  N3  UNL     1       1.855  -0.489   1.014  1.00  0.00    -0.338 N 
ATOM      7  H3  UNL     1       1.180   0.269   1.111  1.00  0.00     0.164 HD
ENDROOT
BRANCH   3   8
HETATM    8  C9  UNL     1      -0.999  -1.164   0.095  1.00  0.00     0.139 C 
HETATM    9  C10 UNL     1      -2.033  -1.492   1.113  1.00  0.00     0.029 C 
HETATM   10  C11 UNL     1      -2.801  -2.721   0.792  1.00  0.00     0.002 C 
HETATM   11  C12 UNL     1      -3.346  -2.673  -0.586  1.00  0.00     0.002 C 
HETATM   12  C13 UNL     1      -3.086  -1.369  -1.304  1.00  0.00     0.038 C 
HETATM   13  C14 UNL     1      -1.645  -0.959  -1.236  1.00  0.00     0.247 C 
BRANCH  13  14
HETATM   14  N4  UNL     1      -1.486   0.390  -1.681  1.00  0.00     0.099 N 
HETATM   15  C15 UNL     1      -2.088   1.398  -0.879  1.00  0.00     0.299 C 
HETATM   16  C16 UNL     1      -1.540   2.753  -1.293  1.00  0.00     0.198 C 
HETATM   17  O2  UNL     1      -1.381   2.890  -2.652  1.00  0.00    -0.388 OA
HETATM   18  C17 UNL     1      -2.270   2.041  -3.286  1.00  0.00     0.198 C 
HETATM   19  C18 UNL     1      -1.819   0.591  -3.055  1.00  0.00     0.299 C 
ENDBRANCH  13  14
ENDBRANCH   3   8
BRANCH   6  20
HETATM   20  C3  UNL     1       3.232  -0.254   1.395  1.00  0.00     0.086 C 
HETATM   21  C4  UNL     1       3.843   0.799   0.576  1.00  0.00     0.025 C 
HETATM   22  C5  UNL     1       3.770   2.193   1.112  1.00  0.00     0.002 C 
HETATM   23  C6  UNL     1       3.998   2.295   2.587  1.00  0.00     0.000 C 
HETATM   24  C7  UNL     1       3.052   1.389   3.290  1.00  0.00     0.002 C 
HETATM   25  C8  UNL     1       3.250  -0.040   2.878  1.00  0.00     0.025 C 
ENDBRANCH   6  20
TORSDOF 3
