REMARK  4 active torsions:
REMARK  status: ('A' for Active; 'I' for Inactive)
REMARK    1  A    between atoms: C4_4  and  N1_5 
REMARK       I    between atoms: N1_5  and  C5_7 
REMARK    2  A    between atoms: C5_7  and  C6_9 
REMARK    3  A    between atoms: C12_15  and  O2_16 
REMARK    4  A    between atoms: C18_24  and  C19_25 
ROOT
HETATM    1  C1  UNL     1      -1.235   0.715   3.208  1.00  0.00     0.015 C 
HETATM    2  C2  UNL     1      -1.034   0.340   1.939  1.00  0.00    -0.076 C 
HETATM    3  C3  UNL     1       0.396   0.022   1.709  1.00  0.00     0.059 C 
HETATM    4  C4  UNL     1       0.840   0.160   0.296  1.00  0.00     0.093 C 
HETATM    5  C9  UNL     1      -0.005  -0.603  -0.688  1.00  0.00     0.020 C 
HETATM    6  C10 UNL     1      -0.531  -1.903  -0.195  1.00  0.00     0.013 C 
HETATM    7  C11 UNL     1      -1.927  -2.231  -0.552  1.00  0.00     0.069 C 
HETATM    8  C12 UNL     1      -2.886  -1.113  -0.703  1.00  0.00     0.170 C 
HETATM    9  O3  UNL     1      -2.952  -0.828  -2.091  1.00  0.00    -0.354 OA
HETATM   10  C13 UNL     1      -1.688  -0.337  -2.410  1.00  0.00     0.182 C 
HETATM   11  C14 UNL     1      -1.126   0.288  -1.118  1.00  0.00    -0.003 C 
HETATM   12  C15 UNL     1      -0.702   1.682  -1.491  1.00  0.00     0.019 C 
HETATM   13  C16 UNL     1      -2.318   0.250  -0.254  1.00  0.00     0.035 C 
HETATM   14  C17 UNL     1      -3.301   1.275  -0.858  1.00  0.00     0.023 C 
HETATM   15  C18 UNL     1      -2.273   0.353   1.173  1.00  0.00     0.089 C 
ENDROOT
BRANCH   4  16
HETATM   16  N1  UNL     1       2.237  -0.215   0.236  1.00  0.00    -0.355 N 
HETATM   17  C5  UNL     1       3.233   0.744  -0.086  1.00  0.00     0.221 C 
HETATM   18  O1  UNL     1       2.888   1.932  -0.321  1.00  0.00    -0.273 OA
ATOM     19  H1  UNL     1       2.509  -1.179   0.427  1.00  0.00     0.162 HD
BRANCH  17  20
HETATM   20  C6  UNL     1       4.657   0.395  -0.154  1.00  0.00     0.070 C 
HETATM   21  C7  UNL     1       5.094  -0.124   1.197  1.00  0.00     0.019 C 
HETATM   22  C8  UNL     1       4.846  -0.633  -1.247  1.00  0.00     0.019 C 
ENDBRANCH  17  20
ENDBRANCH   4  16
BRANCH  15  23
HETATM   23  C19 UNL     1      -3.004   1.615   1.598  1.00  0.00     0.241 C 
HETATM   24  O4  UNL     1      -4.161   1.642   1.907  1.00  0.00    -0.306 OA
ENDBRANCH  15  23
BRANCH   8  25
HETATM   25  O2  UNL     1      -4.124  -1.306  -0.161  1.00  0.00    -0.365 OA
ATOM     26  H2  UNL     1      -4.739  -0.589  -0.258  1.00  0.00     0.213 HD
ENDBRANCH   8  25
TORSDOF 4
