REMARK  7 active torsions:
REMARK  status: ('A' for Active; 'I' for Inactive)
REMARK    1  A    between atoms: C2_2  and  N1_4 
REMARK       I    between atoms: N1_4  and  C4_6 
REMARK    2  A    between atoms: C4_6  and  O2_8 
REMARK    3  A    between atoms: O2_8  and  C5_9 
REMARK    4  A    between atoms: C5_9  and  C6_10 
REMARK    5  A    between atoms: C6_10  and  O3_11 
REMARK    6  A    between atoms: C6_10  and  C7_13 
REMARK    7  A    between atoms: C8_14  and  C9_15 
ROOT
HETATM    1  C7  UNL     1      -0.822  -1.936   0.268  1.00  0.00     0.029 A 
HETATM    2  C8  UNL     1      -2.156  -1.733   0.012  1.00  0.00    -0.051 A 
HETATM    3  C15 UNL     1      -2.822  -2.895  -0.460  1.00  0.00     0.116 A 
HETATM    4  S1  UNL     1      -1.673  -4.120  -0.534  1.00  0.00    -0.110 SA
HETATM    5  C16 UNL     1      -0.355  -3.259   0.010  1.00  0.00     0.096 A 
HETATM    6  N2  UNL     1       1.000  -3.749   0.179  1.00  0.00    -0.094 NA
ENDROOT
BRANCH   1   7
HETATM    7  C6  UNL     1       0.149  -1.009   0.827  1.00  0.00     0.080 C 
BRANCH   7   8
HETATM    8  C5  UNL     1       0.170   0.369   1.212  1.00  0.00     0.245 C 
BRANCH   8   9
HETATM    9  O2  UNL     1       1.436   0.803   1.770  1.00  0.00    -0.297 OA
BRANCH   9  10
HETATM   10  C4  UNL     1       2.592   0.881   1.012  1.00  0.00     0.361 C 
HETATM   11  N1  UNL     1       3.841   1.293   1.558  1.00  0.00    -0.333 N 
ATOM     12  H1  UNL     1       3.902   1.542   2.545  1.00  0.00     0.165 HD
HETATM   13  O1  UNL     1       2.524   0.574  -0.203  1.00  0.00    -0.238 OA
BRANCH  11  14
HETATM   14  C2  UNL     1       5.012   1.362   0.738  1.00  0.00     0.078 C 
HETATM   15  C1  UNL     1       6.168   0.538   1.205  1.00  0.00     0.032 C 
HETATM   16  C3  UNL     1       5.414   2.837   0.565  1.00  0.00     0.032 C 
ENDBRANCH  11  14
ENDBRANCH   9  10
ENDBRANCH   8   9
ENDBRANCH   7   8
BRANCH   7  17
HETATM   17  O3  UNL     1       1.327  -1.549   1.055  1.00  0.00    -0.362 OA
ATOM     18  H3  UNL     1       1.313  -2.464   0.799  1.00  0.00     0.217 HD
ENDBRANCH   7  17
ENDBRANCH   1   7
BRANCH   2  19
HETATM   19  C9  UNL     1      -3.049  -0.557   0.166  1.00  0.00     0.016 C 
HETATM   20  C10 UNL     1      -4.335  -0.832  -0.678  1.00  0.00     0.009 C 
HETATM   21  C11 UNL     1      -5.017   0.370  -1.208  1.00  0.00     0.001 C 
HETATM   22  C12 UNL     1      -4.136   1.203  -2.126  1.00  0.00     0.000 C 
HETATM   23  C13 UNL     1      -2.724   1.119  -1.593  1.00  0.00     0.001 C 
HETATM   24  C14 UNL     1      -2.798   0.813  -0.089  1.00  0.00     0.009 C 
ENDBRANCH   2  19
TORSDOF 7
