REMARK  7 active torsions:
REMARK  status: ('A' for Active; 'I' for Inactive)
REMARK    1  A    between atoms: O1_2  and  C2_3 
REMARK    2  A    between atoms: C2_3  and  O2_4 
REMARK    3  A    between atoms: O2_4  and  C3_5 
REMARK    4  A    between atoms: C4_6  and  C5_7 
REMARK    5  A    between atoms: C13_15  and  O3_16 
REMARK    6  A    between atoms: N1_18  and  C14_19 
REMARK    7  A    between atoms: C19_24  and  O4_25 
ROOT
HETATM    1  C5  UNL     1       1.602  -0.330   0.732  1.00  0.00     0.031 C 
HETATM    2  C6  UNL     1       0.986   1.023   0.529  1.00  0.00     0.054 C 
HETATM    3  C7  UNL     1       1.325   1.540  -0.820  1.00  0.00    -0.021 C 
HETATM    4  C8  UNL     1       1.357   0.708  -1.846  1.00  0.00    -0.029 C 
HETATM    5  C9  UNL     1       1.070  -0.722  -1.715  1.00  0.00     0.037 C 
HETATM    6  C10 UNL     1       0.859  -1.125  -0.293  1.00  0.00     0.036 C 
HETATM    7  C11 UNL     1      -0.553  -0.649   0.020  1.00  0.00     0.009 A 
HETATM    8  C12 UNL     1      -0.465   0.659   0.512  1.00  0.00     0.012 A 
HETATM    9  C13 UNL     1      -1.760   1.016   0.763  1.00  0.00     0.152 A 
HETATM   10  N1  UNL     1      -2.621   0.037   0.465  1.00  0.00    -0.303 N 
HETATM   11  C19 UNL     1      -1.885  -0.988   0.008  1.00  0.00     0.152 A 
ENDROOT
BRANCH   1  12
HETATM   12  C4  UNL     1       3.043  -0.412   0.751  1.00  0.00     0.004 C 
HETATM   13  C3  UNL     1       3.858  -1.103   0.013  1.00  0.00     0.134 C 
BRANCH  13  14
HETATM   14  O2  UNL     1       5.220  -1.030   0.204  1.00  0.00    -0.338 OA
BRANCH  14  15
HETATM   15  C2  UNL     1       6.027  -0.043  -0.417  1.00  0.00     0.342 C 
BRANCH  15  16
HETATM   16  O1  UNL     1       7.357  -0.171  -0.075  1.00  0.00    -0.371 OA
HETATM   17  C1  UNL     1       7.568  -0.051   1.297  1.00  0.00     0.204 C 
ENDBRANCH  15  16
ENDBRANCH  14  15
ENDBRANCH  13  14
ENDBRANCH   1  12
BRANCH   9  18
HETATM   18  O3  UNL     1      -2.148   2.256   1.270  1.00  0.00    -0.345 OA
ATOM     19  H3  UNL     1      -3.048   2.504   1.444  1.00  0.00     0.219 HD
ENDBRANCH   9  18
BRANCH  11  20
HETATM   20  O4  UNL     1      -2.329  -2.238  -0.430  1.00  0.00    -0.345 OA
ATOM     21  H4  UNL     1      -3.250  -2.472  -0.438  1.00  0.00     0.219 HD
ENDBRANCH  11  20
BRANCH  10  22
HETATM   22  C14 UNL     1      -4.067   0.013   0.583  1.00  0.00     0.094 C 
HETATM   23  C15 UNL     1      -4.699  -0.660  -0.601  1.00  0.00     0.026 C 
HETATM   24  C16 UNL     1      -6.108  -0.147  -0.568  1.00  0.00     0.002 C 
HETATM   25  C17 UNL     1      -6.052   1.190   0.097  1.00  0.00     0.002 C 
HETATM   26  C18 UNL     1      -4.622   1.419   0.533  1.00  0.00     0.026 C 
ENDBRANCH  10  22
TORSDOF 7
