REMARK  7 active torsions:
REMARK  status: ('A' for Active; 'I' for Inactive)
REMARK    1  A    between atoms: O1_2  and  C2_3 
REMARK    2  A    between atoms: C4_5  and  N1_6 
REMARK    3  A    between atoms: N1_6  and  C5_8 
REMARK    4  A    between atoms: C5_8  and  N2_10 
REMARK    5  A    between atoms: N2_10  and  C6_12 
REMARK    6  A    between atoms: C13_19  and  O2_20 
REMARK    7  A    between atoms: C15_22  and  O3_23 
ROOT
HETATM    1  C2  UNL     1      -3.998  -0.813  -0.312  1.00  0.00     0.106 A 
HETATM    2  C3  UNL     1      -2.685  -1.159  -0.440  1.00  0.00     0.069 A 
HETATM    3  C4  UNL     1      -1.605  -0.300  -0.196  1.00  0.00     0.039 A 
HETATM    4  C12 UNL     1      -1.950   0.966   0.195  1.00  0.00     0.069 A 
HETATM    5  C13 UNL     1      -3.277   1.394   0.349  1.00  0.00     0.106 A 
HETATM    6  C15 UNL     1      -4.271   0.479   0.087  1.00  0.00     0.135 A 
ENDROOT
BRANCH   3   7
HETATM    7  N1  UNL     1      -0.310  -0.801  -0.403  1.00  0.00    -0.333 N 
ATOM      8  H1  UNL     1      -0.233  -1.555  -1.085  1.00  0.00     0.168 HD
BRANCH   7   9
HETATM    9  C5  UNL     1       0.879  -0.409   0.195  1.00  0.00     0.172 C 
HETATM   10  S1  UNL     1       0.911   0.721   1.357  1.00  0.00    -0.041 SA
BRANCH   9  11
HETATM   11  N2  UNL     1       2.113  -1.045  -0.176  1.00  0.00    -0.362 N 
ATOM     12  H2  UNL     1       2.083  -1.786  -0.876  1.00  0.00     0.162 HD
BRANCH  11  13
HETATM   13  C6  UNL     1       3.386  -0.693   0.386  1.00  0.00     0.083 C 
HETATM   14  C7  UNL     1       3.789   0.682  -0.056  1.00  0.00     0.025 C 
HETATM   15  C8  UNL     1       4.977   1.058   0.836  1.00  0.00     0.002 C 
HETATM   16  C9  UNL     1       6.113   0.170   0.413  1.00  0.00     0.000 C 
HETATM   17  C10 UNL     1       5.831  -1.272   0.344  1.00  0.00     0.002 C 
HETATM   18  C11 UNL     1       4.444  -1.668  -0.050  1.00  0.00     0.025 C 
ENDBRANCH  11  13
ENDBRANCH   9  11
ENDBRANCH   7   9
ENDBRANCH   3   7
BRANCH   1  19
HETATM   19  O1  UNL     1      -5.028  -1.732  -0.576  1.00  0.00    -0.353 OA
HETATM   20  C1  UNL     1      -4.669  -3.032  -0.979  1.00  0.00     0.210 C 
ENDBRANCH   1  19
BRANCH   5  21
HETATM   21  O2  UNL     1      -3.548   2.689   0.749  1.00  0.00    -0.353 OA
HETATM   22  C14 UNL     1      -2.466   3.562   0.997  1.00  0.00     0.210 C 
ENDBRANCH   5  21
BRANCH   6  23
HETATM   23  O3  UNL     1      -5.595   0.852   0.223  1.00  0.00    -0.351 OA
HETATM   24  C16 UNL     1      -6.382   1.403  -0.793  1.00  0.00     0.210 C 
ENDBRANCH   6  23
TORSDOF 7
