REMARK  6 active torsions:
REMARK  status: ('A' for Active; 'I' for Inactive)
REMARK    1  A    between atoms: C2_2  and  O1_3 
REMARK    2  A    between atoms: O1_3  and  C3_4 
REMARK    3  A    between atoms: C6_7  and  N1_8 
REMARK    4  A    between atoms: C7_13  and  O2_14 
REMARK    5  A    between atoms: O2_14  and  C8_15 
REMARK    6  A    between atoms: C17_26  and  O3_27 
ROOT
HETATM    1  C3  UNL     1       4.173   0.147  -0.593  1.00  0.00     0.103 A 
HETATM    2  C4  UNL     1       3.048   0.950  -0.539  1.00  0.00     0.057 A 
HETATM    3  C5  UNL     1       1.772   0.446  -0.378  1.00  0.00     0.037 A 
HETATM    4  C6  UNL     1       0.648   1.244  -0.323  1.00  0.00     0.114 A 
HETATM    5  N2  UNL     1      -0.570   0.653  -0.163  1.00  0.00    -0.308 N 
ATOM      6  H2  UNL     1      -1.406   1.237  -0.122  1.00  0.00     0.171 HD
HETATM    7  C7  UNL     1      -0.695  -0.680  -0.058  1.00  0.00     0.226 A 
HETATM    8  N3  UNL     1       0.412  -1.442  -0.114  1.00  0.00    -0.321 N 
ATOM      9  H3  UNL     1       0.314  -2.454  -0.034  1.00  0.00     0.169 HD
HETATM   10  C15 UNL     1       1.643  -0.923  -0.271  1.00  0.00     0.052 A 
HETATM   11  C16 UNL     1       2.773  -1.735  -0.326  1.00  0.00     0.070 A 
HETATM   12  C17 UNL     1       4.043  -1.225  -0.486  1.00  0.00     0.103 A 
ENDROOT
BRANCH   7  13
HETATM   13  O2  UNL     1      -1.909  -1.332   0.106  1.00  0.00    -0.316 OA
BRANCH  13  14
HETATM   14  C8  UNL     1      -3.149  -0.647   0.181  1.00  0.00     0.132 C 
HETATM   15  C9  UNL     1      -4.078  -1.063  -0.943  1.00  0.00     0.032 C 
HETATM   16  C10 UNL     1      -4.758   0.188  -1.460  1.00  0.00     0.002 C 
HETATM   17  C11 UNL     1      -5.784   0.598  -0.445  1.00  0.00     0.000 C 
HETATM   18  C12 UNL     1      -5.172   1.131   0.829  1.00  0.00     0.000 C 
HETATM   19  C13 UNL     1      -4.891   0.075   1.844  1.00  0.00     0.002 C 
HETATM   20  C14 UNL     1      -3.806  -0.872   1.506  1.00  0.00     0.032 C 
ENDBRANCH  13  14
ENDBRANCH   7  13
BRANCH   4  21
HETATM   21  N1  UNL     1       0.795   2.504  -0.425  1.00  0.00    -0.385 N 
ATOM     22  H12 UNL     1       1.706   2.946  -0.545  1.00  0.00     0.157 HD
ATOM     23  H11 UNL     1      -0.036   3.094  -0.384  1.00  0.00     0.157 HD
ENDBRANCH   4  21
BRANCH  12  24
HETATM   24  O3  UNL     1       5.162  -2.048  -0.538  1.00  0.00    -0.353 OA
HETATM   25  C18 UNL     1       5.055  -3.455  -0.431  1.00  0.00     0.210 C 
ENDBRANCH  12  24
BRANCH   1  26
HETATM   26  O1  UNL     1       5.458   0.629  -0.752  1.00  0.00    -0.349 OA
BRANCH  26  27
HETATM   27  C2  UNL     1       5.846   1.957  -0.879  1.00  0.00     0.171 C 
HETATM   28  C1  UNL     1       5.489   2.829   0.304  1.00  0.00     0.034 C 
ENDBRANCH  26  27
ENDBRANCH   1  26
TORSDOF 6
