REMARK  7 active torsions:
REMARK  status: ('A' for Active; 'I' for Inactive)
REMARK    1  A    between atoms: C2_2  and  C4_4 
REMARK    2  A    between atoms: C4_4  and  O2_19 
REMARK    3  A    between atoms: C5_5  and  C6_6 
REMARK    4  A    between atoms: C7_7  and  C9_9 
REMARK    5  A    between atoms: C10_10  and  C11_11 
REMARK    6  A    between atoms: C11_11  and  O1_12 
REMARK    7  A    between atoms: O2_19  and  S1_20 
ROOT
HETATM    1  C6  UNL     1       1.561   0.392   0.467  1.00  0.00     0.009 C 
HETATM    2  C7  UNL     1       0.602  -0.555   0.521  1.00  0.00    -0.062 C 
HETATM    3  C8  UNL     1       0.974  -1.960   0.729  1.00  0.00     0.048 C 
ENDROOT
BRANCH   2   4
HETATM    4  C9  UNL     1      -0.773  -0.158   0.369  1.00  0.00     0.006 C 
HETATM    5  C10 UNL     1      -1.818  -0.954   0.396  1.00  0.00     0.011 C 
BRANCH   5   6
HETATM    6  C11 UNL     1      -3.187  -0.420   0.228  1.00  0.00     0.076 C 
HETATM    7  C12 UNL     1      -3.241   0.333  -1.086  1.00  0.00     0.042 C 
HETATM    8  C13 UNL     1      -4.619   0.865  -1.385  1.00  0.00     0.003 C 
HETATM    9  C14 UNL     1      -5.694  -0.167  -1.303  1.00  0.00     0.000 C 
HETATM   10  C15 UNL     1      -5.580  -0.966  -0.025  1.00  0.00     0.003 C 
HETATM   11  C16 UNL     1      -4.213  -1.531   0.178  1.00  0.00     0.042 C 
BRANCH   6  12
HETATM   12  O1  UNL     1      -3.520   0.397   1.309  1.00  0.00    -0.386 OA
ATOM     13  H1  UNL     1      -4.399   0.740   1.201  1.00  0.00     0.211 HD
ENDBRANCH   6  12
ENDBRANCH   5   6
ENDBRANCH   2   4
BRANCH   1  14
HETATM   14  C5  UNL     1       2.943   0.075   0.609  1.00  0.00     0.039 C 
HETATM   15  C4  UNL     1       4.002   0.755   0.598  1.00  0.00     0.097 C 
BRANCH  15  16
HETATM   16  C2  UNL     1       4.231   2.155   0.433  1.00  0.00    -0.036 C 
HETATM   17  C1  UNL     1       5.491   2.656   0.460  1.00  0.00     0.021 C 
HETATM   18  C3  UNL     1       3.134   3.125   0.227  1.00  0.00     0.050 C 
ENDBRANCH  15  16
BRANCH  15  19
HETATM   19  O2  UNL     1       5.233   0.009   0.784  1.00  0.00    -0.214 OA
BRANCH  19  20
HETATM   20  S1  UNL     1       5.401  -1.527   0.132  1.00  0.00     0.257 S 
HETATM   21  O3  UNL     1       4.974  -2.616   1.103  1.00  0.00    -0.572 OA
HETATM   22  O4  UNL     1       4.568  -1.708  -1.110  1.00  0.00    -0.572 OA
HETATM   23  O5  UNL     1       7.029  -1.798  -0.270  1.00  0.00    -0.572 OA
ENDBRANCH  19  20
ENDBRANCH  15  19
ENDBRANCH   1  14
TORSDOF 7
