REMARK  8 active torsions:
REMARK  status: ('A' for Active; 'I' for Inactive)
REMARK    1  A    between atoms: N5_15  and  C6_16 
REMARK    2  A    between atoms: C7_18  and  C8_19 
REMARK    3  A    between atoms: C8_19  and  O2_20 
REMARK    4  A    between atoms: C8_19  and  C9_22 
REMARK    5  A    between atoms: C9_22  and  O3_23 
REMARK    6  A    between atoms: C9_22  and  N6_25 
REMARK    7  A    between atoms: N6_25  and  N7_26 
REMARK    8  A    between atoms: C12_34  and  O5_35 
ROOT
HETATM    1  C6  UNL     1       0.841  -0.613  -0.526  1.00  0.00     0.269 C 
HETATM    2  O1  UNL     1      -0.311   0.082  -0.276  1.00  0.00    -0.353 OA
HETATM    3  C7  UNL     1      -1.451  -0.707  -0.250  1.00  0.00     0.174 C 
HETATM    4  C10 UNL     1      -1.998  -1.080  -1.557  1.00  0.00     0.157 C 
HETATM    5  N8  UNL     1      -1.065  -1.357  -2.603  1.00  0.00    -0.356 N 
ATOM      6  H8  UNL     1      -1.508  -1.816  -3.398  1.00  0.00     0.162 HD
HETATM    7  C11 UNL     1       0.308  -1.156  -2.811  1.00  0.00     0.251 C 
HETATM    8  O4  UNL     1       0.831  -1.726  -3.804  1.00  0.00    -0.271 OA
HETATM    9  C12 UNL     1       1.211  -0.333  -1.970  1.00  0.00     0.259 C 
ENDROOT
BRANCH   1  10
HETATM   10  N5  UNL     1       1.911  -0.373   0.387  1.00  0.00    -0.297 N 
HETATM   11  C3  UNL     1       3.001   0.386   0.303  1.00  0.00     0.142 A 
HETATM   12  N3  UNL     1       3.447   1.175  -0.670  1.00  0.00    -0.336 N 
HETATM   13  C4  UNL     1       3.756   0.298   1.454  1.00  0.00     0.122 A 
HETATM   14  C2  UNL     1       4.593   1.878  -0.573  1.00  0.00     0.183 A 
ATOM     15  H3  UNL     1       2.898   1.252  -1.526  1.00  0.00     0.168 HD
HETATM   16  N2  UNL     1       5.328   1.787   0.558  1.00  0.00    -0.337 N 
HETATM   17  C1  UNL     1       4.928   1.011   1.568  1.00  0.00     0.131 A 
ATOM     18  H2  UNL     1       6.196   2.316   0.640  1.00  0.00     0.168 HD
HETATM   19  N1  UNL     1       5.639   0.940   2.627  1.00  0.00    -0.383 N 
ATOM     20  H12 UNL     1       6.507   1.468   2.711  1.00  0.00     0.157 HD
ATOM     21  H11 UNL     1       5.333   0.347   3.399  1.00  0.00     0.157 HD
HETATM   22  N4  UNL     1       3.078  -0.553   2.251  1.00  0.00    -0.346 N 
HETATM   23  C5  UNL     1       1.974  -0.958   1.619  1.00  0.00     0.188 A 
ATOM     24  H4  UNL     1       3.363  -0.841   3.187  1.00  0.00     0.167 HD
ENDBRANCH   1  10
BRANCH   9  25
HETATM   25  O5  UNL     1       0.900   1.013  -2.279  1.00  0.00    -0.382 OA
ATOM     26  H5  UNL     1       1.132   1.188  -3.183  1.00  0.00     0.210 HD
ENDBRANCH   9  25
BRANCH   3  27
HETATM   27  C8  UNL     1      -2.480   0.094   0.542  1.00  0.00     0.195 C 
BRANCH  27  28
HETATM   28  O2  UNL     1      -1.887   0.276   1.814  1.00  0.00    -0.389 OA
ATOM     29  H2  UNL     1      -2.528   0.775   2.307  1.00  0.00     0.210 HD
ENDBRANCH  27  28
BRANCH  27  30
HETATM   30  C9  UNL     1      -3.744  -0.684   0.789  1.00  0.00     0.261 C 
BRANCH  30  31
HETATM   31  O3  UNL     1      -4.505  -0.884  -0.349  1.00  0.00    -0.375 OA
ATOM     32  H3  UNL     1      -5.303  -1.375  -0.193  1.00  0.00     0.211 HD
ENDBRANCH  30  31
BRANCH  30  33
HETATM   33  N6  UNL     1      -4.561   0.139   1.685  1.00  0.00    -0.113 NA
BRANCH  33  34
HETATM   34  N7  UNL     1      -4.871   1.370   1.137  1.00  0.00    -0.346 N 
ATOM     35  H72 UNL     1      -4.558   1.659   0.210  1.00  0.00     0.172 HD
ATOM     36  H71 UNL     1      -5.440   1.943   1.761  1.00  0.00     0.172 HD
ENDBRANCH  33  34
ENDBRANCH  30  33
ENDBRANCH  27  30
ENDBRANCH   3  27
TORSDOF 8
