REMARK  9 active torsions:
REMARK  status: ('A' for Active; 'I' for Inactive)
REMARK    1  A    between atoms: C3_3  and  O1_4 
REMARK    2  A    between atoms: C3_3  and  C4_6 
REMARK       I    between atoms: C4_6  and  N1_8 
REMARK    3  A    between atoms: N1_8  and  N2_10 
REMARK       I    between atoms: N2_10  and  C5_12 
REMARK    4  A    between atoms: C5_12  and  C6_14 
REMARK    5  A    between atoms: N5_19  and  N6_20 
REMARK    6  A    between atoms: C7_23  and  C8_24 
REMARK    7  A    between atoms: C8_24  and  N8_29 
REMARK    8  A    between atoms: N7_25  and  O4_27 
REMARK    9  A    between atoms: N8_29  and  N9_31 
REMARK       I    between atoms: N9_31  and  C9_33 
ROOT
HETATM    1  C1  UNL     1       7.210   1.149  -1.971  1.00  0.00     0.015 C 
HETATM    2  C2  UNL     1       6.457   0.295  -1.550  1.00  0.00    -0.076 C 
HETATM    3  C3  UNL     1       5.571  -0.772  -1.039  1.00  0.00     0.289 C 
ENDROOT
BRANCH   3   4
HETATM    4  O1  UNL     1       5.106  -1.574  -2.060  1.00  0.00    -0.374 OA
ATOM      5  H1  UNL     1       4.537  -2.260  -1.732  1.00  0.00     0.211 HD
ENDBRANCH   3   4
BRANCH   3   6
HETATM    6  C4  UNL     1       4.516  -0.184  -0.190  1.00  0.00     0.276 C 
HETATM    7  O2  UNL     1       4.903   0.589   0.736  1.00  0.00    -0.268 OA
HETATM    8  N1  UNL     1       3.128  -0.409  -0.318  1.00  0.00    -0.264 N 
ATOM      9  H1  UNL     1       2.794  -1.025  -1.059  1.00  0.00     0.190 HD
BRANCH   8  10
HETATM   10  N2  UNL     1       2.201   0.184   0.535  1.00  0.00    -0.262 N 
HETATM   11  C5  UNL     1       0.835  -0.147   0.430  1.00  0.00     0.290 C 
HETATM   12  O3  UNL     1       0.457  -0.964  -0.417  1.00  0.00    -0.264 OA
ATOM     13  H2  UNL     1       2.510   0.858   1.236  1.00  0.00     0.190 HD
BRANCH  11  14
HETATM   14  C6  UNL     1      -0.117   0.486   1.341  1.00  0.00     0.153 A 
HETATM   15  N3  UNL     1       0.229   1.476   2.222  1.00  0.00    -0.277 N 
HETATM   16  N4  UNL     1      -0.835   1.791   2.905  1.00  0.00    -0.221 N 
ATOM     17  H3  UNL     1       1.154   1.892   2.325  1.00  0.00     0.189 HD
HETATM   18  N5  UNL     1      -1.866   1.078   2.540  1.00  0.00    -0.182 N 
ATOM     19  H4  UNL     1      -0.859   2.505   3.633  1.00  0.00     0.210 HD
HETATM   20  C7  UNL     1      -1.433   0.243   1.548  1.00  0.00     0.156 A 
BRANCH  18  21
HETATM   21  N6  UNL     1      -3.167   1.161   3.083  1.00  0.00    -0.322 N 
ATOM     22  H62 UNL     1      -3.490   1.784   3.823  1.00  0.00     0.179 HD
ATOM     23  H61 UNL     1      -3.972   0.604   2.798  1.00  0.00     0.179 HD
ENDBRANCH  18  21
BRANCH  20  24
HETATM   24  C8  UNL     1      -2.355  -0.683   0.913  1.00  0.00     0.173 C 
HETATM   25  N7  UNL     1      -3.037  -1.471   1.744  1.00  0.00    -0.250 N 
ATOM     26  H7  UNL     1      -2.872  -1.375   2.746  1.00  0.00     0.196 HD
BRANCH  25  27
HETATM   27  O4  UNL     1      -3.941  -2.396   1.326  1.00  0.00    -0.288 OA
ATOM     28  H4  UNL     1      -4.427  -2.958   1.918  1.00  0.00     0.244 HD
ENDBRANCH  25  27
BRANCH  24  29
HETATM   29  N8  UNL     1      -2.687  -0.840  -0.426  1.00  0.00    -0.278 N 
ATOM     30  H8  UNL     1      -2.070  -1.355  -1.053  1.00  0.00     0.189 HD
BRANCH  29  31
HETATM   31  N9  UNL     1      -3.898  -0.274  -0.913  1.00  0.00    -0.252 N 
HETATM   32  C9  UNL     1      -3.927   0.558  -2.056  1.00  0.00     0.347 C 
HETATM   33  N10 UNL     1      -5.108   1.137  -2.568  1.00  0.00    -0.038 NA
HETATM   34  O5  UNL     1      -2.838   0.792  -2.641  1.00  0.00    -0.249 OA
ATOM     35  H9  UNL     1      -4.770  -0.474  -0.424  1.00  0.00     0.191 HD
ENDBRANCH  29  31
ENDBRANCH  24  29
ENDBRANCH  20  24
ENDBRANCH  11  14
ENDBRANCH   8  10
ENDBRANCH   3   6
TORSDOF 9
