REMARK  5 active torsions:
REMARK  status: ('A' for Active; 'I' for Inactive)
REMARK       I    between atoms: N2_3  and  C2_5 
REMARK       I    between atoms: C2_5  and  N4_9 
REMARK    1  A    between atoms: N7_17  and  N8_19 
REMARK    2  A    between atoms: N8_19  and  C5_21 
REMARK    3  A    between atoms: C5_21  and  C6_22 
REMARK    4  A    between atoms: C6_22  and  S1_23 
REMARK    5  A    between atoms: N9_27  and  O4_29 
ROOT
HETATM    1  N1  UNL     1       7.072   1.074  -1.441  1.00  0.00    -0.171 NA
HETATM    2  C1  UNL     1       6.128   1.195  -0.784  1.00  0.00     0.196 C 
HETATM    3  N2  UNL     1       4.982   1.318   0.007  1.00  0.00    -0.124 N 
ATOM      4  H2  UNL     1       4.495   2.214   0.014  1.00  0.00     0.197 HD
HETATM    5  C2  UNL     1       4.458   0.266   0.801  1.00  0.00     0.710 C 
HETATM    6  N3  UNL     1       5.204  -0.426   1.566  1.00  0.00    -0.232 N 
ATOM      7  H31 UNL     1       4.827  -1.183   2.137  1.00  0.00     0.174 HD
ATOM      8  H32 UNL     1       6.200  -0.207   1.597  1.00  0.00     0.174 HD
HETATM    9  N4  UNL     1       3.055  -0.042   0.757  1.00  0.00    -0.029 N 
HETATM   10  N5  UNL     1       2.468  -0.295  -0.368  1.00  0.00    -0.257 N 
ATOM     11  H5  UNL     1       3.024  -0.270  -1.223  1.00  0.00     0.190 HD
HETATM   12  C3  UNL     1       1.125  -0.597  -0.466  1.00  0.00     0.161 A 
HETATM   13  N6  UNL     1       0.655  -0.824  -1.619  1.00  0.00    -0.381 N 
ATOM     14  H61 UNL     1      -0.338  -1.047  -1.691  1.00  0.00     0.157 HD
ATOM     15  H62 UNL     1       1.208  -0.800  -2.476  1.00  0.00     0.157 HD
HETATM   16  C4  UNL     1       0.387  -0.629   0.677  1.00  0.00     0.170 A 
HETATM   17  N7  UNL     1      -0.817  -0.882   0.794  1.00  0.00    -0.281 N 
ATOM     18  H7  UNL     1      -1.137  -0.841   1.762  1.00  0.00     0.188 HD
HETATM   19  N10 UNL     1       1.061  -0.352   1.846  1.00  0.00    -0.288 N 
ATOM     20  H10 UNL     1       0.536  -0.368   2.720  1.00  0.00     0.172 HD
HETATM   21  C7  UNL     1       2.360  -0.065   1.898  1.00  0.00     0.362 A 
HETATM   22  O5  UNL     1       2.936   0.185   3.016  1.00  0.00    -0.244 OA
ENDROOT
BRANCH  17  23
HETATM   23  N8  UNL     1      -1.808  -1.202  -0.073  1.00  0.00    -0.285 N 
ATOM     24  H8  UNL     1      -1.770  -2.120  -0.516  1.00  0.00     0.188 HD
BRANCH  23  25
HETATM   25  C5  UNL     1      -2.901  -0.349  -0.412  1.00  0.00     0.132 C 
HETATM   26  N9  UNL     1      -2.839   0.931  -0.326  1.00  0.00    -0.255 N 
ATOM     27  H9  UNL     1      -3.660   1.478  -0.586  1.00  0.00     0.195 HD
BRANCH  25  28
HETATM   28  C6  UNL     1      -4.167  -0.959  -0.881  1.00  0.00     0.244 C 
BRANCH  28  29
HETATM   29  S1  UNL     1      -5.393   0.271  -1.248  1.00  0.00     0.108 S 
HETATM   30  O1  UNL     1      -4.895   1.179  -2.326  1.00  0.00    -0.595 OA
HETATM   31  O2  UNL     1      -6.649  -0.454  -1.658  1.00  0.00    -0.595 OA
HETATM   32  O3  UNL     1      -5.671   1.133   0.185  1.00  0.00    -0.595 OA
ENDBRANCH  28  29
ENDBRANCH  25  28
BRANCH  26  33
HETATM   33  O4  UNL     1      -1.722   1.592   0.098  1.00  0.00    -0.288 OA
ATOM     34  H4  UNL     1      -1.676   2.539   0.162  1.00  0.00     0.244 HD
ENDBRANCH  26  33
ENDBRANCH  23  25
ENDBRANCH  17  23
TORSDOF 5
