REMARK  2 active torsions:
REMARK  status: ('A' for Active; 'I' for Inactive)
REMARK    1  A    between atoms: C2_2  and  C3_3 
REMARK    2  A    between atoms: C11_13  and  O3_14 
ROOT
HETATM    1  C3  UNL     1      -2.962  -0.214  -0.058  1.00  0.00     0.058 C 
HETATM    2  C4  UNL     1      -3.881  -1.370   0.353  1.00  0.00     0.046 C 
HETATM    3  C5  UNL     1      -1.683  -0.378   0.672  1.00  0.00     0.054 C 
HETATM    4  C6  UNL     1      -0.643  -0.238  -0.409  1.00  0.00     0.039 C 
HETATM    5  C7  UNL     1      -1.418  -0.464  -1.657  1.00  0.00     0.183 C 
HETATM    6  O1  UNL     1      -2.747  -0.326  -1.402  1.00  0.00    -0.380 OA
HETATM    7  C8  UNL     1       0.432  -1.308  -0.318  1.00  0.00     0.136 C 
HETATM    8  C9  UNL     1       1.312  -1.155  -1.515  1.00  0.00     0.065 C 
HETATM    9  C10 UNL     1       1.942   0.189  -1.658  1.00  0.00     0.136 C 
HETATM   10  O2  UNL     1       3.170   0.175  -1.031  1.00  0.00    -0.347 OA
HETATM   11  C11 UNL     1       3.143   1.015   0.041  1.00  0.00     0.191 C 
HETATM   12  C12 UNL     1       3.349   0.197   1.298  1.00  0.00     0.073 C 
HETATM   13  C13 UNL     1       3.510  -1.290   0.956  1.00  0.00     0.032 C 
HETATM   14  C14 UNL     1       2.176  -2.002   1.023  1.00  0.00     0.168 C 
HETATM   15  O4  UNL     1       1.108  -1.155   0.868  1.00  0.00    -0.385 OA
HETATM   16  C15 UNL     1       1.889   1.806   0.040  1.00  0.00     0.256 C 
HETATM   17  N1  UNL     1       0.797   1.313   0.831  1.00  0.00    -0.059 N 
ATOM     18  H11 UNL     1       0.429   1.889   1.588  1.00  0.00     0.278 HD
ATOM     19  H12 UNL     1       0.958   0.541   1.477  1.00  0.00     0.278 HD
HETATM   20  C16 UNL     1      -0.007   1.094  -0.341  1.00  0.00     0.208 C 
HETATM   21  C17 UNL     1       1.153   1.335  -1.195  1.00  0.00     0.082 C 
ENDROOT
BRANCH   1  22
HETATM   22  C2  UNL     1      -3.688   1.065   0.220  1.00  0.00     0.033 C 
HETATM   23  C1  UNL     1      -4.057   1.240   1.673  1.00  0.00     0.008 C 
ENDBRANCH   1  22
BRANCH  11  24
HETATM   24  O3  UNL     1       4.216   1.923  -0.118  1.00  0.00    -0.364 OA
ATOM     25  H3  UNL     1       4.197   2.509   0.630  1.00  0.00     0.213 HD
ENDBRANCH  11  24
TORSDOF 2
