REMARK  3 active torsions:
REMARK  status: ('A' for Active; 'I' for Inactive)
REMARK    1  A    between atoms: O1_2  and  C2_3 
REMARK    2  A    between atoms: C5_6  and  O2_8 
REMARK    3  A    between atoms: C8_11  and  O3_12 
ROOT
HETATM    1  C2  UNL     1      -1.633   1.066   0.329  1.00  0.00     0.156 C 
HETATM    2  C3  UNL     1      -2.732   0.511  -0.506  1.00  0.00     0.038 C 
HETATM    3  C4  UNL     1      -2.575  -0.921  -0.870  1.00  0.00     0.041 C 
HETATM    4  C5  UNL     1      -1.457  -1.631  -0.170  1.00  0.00     0.070 C 
HETATM    5  C6  UNL     1      -1.412  -3.028  -0.764  1.00  0.00     0.047 C 
HETATM    6  C7  UNL     1      -0.160  -0.941  -0.092  1.00  0.00     0.084 C 
HETATM    7  C8  UNL     1       0.555  -1.413   1.187  1.00  0.00     0.143 C 
HETATM    8  C9  UNL     1       1.853  -1.573   0.405  1.00  0.00     0.053 C 
HETATM    9  C10 UNL     1       2.858  -0.554   0.741  1.00  0.00     0.013 C 
HETATM   10  C11 UNL     1       2.859   0.708  -0.029  1.00  0.00     0.032 C 
HETATM   11  C12 UNL     1       1.795   1.663   0.463  1.00  0.00     0.118 C 
HETATM   12  C13 UNL     1       1.901   2.983  -0.274  1.00  0.00     0.039 C 
HETATM   13  O4  UNL     1       0.588   1.188   0.673  1.00  0.00    -0.372 OA
HETATM   14  C14 UNL     1      -0.243   0.574  -0.151  1.00  0.00     0.099 C 
HETATM   15  C15 UNL     1      -0.220   1.101  -1.570  1.00  0.00     0.050 C 
HETATM   16  C16 UNL     1       1.022  -1.443  -0.826  1.00  0.00     0.104 A 
HETATM   17  C17 UNL     1       1.403  -1.402  -2.145  1.00  0.00     0.208 A 
HETATM   18  O5  UNL     1       1.008  -2.587  -1.611  1.00  0.00    -0.373 OA
ENDROOT
BRANCH   4  19
HETATM   19  O2  UNL     1      -1.939  -1.866   1.148  1.00  0.00    -0.389 OA
ATOM     20  H2  UNL     1      -1.230  -2.316   1.592  1.00  0.00     0.210 HD
ENDBRANCH   4  19
BRANCH   7  21
HETATM   21  O3  UNL     1       0.583  -0.571   2.248  1.00  0.00    -0.394 OA
ATOM     22  H3  UNL     1       1.024  -0.862   3.037  1.00  0.00     0.210 HD
ENDBRANCH   7  21
BRANCH   1  23
HETATM   23  O1  UNL     1      -1.793   0.958   1.677  1.00  0.00    -0.388 OA
HETATM   24  C1  UNL     1      -1.851   2.201   2.300  1.00  0.00     0.202 C 
ENDBRANCH   1  23
TORSDOF 3
