REMARK  3 active torsions:
REMARK  status: ('A' for Active; 'I' for Inactive)
REMARK    1  A    between atoms: C3_6  and  C4_7 
REMARK    2  A    between atoms: C4_7  and  C5_8 
REMARK    3  A    between atoms: C7_12  and  O3_13 
ROOT
HETATM    1  C5  UNL     1       0.140  -1.047  -0.188  1.00  0.00     0.021 C 
HETATM    2  N1  UNL     1      -0.614  -0.594  -1.110  1.00  0.00    -0.384 N 
ATOM      3  H1  UNL     1      -0.117  -0.553  -2.000  1.00  0.00     0.160 HD
HETATM    4  C6  UNL     1      -1.931  -0.136  -1.251  1.00  0.00     0.119 C 
HETATM    5  C7  UNL     1      -2.062   1.294  -0.856  1.00  0.00     0.141 C 
HETATM    6  C8  UNL     1      -3.505   1.788  -1.001  1.00  0.00     0.034 C 
HETATM    7  C9  UNL     1      -4.262   0.995   0.075  1.00  0.00     0.003 C 
HETATM    8  C10 UNL     1      -4.291  -0.415  -0.403  1.00  0.00     0.012 C 
HETATM    9  C11 UNL     1      -2.972  -1.047  -0.671  1.00  0.00     0.049 C 
HETATM   10  C12 UNL     1      -2.516  -1.818   0.541  1.00  0.00     0.067 C 
HETATM   11  N2  UNL     1      -1.647  -1.185   1.420  1.00  0.00    -0.377 N 
ATOM     12  H2  UNL     1      -2.019  -0.678   2.223  1.00  0.00     0.164 HD
HETATM   13  C13 UNL     1      -0.267  -1.238   1.213  1.00  0.00     0.112 C 
ENDROOT
BRANCH   1  14
HETATM   14  C4  UNL     1       1.503  -1.391  -0.620  1.00  0.00     0.062 C 
BRANCH  14  15
HETATM   15  C3  UNL     1       2.500  -0.584   0.166  1.00  0.00    -0.007 C 
HETATM   16  C2  UNL     1       3.867  -0.993  -0.329  1.00  0.00     0.020 C 
HETATM   17  C1  UNL     1       4.994  -0.378   0.441  1.00  0.00     0.140 C 
HETATM   18  S1  UNL     1       4.821   1.401   0.268  1.00  0.00     0.144 S 
HETATM   19  O1  UNL     1       5.055   1.691  -1.202  1.00  0.00    -0.228 OA
HETATM   20  O2  UNL     1       5.788   2.127   1.140  1.00  0.00    -0.228 OA
HETATM   21  C15 UNL     1       3.154   1.790   0.693  1.00  0.00     0.140 C 
HETATM   22  C14 UNL     1       2.212   0.873  -0.054  1.00  0.00     0.020 C 
ENDBRANCH  14  15
ENDBRANCH   1  14
BRANCH   5  23
HETATM   23  O3  UNL     1      -1.609   1.633   0.390  1.00  0.00    -0.393 OA
ATOM     24  H3  UNL     1      -1.693   2.545   0.642  1.00  0.00     0.210 HD
ENDBRANCH   5  23
TORSDOF 3
