REMARK  3 active torsions:
REMARK  status: ('A' for Active; 'I' for Inactive)
REMARK    1  A    between atoms: O1_2  and  N1_3 
REMARK    2  A    between atoms: C3_5  and  C4_6 
REMARK    3  A    between atoms: C4_6  and  N2_7 
ROOT
HETATM    1  N1  UNL     1      -1.622  -0.439   0.876  1.00  0.00    -0.179 NA
HETATM    2  C2  UNL     1      -1.289   0.628   0.000  1.00  0.00     0.128 C 
HETATM    3  C3  UNL     1      -0.466   1.712   0.635  1.00  0.00     0.026 C 
HETATM    4  C5  UNL     1       1.008   1.479   0.583  1.00  0.00     0.007 C 
HETATM    5  C6  UNL     1       1.677   1.843  -0.687  1.00  0.00     0.000 C 
HETATM    6  C7  UNL     1       2.880   1.081  -1.067  1.00  0.00     0.000 C 
HETATM    7  C8  UNL     1       3.122  -0.232  -0.382  1.00  0.00     0.000 C 
HETATM    8  C9  UNL     1       2.282  -1.352  -0.977  1.00  0.00     0.000 C 
HETATM    9  C10 UNL     1       2.048  -2.481  -0.017  1.00  0.00     0.000 C 
HETATM   10  C11 UNL     1       0.623  -3.047  -0.147  1.00  0.00     0.003 C 
HETATM   11  C12 UNL     1      -0.296  -2.486   0.867  1.00  0.00     0.037 C 
HETATM   12  C13 UNL     1      -1.497  -1.764   0.343  1.00  0.00     0.192 C 
HETATM   13  C14 UNL     1      -1.634  -1.831  -1.105  1.00  0.00     0.081 C 
HETATM   14  N3  UNL     1      -1.753  -1.867  -2.261  1.00  0.00    -0.195 NA
ENDROOT
BRANCH   1  15
HETATM   15  O1  UNL     1      -2.828  -0.215   1.447  1.00  0.00    -0.307 OA
HETATM   16  C1  UNL     1      -3.893  -0.404   0.601  1.00  0.00     0.229 C 
ENDBRANCH   1  15
BRANCH   3  17
HETATM   17  C4  UNL     1      -0.840   3.100   0.127  1.00  0.00     0.235 C 
BRANCH  17  18
HETATM   18  N2  UNL     1      -2.228   3.408   0.404  1.00  0.00    -0.079 N 
ATOM     19  H23 UNL     1      -2.851   2.693   0.030  1.00  0.00     0.274 HD
ATOM     20  H22 UNL     1      -2.444   3.302   1.395  1.00  0.00     0.274 HD
ATOM     21  H21 UNL     1      -2.478   4.337   0.064  1.00  0.00     0.274 HD
ENDBRANCH  17  18
ENDBRANCH   3  17
TORSDOF 3
