REMARK  2 active torsions:
REMARK  status: ('A' for Active; 'I' for Inactive)
REMARK    1  A    between atoms: O1_2  and  C2_3 
REMARK    2  A    between atoms: C4_5  and  N1_6 
ROOT
HETATM    1  N1  UNL     1      -0.716  -0.515   0.286  1.00  0.00    -0.394 N 
HETATM    2  C5  UNL     1      -1.540  -0.958  -0.757  1.00  0.00     0.080 C 
HETATM    3  C6  UNL     1      -2.849  -1.419  -0.151  1.00  0.00     0.025 C 
HETATM    4  C7  UNL     1      -3.056  -0.933   1.248  1.00  0.00     0.004 C 
HETATM    5  C8  UNL     1      -2.487   0.404   1.558  1.00  0.00     0.031 C 
HETATM    6  C9  UNL     1      -1.124   0.652   0.943  1.00  0.00     0.125 C 
HETATM    7  C10 UNL     1      -1.322   1.710  -0.081  1.00  0.00     0.003 C 
HETATM    8  N2  UNL     1      -0.969   2.898   0.215  1.00  0.00    -0.404 N 
ATOM      9  H21 UNL     1      -1.105   3.624  -0.488  1.00  0.00     0.155 HD
ATOM     10  H22 UNL     1      -0.568   3.080   1.135  1.00  0.00     0.155 HD
HETATM   11  C11 UNL     1      -1.896   1.450  -1.398  1.00  0.00     0.056 C 
HETATM   12  C12 UNL     1      -1.830   0.024  -1.846  1.00  0.00     0.031 C 
ENDROOT
BRANCH   1  13
HETATM   13  C4  UNL     1       0.600  -1.011   0.381  1.00  0.00     0.086 C 
HETATM   14  C3  UNL     1       1.500  -0.673  -0.763  1.00  0.00     0.085 C 
HETATM   15  C2  UNL     1       2.754   0.072  -0.388  1.00  0.00     0.260 C 
HETATM   16  O2  UNL     1       2.556   0.966   0.654  1.00  0.00    -0.361 OA
HETATM   17  C14 UNL     1       2.179   0.346   1.830  1.00  0.00     0.173 C 
HETATM   18  C13 UNL     1       1.288  -0.824   1.696  1.00  0.00     0.051 C 
BRANCH  15  19
HETATM   19  O1  UNL     1       3.133   0.841  -1.483  1.00  0.00    -0.366 OA
HETATM   20  C1  UNL     1       4.388   0.450  -1.909  1.00  0.00     0.204 C 
ENDBRANCH  15  19
ENDBRANCH   1  13
TORSDOF 2
