REMARK  2 active torsions:
REMARK  status: ('A' for Active; 'I' for Inactive)
REMARK    1  A    between atoms: C2_2  and  C3_3 
REMARK    2  A    between atoms: C4_4  and  N1_5 
ROOT
HETATM    1  C3  UNL     1      -1.337   0.003  -0.242  1.00  0.00     0.050 C 
HETATM    2  C4  UNL     1      -1.393   1.465  -0.246  1.00  0.00     0.199 C 
HETATM    3  C5  UNL     1      -0.232   2.297   0.079  1.00  0.00     0.144 C 
HETATM    4  C6  UNL     1       0.555   1.900   1.277  1.00  0.00     0.261 C 
HETATM    5  O1  UNL     1       0.022   2.258   2.391  1.00  0.00    -0.265 OA
HETATM    6  O2  UNL     1       1.718   1.233   1.277  1.00  0.00    -0.314 OA
HETATM    7  C7  UNL     1       2.144  -0.025   0.935  1.00  0.00     0.157 C 
HETATM    8  C8  UNL     1       3.653  -0.074   1.245  1.00  0.00     0.042 C 
HETATM    9  C9  UNL     1       2.021  -0.421  -0.504  1.00  0.00     0.152 C 
HETATM   10  C10 UNL     1       1.766  -1.898  -0.686  1.00  0.00     0.037 C 
HETATM   11  C11 UNL     1       0.273  -1.939  -0.327  1.00  0.00     0.041 C 
HETATM   12  C12 UNL     1      -0.178  -0.630  -0.935  1.00  0.00     0.063 C 
HETATM   13  C13 UNL     1      -0.546  -0.974  -2.392  1.00  0.00     0.046 C 
HETATM   14  O3  UNL     1       0.929   0.180  -1.047  1.00  0.00    -0.372 OA
ENDROOT
BRANCH   2  15
HETATM   15  N1  UNL     1      -1.878   1.894  -1.571  1.00  0.00    -0.074 N 
ATOM     16  H13 UNL     1      -1.321   1.517  -2.338  1.00  0.00     0.274 HD
ATOM     17  H12 UNL     1      -2.767   1.463  -1.826  1.00  0.00     0.274 HD
ATOM     18  H11 UNL     1      -1.917   2.913  -1.574  1.00  0.00     0.274 HD
ENDBRANCH   2  15
BRANCH   1  19
HETATM   19  C2  UNL     1      -1.617  -0.624   1.132  1.00  0.00     0.005 C 
HETATM   20  C1  UNL     1      -3.019  -0.197   1.571  1.00  0.00     0.005 C 
ENDBRANCH   1  19
TORSDOF 2
