REMARK  3 active torsions:
REMARK  status: ('A' for Active; 'I' for Inactive)
REMARK       I    between atoms: N1_2  and  C2_4 
REMARK    1  A    between atoms: C2_4  and  O2_6 
REMARK    2  A    between atoms: O2_6  and  N2_7 
REMARK    3  A    between atoms: N3_14  and  O3_15 
ROOT
HETATM    1  N2  UNL     1       1.233   0.327  -0.120  1.00  0.00    -0.264 N 
ATOM      2  H2  UNL     1       1.684   1.193   0.176  1.00  0.00     0.194 HD
HETATM    3  C3  UNL     1      -0.019   0.371  -0.234  1.00  0.00     0.022 C 
HETATM    4  C4  UNL     1      -0.894  -0.759  -0.648  1.00  0.00     0.087 C 
HETATM    5  C5  UNL     1      -2.080  -0.933   0.274  1.00  0.00     0.052 C 
HETATM    6  C6  UNL     1      -2.036  -2.348   0.828  1.00  0.00     0.041 C 
HETATM    7  C7  UNL     1      -3.399  -0.799  -0.460  1.00  0.00     0.041 C 
HETATM    8  N3  UNL     1      -1.937  -0.022   1.363  1.00  0.00    -0.286 N 
HETATM    9  C8  UNL     1      -1.891   1.356   0.982  1.00  0.00     0.165 C 
HETATM   10  C9  UNL     1      -0.730   1.644   0.063  1.00  0.00     0.011 C 
HETATM   11  C10 UNL     1       0.155   2.651   0.743  1.00  0.00     0.023 C 
HETATM   12  C11 UNL     1      -1.207   2.185  -1.281  1.00  0.00     0.023 C 
ENDROOT
BRANCH   1  13
HETATM   13  O2  UNL     1       2.057  -0.721  -0.340  1.00  0.00    -0.181 OA
BRANCH  13  14
HETATM   14  C2  UNL     1       3.419  -0.546  -0.232  1.00  0.00     0.382 C 
HETATM   15  N1  UNL     1       4.369  -1.580  -0.442  1.00  0.00    -0.340 N 
HETATM   16  C1  UNL     1       5.791  -1.361  -0.320  1.00  0.00     0.151 C 
ATOM     17  H1  UNL     1       4.035  -2.512  -0.688  1.00  0.00     0.164 HD
HETATM   18  O1  UNL     1       3.850   0.585   0.068  1.00  0.00    -0.236 OA
ENDBRANCH  13  14
ENDBRANCH   1  13
BRANCH   8  19
HETATM   19  O3  UNL     1      -2.691  -0.274   2.425  1.00  0.00    -0.291 OA
ATOM     20  H3  UNL     1      -2.596   0.332   3.150  1.00  0.00     0.244 HD
ENDBRANCH   8  19
TORSDOF 3
