REMARK  10 active torsions:
REMARK  status: ('A' for Active; 'I' for Inactive)
REMARK    1  A    between atoms: C2_2  and  O1_5 
REMARK    2  A    between atoms: O1_5  and  C5_6 
REMARK       I    between atoms: C5_6  and  N1_8 
REMARK    3  A    between atoms: N2_11  and  C8_12 
REMARK    4  A    between atoms: C8_12  and  N3_13 
REMARK    5  A    between atoms: C8_12  and  C22_42 
REMARK    6  A    between atoms: N3_13  and  C9_15 
REMARK    7  A    between atoms: C9_15  and  C10_17 
REMARK       I    between atoms: C10_17  and  N4_19 
REMARK       I    between atoms: N5_22  and  C13_23 
REMARK       I    between atoms: C13_23  and  N6_25 
REMARK    8  A    between atoms: N6_25  and  C14_27 
REMARK    9  A    between atoms: C17_30  and  S2_31 
REMARK   10  A    between atoms: S2_31  and  N7_32 
ROOT
HETATM    1  C10 UNL     1      -0.895   1.925  -0.369  1.00  0.00     0.281 C 
HETATM    2  O3  UNL     1      -0.717   3.206  -0.445  1.00  0.00    -0.265 OA
HETATM    3  N4  UNL     1      -2.142   1.458  -0.819  1.00  0.00    -0.343 N 
HETATM    4  C11 UNL     1      -3.084   2.468  -1.350  1.00  0.00     0.146 C 
HETATM    5  C12 UNL     1      -4.388   2.330  -0.588  1.00  0.00     0.147 C 
HETATM    6  N5  UNL     1      -4.911   0.966  -0.760  1.00  0.00    -0.331 N 
HETATM    7  C13 UNL     1      -6.255   0.704  -0.366  1.00  0.00     0.323 C 
HETATM    8  O4  UNL     1      -6.904   1.700   0.132  1.00  0.00    -0.247 OA
HETATM    9  N6  UNL     1      -6.883  -0.532  -0.486  1.00  0.00    -0.307 N 
ATOM     10  H6  UNL     1      -6.313  -1.277  -0.886  1.00  0.00     0.170 HD
HETATM   11  C20 UNL     1      -4.066  -0.029  -1.311  1.00  0.00     0.147 C 
HETATM   12  C21 UNL     1      -2.631   0.120  -0.816  1.00  0.00     0.146 C 
ENDROOT
BRANCH   1  13
HETATM   13  C9  UNL     1       0.194   1.110   0.164  1.00  0.00     0.166 C 
HETATM   14  S1  UNL     1       0.006  -0.494   0.263  1.00  0.00    -0.055 SA
BRANCH  13  15
HETATM   15  N3  UNL     1       1.407   1.696   0.605  1.00  0.00    -0.355 N 
ATOM     16  H3  UNL     1       1.490   2.711   0.546  1.00  0.00     0.162 HD
BRANCH  15  17
HETATM   17  C8  UNL     1       2.545   0.956   1.136  1.00  0.00     0.187 C 
BRANCH  17  18
HETATM   18  N2  UNL     1       3.587   0.795   0.237  1.00  0.00    -0.389 N 
HETATM   19  C7  UNL     1       4.296   1.830  -0.364  1.00  0.00     0.139 C 
HETATM   20  C6  UNL     1       5.802   1.558  -0.202  1.00  0.00     0.147 C 
HETATM   21  N1  UNL     1       6.117   0.165  -0.411  1.00  0.00    -0.325 N 
HETATM   22  C5  UNL     1       7.446  -0.154  -0.795  1.00  0.00     0.363 C 
HETATM   23  C27 UNL     1       5.179  -0.916  -0.253  1.00  0.00     0.147 C 
HETATM   24  O2  UNL     1       8.344   0.740  -0.947  1.00  0.00    -0.238 OA
HETATM   25  C26 UNL     1       3.740  -0.433  -0.462  1.00  0.00     0.139 C 
BRANCH  22  26
HETATM   26  O1  UNL     1       7.884  -1.461  -1.038  1.00  0.00    -0.294 OA
BRANCH  26  27
HETATM   27  C2  UNL     1       9.228  -1.728  -1.419  1.00  0.00     0.061 C 
HETATM   28  C1  UNL     1       9.624  -1.050  -2.690  1.00  0.00     0.046 C 
HETATM   29  C3  UNL     1      10.183  -1.311  -0.295  1.00  0.00     0.046 C 
HETATM   30  C4  UNL     1       9.343  -3.231  -1.580  1.00  0.00     0.046 C 
ENDBRANCH  26  27
ENDBRANCH  22  26
ENDBRANCH  17  18
BRANCH  17  31
HETATM   31  C22 UNL     1       2.979   1.584   2.438  1.00  0.00    -0.013 C 
HETATM   32  C23 UNL     1       1.744   1.677   3.378  1.00  0.00     0.018 C 
HETATM   33  C24 UNL     1       3.479   2.987   2.351  1.00  0.00     0.018 C 
HETATM   34  C25 UNL     1       3.967   0.733   3.158  1.00  0.00     0.018 C 
ENDBRANCH  17  31
ENDBRANCH  15  17
ENDBRANCH  13  15
ENDBRANCH   1  13
BRANCH   9  35
HETATM   35  C14 UNL     1      -8.194  -0.897  -0.133  1.00  0.00     0.060 A 
HETATM   36  C15 UNL     1      -9.147  -0.034   0.350  1.00  0.00     0.033 A 
HETATM   37  C16 UNL     1     -10.433  -0.476   0.670  1.00  0.00     0.027 A 
HETATM   38  C17 UNL     1     -10.819  -1.781   0.523  1.00  0.00     0.081 A 
HETATM   39  C18 UNL     1      -9.873  -2.650   0.040  1.00  0.00     0.054 A 
HETATM   40  C19 UNL     1      -8.607  -2.233  -0.278  1.00  0.00     0.074 A 
HETATM   41  N8  UNL     1      -7.624  -3.158  -0.781  1.00  0.00    -0.100 NA
BRANCH  38  42
HETATM   42  S2  UNL     1     -12.435  -2.305   0.931  1.00  0.00     0.256 S 
HETATM   43  O5  UNL     1     -12.383  -3.743   1.352  1.00  0.00    -0.201 OA
HETATM   44  O6  UNL     1     -13.004  -1.434   2.016  1.00  0.00    -0.201 OA
BRANCH  42  45
HETATM   45  N7  UNL     1     -13.413  -2.175  -0.485  1.00  0.00    -0.324 N 
ATOM     46  H72 UNL     1     -13.089  -1.847  -1.395  1.00  0.00     0.169 HD
ATOM     47  H71 UNL     1     -14.356  -2.481  -0.247  1.00  0.00     0.169 HD
ENDBRANCH  42  45
ENDBRANCH  38  42
ENDBRANCH   9  35
TORSDOF 10
