REMARK  4 active torsions:
REMARK  status: ('A' for Active; 'I' for Inactive)
REMARK    1  A    between atoms: C9_12  and  C10_13 
REMARK    2  A    between atoms: C24_32  and  C25_33 
REMARK    3  A    between atoms: C25_33  and  N4_34 
REMARK       I    between atoms: N4_34  and  C26_36 
REMARK    4  A    between atoms: C27_39  and  O6_40 
ROOT
HETATM    1  C1  UNL     1      -5.620  -1.468  -1.528  1.00  0.00     0.019 C 
HETATM    2  C2  UNL     1      -5.391  -0.842  -0.156  1.00  0.00    -0.005 C 
HETATM    3  C3  UNL     1      -6.109   0.481  -0.139  1.00  0.00     0.019 C 
HETATM    4  C4  UNL     1      -5.855  -1.757   0.948  1.00  0.00     0.191 C 
HETATM    5  O1  UNL     1      -5.333  -1.363   2.179  1.00  0.00    -0.303 OA
HETATM    6  C5  UNL     1      -4.393  -0.361   2.366  1.00  0.00     0.363 C 
HETATM    7  O2  UNL     1      -4.317   0.254   3.447  1.00  0.00    -0.238 OA
HETATM    8  N1  UNL     1      -3.526  -0.079   1.258  1.00  0.00    -0.317 N 
HETATM    9  C6  UNL     1      -3.889  -0.690  -0.005  1.00  0.00     0.100 C 
HETATM   10  C7  UNL     1      -3.334   0.027  -1.185  1.00  0.00     0.032 C 
HETATM   11  C8  UNL     1      -1.988   0.658  -0.962  1.00  0.00     0.005 C 
HETATM   12  C9  UNL     1      -2.079   2.060  -0.429  1.00  0.00     0.081 C 
HETATM   13  C11 UNL     1      -2.609   2.119   0.971  1.00  0.00     0.040 C 
HETATM   14  C12 UNL     1      -2.440   0.783   1.644  1.00  0.00     0.099 C 
HETATM   15  C13 UNL     1      -1.077   0.156   1.321  1.00  0.00    -0.019 C 
HETATM   16  C14 UNL     1      -1.011  -1.111   2.184  1.00  0.00     0.018 C 
HETATM   17  C15 UNL     1      -0.032   1.083   1.792  1.00  0.00     0.012 C 
HETATM   18  C16 UNL     1       1.284   1.007   1.118  1.00  0.00     0.007 C 
HETATM   19  C17 UNL     1       1.428  -0.133   0.159  1.00  0.00     0.001 C 
HETATM   20  C18 UNL     1       0.271  -0.323  -0.749  1.00  0.00    -0.004 C 
HETATM   21  C19 UNL     1       0.453  -1.662  -1.461  1.00  0.00     0.006 C 
HETATM   22  C20 UNL     1       1.694  -1.595  -2.275  1.00  0.00     0.006 C 
HETATM   23  C21 UNL     1       2.926  -1.214  -1.508  1.00  0.00    -0.002 C 
HETATM   24  C22 UNL     1       3.368  -2.384  -0.695  1.00  0.00     0.033 C 
HETATM   25  C23 UNL     1       4.897  -2.474  -0.786  1.00  0.00     0.233 C 
HETATM   26  N3  UNL     1       5.406  -1.574   0.232  1.00  0.00    -0.067 N 
ATOM     27  H31 UNL     1       6.379  -1.752   0.481  1.00  0.00     0.277 HD
ATOM     28  H32 UNL     1       5.008  -1.740   1.156  1.00  0.00     0.277 HD
HETATM   29  C24 UNL     1       5.171  -0.211  -0.270  1.00  0.00     0.232 C 
HETATM   30  C27 UNL     1       3.854   0.299   0.233  1.00  0.00     0.159 C 
HETATM   31  C28 UNL     1       2.694   0.038  -0.661  1.00  0.00    -0.008 C 
HETATM   32  C29 UNL     1       2.584   1.188  -1.641  1.00  0.00     0.018 C 
HETATM   33  C30 UNL     1      -1.072  -0.214  -0.110  1.00  0.00     0.005 C 
ENDROOT
BRANCH  29  34
HETATM   34  C25 UNL     1       6.309   0.621   0.341  1.00  0.00     0.161 C 
BRANCH  34  35
HETATM   35  N4  UNL     1       6.283   0.592   1.762  1.00  0.00    -0.333 N 
HETATM   36  C26 UNL     1       7.257   1.301   2.502  1.00  0.00     0.283 C 
HETATM   37  O4  UNL     1       8.146   1.959   1.909  1.00  0.00    -0.630 OA
HETATM   38  O5  UNL     1       7.286   1.313   3.896  1.00  0.00    -0.630 OA
ATOM     39  H4  UNL     1       5.561   0.059   2.248  1.00  0.00     0.165 HD
ENDBRANCH  34  35
ENDBRANCH  29  34
BRANCH  30  40
HETATM   40  O6  UNL     1       3.999   1.699   0.381  1.00  0.00    -0.393 OA
ATOM     41  H6  UNL     1       3.164   2.022   0.700  1.00  0.00     0.210 HD
ENDBRANCH  30  40
BRANCH  12  42
HETATM   42  C10 UNL     1      -2.964   2.823  -1.357  1.00  0.00     0.235 C 
HETATM   43  N2  UNL     1      -2.600   2.952  -2.728  1.00  0.00    -0.062 NA
HETATM   44  O3  UNL     1      -4.027   3.360  -0.970  1.00  0.00    -0.276 OA
ENDBRANCH  12  42
TORSDOF 4
