REMARK  9 active torsions:
REMARK  status: ('A' for Active; 'I' for Inactive)
REMARK    1  A    between atoms: N1_2  and  C2_4 
REMARK    2  A    between atoms: C2_4  and  O1_5 
REMARK    3  A    between atoms: C2_4  and  C3_7 
REMARK    4  A    between atoms: C3_7  and  N2_8 
REMARK       I    between atoms: N2_8  and  C4_10 
REMARK    5  A    between atoms: C4_10  and  C5_12 
REMARK    6  A    between atoms: N5_30  and  C16_31 
REMARK    7  A    between atoms: C16_31  and  O5_32 
REMARK    8  A    between atoms: C16_31  and  C17_34 
REMARK    9  A    between atoms: C24_41  and  C25_42 
ROOT
HETATM    1  C3  UNL     1       0.814  -1.101  -0.693  1.00  0.00     0.102 C 
HETATM    2  C12 UNL     1      -0.219   0.059  -0.994  1.00  0.00     0.050 C 
HETATM    3  C13 UNL     1      -1.460  -0.221  -0.276  1.00  0.00    -0.034 C 
HETATM    4  C14 UNL     1      -1.837   1.002   0.541  1.00  0.00     0.029 C 
HETATM    5  C15 UNL     1      -3.127   0.876   1.274  1.00  0.00     0.125 C 
HETATM    6  N5  UNL     1      -4.174   0.362   0.473  1.00  0.00    -0.365 N 
HETATM    7  C21 UNL     1      -3.854  -0.760  -0.450  1.00  0.00     0.125 C 
HETATM    8  C22 UNL     1      -2.624  -0.472  -1.227  1.00  0.00     0.029 C 
HETATM    9  C23 UNL     1      -1.233  -1.367   0.642  1.00  0.00     0.018 C 
HETATM   10  C24 UNL     1       0.195  -1.805   0.427  1.00  0.00     0.030 C 
ENDROOT
BRANCH   1  11
HETATM   11  C2  UNL     1       1.105  -1.827  -1.900  1.00  0.00     0.140 C 
BRANCH  11  12
HETATM   12  N1  UNL     1       2.072  -2.797  -2.191  1.00  0.00    -0.377 N 
HETATM   13  C1  UNL     1       2.130  -3.463  -3.511  1.00  0.00     0.148 C 
ATOM     14  H1  UNL     1       2.753  -3.051  -1.475  1.00  0.00     0.160 HD
ENDBRANCH  11  12
BRANCH  11  15
HETATM   15  O1  UNL     1       0.335  -1.538  -2.911  1.00  0.00    -0.348 OA
ATOM     16  H1  UNL     1      -0.321  -0.880  -2.714  1.00  0.00     0.219 HD
ENDBRANCH  11  15
ENDBRANCH   1  11
BRANCH   1  17
HETATM   17  N2  UNL     1       1.913  -0.262  -0.304  1.00  0.00    -0.337 N 
HETATM   18  C4  UNL     1       2.705   0.472  -1.257  1.00  0.00     0.287 C 
HETATM   19  O2  UNL     1       2.585   0.393  -2.474  1.00  0.00    -0.264 OA
ATOM     20  H2  UNL     1       2.142  -0.183   0.687  1.00  0.00     0.164 HD
BRANCH  18  21
HETATM   21  C5  UNL     1       3.713   1.345  -0.590  1.00  0.00     0.184 C 
HETATM   22  N3  UNL     1       4.982   0.766  -0.397  1.00  0.00    -0.336 N 
HETATM   23  C6  UNL     1       6.010   1.542   0.233  1.00  0.00     0.057 A 
ATOM     24  H3  UNL     1       5.167  -0.190  -0.700  1.00  0.00     0.168 HD
HETATM   25  C7  UNL     1       7.235   0.957   0.429  1.00  0.00     0.031 A 
HETATM   26  C11 UNL     1       5.858   2.859   0.595  1.00  0.00     0.106 A 
HETATM   27  C8  UNL     1       8.275   1.685   0.964  1.00  0.00     0.002 A 
HETATM   28  C9  UNL     1       8.107   3.023   1.319  1.00  0.00     0.002 A 
HETATM   29  C10 UNL     1       6.880   3.632   1.138  1.00  0.00     0.027 A 
HETATM   30  S1  UNL     1       4.240   3.571   0.510  1.00  0.00     0.266 S 
HETATM   31  O3  UNL     1       4.117   4.339  -0.740  1.00  0.00    -0.200 OA
HETATM   32  O4  UNL     1       3.964   4.339   1.757  1.00  0.00    -0.200 OA
HETATM   33  N4  UNL     1       3.181   2.175   0.427  1.00  0.00    -0.261 N 
ATOM     34  H4  UNL     1       2.352   1.997   0.995  1.00  0.00     0.180 HD
ENDBRANCH  18  21
ENDBRANCH   1  17
BRANCH  10  35
HETATM   35  C25 UNL     1       0.247  -3.259   0.611  1.00  0.00    -0.045 C 
HETATM   36  C26 UNL     1       1.581  -3.900   0.804  1.00  0.00     0.015 C 
HETATM   37  C27 UNL     1      -0.500  -3.529   1.940  1.00  0.00     0.015 C 
HETATM   38  C28 UNL     1      -0.554  -4.029  -0.433  1.00  0.00     0.015 C 
ENDBRANCH  10  35
BRANCH   6  39
HETATM   39  C16 UNL     1      -5.497   0.845   0.276  1.00  0.00     0.121 C 
BRANCH  39  40
HETATM   40  O5  UNL     1      -6.341   0.020  -0.299  1.00  0.00    -0.349 OA
ATOM     41  H5  UNL     1      -7.225   0.343  -0.431  1.00  0.00     0.219 HD
ENDBRANCH  39  40
BRANCH  39  42
HETATM   42  C17 UNL     1      -6.080   2.144   0.602  1.00  0.00     0.014 C 
HETATM   43  C18 UNL     1      -7.198   2.370  -0.504  1.00  0.00     0.023 C 
HETATM   44  C19 UNL     1      -5.066   3.254   0.319  1.00  0.00     0.023 C 
HETATM   45  C20 UNL     1      -6.781   2.273   1.886  1.00  0.00     0.023 C 
ENDBRANCH  39  42
ENDBRANCH   6  39
TORSDOF 9
