REMARK  7 active torsions:
REMARK  status: ('A' for Active; 'I' for Inactive)
REMARK    1  A    between atoms: O1_1  and  C1_3 
REMARK    2  A    between atoms: C1_3  and  C2_4 
REMARK    3  A    between atoms: C1_3  and  N3_19 
REMARK    4  A    between atoms: C2_4  and  N1_5 
REMARK    5  A    between atoms: N3_19  and  N4_20 
REMARK       I    between atoms: N4_20  and  C12_22 
REMARK       I    between atoms: C12_22  and  N5_24 
REMARK    6  A    between atoms: N5_24  and  C13_26 
REMARK    7  A    between atoms: C14_29  and  C15_30 
ROOT
HETATM    1  N4  UNL     1      -0.044  -0.007   1.463  1.00  0.00    -0.182 N 
ATOM      2  H4  UNL     1      -0.398   0.788   1.996  1.00  0.00     0.207 HD
HETATM    3  C12 UNL     1      -0.990  -0.982   1.006  1.00  0.00     0.347 C 
HETATM    4  O3  UNL     1      -0.467  -2.056   0.545  1.00  0.00    -0.245 OA
HETATM    5  N5  UNL     1      -2.386  -0.744   1.037  1.00  0.00    -0.307 N 
ATOM      6  H5  UNL     1      -2.734   0.126   1.441  1.00  0.00     0.167 HD
ENDROOT
BRANCH   1   7
HETATM    7  N3  UNL     1       1.281  -0.072   1.235  1.00  0.00    -0.299 NA
BRANCH   7   8
HETATM    8  C1  UNL     1       2.593  -0.134   1.007  1.00  0.00     0.233 C 
BRANCH   8   9
HETATM    9  O1  UNL     1       3.168   0.813   0.262  1.00  0.00    -0.336 OA
ATOM     10  H1  UNL     1       2.546   1.467  -0.034  1.00  0.00     0.220 HD
ENDBRANCH   8   9
BRANCH   8  11
HETATM   11  C2  UNL     1       3.566  -1.158   1.471  1.00  0.00     0.236 C 
BRANCH  11  12
HETATM   12  N1  UNL     1       4.889  -0.851   0.960  1.00  0.00    -0.285 N 
HETATM   13  C3  UNL     1       5.750  -0.065   1.763  1.00  0.00     0.230 C 
HETATM   14  O2  UNL     1       5.227   0.686   2.585  1.00  0.00    -0.273 OA
HETATM   15  C4  UNL     1       7.255  -0.046   1.745  1.00  0.00     0.144 C 
HETATM   16  C5  UNL     1       7.792   0.348   0.427  1.00  0.00    -0.023 A 
HETATM   17  C6  UNL     1       8.823   1.256   0.541  1.00  0.00     0.010 A 
HETATM   18  C10 UNL     1       7.403  -0.071  -0.819  1.00  0.00     0.041 A 
HETATM   19  C7  UNL     1       9.482   1.765  -0.577  1.00  0.00     0.001 A 
HETATM   20  C8  UNL     1       9.074   1.336  -1.822  1.00  0.00     0.002 A 
HETATM   21  C9  UNL     1       8.038   0.421  -1.932  1.00  0.00     0.030 A 
HETATM   22  N2  UNL     1       6.353  -0.995  -1.147  1.00  0.00    -0.332 N 
HETATM   23  C11 UNL     1       5.232  -1.320  -0.346  1.00  0.00     0.181 C 
ATOM     24  H2  UNL     1       6.422  -1.465  -2.050  1.00  0.00     0.168 HD
HETATM   25  S1  UNL     1       4.123  -2.351  -0.991  1.00  0.00    -0.040 SA
ENDBRANCH  11  12
ENDBRANCH   8  11
ENDBRANCH   7   8
ENDBRANCH   1   7
BRANCH   5  26
HETATM   26  C13 UNL     1      -3.320  -1.693   0.516  1.00  0.00     0.317 C 
HETATM   27  N6  UNL     1      -4.713  -1.397   0.699  1.00  0.00    -0.355 N 
HETATM   28  C14 UNL     1      -5.410  -0.430   0.110  1.00  0.00     0.052 C 
ATOM     29  H6  UNL     1      -5.223  -1.993   1.351  1.00  0.00     0.162 HD
HETATM   30  C21 UNL     1      -4.899   0.377  -0.973  1.00  0.00     0.013 A 
HETATM   31  C22 UNL     1      -5.447   1.654  -1.250  1.00  0.00     0.015 A 
HETATM   32  C26 UNL     1      -3.626   0.149  -1.522  1.00  0.00     0.075 A 
HETATM   33  C23 UNL     1      -4.772   2.590  -1.999  1.00  0.00     0.001 A 
HETATM   34  C24 UNL     1      -3.520   2.301  -2.506  1.00  0.00     0.002 A 
HETATM   35  C25 UNL     1      -2.966   1.052  -2.244  1.00  0.00     0.024 A 
HETATM   36  S2  UNL     1      -3.128  -1.506  -1.311  1.00  0.00     0.216 S 
HETATM   37  O4  UNL     1      -4.233  -2.356  -1.929  1.00  0.00    -0.219 OA
HETATM   38  O5  UNL     1      -1.803  -1.840  -1.792  1.00  0.00    -0.219 OA
BRANCH  28  39
HETATM   39  C15 UNL     1      -6.827  -0.407   0.528  1.00  0.00    -0.009 A 
HETATM   40  C16 UNL     1      -7.860   0.242  -0.041  1.00  0.00     0.014 A 
HETATM   41  C17 UNL     1      -9.150   0.353   0.421  1.00  0.00     0.001 A 
HETATM   42  C18 UNL     1      -9.430  -0.283   1.617  1.00  0.00     0.000 A 
HETATM   43  C19 UNL     1      -8.407  -0.987   2.275  1.00  0.00     0.001 A 
HETATM   44  C20 UNL     1      -7.149  -1.042   1.746  1.00  0.00     0.014 A 
ENDBRANCH  28  39
ENDBRANCH   5  26
TORSDOF 7
