REMARK  6 active torsions:
REMARK  status: ('A' for Active; 'I' for Inactive)
REMARK       I    between atoms: C2_3  and  N2_5 
REMARK       I    between atoms: N3_8  and  C5_9 
REMARK    1  A    between atoms: C5_9  and  C6_11 
REMARK    2  A    between atoms: C9_14  and  C10_15 
REMARK    3  A    between atoms: C10_15  and  C11_16 
REMARK    4  A    between atoms: C12_17  and  C13_18 
REMARK       I    between atoms: N6_28  and  C19_29 
REMARK       I    between atoms: C19_29  and  N7_31 
REMARK    5  A    between atoms: N7_31  and  C20_33 
REMARK    6  A    between atoms: C23_36  and  O4_37 
ROOT
HETATM    1  C1  UNL     1       9.895  -0.113  -0.022  1.00  0.00     0.234 C 
HETATM    2  N1  UNL     1       8.850   0.610   0.487  1.00  0.00    -0.376 NA
HETATM    3  C2  UNL     1       7.817   1.324   0.989  1.00  0.00     0.394 C 
HETATM    4  O1  UNL     1       7.849   2.171   1.920  1.00  0.00    -0.230 OA
HETATM    5  N2  UNL     1       6.475   1.155   0.444  1.00  0.00    -0.319 N 
HETATM    6  C3  UNL     1       6.328   0.262  -0.659  1.00  0.00     0.148 C 
HETATM    7  C4  UNL     1       4.945   0.190  -1.186  1.00  0.00     0.145 C 
HETATM    8  N3  UNL     1       3.906   0.211  -0.178  1.00  0.00    -0.349 N 
HETATM    9  C5  UNL     1       2.883  -0.719  -0.244  1.00  0.00     0.225 C 
HETATM   10  O2  UNL     1       2.922  -1.553  -1.227  1.00  0.00    -0.273 OA
HETATM   11  C28 UNL     1       4.014   1.218   0.828  1.00  0.00     0.145 C 
HETATM   12  C29 UNL     1       5.359   1.844   0.990  1.00  0.00     0.148 C 
ENDROOT
BRANCH   9  13
HETATM   13  C6  UNL     1       1.712  -0.897   0.680  1.00  0.00     0.090 C 
HETATM   14  C7  UNL     1       0.999  -2.205   0.247  1.00  0.00     0.096 C 
HETATM   15  C8  UNL     1      -0.285  -1.954  -0.217  1.00  0.00    -0.155 C 
HETATM   16  C9  UNL     1      -1.570  -1.398  -0.559  1.00  0.00     0.176 C 
HETATM   17  N6  UNL     1      -1.476   0.031  -0.098  1.00  0.00    -0.318 N 
HETATM   18  C19 UNL     1      -2.142   1.019  -0.788  1.00  0.00     0.319 C 
HETATM   19  C26 UNL     1      -0.557   0.420   0.960  1.00  0.00     0.130 C 
HETATM   20  O3  UNL     1      -2.476   0.726  -1.997  1.00  0.00    -0.247 OA
HETATM   21  N7  UNL     1      -2.492   2.283  -0.304  1.00  0.00    -0.338 N 
ATOM     22  H7  UNL     1      -2.241   2.488   0.663  1.00  0.00     0.164 HD
HETATM   23  C27 UNL     1       0.897   0.348   0.559  1.00  0.00     0.035 C 
BRANCH  16  24
HETATM   24  C10 UNL     1      -2.702  -2.062   0.213  1.00  0.00     0.054 C 
HETATM   25  C16 UNL     1      -4.084  -1.745  -0.312  1.00  0.00     0.026 C 
HETATM   26  C17 UNL     1      -4.597  -1.507   1.090  1.00  0.00     0.004 C 
HETATM   27  C18 UNL     1      -3.109  -1.549   1.511  1.00  0.00     0.026 C 
BRANCH  24  28
HETATM   28  C11 UNL     1      -2.559  -3.556   0.233  1.00  0.00    -0.086 C 
HETATM   29  C12 UNL     1      -2.498  -4.754   0.283  1.00  0.00    -0.046 C 
BRANCH  29  30
HETATM   30  C13 UNL     1      -2.474  -6.193   0.372  1.00  0.00     0.102 A 
HETATM   31  C14 UNL     1      -3.062  -6.934   1.414  1.00  0.00     0.059 A 
HETATM   32  C15 UNL     1      -2.873  -8.273   1.180  1.00  0.00     0.110 A 
HETATM   33  N4  UNL     1      -2.192  -8.347   0.037  1.00  0.00    -0.311 N 
HETATM   34  N5  UNL     1      -1.952  -7.118  -0.448  1.00  0.00    -0.293 N 
ATOM     35  H4  UNL     1      -1.895  -9.216  -0.407  1.00  0.00     0.186 HD
ATOM     36  H5  UNL     1      -1.448  -6.917  -1.312  1.00  0.00     0.187 HD
ENDBRANCH  29  30
ENDBRANCH  24  28
ENDBRANCH  16  24
BRANCH  21  37
HETATM   37  C20 UNL     1      -3.170   3.325  -1.029  1.00  0.00     0.086 C 
HETATM   38  C21 UNL     1      -3.489   4.441  -0.065  1.00  0.00     0.028 C 
HETATM   39  C22 UNL     1      -4.057   5.618  -0.807  1.00  0.00     0.034 C 
HETATM   40  C23 UNL     1      -5.342   5.192  -1.472  1.00  0.00     0.118 C 
HETATM   41  C24 UNL     1      -5.195   3.944  -2.296  1.00  0.00     0.034 C 
HETATM   42  C25 UNL     1      -4.542   2.818  -1.495  1.00  0.00     0.028 C 
BRANCH  40  43
HETATM   43  O4  UNL     1      -6.317   5.007  -0.534  1.00  0.00    -0.396 OA
ATOM     44  H4  UNL     1      -7.126   4.739  -0.953  1.00  0.00     0.210 HD
ENDBRANCH  40  43
ENDBRANCH  21  37
ENDBRANCH   9  13
TORSDOF 5
