REMARK  8 active torsions:
REMARK  status: ('A' for Active; 'I' for Inactive)
REMARK       I    between atoms: C2_2  and  N1_4 
REMARK    1  A    between atoms: N2_7  and  C5_8 
REMARK    2  A    between atoms: C5_8  and  O2_9 
REMARK    3  A    between atoms: N3_11  and  C6_13 
REMARK    4  A    between atoms: C6_13  and  N6_46 
REMARK    5  A    between atoms: C7_14  and  C8_15 
REMARK    6  A    between atoms: C8_15  and  N4_16 
REMARK    7  A    between atoms: C8_15  and  C16_27 
REMARK       I    between atoms: N4_16  and  C9_18 
REMARK       I    between atoms: C9_18  and  N5_20 
REMARK    8  A    between atoms: C16_27  and  O4_28 
ROOT
HETATM    1  N6  UNL     1       3.646   1.362   0.149  1.00  0.00    -0.279 N 
ATOM      2  H6  UNL     1       3.467   0.879   1.029  1.00  0.00     0.179 HD
HETATM    3  C32 UNL     1       4.576   2.437   0.082  1.00  0.00     0.183 C 
HETATM    4  N7  UNL     1       5.339   3.321   0.042  1.00  0.00    -0.172 NA
ENDROOT
BRANCH   1   5
HETATM    5  C6  UNL     1       2.976   0.980  -1.038  1.00  0.00     0.115 C 
HETATM    6  C7  UNL     1       1.668   1.049  -1.172  1.00  0.00     0.050 C 
BRANCH   5   7
HETATM    7  N3  UNL     1       3.731   0.540  -2.145  1.00  0.00    -0.308 N 
HETATM    8  C5  UNL     1       4.365  -0.550  -2.285  1.00  0.00     0.220 C 
ATOM      9  H3  UNL     1       3.773   1.182  -2.937  1.00  0.00     0.171 HD
BRANCH   8  10
HETATM   10  N2  UNL     1       4.510  -1.634  -1.407  1.00  0.00    -0.344 N 
HETATM   11  C4  UNL     1       5.265  -1.533  -0.199  1.00  0.00     0.146 C 
HETATM   12  C3  UNL     1       6.252  -2.660  -0.048  1.00  0.00     0.145 C 
HETATM   13  N1  UNL     1       6.154  -3.581  -1.142  1.00  0.00    -0.349 N 
HETATM   14  C2  UNL     1       7.291  -4.024  -1.829  1.00  0.00     0.215 C 
HETATM   15  C34 UNL     1       4.837  -4.059  -1.547  1.00  0.00     0.145 C 
HETATM   16  C1  UNL     1       7.259  -4.987  -2.955  1.00  0.00     0.117 C 
HETATM   17  O1  UNL     1       8.424  -3.568  -1.461  1.00  0.00    -0.274 OA
HETATM   18  C33 UNL     1       3.882  -2.905  -1.742  1.00  0.00     0.146 C 
ENDBRANCH   8  10
BRANCH   8  19
HETATM   19  O2  UNL     1       5.066  -0.753  -3.536  1.00  0.00    -0.332 OA
ATOM     20  H2  UNL     1       4.968  -0.019  -4.131  1.00  0.00     0.220 HD
ENDBRANCH   8  19
ENDBRANCH   5   7
BRANCH   6  21
HETATM   21  C8  UNL     1       0.757   1.515  -0.032  1.00  0.00     0.147 C 
BRANCH  21  22
HETATM   22  N4  UNL     1      -0.177   2.478  -0.529  1.00  0.00    -0.332 N 
HETATM   23  C9  UNL     1       0.197   3.798  -0.829  1.00  0.00     0.318 C 
HETATM   24  O3  UNL     1       1.427   4.108  -0.666  1.00  0.00    -0.247 OA
HETATM   25  N5  UNL     1      -0.676   4.789  -1.291  1.00  0.00    -0.334 N 
HETATM   26  C10 UNL     1      -2.115   4.644  -1.468  1.00  0.00     0.128 C 
HETATM   27  C15 UNL     1      -0.125   6.100  -1.650  1.00  0.00     0.128 C 
HETATM   28  C11 UNL     1      -2.731   5.605  -0.442  1.00  0.00     0.024 C 
HETATM   29  C12 UNL     1      -2.205   6.981  -0.713  1.00  0.00    -0.015 C 
HETATM   30  C13 UNL     1      -3.357   7.923  -0.929  1.00  0.00     0.010 C 
HETATM   31  C14 UNL     1      -1.301   7.027  -1.919  1.00  0.00     0.024 C 
ATOM     32  H4  UNL     1      -1.147   2.196  -0.670  1.00  0.00     0.165 HD
ENDBRANCH  21  22
BRANCH  21  33
HETATM   33  C16 UNL     1       0.161   0.293   0.528  1.00  0.00     0.084 C 
HETATM   34  C17 UNL     1      -0.553  -0.540  -0.568  1.00  0.00     0.072 C 
HETATM   35  C18 UNL     1      -1.121  -1.650   0.357  1.00  0.00     0.130 C 
HETATM   36  O5  UNL     1      -1.986  -2.313  -0.497  1.00  0.00    -0.374 OA
HETATM   37  C30 UNL     1      -1.420  -1.040   1.598  1.00  0.00     0.022 C 
HETATM   38  C19 UNL     1      -3.017  -2.751   0.193  1.00  0.00     0.062 C 
HETATM   39  C20 UNL     1      -2.539  -3.759   1.155  1.00  0.00     0.043 C 
HETATM   40  C22 UNL     1      -4.027  -3.787  -0.083  1.00  0.00     0.043 C 
HETATM   41  C27 UNL     1      -3.822  -1.563   0.505  1.00  0.00     0.044 C 
HETATM   42  C21 UNL     1      -3.971  -4.024   1.439  1.00  0.00    -0.001 C 
HETATM   43  C23 UNL     1      -4.453  -2.909   2.294  1.00  0.00    -0.040 C 
HETATM   44  C24 UNL     1      -5.980  -2.897   2.141  1.00  0.00     0.015 C 
HETATM   45  C25 UNL     1      -4.191  -3.308   3.734  1.00  0.00     0.015 C 
HETATM   46  C26 UNL     1      -3.912  -1.563   2.003  1.00  0.00     0.001 C 
HETATM   47  C28 UNL     1      -2.572  -1.178   2.486  1.00  0.00    -0.007 C 
HETATM   48  C29 UNL     1      -2.765   0.164   3.217  1.00  0.00     0.011 C 
HETATM   49  C31 UNL     1      -1.039   0.460   1.424  1.00  0.00     0.048 C 
BRANCH  33  50
HETATM   50  O4  UNL     1       1.118  -0.587   1.030  1.00  0.00    -0.387 OA
ATOM     51  H4  UNL     1       0.733  -1.377   1.392  1.00  0.00     0.210 HD
ENDBRANCH  33  50
ENDBRANCH  21  33
ENDBRANCH   6  21
ENDBRANCH   1   5
TORSDOF 8
