REMARK  3 active torsions:
REMARK  status: ('A' for Active; 'I' for Inactive)
REMARK    1  A    between atoms: C3_3  and  N1_4 
REMARK    2  A    between atoms: N1_4  and  C4_6 
REMARK    3  A    between atoms: C10_12  and  N2_13 
ROOT
HETATM    1  C1  UNL     1       5.886   2.122   0.675  1.00  0.00     0.018 C 
HETATM    2  C2  UNL     1       4.719   1.826   0.782  1.00  0.00    -0.073 C 
HETATM    3  C3  UNL     1       3.288   1.439   0.902  1.00  0.00     0.148 C 
ENDROOT
BRANCH   3   4
HETATM    4  N1  UNL     1       3.102   0.306   0.100  1.00  0.00    -0.383 N 
ATOM      5  H1  UNL     1       3.896  -0.067  -0.420  1.00  0.00     0.160 HD
BRANCH   4   6
HETATM    6  C4  UNL     1       1.865  -0.327  -0.009  1.00  0.00     0.036 C 
HETATM    7  C5  UNL     1       2.036  -1.406  -1.098  1.00  0.00     0.036 C 
HETATM    8  C6  UNL     1       0.987  -2.396  -0.638  1.00  0.00    -0.009 C 
HETATM    9  C7  UNL     1       1.380  -2.553   0.806  1.00  0.00     0.012 C 
HETATM   10  C16 UNL     1      -0.328  -1.695  -0.833  1.00  0.00     0.036 C 
HETATM   11  C8  UNL     1       1.411  -1.075   1.221  1.00  0.00     0.016 C 
HETATM   12  C9  UNL     1      -0.065  -0.726   1.425  1.00  0.00     0.038 C 
HETATM   13  C10 UNL     1      -0.480  -0.432  -0.021  1.00  0.00     0.035 C 
HETATM   14  C17 UNL     1       0.679   0.488  -0.404  1.00  0.00     0.062 C 
BRANCH  13  15
HETATM   15  N2  UNL     1      -1.753   0.122  -0.175  1.00  0.00    -0.384 N 
HETATM   16  C11 UNL     1      -2.014   1.382   0.384  1.00  0.00     0.059 C 
HETATM   17  C12 UNL     1      -3.380   1.915   0.247  1.00  0.00     0.044 C 
HETATM   18  C13 UNL     1      -4.203   1.448  -0.895  1.00  0.00     0.007 C 
HETATM   19  C14 UNL     1      -4.027  -0.020  -1.077  1.00  0.00     0.020 C 
HETATM   20  C15 UNL     1      -2.522  -0.243  -1.316  1.00  0.00     0.123 C 
ENDBRANCH  13  15
ENDBRANCH   4   6
ENDBRANCH   3   4
TORSDOF 3
