REMARK  3 active torsions:
REMARK  status: ('A' for Active; 'I' for Inactive)
REMARK    1  A    between atoms: C2_2  and  S1_3 
REMARK    2  A    between atoms: S1_3  and  C3_5 
REMARK    3  A    between atoms: C6_8  and  C7_9 
ROOT
HETATM    1  C3  UNL     1       2.415  -0.547  -0.636  1.00  0.00     0.112 C 
HETATM    2  C4  UNL     1       1.778   0.801  -0.889  1.00  0.00     0.022 C 
HETATM    3  C5  UNL     1       0.310   0.601  -1.067  1.00  0.00     0.037 C 
HETATM    4  C6  UNL     1      -0.256  -0.596  -0.413  1.00  0.00     0.226 C 
HETATM    5  N1  UNL     1       0.440  -1.094   0.719  1.00  0.00     0.090 N 
HETATM    6  C13 UNL     1       0.007  -2.463   0.948  1.00  0.00     0.310 C 
HETATM    7  C14 UNL     1       1.854  -1.050   0.667  1.00  0.00     0.290 C 
ENDROOT
BRANCH   4   8
HETATM    8  C7  UNL     1      -1.703  -0.386  -0.001  1.00  0.00     0.019 C 
HETATM    9  C8  UNL     1      -1.853   0.757   0.973  1.00  0.00     0.007 C 
HETATM   10  C9  UNL     1      -3.283   0.637   1.518  1.00  0.00     0.000 C 
HETATM   11  C10 UNL     1      -4.205   0.963   0.371  1.00  0.00     0.000 C 
HETATM   12  C11 UNL     1      -3.966   0.168  -0.854  1.00  0.00     0.000 C 
HETATM   13  C12 UNL     1      -2.549  -0.076  -1.208  1.00  0.00     0.007 C 
ENDBRANCH   4   8
BRANCH   1  14
HETATM   14  S1  UNL     1       4.177  -0.376  -0.499  1.00  0.00     0.044 S 
HETATM   15  O1  UNL     1       4.764   0.268  -1.930  1.00  0.00    -0.253 OA
BRANCH  14  16
HETATM   16  C2  UNL     1       4.614   0.692   0.822  1.00  0.00     0.069 C 
HETATM   17  C1  UNL     1       5.705   1.425   0.730  1.00  0.00     0.021 C 
ENDBRANCH  14  16
ENDBRANCH   1  14
TORSDOF 3
