REMARK  2 active torsions:
REMARK  status: ('A' for Active; 'I' for Inactive)
REMARK       I    between atoms: C1_2  and  N1_3 
REMARK    1  A    between atoms: C1_2  and  C12_15 
REMARK    2  A    between atoms: N1_3  and  C2_5 
ROOT
HETATM    1  C2  UNL     1      -0.687  -0.700  -0.338  1.00  0.00     0.092 C 
HETATM    2  C3  UNL     1      -1.512  -0.826   0.905  1.00  0.00     0.009 C 
HETATM    3  C4  UNL     1      -2.847  -1.436   0.480  1.00  0.00     0.011 C 
HETATM    4  C5  UNL     1      -3.538  -0.483  -0.451  1.00  0.00    -0.013 C 
HETATM    5  C6  UNL     1      -3.737   0.847   0.256  1.00  0.00     0.009 C 
HETATM    6  C7  UNL     1      -2.398   1.474   0.575  1.00  0.00    -0.013 C 
HETATM    7  C8  UNL     1      -1.707   0.507   1.537  1.00  0.00     0.011 C 
HETATM    8  C9  UNL     1      -1.514   1.626  -0.619  1.00  0.00     0.011 C 
HETATM    9  C10 UNL     1      -1.324   0.286  -1.272  1.00  0.00     0.009 C 
HETATM   10  C11 UNL     1      -2.717  -0.218  -1.674  1.00  0.00     0.011 C 
ENDROOT
BRANCH   1  11
HETATM   11  N1  UNL     1       0.640  -0.289   0.004  1.00  0.00    -0.354 N 
HETATM   12  C1  UNL     1       1.760  -1.108  -0.267  1.00  0.00     0.247 C 
HETATM   13  O1  UNL     1       1.581  -2.213  -0.818  1.00  0.00    -0.271 OA
ATOM     14  H1  UNL     1       0.781   0.616   0.454  1.00  0.00     0.163 HD
BRANCH  12  15
HETATM   15  C12 UNL     1       3.091  -0.659   0.094  1.00  0.00     0.213 C 
HETATM   16  C13 UNL     1       3.528   0.612  -0.605  1.00  0.00     0.043 C 
HETATM   17  C14 UNL     1       5.030   0.603  -0.288  1.00  0.00     0.029 C 
HETATM   18  C15 UNL     1       5.230  -0.817   0.221  1.00  0.00     0.168 C 
HETATM   19  O2  UNL     1       4.110  -1.528  -0.213  1.00  0.00    -0.376 OA
ENDBRANCH  12  15
ENDBRANCH   1  11
TORSDOF 2
