REMARK  2 active torsions:
REMARK  status: ('A' for Active; 'I' for Inactive)
REMARK    1  A    between atoms: C2_3  and  C3_4 
REMARK       I    between atoms: C3_4  and  N2_6 
REMARK    2  A    between atoms: N2_6  and  C4_8 
ROOT
HETATM    1  N1  UNL     1       3.847   2.116  -1.953  1.00  0.00    -0.196 NA
HETATM    2  C1  UNL     1       3.553   1.124  -1.450  1.00  0.00     0.079 C 
HETATM    3  C2  UNL     1       3.158  -0.125  -0.810  1.00  0.00     0.129 C 
HETATM    4  C14 UNL     1       3.810  -0.188   0.577  1.00  0.00     0.034 C 
HETATM    5  C15 UNL     1       5.018  -0.810  -0.136  1.00  0.00     0.004 C 
HETATM    6  C16 UNL     1       4.030  -1.302  -1.185  1.00  0.00     0.034 C 
ENDROOT
BRANCH   3   7
HETATM    7  C3  UNL     1       1.711  -0.396  -0.803  1.00  0.00     0.241 C 
HETATM    8  O1  UNL     1       1.327  -1.443  -1.379  1.00  0.00    -0.272 OA
HETATM    9  N2  UNL     1       0.828   0.515  -0.159  1.00  0.00    -0.350 N 
ATOM     10  H2  UNL     1       1.237   1.339   0.282  1.00  0.00     0.163 HD
BRANCH   9  11
HETATM   11  C4  UNL     1      -0.592   0.360  -0.085  1.00  0.00     0.034 C 
HETATM   12  C5  UNL     1      -1.258   0.303  -1.437  1.00  0.00     0.035 C 
HETATM   13  C6  UNL     1      -2.741   0.095  -1.209  1.00  0.00    -0.012 C 
HETATM   14  C7  UNL     1      -3.342   1.243  -0.440  1.00  0.00     0.009 C 
HETATM   15  C11 UNL     1      -3.031  -1.172  -0.458  1.00  0.00     0.009 C 
HETATM   16  C8  UNL     1      -2.648   1.357   0.907  1.00  0.00    -0.012 C 
HETATM   17  C9  UNL     1      -2.912   0.097   1.703  1.00  0.00     0.009 C 
HETATM   18  C13 UNL     1      -1.185   1.542   0.679  1.00  0.00     0.035 C 
HETATM   19  C10 UNL     1      -2.417  -1.064   0.905  1.00  0.00    -0.012 C 
HETATM   20  C12 UNL     1      -0.909  -0.889   0.697  1.00  0.00     0.035 C 
ENDBRANCH   9  11
ENDBRANCH   3   7
TORSDOF 2
