REMARK  2 active torsions:
REMARK  status: ('A' for Active; 'I' for Inactive)
REMARK    1  A    between atoms: C6_9  and  O1_10 
REMARK    2  A    between atoms: O1_10  and  C7_11 
ROOT
HETATM    1  C7  UNL     1      -0.441   0.250  -0.393  1.00  0.00     0.126 C 
HETATM    2  C8  UNL     1      -1.182  -0.109  -1.656  1.00  0.00     0.037 C 
HETATM    3  C9  UNL     1      -2.660  -0.343  -1.411  1.00  0.00    -0.008 C 
HETATM    4  C10 UNL     1      -3.306   0.906  -0.895  1.00  0.00     0.010 C 
HETATM    5  C11 UNL     1      -3.536   0.602   0.555  1.00  0.00    -0.013 C 
HETATM    6  C12 UNL     1      -3.997  -0.855   0.493  1.00  0.00     0.009 C 
HETATM    7  C13 UNL     1      -2.905  -1.438  -0.415  1.00  0.00    -0.010 C 
HETATM    8  C14 UNL     1      -1.692  -1.633   0.504  1.00  0.00     0.012 C 
HETATM    9  C15 UNL     1      -1.190  -0.252   0.837  1.00  0.00     0.015 C 
HETATM   10  C16 UNL     1      -2.241   0.684   1.306  1.00  0.00     0.012 C 
ENDROOT
BRANCH   1  11
HETATM   11  O1  UNL     1       0.821  -0.324  -0.337  1.00  0.00    -0.378 OA
BRANCH  11  12
HETATM   12  C6  UNL     1       1.848   0.579  -0.247  1.00  0.00     0.154 C 
HETATM   13  C3  UNL     1       2.732   0.207   0.945  1.00  0.00     0.215 C 
HETATM   14  C2  UNL     1       3.945   1.074   1.000  1.00  0.00     0.037 C 
HETATM   15  N1  UNL     1       3.298  -1.053   0.428  1.00  0.00    -0.064 N 
HETATM   16  C1  UNL     1       4.896   0.505  -0.064  1.00  0.00     0.035 C 
HETATM   17  C4  UNL     1       3.956  -0.475  -0.757  1.00  0.00     0.189 C 
HETATM   18  C5  UNL     1       2.821   0.259  -1.394  1.00  0.00     0.067 C 
ATOM     19  H12 UNL     1       3.880  -1.597   1.064  1.00  0.00     0.278 HD
ATOM     20  H11 UNL     1       2.649  -1.824   0.270  1.00  0.00     0.278 HD
ENDBRANCH  11  12
ENDBRANCH   1  11
TORSDOF 2
