REMARK  11 active torsions:
REMARK  status: ('A' for Active; 'I' for Inactive)
REMARK    1  A    between atoms: C2_2  and  O2_4 
REMARK    2  A    between atoms: O2_4  and  C3_5 
REMARK    3  A    between atoms: C3_5  and  C4_6 
REMARK    4  A    between atoms: C6_8  and  O3_9 
REMARK    5  A    between atoms: C7_11  and  O4_12 
REMARK    6  A    between atoms: C15_22  and  C16_23 
REMARK    7  A    between atoms: C16_23  and  C18_25 
REMARK    8  A    between atoms: C18_25  and  C19_26 
REMARK    9  A    between atoms: C19_26  and  C20_27 
REMARK   10  A    between atoms: C20_27  and  C21_28 
REMARK   11  A    between atoms: C32_41  and  O6_42 
ROOT
HETATM    1  C4  UNL     1      -4.545   0.827  -0.317  1.00  0.00     0.039 C 
HETATM    2  C5  UNL     1      -4.663   2.062   0.613  1.00  0.00     0.023 C 
HETATM    3  C6  UNL     1      -4.684  -0.363   0.529  1.00  0.00     0.160 C 
HETATM    4  C7  UNL     1      -3.389  -0.713   1.130  1.00  0.00     0.156 C 
HETATM    5  C8  UNL     1      -2.190  -0.866   0.191  1.00  0.00     0.056 C 
HETATM    6  C9  UNL     1      -1.767  -2.252   0.300  1.00  0.00     0.002 C 
HETATM    7  C10 UNL     1      -0.621  -2.954  -0.180  1.00  0.00     0.018 C 
HETATM    8 CL1  UNL     1      -0.732  -3.743  -1.824  1.00  0.00    -0.088 Cl
HETATM    9  C11 UNL     1       0.754  -2.748   0.271  1.00  0.00     0.005 C 
HETATM   10  C12 UNL     1       0.992  -3.607   1.536  1.00  0.00     0.022 C 
HETATM   11  C13 UNL     1       1.601  -3.509  -0.768  1.00  0.00     0.016 C 
HETATM   12  C14 UNL     1       2.970  -3.258  -0.335  1.00  0.00     0.007 C 
HETATM   13  C15 UNL     1       2.896  -1.911   0.380  1.00  0.00     0.002 C 
HETATM   14  C24 UNL     1       1.464  -1.479   0.444  1.00  0.00    -0.006 C 
HETATM   15  C25 UNL     1       1.259  -1.167   1.973  1.00  0.00     0.021 C 
HETATM   16  C26 UNL     1       1.081  -0.242  -0.224  1.00  0.00     0.039 C 
HETATM   17  C27 UNL     1       0.231  -0.071  -1.384  1.00  0.00     0.175 C 
HETATM   18  O5  UNL     1       0.744  -0.535  -2.408  1.00  0.00    -0.288 OA
HETATM   19  C28 UNL     1      -1.079   0.522  -1.620  1.00  0.00     0.021 C 
HETATM   20  C29 UNL     1      -1.212   1.977  -1.317  1.00  0.00     0.131 C 
HETATM   21  C30 UNL     1      -0.013   2.687  -0.788  1.00  0.00     0.057 C 
HETATM   22  F1  UNL     1      -1.575   2.763  -2.427  1.00  0.00    -0.238 F 
HETATM   23  C31 UNL     1      -2.383   2.015  -0.384  1.00  0.00     0.088 C 
HETATM   24  C32 UNL     1      -3.294   0.987  -1.076  1.00  0.00     0.085 C 
HETATM   25  C33 UNL     1      -2.335  -0.199  -1.123  1.00  0.00     0.028 C 
HETATM   26  C34 UNL     1      -2.925  -1.137  -2.165  1.00  0.00     0.024 C 
ENDROOT
BRANCH  13  27
HETATM   27  C16 UNL     1       4.043  -1.140  -0.059  1.00  0.00    -0.014 C 
HETATM   28  C17 UNL     1       4.247  -0.815  -1.492  1.00  0.00     0.010 C 
BRANCH  27  29
HETATM   29  C18 UNL     1       4.548  -0.083   0.918  1.00  0.00     0.005 C 
BRANCH  29  30
HETATM   30  C19 UNL     1       5.747   0.660   0.368  1.00  0.00     0.001 C 
BRANCH  30  31
HETATM   31  C20 UNL     1       6.248   1.702   1.343  1.00  0.00     0.004 C 
BRANCH  31  32
HETATM   32  C21 UNL     1       7.431   2.453   0.831  1.00  0.00    -0.023 C 
HETATM   33  C22 UNL     1       7.839   3.460   1.886  1.00  0.00     0.009 C 
HETATM   34  C23 UNL     1       7.159   3.190  -0.457  1.00  0.00     0.009 C 
ENDBRANCH  31  32
ENDBRANCH  30  31
ENDBRANCH  29  30
ENDBRANCH  27  29
ENDBRANCH  13  27
BRANCH   4  35
HETATM   35  O4  UNL     1      -3.628  -1.904   1.865  1.00  0.00    -0.392 OA
ATOM     36  H4  UNL     1      -2.791  -2.130   2.253  1.00  0.00     0.210 HD
ENDBRANCH   4  35
BRANCH  24  37
HETATM   37  O6  UNL     1      -3.607   1.514  -2.291  1.00  0.00    -0.388 OA
ATOM     38  H6  UNL     1      -2.800   1.617  -2.781  1.00  0.00     0.210 HD
ENDBRANCH  24  37
BRANCH   3  39
HETATM   39  O3  UNL     1      -5.436  -1.422   0.032  1.00  0.00    -0.392 OA
ATOM     40  H3  UNL     1      -5.526  -2.193   0.580  1.00  0.00     0.210 HD
ENDBRANCH   3  39
BRANCH   1  41
HETATM   41  C3  UNL     1      -5.815   0.990  -1.168  1.00  0.00     0.193 C 
BRANCH  41  42
HETATM   42  O2  UNL     1      -6.912   0.957  -0.298  1.00  0.00    -0.321 OA
BRANCH  42  43
HETATM   43  C2  UNL     1      -8.220   1.081  -0.772  1.00  0.00     0.254 C 
HETATM   44  C1  UNL     1      -9.395   1.048   0.134  1.00  0.00     0.126 C 
HETATM   45  O1  UNL     1      -8.340   1.223  -2.024  1.00  0.00    -0.266 OA
ENDBRANCH  42  43
ENDBRANCH  41  42
ENDBRANCH   1  41
TORSDOF 11
