REMARK  10 active torsions:
REMARK  status: ('A' for Active; 'I' for Inactive)
REMARK    1  A    between atoms: C6_6  and  N1_7 
REMARK    2  A    between atoms: N1_7  and  C18_20 
REMARK    3  A    between atoms: C7_8  and  C8_9 
REMARK    4  A    between atoms: C18_20  and  O1_21 
REMARK    5  A    between atoms: C18_20  and  C19_23 
REMARK    6  A    between atoms: C19_23  and  N2_24 
REMARK    7  A    between atoms: N3_27  and  C22_28 
REMARK    8  A    between atoms: C24_30  and  O2_31 
REMARK    9  A    between atoms: N4_33  and  C25_34 
REMARK   10  A    between atoms: C31_41  and  O3_42 
ROOT
HETATM    1  N2  UNL     1       0.920   0.540   0.025  1.00  0.00    -0.382 N 
HETATM    2  C20 UNL     1       1.497  -0.260  -0.970  1.00  0.00     0.078 C 
HETATM    3  C21 UNL     1       2.779  -0.977  -0.619  1.00  0.00     0.168 C 
HETATM    4  N3  UNL     1       3.626  -0.184   0.248  1.00  0.00    -0.367 N 
HETATM    5  C32 UNL     1       2.962   0.406   1.386  1.00  0.00     0.099 C 
HETATM    6  C33 UNL     1       3.862   1.282   2.217  1.00  0.00     0.034 C 
HETATM    7  C34 UNL     1       1.765   1.220   0.946  1.00  0.00     0.147 C 
ENDROOT
BRANCH   1   8
HETATM    8  C19 UNL     1      -0.390   0.273   0.468  1.00  0.00     0.206 C 
BRANCH   8   9
HETATM    9  C18 UNL     1      -1.471   0.580  -0.589  1.00  0.00     0.136 C 
BRANCH   9  10
HETATM   10  N1  UNL     1      -2.715   0.880  -0.007  1.00  0.00    -0.338 N 
HETATM   11  C7  UNL     1      -3.959   0.598  -0.494  1.00  0.00     0.076 C 
BRANCH  10  12
HETATM   12  C6  UNL     1      -2.583   2.215   0.593  1.00  0.00     0.094 C 
HETATM   13  C2  UNL     1      -3.416   2.394   1.813  1.00  0.00     0.005 C 
HETATM   14  C1  UNL     1      -2.535   2.834   2.995  1.00  0.00     0.012 C 
HETATM   15  C3  UNL     1      -4.393   3.492   1.553  1.00  0.00     0.006 C 
HETATM   16  C4  UNL     1      -4.216   3.967   0.143  1.00  0.00     0.002 C 
HETATM   17  C5  UNL     1      -2.993   3.286  -0.409  1.00  0.00     0.026 C 
ENDBRANCH  10  12
BRANCH  11  18
HETATM   18  C8  UNL     1      -4.527  -0.761  -0.654  1.00  0.00    -0.006 C 
HETATM   19  C9  UNL     1      -5.946  -0.488  -1.219  1.00  0.00     0.019 C 
HETATM   20  C10 UNL     1      -6.801  -1.691  -1.285  1.00  0.00    -0.011 C 
HETATM   21  C11 UNL     1      -6.153  -2.656  -2.262  1.00  0.00     0.009 C 
HETATM   22  C15 UNL     1      -6.959  -2.290   0.079  1.00  0.00     0.030 C 
HETATM   23  C12 UNL     1      -4.812  -2.979  -1.707  1.00  0.00    -0.011 C 
HETATM   24  C13 UNL     1      -4.963  -3.648  -0.371  1.00  0.00     0.030 C 
HETATM   25  C17 UNL     1      -3.904  -1.739  -1.555  1.00  0.00     0.019 C 
HETATM   26  C14 UNL     1      -5.585  -2.645   0.572  1.00  0.00     0.039 C 
HETATM   27 CL1  UNL     1      -5.761  -3.456   2.150  1.00  0.00    -0.119 Cl
HETATM   28  C16 UNL     1      -4.764  -1.417   0.703  1.00  0.00     0.040 C 
ENDBRANCH  11  18
ENDBRANCH   9  10
BRANCH   9  29
HETATM   29  O1  UNL     1      -1.367  -0.134  -1.730  1.00  0.00    -0.348 OA
ATOM     30  H1  UNL     1      -0.526  -0.337  -2.123  1.00  0.00     0.219 HD
ENDBRANCH   9  29
ENDBRANCH   8   9
ENDBRANCH   1   8
BRANCH   4  31
HETATM   31  C22 UNL     1       5.015   0.027   0.058  1.00  0.00     0.087 A 
HETATM   32  C23 UNL     1       5.600   1.252  -0.191  1.00  0.00     0.090 A 
HETATM   33  C24 UNL     1       6.948   1.021  -0.306  1.00  0.00     0.151 A 
HETATM   34  N4  UNL     1       7.187  -0.295  -0.135  1.00  0.00    -0.271 N 
HETATM   35  C31 UNL     1       6.038  -0.903   0.083  1.00  0.00     0.176 A 
BRANCH  33  36
HETATM   36  O2  UNL     1       7.904   2.026  -0.561  1.00  0.00    -0.346 OA
ATOM     37  H2  UNL     1       8.837   1.866  -0.641  1.00  0.00     0.219 HD
ENDBRANCH  33  36
BRANCH  34  38
HETATM   38  C25 UNL     1       8.486  -0.866  -0.185  1.00  0.00     0.043 A 
HETATM   39  C26 UNL     1       9.476  -0.245   0.592  1.00  0.00     0.033 A 
HETATM   40  C27 UNL     1      10.756  -0.730   0.604  1.00  0.00     0.044 A 
HETATM   41  C28 UNL     1      11.082  -1.841  -0.153  1.00  0.00     0.116 A 
HETATM   42  F1  UNL     1      12.366  -2.286  -0.112  1.00  0.00    -0.206 F 
HETATM   43  C29 UNL     1      10.093  -2.441  -0.913  1.00  0.00     0.044 A 
HETATM   44  C30 UNL     1       8.796  -1.966  -0.939  1.00  0.00     0.033 A 
ENDBRANCH  34  38
BRANCH  35  45
HETATM   45  O3  UNL     1       5.858  -2.270   0.305  1.00  0.00    -0.344 OA
ATOM     46  H3  UNL     1       6.561  -2.909   0.322  1.00  0.00     0.219 HD
ENDBRANCH  35  45
ENDBRANCH   4  31
TORSDOF 10
