REMARK  4 active torsions:
REMARK  status: ('A' for Active; 'I' for Inactive)
REMARK    1  A    between atoms: C1_2  and  C2_5 
REMARK    2  A    between atoms: C2_5  and  C3_6 
REMARK    3  A    between atoms: C3_6  and  C4_7 
REMARK    4  A    between atoms: N1_10  and  C7_11 
ROOT
HETATM    1  C7  UNL     1      -0.006  -0.637   0.510  1.00  0.00     0.114 A 
HETATM    2  N2  UNL     1       0.095  -1.286   1.697  1.00  0.00    -0.338 N 
ATOM      3  H2  UNL     1       1.019  -1.586   2.006  1.00  0.00     0.168 HD
HETATM    4  C8  UNL     1      -0.958  -1.554   2.487  1.00  0.00     0.182 A 
HETATM    5  N3  UNL     1      -2.174  -1.151   2.063  1.00  0.00    -0.354 N 
ATOM      6  H3  UNL     1      -2.985  -1.347   2.650  1.00  0.00     0.166 HD
HETATM    7  C9  UNL     1      -2.362  -0.506   0.907  1.00  0.00     0.032 A 
HETATM    8  C10 UNL     1      -1.277  -0.237   0.108  1.00  0.00     0.026 A 
HETATM    9  C11 UNL     1      -1.400   0.476  -1.195  1.00  0.00     0.158 C 
HETATM   10  N4  UNL     1      -2.727   0.522  -1.717  1.00  0.00    -0.416 N 
ATOM     11  H4  UNL     1      -2.979   1.122  -2.503  1.00  0.00     0.153 HD
HETATM   12  C12 UNL     1      -3.681  -0.324  -1.071  1.00  0.00     0.130 C 
HETATM   13  C13 UNL     1      -3.698  -0.068   0.443  1.00  0.00     0.022 C 
HETATM   14  C14 UNL     1      -3.903   1.412   0.679  1.00  0.00     0.044 C 
HETATM   15  C15 UNL     1      -5.201   1.817   0.020  1.00  0.00     0.168 C 
HETATM   16  O1  UNL     1      -6.178   0.834   0.155  1.00  0.00    -0.391 OA
HETATM   17  C16 UNL     1      -6.011   0.076   1.307  1.00  0.00     0.168 C 
HETATM   18  C17 UNL     1      -4.824  -0.847   1.071  1.00  0.00     0.044 C 
ENDROOT
BRANCH   1  19
HETATM   19  N1  UNL     1       1.163  -0.399  -0.251  1.00  0.00    -0.367 N 
HETATM   20  C6  UNL     1       1.676   0.901  -0.614  1.00  0.00     0.125 C 
HETATM   21  C5  UNL     1       3.146   1.025  -0.291  1.00  0.00     0.024 C 
HETATM   22  C4  UNL     1       3.978  -0.113  -0.785  1.00  0.00    -0.011 C 
HETATM   23  C19 UNL     1       3.099  -1.093  -1.562  1.00  0.00     0.024 C 
HETATM   24  C18 UNL     1       1.923  -1.541  -0.720  1.00  0.00     0.125 C 
BRANCH  22  25
HETATM   25  C3  UNL     1       4.643  -0.795   0.366  1.00  0.00     0.013 C 
BRANCH  25  26
HETATM   26  C2  UNL     1       5.551   0.034   1.203  1.00  0.00     0.117 C 
BRANCH  26  27
HETATM   27  C1  UNL     1       6.728   0.643   0.513  1.00  0.00     0.387 C 
HETATM   28  F1  UNL     1       7.471   1.370   1.467  1.00  0.00    -0.171 F 
HETATM   29  F2  UNL     1       7.586  -0.316   0.018  1.00  0.00    -0.171 F 
HETATM   30  F3  UNL     1       6.389   1.593  -0.447  1.00  0.00    -0.171 F 
ENDBRANCH  26  27
ENDBRANCH  25  26
ENDBRANCH  22  25
ENDBRANCH   1  19
TORSDOF 4
