REMARK  5 active torsions:
REMARK  status: ('A' for Active; 'I' for Inactive)
REMARK    1  A    between atoms: C2_2  and  N1_5 
REMARK    2  A    between atoms: C10_12  and  N2_13 
REMARK    3  A    between atoms: N2_13  and  C11_15 
REMARK    4  A    between atoms: C11_15  and  C12_16 
REMARK    5  A    between atoms: C14_20  and  C15_21 
ROOT
HETATM    1  N1  UNL     1      -1.851   0.409  -0.228  1.00  0.00    -0.390 N 
HETATM    2  C5  UNL     1      -2.117  -0.438   0.875  1.00  0.00     0.091 C 
HETATM    3  C6  UNL     1      -2.343  -1.890   0.474  1.00  0.00     0.051 C 
HETATM    4  C7  UNL     1      -2.636  -2.640   1.765  1.00  0.00     0.169 C 
HETATM    5  O1  UNL     1      -1.852  -2.198   2.812  1.00  0.00    -0.391 OA
HETATM    6  C8  UNL     1      -0.610  -1.727   2.367  1.00  0.00     0.176 C 
HETATM    7  C9  UNL     1      -0.844  -0.430   1.695  1.00  0.00     0.057 C 
HETATM    8  C10 UNL     1       0.161   0.082   0.811  1.00  0.00     0.112 C 
HETATM    9  C17 UNL     1      -0.608   1.048  -0.106  1.00  0.00     0.042 C 
HETATM   10  C18 UNL     1      -0.584   2.384   0.584  1.00  0.00     0.040 C 
HETATM   11  C19 UNL     1       0.204   1.108  -1.385  1.00  0.00     0.040 C 
ENDROOT
BRANCH   8  12
HETATM   12  N2  UNL     1       1.095  -0.668   0.070  1.00  0.00    -0.410 N 
ATOM     13  H2  UNL     1       1.089  -0.655  -0.950  1.00  0.00     0.154 HD
BRANCH  12  14
HETATM   14  C11 UNL     1       2.051  -1.447   0.792  1.00  0.00     0.156 C 
BRANCH  14  15
HETATM   15  C12 UNL     1       3.460  -1.150   0.274  1.00  0.00    -0.010 A 
HETATM   16  C13 UNL     1       3.703  -0.711  -0.964  1.00  0.00     0.099 A 
HETATM   17  N3  UNL     1       4.945  -0.192  -1.296  1.00  0.00    -0.348 N 
HETATM   18  C14 UNL     1       5.888  -0.140  -0.309  1.00  0.00     0.190 A 
ATOM     19  H3  UNL     1       5.147   0.138  -2.240  1.00  0.00     0.166 HD
HETATM   20  N4  UNL     1       5.645  -0.599   0.905  1.00  0.00    -0.348 N 
HETATM   21  C16 UNL     1       4.412  -1.134   1.244  1.00  0.00     0.099 A 
ATOM     22  H4  UNL     1       6.382  -0.559   1.610  1.00  0.00     0.166 HD
BRANCH  18  23
HETATM   23  C15 UNL     1       7.138   0.677  -0.456  1.00  0.00     0.449 C 
HETATM   24  F1  UNL     1       8.063   0.241   0.448  1.00  0.00    -0.163 F 
HETATM   25  F2  UNL     1       6.723   1.971  -0.018  1.00  0.00    -0.163 F 
HETATM   26  F3  UNL     1       7.610   0.813  -1.703  1.00  0.00    -0.163 F 
ENDBRANCH  18  23
ENDBRANCH  14  15
ENDBRANCH  12  14
ENDBRANCH   8  12
BRANCH   1  27
HETATM   27  C2  UNL     1      -2.915   1.018  -0.896  1.00  0.00     0.018 C 
HETATM   28  C1  UNL     1      -2.881   2.479  -1.175  1.00  0.00     0.037 C 
HETATM   29  C3  UNL     1      -3.132   0.290  -2.209  1.00  0.00     0.037 C 
HETATM   30  C4  UNL     1      -4.234   0.839  -0.115  1.00  0.00     0.037 C 
ENDBRANCH   1  27
TORSDOF 5
