REMARK  6 active torsions:
REMARK  status: ('A' for Active; 'I' for Inactive)
REMARK    1  A    between atoms: N1_4  and  C4_5 
REMARK    2  A    between atoms: C6_11  and  C7_12 
REMARK    3  A    between atoms: C8_13  and  C9_14 
REMARK    4  A    between atoms: C9_14  and  C10_16 
REMARK    5  A    between atoms: C11_20  and  O1_21 
REMARK    6  A    between atoms: O1_21  and  C12_22 
ROOT
HETATM    1  C4  UNL     1       1.568   1.433  -0.522  1.00  0.00     0.141 A 
HETATM    2  N2  UNL     1       2.091   2.555  -1.104  1.00  0.00    -0.336 N 
ATOM      3  H2  UNL     1       2.940   2.459  -1.661  1.00  0.00     0.168 HD
HETATM    4  C5  UNL     1       1.553   3.760  -0.982  1.00  0.00     0.183 A 
HETATM    5  N3  UNL     1       0.445   3.889  -0.254  1.00  0.00    -0.343 N 
ATOM      6  H3  UNL     1       0.017   4.809  -0.149  1.00  0.00     0.167 HD
HETATM    7  C6  UNL     1      -0.126   2.809   0.354  1.00  0.00     0.125 A 
HETATM    8  C11 UNL     1       0.419   1.584   0.228  1.00  0.00     0.148 A 
ENDROOT
BRANCH   1   9
HETATM    9  N1  UNL     1       2.241   0.211  -0.751  1.00  0.00    -0.361 N 
HETATM   10  C3  UNL     1       2.026  -0.533  -1.938  1.00  0.00     0.149 C 
HETATM   11  C2  UNL     1       2.839  -1.782  -2.054  1.00  0.00     0.090 C 
HETATM   12  C1  UNL     1       3.257  -1.930  -3.516  1.00  0.00     0.033 C 
HETATM   13  N4  UNL     1       4.023  -1.861  -1.278  1.00  0.00    -0.414 N 
HETATM   14  C19 UNL     1       4.405  -0.710  -0.535  1.00  0.00     0.134 C 
ATOM     15  H4  UNL     1       4.582  -2.714  -1.253  1.00  0.00     0.153 HD
HETATM   16  C18 UNL     1       3.161  -0.264   0.249  1.00  0.00     0.143 C 
ENDBRANCH   1   9
BRANCH   8  17
HETATM   17  O1  UNL     1      -0.135   0.479   0.830  1.00  0.00    -0.339 OA
BRANCH  17  18
HETATM   18  C12 UNL     1      -0.992  -0.470   0.310  1.00  0.00     0.129 C 
HETATM   19  C13 UNL     1      -0.495  -1.901   0.593  1.00  0.00     0.032 C 
HETATM   20  C14 UNL     1      -1.205  -2.791  -0.399  1.00  0.00     0.002 C 
HETATM   21  C15 UNL     1      -2.693  -2.689  -0.279  1.00  0.00     0.000 C 
HETATM   22  C16 UNL     1      -3.229  -1.312  -0.138  1.00  0.00     0.002 C 
HETATM   23  C17 UNL     1      -2.412  -0.455   0.817  1.00  0.00     0.032 C 
ENDBRANCH  17  18
ENDBRANCH   8  17
BRANCH   7  24
HETATM   24  C7  UNL     1      -1.281   3.078   1.198  1.00  0.00    -0.043 C 
HETATM   25  C8  UNL     1      -2.217   3.358   1.914  1.00  0.00    -0.053 C 
BRANCH  25  26
HETATM   26  C9  UNL     1      -3.317   3.752   2.786  1.00  0.00     0.356 C 
HETATM   27  F1  UNL     1      -4.027   4.816   2.246  1.00  0.00    -0.226 F 
BRANCH  26  28
HETATM   28  C10 UNL     1      -4.263   2.635   2.982  1.00  0.00     0.429 C 
HETATM   29  F2  UNL     1      -5.276   3.121   3.840  1.00  0.00    -0.167 F 
HETATM   30  F3  UNL     1      -4.896   2.325   1.774  1.00  0.00    -0.167 F 
HETATM   31  F4  UNL     1      -3.771   1.508   3.558  1.00  0.00    -0.167 F 
ENDBRANCH  26  28
ENDBRANCH  25  26
ENDBRANCH   7  24
TORSDOF 6
