REMARK  6 active torsions:
REMARK  status: ('A' for Active; 'I' for Inactive)
REMARK    1  A    between atoms: C2_2  and  N1_5 
REMARK    2  A    between atoms: C5_9  and  C6_10 
REMARK    3  A    between atoms: C6_10  and  N3_11 
REMARK    4  A    between atoms: N3_11  and  C7_12 
REMARK    5  A    between atoms: C7_12  and  O1_13 
REMARK    6  A    between atoms: C7_12  and  C8_15 
ROOT
HETATM    1  C6  UNL     1       0.461   1.171  -1.366  1.00  0.00     0.218 C 
ENDROOT
BRANCH   1   2
HETATM    2  C5  UNL     1      -0.823   0.547  -0.995  1.00  0.00     0.095 A 
HETATM    3  C4  UNL     1      -1.428  -0.518  -1.724  1.00  0.00     0.142 A 
HETATM    4  N2  UNL     1      -2.577  -0.819  -1.178  1.00  0.00    -0.292 N 
HETATM    5  N1  UNL     1      -2.777  -0.010  -0.124  1.00  0.00    -0.214 N 
ATOM      6  H2  UNL     1      -3.215  -1.547  -1.499  1.00  0.00     0.188 HD
HETATM    7  N4  UNL     1      -1.705   0.793  -0.047  1.00  0.00    -0.279 N 
ATOM      8  H4  UNL     1      -1.586   1.513   0.665  1.00  0.00     0.189 HD
BRANCH   5   9
HETATM    9  C2  UNL     1      -3.925  -0.025   0.707  1.00  0.00     0.120 C 
HETATM   10  C1  UNL     1      -3.561  -0.263   2.175  1.00  0.00     0.055 C 
HETATM   11  C3  UNL     1      -4.945  -1.067   0.346  1.00  0.00     0.055 C 
HETATM   12 BR1  UNL     1      -4.796   1.718   0.537  1.00  0.00    -0.059 Br
ENDBRANCH   5   9
ENDBRANCH   1   2
BRANCH   1  13
HETATM   13  N3  UNL     1       1.572   0.426  -1.023  1.00  0.00    -0.389 NA
BRANCH  13  14
HETATM   14  C7  UNL     1       2.634  -0.293  -0.697  1.00  0.00     0.248 C 
BRANCH  14  15
HETATM   15  O1  UNL     1       2.559  -1.650  -0.797  1.00  0.00    -0.333 OA
ATOM     16  H1  UNL     1       3.321  -2.166  -0.563  1.00  0.00     0.220 HD
ENDBRANCH  14  15
BRANCH  14  17
HETATM   17  C8  UNL     1       3.966   0.151  -0.218  1.00  0.00     0.144 A 
HETATM   18  C9  UNL     1       4.774  -0.654   0.639  1.00  0.00     0.070 A 
HETATM   19  C10 UNL     1       5.896   0.059   0.838  1.00  0.00     0.082 A 
HETATM   20 CL1  UNL     1       7.309  -0.385   1.812  1.00  0.00    -0.080 Cl
HETATM   21  C11 UNL     1       5.808   1.261   0.145  1.00  0.00     0.167 A 
HETATM   22 CL2  UNL     1       7.017   2.513   0.107  1.00  0.00    -0.055 Cl
HETATM   23  O2  UNL     1       4.635   1.219  -0.444  1.00  0.00    -0.291 OA
ENDBRANCH  14  17
ENDBRANCH  13  14
ENDBRANCH   1  13
TORSDOF 6
