REMARK  4 active torsions:
REMARK  status: ('A' for Active; 'I' for Inactive)
REMARK    1  A    between atoms: C1_2  and  C2_5 
REMARK    2  A    between atoms: N2_9  and  C4_11 
REMARK    3  A    between atoms: N4_21  and  C12_22 
REMARK    4  A    between atoms: C12_22  and  C13_23 
ROOT
HETATM    1  C2  UNL     1       0.991  -1.553  -1.215  1.00  0.00     0.193 A 
HETATM    2  N1  UNL     1       1.935  -0.613  -1.060  1.00  0.00    -0.323 N 
ATOM      3  H1  UNL     1       2.848  -0.788  -1.480  1.00  0.00     0.169 HD
HETATM    4  C3  UNL     1       1.768   0.543  -0.392  1.00  0.00     0.134 A 
HETATM    5  N2  UNL     1       2.715   1.360  -0.071  1.00  0.00    -0.370 N 
ATOM      6  H2  UNL     1       2.535   2.231   0.428  1.00  0.00     0.161 HD
HETATM    7  C10 UNL     1       0.478   0.732   0.161  1.00  0.00     0.122 A 
HETATM    8  N3  UNL     1       0.025   1.710   0.946  1.00  0.00    -0.346 N 
ATOM      9  H3  UNL     1       0.532   2.549   1.226  1.00  0.00     0.167 HD
HETATM   10  C11 UNL     1      -1.255   1.370   1.304  1.00  0.00     0.189 A 
HETATM   11  N4  UNL     1      -1.573   0.198   0.742  1.00  0.00    -0.306 N 
HETATM   12  C19 UNL     1      -0.485  -0.197   0.024  1.00  0.00     0.145 A 
HETATM   13  N6  UNL     1      -0.221  -1.325  -0.666  1.00  0.00    -0.322 N 
ATOM     14  H6  UNL     1      -0.956  -2.024  -0.776  1.00  0.00     0.169 HD
ENDROOT
BRANCH  11  15
HETATM   15  C12 UNL     1      -2.813  -0.487   0.836  1.00  0.00     0.079 C 
BRANCH  15  16
HETATM   16  C13 UNL     1      -4.087   0.103   0.489  1.00  0.00     0.055 C 
HETATM   17  C14 UNL     1      -5.130  -1.037   0.655  1.00  0.00     0.014 C 
HETATM   18  C15 UNL     1      -6.460  -0.699   0.100  1.00  0.00     0.034 C 
HETATM   19  C16 UNL     1      -6.354   0.376  -0.940  1.00  0.00     0.188 C 
HETATM   20  C17 UNL     1      -5.794   1.612  -0.281  1.00  0.00     0.066 C 
HETATM   21  N5  UNL     1      -5.154   0.308  -1.725  1.00  0.00    -0.066 N 
HETATM   22  C18 UNL     1      -4.428   0.918  -0.653  1.00  0.00     0.197 C 
ATOM     23  H52 UNL     1      -4.844  -0.584  -2.111  1.00  0.00     0.278 HD
ATOM     24  H51 UNL     1      -5.129   0.718  -2.659  1.00  0.00     0.278 HD
ENDBRANCH  15  16
ENDBRANCH  11  15
BRANCH   1  25
HETATM   25  C1  UNL     1       1.234  -2.842  -1.903  1.00  0.00     0.449 C 
HETATM   26  F1  UNL     1       0.283  -3.218  -2.785  1.00  0.00    -0.163 F 
HETATM   27  F2  UNL     1       2.474  -2.843  -2.511  1.00  0.00    -0.163 F 
HETATM   28  F3  UNL     1       1.287  -3.813  -0.907  1.00  0.00    -0.163 F 
ENDBRANCH   1  25
BRANCH   5  29
HETATM   29  C4  UNL     1       4.067   0.954  -0.471  1.00  0.00     0.083 C 
HETATM   30  C5  UNL     1       4.453  -0.269   0.394  1.00  0.00     0.025 C 
HETATM   31  C6  UNL     1       5.756  -0.741  -0.148  1.00  0.00     0.002 C 
HETATM   32  C7  UNL     1       6.859   0.255   0.043  1.00  0.00     0.000 C 
HETATM   33  C8  UNL     1       6.460   1.666  -0.069  1.00  0.00     0.002 C 
HETATM   34  C9  UNL     1       5.026   2.021  -0.002  1.00  0.00     0.025 C 
ENDBRANCH   5  29
TORSDOF 4
