REMARK  5 active torsions:
REMARK  status: ('A' for Active; 'I' for Inactive)
REMARK    1  A    between atoms: O1_2  and  C2_3 
REMARK    2  A    between atoms: C5_6  and  C6_7 
REMARK    3  A    between atoms: C8_9  and  N1_10 
REMARK    4  A    between atoms: N1_10  and  C9_12 
REMARK       I    between atoms: N2_15  and  C12_16 
REMARK    5  A    between atoms: C12_16  and  C13_18 
ROOT
HETATM    1  C6  UNL     1      -1.517  -0.376  -0.018  1.00  0.00     0.022 A 
HETATM    2  C7  UNL     1      -0.608  -1.363   0.022  1.00  0.00     0.064 A 
HETATM    3  C8  UNL     1       0.695  -1.016  -0.222  1.00  0.00     0.088 A 
HETATM    4  S1  UNL     1       0.573   0.663  -0.493  1.00  0.00     0.003 SA
HETATM    5  N3  UNL     1      -1.086   0.854  -0.290  1.00  0.00    -0.328 N 
ATOM      6  H3  UNL     1      -1.634   1.712  -0.359  1.00  0.00     0.174 HD
ENDROOT
BRANCH   3   7
HETATM    7  N1  UNL     1       1.752  -1.792  -0.239  1.00  0.00    -0.378 N 
ATOM      8  H1  UNL     1       1.693  -2.794  -0.059  1.00  0.00     0.160 HD
BRANCH   7   9
HETATM    9  C9  UNL     1       3.007  -1.134  -0.530  1.00  0.00     0.085 C 
HETATM   10  C10 UNL     1       3.578  -0.422   0.676  1.00  0.00     0.045 C 
HETATM   11  C11 UNL     1       4.598   0.582   0.123  1.00  0.00     0.128 C 
HETATM   12  N2  UNL     1       5.610  -0.209  -0.559  1.00  0.00    -0.344 N 
HETATM   13  C12 UNL     1       6.986   0.014  -0.304  1.00  0.00     0.327 C 
HETATM   14  C14 UNL     1       5.238  -1.238  -1.510  1.00  0.00     0.128 C 
HETATM   15  O2  UNL     1       7.826  -0.704  -0.931  1.00  0.00    -0.263 OA
HETATM   16  C15 UNL     1       4.052  -2.059  -1.053  1.00  0.00     0.045 C 
BRANCH  13  17
HETATM   17  C13 UNL     1       7.496   1.019   0.635  1.00  0.00     0.472 C 
HETATM   18  F1  UNL     1       8.896   0.988   0.591  1.00  0.00    -0.162 F 
HETATM   19  F2  UNL     1       7.190   0.718   1.970  1.00  0.00    -0.162 F 
HETATM   20  F3  UNL     1       7.128   2.311   0.304  1.00  0.00    -0.162 F 
ENDBRANCH  13  17
ENDBRANCH   7   9
ENDBRANCH   3   7
BRANCH   1  21
HETATM   21  C5  UNL     1      -2.995  -0.609   0.231  1.00  0.00     0.036 C 
HETATM   22  C4  UNL     1      -3.498   0.216   1.368  1.00  0.00     0.013 C 
HETATM   23  C3  UNL     1      -4.461   1.292   0.967  1.00  0.00     0.032 C 
HETATM   24  C2  UNL     1      -5.614   0.731   0.201  1.00  0.00     0.120 C 
HETATM   25  C17 UNL     1      -5.231  -0.378  -0.745  1.00  0.00     0.032 C 
HETATM   26  C16 UNL     1      -3.751  -0.238  -1.026  1.00  0.00     0.013 C 
BRANCH  24  27
HETATM   27  O1  UNL     1      -6.300   1.692  -0.531  1.00  0.00    -0.391 OA
HETATM   28  C1  UNL     1      -7.628   1.808  -0.145  1.00  0.00     0.202 C 
ENDBRANCH  24  27
ENDBRANCH   1  21
TORSDOF 5
