REMARK  3 active torsions:
REMARK  status: ('A' for Active; 'I' for Inactive)
REMARK    1  A    between atoms: O1_1  and  C1_3 
REMARK    2  A    between atoms: C1_3  and  C2_4 
REMARK    3  A    between atoms: C2_4  and  N1_5 
ROOT
HETATM    1  N1  UNL     1       0.774  -0.224  -0.114  1.00  0.00    -0.195 N 
HETATM    2  N2  UNL     1       1.576  -1.058   0.408  1.00  0.00    -0.163 N 
ATOM      3  H2  UNL     1       1.352  -2.034   0.604  1.00  0.00     0.220 HD
HETATM    4  O2  UNL     1       2.783  -0.467   0.672  1.00  0.00    -0.123 OA
HETATM    5  N3  UNL     1       2.654   0.847   0.255  1.00  0.00    -0.165 N 
ATOM      6  H3  UNL     1       3.368   1.574   0.305  1.00  0.00     0.220 HD
HETATM    7  N4  UNL     1       1.476   0.974  -0.202  1.00  0.00    -0.203 N 
ATOM      8  H4  UNL     1       1.095   1.840  -0.583  1.00  0.00     0.212 HD
ENDROOT
BRANCH   1   9
HETATM    9  C2  UNL     1      -0.593  -0.493  -0.526  1.00  0.00     0.199 C 
BRANCH   9  10
HETATM   10  C1  UNL     1      -1.514   0.422   0.256  1.00  0.00     0.187 C 
BRANCH  10  11
HETATM   11  O1  UNL     1      -2.836   0.173  -0.132  1.00  0.00    -0.399 OA
ATOM     12  H1  UNL     1      -3.413   0.747   0.358  1.00  0.00     0.209 HD
ENDBRANCH  10  11
ENDBRANCH   9  10
ENDBRANCH   1   9
TORSDOF 3
