REMARK  3 active torsions:
REMARK  status: ('A' for Active; 'I' for Inactive)
REMARK    1  A    between atoms: C2_2  and  O1_3 
REMARK    2  A    between atoms: O1_3  and  N1_4 
REMARK    3  A    between atoms: N4_9  and  O2_10 
ROOT
HETATM    1  N1  UNL     1       1.070   0.379   0.438  1.00  0.00    -0.058 N 
HETATM    2  N2  UNL     1       1.638   1.415  -0.097  1.00  0.00    -0.181 N 
ATOM      3  H2  UNL     1       1.192   2.311  -0.292  1.00  0.00     0.214 HD
HETATM    4  N3  UNL     1       2.891   1.103  -0.343  1.00  0.00    -0.181 N 
ATOM      5  H3  UNL     1       3.587   1.719  -0.764  1.00  0.00     0.214 HD
HETATM    6  N4  UNL     1       3.097  -0.139   0.045  1.00  0.00    -0.060 N 
HETATM    7  N5  UNL     1       1.956  -0.591   0.534  1.00  0.00    -0.156 N 
ATOM      8  H5  UNL     1       1.791  -1.522   0.916  1.00  0.00     0.217 HD
ENDROOT
BRANCH   1   9
HETATM    9  O1  UNL     1      -0.231   0.198   0.875  1.00  0.00    -0.242 OA
BRANCH   9  10
HETATM   10  C2  UNL     1      -1.207  -0.098  -0.111  1.00  0.00     0.201 C 
HETATM   11  C1  UNL     1      -2.576  -0.270   0.494  1.00  0.00     0.036 C 
ENDBRANCH   9  10
ENDBRANCH   1   9
BRANCH   6  12
HETATM   12  O2  UNL     1       4.263  -0.878  -0.022  1.00  0.00    -0.251 OA
ATOM     13  H2  UNL     1       4.412  -1.774   0.258  1.00  0.00     0.248 HD
ENDBRANCH   6  12
TORSDOF 3
