REMARK  2 active torsions:
REMARK  status: ('A' for Active; 'I' for Inactive)
REMARK    1  A    between atoms: O1_2  and  N1_3 
REMARK    2  A    between atoms: N4_7  and  O2_8 
ROOT
HETATM    1  N1  UNL     1       0.296  -0.570  -0.020  1.00  0.00    -0.058 N 
HETATM    2  N2  UNL     1       1.346  -1.278   0.423  1.00  0.00     0.044 NA
HETATM    3  N3  UNL     1       2.420  -0.485   0.365  1.00  0.00    -0.179 N 
ATOM      4  H3  UNL     1       3.365  -0.753   0.639  1.00  0.00     0.210 HD
HETATM    5  N4  UNL     1       2.068   0.697  -0.101  1.00  0.00    -0.064 N 
HETATM    6  N5  UNL     1       0.767   0.605  -0.324  1.00  0.00    -0.159 N 
ATOM      7  H5  UNL     1       0.198   1.367  -0.692  1.00  0.00     0.216 HD
ENDROOT
BRANCH   1   8
HETATM    8  O1  UNL     1      -0.986  -1.074  -0.101  1.00  0.00    -0.249 OA
HETATM    9  C1  UNL     1      -2.042  -0.115  -0.002  1.00  0.00     0.241 C 
ENDBRANCH   1   8
BRANCH   5  10
HETATM   10  O2  UNL     1       2.919   1.759  -0.292  1.00  0.00    -0.251 OA
ATOM     11  H2  UNL     1       2.665   2.611  -0.628  1.00  0.00     0.248 HD
ENDBRANCH   5  10
TORSDOF 2
