REMARK  1 active torsions:
REMARK  status: ('A' for Active; 'I' for Inactive)
REMARK    1  A    between atoms: O1_2  and  N1_3 
ROOT
HETATM    1  N1  UNL     1      -0.492  -0.131   0.042  1.00  0.00    -0.140 N 
HETATM    2  C2  UNL     1      -1.677  -0.688  -0.249  1.00  0.00     0.253 A 
HETATM    3  N2  UNL     1      -2.550   0.276  -0.585  1.00  0.00    -0.277 N 
ATOM      4  H2  UNL     1      -3.525   0.147  -0.854  1.00  0.00     0.189 HD
HETATM    5  N3  UNL     1      -1.906   1.417  -0.500  1.00  0.00    -0.225 N 
ATOM      6  H3  UNL     1      -2.298   2.338  -0.693  1.00  0.00     0.210 HD
HETATM    7  N4  UNL     1      -0.675   1.173  -0.125  1.00  0.00    -0.201 N 
ATOM      8  H4  UNL     1       0.042   1.884   0.018  1.00  0.00     0.212 HD
ENDROOT
BRANCH   1   9
HETATM    9  O1  UNL     1       0.677  -0.749   0.433  1.00  0.00    -0.261 OA
HETATM   10  C1  UNL     1       1.880  -0.052   0.291  1.00  0.00     0.240 C 
ENDBRANCH   1   9
TORSDOF 1
