REMARK  1 active torsions:
REMARK  status: ('A' for Active; 'I' for Inactive)
REMARK    1  A    between atoms: C1_2  and  N1_3 
ROOT
HETATM    1  N1  UNL     1       0.740  -0.114   0.011  1.00  0.00    -0.256 N 
HETATM    2  C2  UNL     1      -0.193  -0.290   1.142  1.00  0.00     0.259 C 
HETATM    3  N2  UNL     1      -1.331   0.438   0.537  1.00  0.00    -0.182 NA
HETATM    4  C3  UNL     1      -1.292  -0.199  -0.782  1.00  0.00     0.249 C 
HETATM    5  N3  UNL     1      -0.064   0.607  -0.898  1.00  0.00    -0.108 NA
HETATM    6  N4  UNL     1      -0.615   1.536   0.031  1.00  0.00    -0.049 NA
ENDROOT
BRANCH   1   7
HETATM    7  C1  UNL     1       2.067  -0.540  -0.136  1.00  0.00     0.369 C 
HETATM    8  O1  UNL     1       2.668  -0.277  -1.188  1.00  0.00    -0.282 OA
ENDBRANCH   1   7
TORSDOF 1
