REMARK  10 active torsions:
REMARK  status: ('A' for Active; 'I' for Inactive)
REMARK    1  A    between atoms: C2_2  and  C3_3 
REMARK    2  A    between atoms: C3_3  and  N1_4 
REMARK    3  A    between atoms: C4_5  and  N2_6 
REMARK    4  A    between atoms: C7_13  and  O1_14 
REMARK    5  A    between atoms: O1_14  and  C8_15 
REMARK    6  A    between atoms: C8_15  and  C9_16 
REMARK    7  A    between atoms: C9_16  and  O2_17 
REMARK    8  A    between atoms: C9_16  and  C10_19 
REMARK    9  A    between atoms: N4_20  and  C11_22 
REMARK   10  A    between atoms: C19_32  and  N6_33 
ROOT
HETATM    1  N1  UNL     1       5.834   0.066   0.534  1.00  0.00    -0.167 N 
HETATM    2  C4  UNL     1       5.599  -1.228   0.303  1.00  0.00     0.680 A 
HETATM    3  N3  UNL     1       4.335  -1.732   0.327  1.00  0.00    -0.189 N 
ATOM      4  H3  UNL     1       4.180  -2.724   0.147  1.00  0.00     0.184 HD
HETATM    5  C5  UNL     1       3.297  -0.933   0.585  1.00  0.00     0.084 A 
HETATM    6  C6  UNL     1       1.912  -1.096   0.674  1.00  0.00     0.088 A 
HETATM    7  C7  UNL     1       1.314   0.087   0.957  1.00  0.00     0.145 A 
HETATM    8  N5  UNL     1       2.321   0.998   1.048  1.00  0.00    -0.332 N 
ATOM      9  H5  UNL     1       2.198   1.990   1.253  1.00  0.00     0.168 HD
HETATM   10  C18 UNL     1       3.495   0.399   0.829  1.00  0.00     0.106 A 
HETATM   11  C19 UNL     1       4.803   0.873   0.795  1.00  0.00     0.146 A 
ENDROOT
BRANCH   7  12
HETATM   12  O1  UNL     1       0.014   0.456   1.136  1.00  0.00    -0.333 OA
BRANCH  12  13
HETATM   13  C8  UNL     1      -1.153  -0.261   1.082  1.00  0.00     0.214 C 
BRANCH  13  14
HETATM   14  C9  UNL     1      -1.451  -0.911  -0.268  1.00  0.00     0.180 C 
BRANCH  14  15
HETATM   15  O2  UNL     1      -1.505   0.067  -1.195  1.00  0.00    -0.388 OA
ATOM     16  H2  UNL     1      -1.690  -0.337  -2.035  1.00  0.00     0.210 HD
ENDBRANCH  14  15
BRANCH  14  17
HETATM   17  C10 UNL     1      -2.556  -1.880  -0.133  1.00  0.00     0.094 C 
HETATM   18  N4  UNL     1      -3.848  -1.566   0.173  1.00  0.00    -0.374 N 
ATOM     19  H4  UNL     1      -4.170  -1.803   1.111  1.00  0.00     0.164 HD
BRANCH  18  20
HETATM   20  C11 UNL     1      -4.774  -0.950  -0.676  1.00  0.00    -0.014 C 
HETATM   21  C12 UNL     1      -4.568   0.425  -1.132  1.00  0.00     0.052 C 
HETATM   22  C13 UNL     1      -5.848   1.215  -1.367  1.00  0.00     0.006 C 
HETATM   23  C14 UNL     1      -6.397   1.782  -0.080  1.00  0.00     0.000 C 
HETATM   24  C15 UNL     1      -6.162   0.845   1.087  1.00  0.00     0.000 C 
HETATM   25  C16 UNL     1      -6.820  -0.462   0.764  1.00  0.00     0.006 C 
HETATM   26  C17 UNL     1      -6.217  -1.269  -0.294  1.00  0.00     0.052 C 
ENDBRANCH  18  20
ENDBRANCH  14  17
ENDBRANCH  13  14
ENDBRANCH  12  13
ENDBRANCH   7  12
BRANCH  11  27
HETATM   27  N6  UNL     1       5.046   2.111   1.024  1.00  0.00    -0.383 N 
ATOM     28  H62 UNL     1       6.005   2.458   0.999  1.00  0.00     0.157 HD
ATOM     29  H61 UNL     1       4.258   2.728   1.223  1.00  0.00     0.157 HD
ENDBRANCH  11  27
BRANCH   2  30
HETATM   30  N2  UNL     1       6.581  -1.988   0.044  1.00  0.00    -0.234 N 
ATOM     31  H22 UNL     1       7.528  -1.610   0.026  1.00  0.00     0.174 HD
ATOM     32  H21 UNL     1       6.401  -2.976  -0.132  1.00  0.00     0.174 HD
ENDBRANCH   2  30
BRANCH   1  33
HETATM   33  C3  UNL     1       7.171   0.585   0.488  1.00  0.00     0.149 C 
BRANCH  33  34
HETATM   34  C2  UNL     1       7.405   1.026  -0.949  1.00  0.00     0.016 C 
HETATM   35  C1  UNL     1       8.755   1.612  -1.191  1.00  0.00     0.006 C 
ENDBRANCH  33  34
ENDBRANCH   1  33
TORSDOF 10
