REMARK  12 active torsions:
REMARK  status: ('A' for Active; 'I' for Inactive)
REMARK    1  A    between atoms: C2_2  and  C3_3 
REMARK    2  A    between atoms: C3_3  and  C4_4 
REMARK    3  A    between atoms: C4_4  and  N1_5 
REMARK    4  A    between atoms: N1_5  and  C5_8 
REMARK    5  A    between atoms: C5_8  and  C7_10 
REMARK    6  A    between atoms: C7_10  and  C8_11 
REMARK    7  A    between atoms: C7_10  and  N2_18 
REMARK    8  A    between atoms: C9_12  and  C10_13 
REMARK    9  A    between atoms: N2_18  and  C15_20 
REMARK   10  A    between atoms: C15_20  and  O1_21 
REMARK   11  A    between atoms: C15_20  and  C16_23 
REMARK   12  A    between atoms: C18_29  and  O3_30 
ROOT
HETATM    1  C7  UNL     1       0.008   0.194   0.764  1.00  0.00     0.189 C 
ENDROOT
BRANCH   1   2
HETATM    2  C5  UNL     1       1.088  -0.586   0.093  1.00  0.00     0.216 C 
HETATM    3  C6  UNL     1       0.797  -1.097  -1.269  1.00  0.00     0.043 C 
BRANCH   2   4
HETATM    4  N1  UNL     1       2.310   0.227   0.014  1.00  0.00    -0.068 N 
ATOM      5  H12 UNL     1       2.498   0.722   0.886  1.00  0.00     0.277 HD
ATOM      6  H11 UNL     1       2.192   1.037  -0.594  1.00  0.00     0.277 HD
BRANCH   4   7
HETATM    7  C4  UNL     1       3.439  -0.609  -0.397  1.00  0.00     0.233 C 
BRANCH   7   8
HETATM    8  C3  UNL     1       4.648   0.310  -0.453  1.00  0.00     0.027 C 
BRANCH   8   9
HETATM    9  C2  UNL     1       4.936   0.948   0.863  1.00  0.00    -0.003 C 
HETATM   10  C1  UNL     1       5.233  -0.004   1.982  1.00  0.00     0.005 C 
ENDBRANCH   8   9
ENDBRANCH   7   8
ENDBRANCH   4   7
ENDBRANCH   2   4
ENDBRANCH   1   2
BRANCH   1  11
HETATM   11  C8  UNL     1      -1.222  -0.636   0.839  1.00  0.00    -0.079 C 
HETATM   12  C9  UNL     1      -2.214  -1.312   0.919  1.00  0.00    -0.100 C 
BRANCH  12  13
HETATM   13  C10 UNL     1      -3.416  -2.157   1.033  1.00  0.00     0.065 C 
HETATM   14  C11 UNL     1      -3.500  -2.940  -0.257  1.00  0.00     0.017 C 
HETATM   15  C12 UNL     1      -4.331  -4.150   0.116  1.00  0.00     0.001 C 
HETATM   16  C13 UNL     1      -4.295  -4.245   1.629  1.00  0.00     0.001 C 
HETATM   17  C14 UNL     1      -3.226  -3.260   2.047  1.00  0.00     0.017 C 
ENDBRANCH  12  13
ENDBRANCH   1  11
BRANCH   1  18
HETATM   18  N2  UNL     1      -0.226   1.503   0.336  1.00  0.00    -0.376 N 
ATOM     19  H2  UNL     1      -0.083   2.267   0.996  1.00  0.00     0.157 HD
BRANCH  18  20
HETATM   20  C15 UNL     1      -0.648   1.806  -0.962  1.00  0.00     0.260 C 
BRANCH  20  21
HETATM   21  O1  UNL     1      -1.842   1.231  -1.366  1.00  0.00    -0.372 OA
ATOM     22  H1  UNL     1      -2.129   1.437  -2.248  1.00  0.00     0.212 HD
ENDBRANCH  20  21
BRANCH  20  23
HETATM   23  C16 UNL     1      -0.941   3.294  -0.953  1.00  0.00     0.086 A 
HETATM   24  S1  UNL     1      -1.790   4.194   0.219  1.00  0.00    -0.025 SA
HETATM   25  C17 UNL     1      -1.666   5.728  -0.505  1.00  0.00     0.290 A 
HETATM   26  O2  UNL     1      -2.116   6.862  -0.103  1.00  0.00    -0.260 OA
HETATM   27  N3  UNL     1      -0.976   5.484  -1.621  1.00  0.00    -0.297 N 
HETATM   28  C18 UNL     1      -0.598   4.253  -1.866  1.00  0.00     0.161 A 
ATOM     29  H3  UNL     1      -0.748   6.238  -2.269  1.00  0.00     0.171 HD
BRANCH  28  30
HETATM   30  O3  UNL     1       0.143   3.871  -3.024  1.00  0.00    -0.345 OA
ATOM     31  H3  UNL     1       0.381   4.537  -3.658  1.00  0.00     0.219 HD
ENDBRANCH  28  30
ENDBRANCH  20  23
ENDBRANCH  18  20
ENDBRANCH   1  18
TORSDOF 12
