REMARK  12 active torsions:
REMARK  status: ('A' for Active; 'I' for Inactive)
REMARK    1  A    between atoms: C2_2  and  C3_3 
REMARK    2  A    between atoms: C3_3  and  C4_4 
REMARK    3  A    between atoms: C4_4  and  C5_5 
REMARK    4  A    between atoms: C5_5  and  O1_6 
REMARK    5  A    between atoms: O1_6  and  C6_7 
REMARK    6  A    between atoms: C7_8  and  N1_9 
REMARK    7  A    between atoms: N1_9  and  C8_11 
REMARK    8  A    between atoms: C8_11  and  O2_12 
REMARK    9  A    between atoms: C8_11  and  C9_14 
REMARK   10  A    between atoms: C9_14  and  C10_15 
REMARK   11  A    between atoms: C18_26  and  N4_27 
REMARK   12  A    between atoms: C19_32  and  N6_33 
ROOT
HETATM    1  C6  UNL     1       2.346  -2.048   0.267  1.00  0.00     0.157 A 
HETATM    2  C7  UNL     1       0.950  -1.991   0.332  1.00  0.00     0.156 A 
HETATM    3  N3  UNL     1       0.238  -2.812  -0.451  1.00  0.00    -0.174 N 
ATOM      4  H3  UNL     1      -0.780  -2.769  -0.404  1.00  0.00     0.186 HD
HETATM    5  C18 UNL     1       0.812  -3.700  -1.306  1.00  0.00     0.679 A 
HETATM    6  N5  UNL     1       2.147  -3.725  -1.338  1.00  0.00    -0.174 N 
ATOM      7  H5  UNL     1       2.595  -4.385  -1.974  1.00  0.00     0.186 HD
HETATM    8  C19 UNL     1       2.939  -2.941  -0.591  1.00  0.00     0.152 A 
ENDROOT
BRANCH   2   9
HETATM    9  N1  UNL     1       0.331  -1.072   1.242  1.00  0.00    -0.347 N 
ATOM     10  H1  UNL     1       0.938  -0.495   1.824  1.00  0.00     0.163 HD
BRANCH   9  11
HETATM   11  C8  UNL     1      -1.097  -0.911   1.387  1.00  0.00     0.221 C 
BRANCH  11  12
HETATM   12  O2  UNL     1      -1.719  -2.092   1.695  1.00  0.00    -0.377 OA
ATOM     13  H2  UNL     1      -2.658  -1.986   1.790  1.00  0.00     0.212 HD
ENDBRANCH  11  12
BRANCH  11  14
HETATM   14  C9  UNL     1      -1.734  -0.102   0.295  1.00  0.00     0.095 C 
BRANCH  14  15
HETATM   15  C10 UNL     1      -3.203   0.062   0.442  1.00  0.00     0.164 C 
HETATM   16  C11 UNL     1      -3.637   0.739   1.692  1.00  0.00     0.042 C 
HETATM   17  C12 UNL     1      -3.157   2.155   1.743  1.00  0.00     0.004 C 
HETATM   18  C13 UNL     1      -3.733   2.881   0.543  1.00  0.00     0.030 C 
HETATM   19  C14 UNL     1      -3.450   2.147  -0.741  1.00  0.00     0.273 C 
HETATM   20  N2  UNL     1      -3.732   0.758  -0.697  1.00  0.00     0.098 N 
HETATM   21  C15 UNL     1      -5.110   0.408  -0.797  1.00  0.00     0.273 C 
HETATM   22  C16 UNL     1      -5.083  -1.087  -0.558  1.00  0.00     0.033 C 
HETATM   23  C17 UNL     1      -3.862  -1.304   0.305  1.00  0.00     0.043 C 
ENDBRANCH  14  15
ENDBRANCH  11  14
ENDBRANCH   9  11
ENDBRANCH   2   9
BRANCH   1  24
HETATM   24  O1  UNL     1       3.073  -1.197   1.077  1.00  0.00    -0.344 OA
BRANCH  24  25
HETATM   25  C5  UNL     1       3.505   0.090   0.807  1.00  0.00     0.176 C 
BRANCH  25  26
HETATM   26  C4  UNL     1       4.419   0.287  -0.341  1.00  0.00     0.027 C 
BRANCH  26  27
HETATM   27  C3  UNL     1       4.764   1.740  -0.518  1.00  0.00     0.002 C 
BRANCH  27  28
HETATM   28  C2  UNL     1       5.444   2.281   0.691  1.00  0.00    -0.004 C 
HETATM   29  C1  UNL     1       5.761   3.753   0.384  1.00  0.00     0.005 C 
ENDBRANCH  27  28
ENDBRANCH  26  27
ENDBRANCH  25  26
ENDBRANCH  24  25
ENDBRANCH   1  24
BRANCH   8  30
HETATM   30  N6  UNL     1       4.233  -3.022  -0.660  1.00  0.00    -0.383 N 
ATOM     31  H62 UNL     1       4.835  -2.426  -0.092  1.00  0.00     0.157 HD
ATOM     32  H61 UNL     1       4.674  -3.685  -1.297  1.00  0.00     0.157 HD
ENDBRANCH   8  30
BRANCH   5  33
HETATM   33  N4  UNL     1       0.063  -4.470  -2.039  1.00  0.00    -0.234 N 
ATOM     34  H42 UNL     1      -0.957  -4.451  -2.015  1.00  0.00     0.174 HD
ATOM     35  H41 UNL     1       0.494  -5.136  -2.680  1.00  0.00     0.174 HD
ENDBRANCH   5  33
TORSDOF 12
