REMARK  11 active torsions:
REMARK  status: ('A' for Active; 'I' for Inactive)
REMARK    1  A    between atoms: C2_2  and  C3_3 
REMARK    2  A    between atoms: C3_3  and  O1_4 
REMARK    3  A    between atoms: O1_4  and  C4_5 
REMARK    4  A    between atoms: C7_8  and  C8_9 
REMARK    5  A    between atoms: C9_14  and  O2_15 
REMARK    6  A    between atoms: O2_15  and  C10_16 
REMARK    7  A    between atoms: C10_16  and  C11_17 
REMARK    8  A    between atoms: C11_17  and  O3_18 
REMARK    9  A    between atoms: C11_17  and  N3_20 
REMARK   10  A    between atoms: N3_20  and  C12_22 
REMARK   11  A    between atoms: C19_29  and  N4_30 
ROOT
HETATM    1  C10 UNL     1       0.031  -1.500  -0.388  1.00  0.00     0.229 C 
ENDROOT
BRANCH   1   2
HETATM    2  O2  UNL     1       1.319  -1.651  -0.599  1.00  0.00    -0.346 OA
BRANCH   2   3
HETATM    3  C9  UNL     1       2.526  -1.183  -0.657  1.00  0.00     0.085 A 
HETATM    4  C7  UNL     1       3.579  -2.065  -1.031  1.00  0.00     0.038 A 
HETATM    5  C6  UNL     1       4.883  -1.658  -1.115  1.00  0.00     0.020 A 
HETATM    6  C5  UNL     1       5.221  -0.366  -0.836  1.00  0.00     0.038 A 
HETATM    7  C4  UNL     1       4.253   0.534  -0.470  1.00  0.00     0.071 A 
HETATM    8  C20 UNL     1       2.942   0.118  -0.386  1.00  0.00     0.074 A 
BRANCH   4   9
HETATM    9  C8  UNL     1       3.232  -3.453  -1.337  1.00  0.00     0.123 C 
HETATM   10  N1  UNL     1       4.214  -4.241  -1.676  1.00  0.00    -0.387 N 
ATOM     11  H12 UNL     1       5.171  -3.890  -1.718  1.00  0.00     0.157 HD
ATOM     12  H11 UNL     1       3.972  -5.209  -1.889  1.00  0.00     0.157 HD
HETATM   13  N2  UNL     1       1.900  -3.941  -1.278  1.00  0.00    -0.082 NA
ENDBRANCH   4   9
BRANCH   7  14
HETATM   14  O1  UNL     1       4.597   1.838  -0.189  1.00  0.00    -0.347 OA
BRANCH  14  15
HETATM   15  C3  UNL     1       5.934   2.246  -0.277  1.00  0.00     0.202 C 
BRANCH  15  16
HETATM   16  C2  UNL     1       6.090   3.673   0.055  1.00  0.00    -0.011 C 
HETATM   17  C1  UNL     1       6.586   4.506  -0.832  1.00  0.00     0.009 C 
ENDBRANCH  15  16
ENDBRANCH  14  15
ENDBRANCH   7  14
ENDBRANCH   2   3
ENDBRANCH   1   2
BRANCH   1  18
HETATM   18  C11 UNL     1      -0.779  -0.581  -1.315  1.00  0.00     0.238 C 
BRANCH  18  19
HETATM   19  O3  UNL     1      -0.287   0.694  -1.398  1.00  0.00    -0.375 OA
ATOM     20  H3  UNL     1      -0.788   1.262  -1.971  1.00  0.00     0.212 HD
ENDBRANCH  18  19
BRANCH  18  21
HETATM   21  N3  UNL     1      -2.152  -0.596  -0.973  1.00  0.00    -0.389 N 
ATOM     22  H3  UNL     1      -2.833  -0.947  -1.646  1.00  0.00     0.156 HD
BRANCH  21  23
HETATM   23  C12 UNL     1      -2.591  -0.136   0.277  1.00  0.00     0.110 C 
HETATM   24  C13 UNL     1      -2.410   1.302   0.592  1.00  0.00     0.031 C 
HETATM   25  C14 UNL     1      -3.606   1.977   1.229  1.00  0.00    -0.016 C 
HETATM   26  C15 UNL     1      -4.491   2.611   0.146  1.00  0.00     0.010 C 
HETATM   27  C16 UNL     1      -4.388   1.133   2.166  1.00  0.00     0.010 C 
HETATM   28  C17 UNL     1      -4.357  -0.322   1.903  1.00  0.00     0.014 C 
HETATM   29  C18 UNL     1      -5.637  -1.050   2.243  1.00  0.00     0.012 C 
HETATM   30  C19 UNL     1      -4.053  -0.585   0.445  1.00  0.00     0.209 C 
BRANCH  30  31
HETATM   31  N4  UNL     1      -4.097  -1.981   0.127  1.00  0.00    -0.073 N 
ATOM     32  H43 UNL     1      -3.714  -2.196  -0.794  1.00  0.00     0.274 HD
ATOM     33  H42 UNL     1      -3.440  -2.538   0.673  1.00  0.00     0.274 HD
ATOM     34  H41 UNL     1      -5.066  -2.279   0.238  1.00  0.00     0.274 HD
ENDBRANCH  30  31
ENDBRANCH  21  23
ENDBRANCH  18  21
ENDBRANCH   1  18
TORSDOF 11
