REMARK  2 active torsions:
REMARK  status: ('A' for Active; 'I' for Inactive)
REMARK    1  A    between atoms: C2_2  and  O1_3 
REMARK    2  A    between atoms: N1_7  and  O2_8 
ROOT
HETATM    1  C1  UNL     1      -1.123  -0.870  -0.418  1.00  0.00     0.068 C 
HETATM    2  C2  UNL     1      -0.069   0.207  -0.364  1.00  0.00     0.153 C 
HETATM    3  C3  UNL     1      -0.368   1.302   0.665  1.00  0.00     0.151 C 
HETATM    4  S1  UNL     1       0.488   0.330   1.956  1.00  0.00    -0.047 SA
HETATM    5  N1  UNL     1       1.111  -0.092   0.387  1.00  0.00    -0.102 NA
ENDROOT
BRANCH   2   6
HETATM    6  O1  UNL     1       0.283   0.720  -1.621  1.00  0.00    -0.372 OA
ATOM      7  H1  UNL     1       0.947   1.399  -1.587  1.00  0.00     0.212 HD
ENDBRANCH   2   6
BRANCH   5   8
HETATM    8  O2  UNL     1       1.662  -1.282   0.235  1.00  0.00    -0.299 OA
ATOM      9  H2  UNL     1       2.446  -1.481   0.734  1.00  0.00     0.238 HD
ENDBRANCH   5   8
TORSDOF 2
