REMARK  2 active torsions:
REMARK  status: ('A' for Active; 'I' for Inactive)
REMARK    1  A    between atoms: C2_2  and  O1_3 
REMARK    2  A    between atoms: C4_8  and  O3_9 
ROOT
HETATM    1  C1  UNL     1       1.842  -0.738   0.004  1.00  0.00     0.063 C 
HETATM    2  C2  UNL     1       0.580  -0.098   0.481  1.00  0.00     0.153 C 
HETATM    3  S1  UNL     1      -0.586  -1.332   1.174  1.00  0.00    -0.101 SA
HETATM    4  C3  UNL     1      -1.944  -0.827   0.033  1.00  0.00     0.248 C 
HETATM    5  O2  UNL     1      -1.148  -0.472  -1.056  1.00  0.00    -0.348 OA
HETATM    6  C4  UNL     1      -0.259   0.491  -0.623  1.00  0.00     0.302 C 
ENDROOT
BRANCH   2   7
HETATM    7  O1  UNL     1       0.821   0.799   1.504  1.00  0.00    -0.374 OA
ATOM      8  H1  UNL     1       0.018   1.206   1.807  1.00  0.00     0.211 HD
ENDBRANCH   2   7
BRANCH   6   9
HETATM    9  O3  UNL     1      -0.892   1.666  -0.251  1.00  0.00    -0.367 OA
ATOM     10  H3  UNL     1      -1.421   2.037  -0.947  1.00  0.00     0.212 HD
ENDBRANCH   6   9
TORSDOF 2
