REMARK  2 active torsions:
REMARK  status: ('A' for Active; 'I' for Inactive)
REMARK       I    between atoms: C2_2  and  N1_4 
REMARK       I    between atoms: N1_4  and  C3_6 
REMARK       I    between atoms: C3_6  and  N2_7 
REMARK    1  A    between atoms: N2_7  and  O2_9 
REMARK    2  A    between atoms: N3_11  and  O3_13 
ROOT
HETATM    1  C1  UNL     1      -2.588  -0.078  -0.411  1.00  0.00     0.118 C 
HETATM    2  C2  UNL     1      -1.258   0.260   0.155  1.00  0.00     0.232 C 
HETATM    3  O1  UNL     1      -1.105   1.173   1.000  1.00  0.00    -0.273 OA
HETATM    4  N1  UNL     1      -0.119  -0.468  -0.267  1.00  0.00    -0.157 N 
ATOM      5  H1  UNL     1      -0.233  -1.213  -0.954  1.00  0.00     0.187 HD
HETATM    6  C3  UNL     1       1.178  -0.189   0.240  1.00  0.00     0.724 C 
HETATM    7  N2  UNL     1       1.335   0.847   1.196  1.00  0.00    -0.097 N 
ATOM      8  H2  UNL     1       1.124   0.698   2.183  1.00  0.00     0.213 HD
HETATM    9  N3  UNL     1       2.215  -0.838  -0.132  1.00  0.00    -0.097 N 
ATOM     10  H3  UNL     1       2.131  -1.588  -0.818  1.00  0.00     0.213 HD
ENDROOT
BRANCH   7  11
HETATM   11  O2  UNL     1       1.743   1.948   0.776  1.00  0.00    -0.276 OA
ATOM     12  H2  UNL     1       1.848   2.642   1.416  1.00  0.00     0.245 HD
ENDBRANCH   7  11
BRANCH   9  13
HETATM   13  O3  UNL     1       3.424  -0.525   0.388  1.00  0.00    -0.276 OA
ATOM     14  H3  UNL     1       4.194  -1.007   0.112  1.00  0.00     0.245 HD
ENDBRANCH   9  13
TORSDOF 2
