REMARK  5 active torsions:
REMARK  status: ('A' for Active; 'I' for Inactive)
REMARK    1  A    between atoms: C6_7  and  O1_8 
REMARK    2  A    between atoms: N2_10  and  C7_11 
REMARK    3  A    between atoms: C7_11  and  C8_12 
REMARK    4  A    between atoms: C8_12  and  N3_13 
REMARK    5  A    between atoms: C16_22  and  O3_23 
ROOT
HETATM    1  C1  UNL     1       6.237   1.634   0.111  1.00  0.00     0.154 C 
HETATM    2  N1  UNL     1       5.459   0.482  -0.173  1.00  0.00    -0.373 N 
HETATM    3  C2  UNL     1       5.528  -0.592   0.711  1.00  0.00     0.067 C 
HETATM    4  C3  UNL     1       4.274  -1.272   1.089  1.00  0.00     0.088 C 
HETATM    5  C4  UNL     1       3.039  -0.620   0.638  1.00  0.00     0.013 A 
HETATM    6  C5  UNL     1       3.044   0.307  -0.368  1.00  0.00     0.041 A 
HETATM    7  C6  UNL     1       1.765   0.728  -0.558  1.00  0.00     0.156 A 
HETATM    8  N2  UNL     1       0.958   0.077   0.314  1.00  0.00    -0.306 N 
HETATM    9  C16 UNL     1       1.737  -0.745   1.043  1.00  0.00     0.152 A 
HETATM   10  C17 UNL     1       4.341   0.644  -1.001  1.00  0.00     0.106 C 
ENDROOT
BRANCH   8  11
HETATM   11  C7  UNL     1      -0.479   0.245   0.430  1.00  0.00     0.153 C 
BRANCH  11  12
HETATM   12  C8  UNL     1      -1.247  -0.699  -0.456  1.00  0.00     0.146 C 
BRANCH  12  13
HETATM   13  N3  UNL     1      -2.644  -0.456  -0.269  1.00  0.00    -0.345 N 
HETATM   14  C9  UNL     1      -3.435  -1.136   0.720  1.00  0.00     0.224 C 
HETATM   15  O2  UNL     1      -2.971  -1.906   1.567  1.00  0.00    -0.273 OA
HETATM   16  C10 UNL     1      -4.902  -0.807   0.611  1.00  0.00     0.078 C 
HETATM   17  C11 UNL     1      -5.051   0.705   0.775  1.00  0.00     0.016 C 
HETATM   18  C15 UNL     1      -5.292  -1.128  -0.816  1.00  0.00     0.016 C 
HETATM   19  C12 UNL     1      -4.035   1.456  -0.052  1.00  0.00     0.026 C 
HETATM   20  C13 UNL     1      -3.411   0.509  -1.065  1.00  0.00     0.087 C 
HETATM   21  C14 UNL     1      -4.581  -0.188  -1.760  1.00  0.00     0.026 C 
ENDBRANCH  12  13
ENDBRANCH  11  12
ENDBRANCH   8  11
BRANCH   7  22
HETATM   22  O1  UNL     1       1.403   1.678  -1.512  1.00  0.00    -0.345 OA
ATOM     23  H1  UNL     1       0.509   1.972  -1.645  1.00  0.00     0.219 HD
ENDBRANCH   7  22
BRANCH   9  24
HETATM   24  O3  UNL     1       1.207  -1.569   2.046  1.00  0.00    -0.345 OA
ATOM     25  H3  UNL     1       0.304  -1.656   2.327  1.00  0.00     0.219 HD
ENDBRANCH   9  24
TORSDOF 5
