REMARK  3 active torsions:
REMARK  status: ('A' for Active; 'I' for Inactive)
REMARK    1  A    between atoms: C5_6  and  C6_7 
REMARK    2  A    between atoms: C6_7  and  N2_8 
REMARK    3  A    between atoms: C9_17  and  C10_18 
ROOT
HETATM    1  N2  UNL     1       0.383   0.800  -1.807  1.00  0.00    -0.338 N 
HETATM    2  C7  UNL     1       1.190   0.466  -2.864  1.00  0.00     0.185 A 
HETATM    3  N3  UNL     1       0.450  -0.147  -3.762  1.00  0.00    -0.335 N 
ATOM      4  H3  UNL     1       0.793  -0.508  -4.652  1.00  0.00     0.168 HD
HETATM    5  C8  UNL     1      -0.805  -0.228  -3.344  1.00  0.00     0.150 A 
HETATM    6  N4  UNL     1      -2.072  -0.614  -3.631  1.00  0.00    -0.283 N 
ATOM      7  H4  UNL     1      -2.359  -1.090  -4.486  1.00  0.00     0.188 HD
HETATM    8  N5  UNL     1      -2.872  -0.287  -2.650  1.00  0.00    -0.300 N 
ATOM      9  H5  UNL     1      -3.875  -0.470  -2.632  1.00  0.00     0.186 HD
HETATM   10  C9  UNL     1      -2.182   0.329  -1.660  1.00  0.00     0.060 A 
HETATM   11  C15 UNL     1      -0.853   0.370  -2.098  1.00  0.00     0.106 A 
ENDROOT
BRANCH   1  12
HETATM   12  C6  UNL     1       0.858   1.472  -0.648  1.00  0.00     0.135 C 
BRANCH  12  13
HETATM   13  C5  UNL     1       1.620   0.757   0.391  1.00  0.00     0.005 C 
HETATM   14  C4  UNL     1       1.019  -0.388   1.098  1.00  0.00     0.008 C 
HETATM   15  C3  UNL     1       1.858  -0.649   2.371  1.00  0.00     0.031 C 
HETATM   16  C2  UNL     1       2.990  -1.547   1.980  1.00  0.00     0.271 C 
HETATM   17  N1  UNL     1       4.209  -0.799   1.735  1.00  0.00     0.084 N 
HETATM   18  C1  UNL     1       5.167  -1.663   1.121  1.00  0.00     0.309 C 
HETATM   19  C17 UNL     1       3.981   0.437   1.060  1.00  0.00     0.272 C 
HETATM   20  C16 UNL     1       3.019   0.345  -0.100  1.00  0.00     0.036 C 
ENDBRANCH  12  13
ENDBRANCH   1  12
BRANCH  10  21
HETATM   21  C10 UNL     1      -2.735   0.769  -0.357  1.00  0.00     0.043 C 
HETATM   22  C11 UNL     1      -4.199   1.175  -0.478  1.00  0.00     0.038 C 
HETATM   23  C12 UNL     1      -5.123   0.484   0.462  1.00  0.00     0.233 C 
HETATM   24  N6  UNL     1      -4.557   0.526   1.796  1.00  0.00    -0.075 N 
HETATM   25  C13 UNL     1      -3.378  -0.316   1.798  1.00  0.00     0.233 C 
ATOM     26  H62 UNL     1      -4.368   1.475   2.117  1.00  0.00     0.277 HD
ATOM     27  H61 UNL     1      -5.228   0.271   2.520  1.00  0.00     0.277 HD
HETATM   28  C14 UNL     1      -2.842  -0.566   0.440  1.00  0.00     0.038 C 
ENDBRANCH  10  21
TORSDOF 3
