REMARK  6 active torsions:
REMARK  status: ('A' for Active; 'I' for Inactive)
REMARK    1  A    between atoms: N2_7  and  C6_8 
REMARK    2  A    between atoms: C8_10  and  O1_11 
REMARK    3  A    between atoms: C9_13  and  O2_14 
REMARK    4  A    between atoms: C10_16  and  C11_17 
REMARK    5  A    between atoms: C11_17  and  C12_18 
REMARK    6  A    between atoms: C12_18  and  C13_19 
ROOT
HETATM    1  N1  UNL     1      -2.683   2.657  -2.432  1.00  0.00    -0.195 NA
HETATM    2  C1  UNL     1      -3.165   2.293  -1.463  1.00  0.00     0.084 C 
HETATM    3  C2  UNL     1      -3.781   1.864  -0.207  1.00  0.00     0.191 C 
HETATM    4  C3  UNL     1      -5.117   1.187  -0.403  1.00  0.00     0.045 C 
HETATM    5  C4  UNL     1      -5.268   0.543   0.990  1.00  0.00     0.047 C 
HETATM    6  C5  UNL     1      -3.839   0.361   1.495  1.00  0.00     0.060 C 
HETATM    7  N2  UNL     1      -3.039   0.969   0.544  1.00  0.00    -0.371 N 
ENDROOT
BRANCH   7   8
HETATM    8  C6  UNL     1      -1.798   0.472   0.151  1.00  0.00     0.088 C 
HETATM    9  C7  UNL     1      -1.926  -0.377  -1.072  1.00  0.00     0.059 C 
HETATM   10  C8  UNL     1      -1.888  -1.847  -0.718  1.00  0.00     0.150 C 
HETATM   11  C9  UNL     1      -0.691  -2.272   0.045  1.00  0.00     0.161 C 
HETATM   12  C10 UNL     1       0.024  -1.149   0.724  1.00  0.00     0.085 C 
HETATM   13  C18 UNL     1      -0.944  -0.103   1.256  1.00  0.00     0.044 C 
BRANCH  10  14
HETATM   14  O1  UNL     1      -2.098  -2.558  -1.900  1.00  0.00    -0.393 OA
ATOM     15  H1  UNL     1      -2.074  -3.481  -1.678  1.00  0.00     0.210 HD
ENDBRANCH  10  14
BRANCH  11  16
HETATM   16  O2  UNL     1      -1.029  -3.323   0.902  1.00  0.00    -0.392 OA
ATOM     17  H2  UNL     1      -0.262  -3.595   1.391  1.00  0.00     0.210 HD
ENDBRANCH  11  16
BRANCH  12  18
HETATM   18  C11 UNL     1       1.253  -0.736   0.217  1.00  0.00    -0.173 C 
BRANCH  18  19
HETATM   19  C12 UNL     1       2.382  -0.359  -0.261  1.00  0.00     0.112 C 
BRANCH  19  20
HETATM   20  C13 UNL     1       3.542   0.248   0.431  1.00  0.00     0.131 C 
HETATM   21  C14 UNL     1       4.743  -0.639   0.475  1.00  0.00     0.033 C 
HETATM   22  C15 UNL     1       6.036  -0.035   0.075  1.00  0.00     0.004 C 
HETATM   23  C16 UNL     1       6.046   1.409  -0.249  1.00  0.00     0.026 C 
HETATM   24  C17 UNL     1       4.733   1.731  -0.931  1.00  0.00     0.168 C 
HETATM   25  O3  UNL     1       3.740   1.539  -0.010  1.00  0.00    -0.385 OA
ENDBRANCH  19  20
ENDBRANCH  18  19
ENDBRANCH  12  18
ENDBRANCH   7   8
TORSDOF 6
