REMARK  0 active torsions:
REMARK  status: ('A' for Active; 'I' for Inactive)
ROOT
HETATM    1  C1  UNL     1       1.919   0.901  -0.768  1.00  0.00     0.048 C 
HETATM    2  C2  UNL     1       1.084  -0.053   0.057  1.00  0.00     0.143 C 
HETATM    3  C3  UNL     1       1.968  -1.183   0.482  1.00  0.00     0.048 C 
HETATM    4  C4  UNL     1       0.483   0.716   1.187  1.00  0.00     0.209 C 
HETATM    5  O1  UNL     1      -0.815   0.213   1.362  1.00  0.00    -0.352 OA
HETATM    6  C5  UNL     1      -1.224  -0.054   0.051  1.00  0.00     0.219 C 
HETATM    7  C6  UNL     1      -2.337  -1.094   0.083  1.00  0.00     0.078 C 
HETATM    8  C7  UNL     1      -1.758   1.160  -0.650  1.00  0.00     0.078 C 
HETATM    9  N1  UNL     1      -0.052  -0.564  -0.643  1.00  0.00    -0.034 N 
ATOM     10  H11 UNL     1      -0.047  -1.580  -0.736  1.00  0.00     0.281 HD
ATOM     11  H12 UNL     1      -0.045  -0.346  -1.639  1.00  0.00     0.281 HD
ENDROOT
TORSDOF 0
