REMARK  0 active torsions:
REMARK  status: ('A' for Active; 'I' for Inactive)
ROOT
HETATM    1  C1  UNL     1      -2.633  -0.216  -0.180  1.00  0.00     0.071 C 
HETATM    2  C2  UNL     1      -1.165  -0.520  -0.132  1.00  0.00     0.044 A 
HETATM    3  N1  UNL     1      -0.553  -1.696  -0.223  1.00  0.00    -0.303 N 
ATOM      4  H1  UNL     1      -1.030  -2.589  -0.344  1.00  0.00     0.186 HD
HETATM    5  N2  UNL     1       0.764  -1.551  -0.135  1.00  0.00    -0.303 N 
ATOM      6  H2  UNL     1       1.444  -2.310  -0.178  1.00  0.00     0.186 HD
HETATM    7  C3  UNL     1       1.063  -0.241   0.020  1.00  0.00     0.044 A 
HETATM    8  C4  UNL     1       2.431   0.368   0.160  1.00  0.00     0.071 C 
HETATM    9  C5  UNL     1      -0.156   0.417   0.023  1.00  0.00     0.091 A 
HETATM   10  C6  UNL     1      -0.289   1.839   0.167  1.00  0.00     0.103 C 
HETATM   11  N3  UNL     1      -0.400   2.986   0.264  1.00  0.00    -0.191 NA
ENDROOT
TORSDOF 0
