REMARK  0 active torsions:
REMARK  status: ('A' for Active; 'I' for Inactive)
ROOT
HETATM    1  C1  UNL     1       2.943  -1.362  -0.158  1.00  0.00     0.089 C 
HETATM    2  C2  UNL     1       1.695  -0.529  -0.153  1.00  0.00     0.080 A 
HETATM    3  N1  UNL     1       1.722   0.775  -0.477  1.00  0.00    -0.313 N 
ATOM      4  H1  UNL     1       2.617   1.195  -0.730  1.00  0.00     0.170 HD
HETATM    5  C3  UNL     1       0.624   1.553  -0.483  1.00  0.00     0.254 A 
HETATM    6  O1  UNL     1       0.661   2.779  -0.790  1.00  0.00    -0.268 OA
HETATM    7  C4  UNL     1      -0.605   1.022  -0.147  1.00  0.00     0.028 A 
HETATM    8  C5  UNL     1      -1.850   1.845  -0.139  1.00  0.00     0.056 C 
HETATM    9  C6  UNL     1      -0.617  -0.317   0.184  1.00  0.00     0.018 A 
HETATM   10  C7  UNL     1      -1.937  -0.913   0.552  1.00  0.00     0.069 C 
HETATM   11  N2  UNL     1       0.505  -1.060   0.177  1.00  0.00    -0.349 N 
ATOM     12  H2  UNL     1       0.451  -2.047   0.427  1.00  0.00     0.167 HD
ENDROOT
TORSDOF 0
