REMARK  2 active torsions:
REMARK  status: ('A' for Active; 'I' for Inactive)
REMARK    1  A    between atoms: N2_3  and  C2_5 
REMARK    2  A    between atoms: C2_5  and  C3_9 
ROOT
HETATM    1  N1  UNL     1       3.944   1.678  -0.559  1.00  0.00    -0.172 NA
HETATM    2  C1  UNL     1       3.250   0.986   0.073  1.00  0.00     0.183 C 
HETATM    3  N2  UNL     1       2.404   0.152   0.811  1.00  0.00    -0.283 N 
ATOM      4  H2  UNL     1       2.505   0.141   1.826  1.00  0.00     0.179 HD
ENDROOT
BRANCH   3   5
HETATM    5  C2  UNL     1       1.411  -0.681   0.227  1.00  0.00     0.087 C 
HETATM    6  N3  UNL     1       1.811  -1.651  -0.517  1.00  0.00    -0.388 N 
ATOM      7  H32 UNL     1       2.787  -1.868  -0.720  1.00  0.00     0.157 HD
ATOM      8  H31 UNL     1       1.099  -2.249  -0.936  1.00  0.00     0.157 HD
BRANCH   5   9
HETATM    9  C3  UNL     1       0.004  -0.368   0.519  1.00  0.00     0.053 C 
HETATM   10  C4  UNL     1      -0.249   1.056   0.006  1.00  0.00     0.012 C 
HETATM   11  C5  UNL     1      -1.713   1.075  -0.398  1.00  0.00     0.001 C 
HETATM   12  C6  UNL     1      -2.238  -0.307  -0.028  1.00  0.00     0.001 C 
HETATM   13  C7  UNL     1      -0.983  -1.152  -0.285  1.00  0.00     0.012 C 
ENDBRANCH   5   9
ENDBRANCH   3   5
TORSDOF 2
