REMARK  0 active torsions:
REMARK  status: ('A' for Active; 'I' for Inactive)
ROOT
HETATM    1  N1  UNL     1      -4.003  -0.611   0.396  1.00  0.00    -0.195 NA
HETATM    2  C1  UNL     1      -2.854  -0.517   0.287  1.00  0.00     0.082 C 
HETATM    3  C2  UNL     1      -1.382  -0.407   0.156  1.00  0.00     0.201 C 
HETATM    4  C3  UNL     1      -0.970   0.790  -0.636  1.00  0.00     0.037 C 
HETATM    5  C4  UNL     1      -0.018   1.702   0.022  1.00  0.00     0.003 C 
HETATM    6  C5  UNL     1       1.012   1.075   0.894  1.00  0.00     0.001 C 
HETATM    7  C6  UNL     1       1.836   0.025   0.233  1.00  0.00     0.017 C 
HETATM    8  C7  UNL     1       1.240  -1.344   0.253  1.00  0.00     0.130 C 
HETATM    9  N2  UNL     1       0.384  -1.609  -0.868  1.00  0.00    -0.147 NA
HETATM   10  N3  UNL     1      -0.965  -1.600  -0.553  1.00  0.00    -0.129 NA
ENDROOT
TORSDOF 0
