REMARK  16 active torsions:
REMARK  status: ('A' for Active; 'I' for Inactive)
REMARK    1  A    between atoms: C3_3  and  C4_4 
REMARK    2  A    between atoms: C4_4  and  C5_5 
REMARK    3  A    between atoms: C5_5  and  C6_6 
REMARK    4  A    between atoms: C6_6  and  N1_7 
REMARK    5  A    between atoms: N1_7  and  C7_10 
REMARK    6  A    between atoms: C7_10  and  C8_11 
REMARK    7  A    between atoms: C10_14  and  O2_15 
REMARK    8  A    between atoms: C11_17  and  C12_18 
REMARK    9  A    between atoms: C14_20  and  C15_21 
REMARK   10  A    between atoms: C16_22  and  C17_23 
REMARK   11  A    between atoms: C18_25  and  C19_26 
REMARK   12  A    between atoms: C19_26  and  C20_27 
REMARK   13  A    between atoms: C20_27  and  N2_28 
REMARK   14  A    between atoms: N2_28  and  C21_31 
REMARK   15  A    between atoms: C23_33  and  O4_34 
REMARK   16  A    between atoms: C24_36  and  O5_37 
ROOT
HETATM    1  C12 UNL     1      -0.378  -1.911   0.522  1.00  0.00    -0.057 C 
HETATM    2  C13 UNL     1      -0.914  -2.876   1.536  1.00  0.00     0.048 C 
HETATM    3  C14 UNL     1      -1.187  -1.065  -0.028  1.00  0.00     0.007 C 
ENDROOT
BRANCH   1   4
HETATM    4  C11 UNL     1       1.061  -1.981   0.218  1.00  0.00    -0.043 C 
HETATM    5  C10 UNL     1       1.535  -1.363  -1.027  1.00  0.00     0.177 C 
HETATM    6  C9  UNL     1       2.311  -0.107  -0.963  1.00  0.00     0.161 C 
HETATM    7  O1  UNL     1       3.620  -0.313  -1.492  1.00  0.00    -0.375 OA
HETATM    8  C27 UNL     1       2.994   0.194   0.333  1.00  0.00     0.048 C 
HETATM    9  C8  UNL     1       4.040  -0.714  -0.226  1.00  0.00     0.154 C 
HETATM   10  C26 UNL     1       2.225  -0.279   1.530  1.00  0.00     0.014 C 
HETATM   11  C25 UNL     1       1.871  -1.719   1.468  1.00  0.00     0.038 C 
BRANCH   5  12
HETATM   12  O2  UNL     1       2.204  -2.320  -1.859  1.00  0.00    -0.389 OA
ATOM     13  H2  UNL     1       1.705  -3.127  -1.900  1.00  0.00     0.210 HD
ENDBRANCH   5  12
BRANCH   9  14
HETATM   14  C7  UNL     1       5.460  -0.459   0.149  1.00  0.00     0.264 C 
BRANCH  14  15
HETATM   15  N1  UNL     1       5.877   0.905   0.150  1.00  0.00    -0.073 N 
ATOM     16  H12 UNL     1       5.235   1.505   0.668  1.00  0.00     0.277 HD
ATOM     17  H11 UNL     1       5.775   1.341  -0.766  1.00  0.00     0.277 HD
BRANCH  15  18
HETATM   18  C6  UNL     1       7.227   0.990   0.648  1.00  0.00     0.232 C 
BRANCH  18  19
HETATM   19  C5  UNL     1       8.192   0.415  -0.333  1.00  0.00     0.031 C 
BRANCH  19  20
HETATM   20  C4  UNL     1       9.594   0.452   0.248  1.00  0.00     0.028 C 
BRANCH  20  21
HETATM   21  C3  UNL     1       9.967   1.832   0.564  1.00  0.00    -0.031 C 
HETATM   22  C2  UNL     1      11.020   2.404   0.019  1.00  0.00    -0.035 C 
HETATM   23  C1  UNL     1      11.866   1.673  -0.932  1.00  0.00     0.036 C 
ENDBRANCH  20  21
ENDBRANCH  19  20
ENDBRANCH  18  19
ENDBRANCH  15  18
ENDBRANCH  14  15
ENDBRANCH   9  14
ENDBRANCH   1   4
BRANCH   3  24
HETATM   24  C15 UNL     1      -2.611  -1.054   0.326  1.00  0.00    -0.001 C 
HETATM   25  C16 UNL     1      -3.414  -0.201  -0.244  1.00  0.00     0.007 C 
BRANCH  25  26
HETATM   26  C17 UNL     1      -4.874  -0.119   0.050  1.00  0.00     0.176 C 
HETATM   27  O3  UNL     1      -5.529  -0.219  -1.144  1.00  0.00    -0.371 OA
HETATM   28  C18 UNL     1      -6.853  -0.464  -0.850  1.00  0.00     0.155 C 
HETATM   29  C23 UNL     1      -6.796  -1.408   0.321  1.00  0.00     0.178 C 
HETATM   30  C24 UNL     1      -5.373  -1.300   0.828  1.00  0.00     0.182 C 
BRANCH  28  31
HETATM   31  C19 UNL     1      -7.575   0.835  -0.524  1.00  0.00     0.062 C 
BRANCH  31  32
HETATM   32  C20 UNL     1      -9.033   0.582  -0.213  1.00  0.00     0.235 C 
BRANCH  32  33
HETATM   33  N2  UNL     1      -9.670   1.834   0.090  1.00  0.00    -0.075 N 
ATOM     34  H22 UNL     1     -10.581   1.675   0.520  1.00  0.00     0.277 HD
ATOM     35  H21 UNL     1      -9.192   2.300   0.861  1.00  0.00     0.277 HD
BRANCH  33  36
HETATM   36  C21 UNL     1      -9.792   2.714  -1.024  1.00  0.00     0.228 C 
HETATM   37  C22 UNL     1     -10.526   3.994  -0.674  1.00  0.00     0.034 C 
ENDBRANCH  33  36
ENDBRANCH  32  33
ENDBRANCH  31  32
ENDBRANCH  28  31
BRANCH  29  38
HETATM   38  O4  UNL     1      -6.979  -2.707  -0.152  1.00  0.00    -0.390 OA
ATOM     39  H4  UNL     1      -6.943  -3.303   0.587  1.00  0.00     0.210 HD
ENDBRANCH  29  38
BRANCH  30  40
HETATM   40  O5  UNL     1      -5.449  -1.038   2.210  1.00  0.00    -0.390 OA
ATOM     41  H5  UNL     1      -5.765  -1.786   2.703  1.00  0.00     0.210 HD
ENDBRANCH  30  40
ENDBRANCH  25  26
ENDBRANCH   3  24
TORSDOF 16
