REMARK  17 active torsions:
REMARK  status: ('A' for Active; 'I' for Inactive)
REMARK    1  A    between atoms: C1_2  and  C2_3 
REMARK    2  A    between atoms: C1_2  and  N6_37 
REMARK    3  A    between atoms: C2_3  and  C3_4 
REMARK    4  A    between atoms: C3_4  and  C4_5 
REMARK    5  A    between atoms: C4_5  and  C5_6 
REMARK    6  A    between atoms: C5_6  and  C6_7 
REMARK    7  A    between atoms: C6_7  and  C7_8 
REMARK    8  A    between atoms: C7_8  and  C8_9 
REMARK    9  A    between atoms: C8_9  and  C9_10 
REMARK   10  A    between atoms: C9_10  and  N2_11 
REMARK   11  A    between atoms: N2_11  and  C10_14 
REMARK   12  A    between atoms: C10_14  and  C11_15 
REMARK   13  A    between atoms: C11_15  and  C12_16 
REMARK   14  A    between atoms: C13_18  and  C14_19 
REMARK   15  A    between atoms: C14_19  and  O2_20 
REMARK   16  A    between atoms: C15_22  and  N3_23 
REMARK   17  A    between atoms: C20_34  and  O4_35 
ROOT
HETATM    1  C12 UNL     1      -3.810   0.032  -1.127  1.00  0.00     0.154 C 
HETATM    2  O1  UNL     1      -3.712  -0.877  -0.087  1.00  0.00    -0.374 OA
HETATM    3  C13 UNL     1      -5.039  -1.196   0.301  1.00  0.00     0.171 C 
HETATM    4  C15 UNL     1      -5.919  -0.307  -0.476  1.00  0.00     0.156 C 
HETATM    5  C20 UNL     1      -5.022   0.858  -0.737  1.00  0.00     0.173 C 
ENDROOT
BRANCH   1   6
HETATM    6  C11 UNL     1      -2.664   0.804  -1.484  1.00  0.00     0.062 C 
BRANCH   6   7
HETATM    7  C10 UNL     1      -1.834   1.652  -0.614  1.00  0.00     0.235 C 
BRANCH   7   8
HETATM    8  N2  UNL     1      -1.151   0.929   0.424  1.00  0.00    -0.075 N 
ATOM      9  H22 UNL     1      -1.808   0.490   1.069  1.00  0.00     0.277 HD
ATOM     10  H21 UNL     1      -0.688   1.560   1.077  1.00  0.00     0.277 HD
BRANCH   8  11
HETATM   11  C9  UNL     1      -0.220  -0.041  -0.132  1.00  0.00     0.232 C 
BRANCH  11  12
HETATM   12  C8  UNL     1       0.785  -0.435   0.884  1.00  0.00     0.027 C 
BRANCH  12  13
HETATM   13  C7  UNL     1       1.815   0.685   1.017  1.00  0.00     0.002 C 
BRANCH  13  14
HETATM   14  C6  UNL     1       2.660   0.708  -0.262  1.00  0.00     0.000 C 
BRANCH  14  15
HETATM   15  C5  UNL     1       3.503  -0.542  -0.342  1.00  0.00     0.000 C 
BRANCH  15  16
HETATM   16  C4  UNL     1       4.575  -0.582   0.711  1.00  0.00     0.000 C 
BRANCH  16  17
HETATM   17  C3  UNL     1       5.288  -1.906   0.622  1.00  0.00     0.007 C 
BRANCH  17  18
HETATM   18  C2  UNL     1       6.471  -1.981   1.553  1.00  0.00     0.073 C 
BRANCH  18  19
HETATM   19  C1  UNL     1       7.646  -1.292   1.139  1.00  0.00     0.091 C 
HETATM   20  N1  UNL     1       8.980  -1.507   1.736  1.00  0.00    -0.088 NA
BRANCH  19  21
HETATM   21  N6  UNL     1       7.757  -0.205   0.249  1.00  0.00    -0.373 N 
HETATM   22  C21 UNL     1       7.629  -0.137  -1.168  1.00  0.00     0.123 C 
HETATM   23  C22 UNL     1       8.333   1.156  -1.561  1.00  0.00     0.021 C 
HETATM   24  C23 UNL     1       8.421   1.983  -0.321  1.00  0.00     0.021 C 
HETATM   25  C24 UNL     1       8.150   1.108   0.828  1.00  0.00     0.123 C 
ENDBRANCH  19  21
ENDBRANCH  18  19
ENDBRANCH  17  18
ENDBRANCH  16  17
ENDBRANCH  15  16
ENDBRANCH  14  15
ENDBRANCH  13  14
ENDBRANCH  12  13
ENDBRANCH  11  12
ENDBRANCH   8  11
ENDBRANCH   7   8
ENDBRANCH   6   7
ENDBRANCH   1   6
BRANCH   5  26
HETATM   26  O4  UNL     1      -5.476   1.533  -1.903  1.00  0.00    -0.391 OA
ATOM     27  H4  UNL     1      -6.235   2.050  -1.659  1.00  0.00     0.210 HD
ENDBRANCH   5  26
BRANCH   3  28
HETATM   28  C14 UNL     1      -5.033  -1.001   1.775  1.00  0.00     0.198 C 
BRANCH  28  29
HETATM   29  O2  UNL     1      -6.236  -1.251   2.443  1.00  0.00    -0.398 OA
ATOM     30  H2  UNL     1      -6.232  -1.126   3.385  1.00  0.00     0.209 HD
ENDBRANCH  28  29
ENDBRANCH   3  28
BRANCH   4  31
HETATM   31  N3  UNL     1      -7.269  -0.108  -0.088  1.00  0.00    -0.300 N 
HETATM   32  C16 UNL     1      -8.155  -1.058  -0.554  1.00  0.00     0.100 A 
HETATM   33  C17 UNL     1      -9.480  -0.990  -0.253  1.00  0.00     0.065 A 
HETATM   34  C18 UNL     1      -9.999   0.060   0.508  1.00  0.00     0.103 A 
HETATM   35  N4  UNL     1     -11.147   0.181   0.848  1.00  0.00    -0.385 N 
HETATM   36  N5  UNL     1      -9.112   1.005   0.958  1.00  0.00    -0.295 N 
ATOM     37  H42 UNL     1     -11.806  -0.522   0.513  1.00  0.00     0.157 HD
ATOM     38  H41 UNL     1     -11.526   0.948   1.404  1.00  0.00     0.157 HD
HETATM   39  C19 UNL     1      -7.794   0.887   0.645  1.00  0.00     0.328 A 
ATOM     40  H5  UNL     1      -9.438   1.789   1.522  1.00  0.00     0.172 HD
HETATM   41  O3  UNL     1      -6.978   1.744   1.046  1.00  0.00    -0.246 OA
ENDBRANCH   4  31
TORSDOF 17
