REMARK  15 active torsions:
REMARK  status: ('A' for Active; 'I' for Inactive)
REMARK    1  A    between atoms: C2_2  and  C3_3 
REMARK    2  A    between atoms: C3_3  and  N1_4 
REMARK    3  A    between atoms: N1_4  and  C4_5 
REMARK    4  A    between atoms: N1_4  and  C7_10 
REMARK    5  A    between atoms: C4_5  and  C5_6 
REMARK    6  A    between atoms: C5_6  and  C6_7 
REMARK    7  A    between atoms: C6_7  and  O1_8 
REMARK    8  A    between atoms: C7_10  and  C8_11 
REMARK    9  A    between atoms: C8_11  and  C9_12 
REMARK   10  A    between atoms: C9_12  and  N2_13 
REMARK   11  A    between atoms: N2_13  and  C10_16 
REMARK   12  A    between atoms: C10_16  and  C11_17 
REMARK   13  A    between atoms: C16_24  and  C17_25 
REMARK   14  A    between atoms: C18_26  and  C19_27 
REMARK   15  A    between atoms: C25_39  and  O4_40 
ROOT
HETATM    1  C11 UNL     1       0.241  -1.197   0.892  1.00  0.00     0.070 A 
HETATM    2  N3  UNL     1       0.720  -1.909  -0.144  1.00  0.00    -0.355 N 
ATOM      3  H3  UNL     1       0.203  -2.641  -0.631  1.00  0.00     0.166 HD
HETATM    4  C12 UNL     1       1.971  -1.527  -0.451  1.00  0.00     0.046 A 
HETATM    5  C13 UNL     1       2.915  -1.897  -1.391  1.00  0.00     0.038 A 
HETATM    6  C14 UNL     1       4.160  -1.327  -1.498  1.00  0.00    -0.050 A 
HETATM    7  C15 UNL     1       5.146  -1.766  -2.531  1.00  0.00     0.049 C 
HETATM    8  C16 UNL     1       4.519  -0.307  -0.611  1.00  0.00    -0.029 A 
HETATM    9  C23 UNL     1       3.603   0.084   0.335  1.00  0.00     0.028 A 
HETATM   10  C24 UNL     1       2.357  -0.515   0.410  1.00  0.00     0.027 A 
HETATM   11  C25 UNL     1       1.257  -0.327   1.241  1.00  0.00     0.102 A 
ENDROOT
BRANCH   1  12
HETATM   12  C10 UNL     1      -1.112  -1.308   1.550  1.00  0.00     0.292 C 
BRANCH  12  13
HETATM   13  N2  UNL     1      -1.904  -2.325   0.929  1.00  0.00    -0.070 N 
ATOM     14  H22 UNL     1      -1.404  -3.214   0.896  1.00  0.00     0.277 HD
ATOM     15  H21 UNL     1      -2.002  -2.157  -0.072  1.00  0.00     0.277 HD
BRANCH  13  16
HETATM   16  C9  UNL     1      -3.173  -2.471   1.553  1.00  0.00     0.234 C 
BRANCH  16  17
HETATM   17  C8  UNL     1      -4.046  -1.275   1.298  1.00  0.00     0.057 C 
BRANCH  17  18
HETATM   18  C7  UNL     1      -4.284  -1.145  -0.206  1.00  0.00     0.274 C 
BRANCH  18  19
HETATM   19  N1  UNL     1      -5.115   0.001  -0.436  1.00  0.00     0.088 N 
BRANCH  19  20
HETATM   20  C3  UNL     1      -4.470   1.248  -0.168  1.00  0.00     0.272 C 
BRANCH  20  21
HETATM   21  C2  UNL     1      -5.074   2.414  -0.896  1.00  0.00     0.026 C 
HETATM   22  C1  UNL     1      -4.291   3.668  -0.534  1.00  0.00     0.007 C 
ENDBRANCH  20  21
ENDBRANCH  19  20
BRANCH  19  23
HETATM   23  C4  UNL     1      -6.442  -0.115   0.063  1.00  0.00     0.274 C 
BRANCH  23  24
HETATM   24  C5  UNL     1      -7.040  -1.440  -0.276  1.00  0.00     0.056 C 
BRANCH  24  25
HETATM   25  C6  UNL     1      -8.457  -1.583   0.254  1.00  0.00     0.165 C 
BRANCH  25  26
HETATM   26  O1  UNL     1      -8.909  -2.849  -0.119  1.00  0.00    -0.401 OA
ATOM     27  H1  UNL     1      -9.795  -2.938   0.212  1.00  0.00     0.209 HD
ENDBRANCH  25  26
ENDBRANCH  24  25
ENDBRANCH  23  24
ENDBRANCH  19  23
ENDBRANCH  18  19
ENDBRANCH  17  18
ENDBRANCH  16  17
ENDBRANCH  13  16
ENDBRANCH  12  13
ENDBRANCH   1  12
BRANCH  11  28
HETATM   28  O4  UNL     1       1.169   0.594   2.275  1.00  0.00    -0.358 OA
ATOM     29  H4  UNL     1       1.867   1.192   2.515  1.00  0.00     0.217 HD
ENDBRANCH  11  28
BRANCH   8  30
HETATM   30  C17 UNL     1       5.837   0.307  -0.729  1.00  0.00     0.014 C 
HETATM   31  C18 UNL     1       6.267   1.250   0.055  1.00  0.00     0.030 C 
BRANCH  31  32
HETATM   32  C19 UNL     1       7.588   1.828  -0.104  1.00  0.00     0.041 A 
HETATM   33  C20 UNL     1       8.483   1.446  -1.075  1.00  0.00     0.104 A 
HETATM   34  C21 UNL     1       9.736   2.057  -1.156  1.00  0.00     0.251 A 
HETATM   35  O2  UNL     1      10.546   1.693  -2.053  1.00  0.00    -0.268 OA
HETATM   36  N4  UNL     1      10.061   3.016  -0.283  1.00  0.00    -0.275 N 
HETATM   37  C22 UNL     1       9.186   3.390   0.667  1.00  0.00     0.327 A 
ATOM     38  H4  UNL     1      10.975   3.465  -0.338  1.00  0.00     0.173 HD
HETATM   39  O3  UNL     1       9.501   4.304   1.497  1.00  0.00    -0.247 OA
HETATM   40  N5  UNL     1       7.996   2.806   0.739  1.00  0.00    -0.308 N 
ATOM     41  H5  UNL     1       7.353   3.111   1.470  1.00  0.00     0.170 HD
ENDBRANCH  31  32
ENDBRANCH   8  30
TORSDOF 15
