REMARK  15 active torsions:
REMARK  status: ('A' for Active; 'I' for Inactive)
REMARK    1  A    between atoms: N1_1  and  C1_5 
REMARK    2  A    between atoms: C1_5  and  C2_6 
REMARK    3  A    between atoms: C2_6  and  C3_7 
REMARK    4  A    between atoms: C3_7  and  C4_8 
REMARK    5  A    between atoms: C4_8  and  N2_9 
REMARK    6  A    between atoms: N2_9  and  C5_11 
REMARK    7  A    between atoms: C6_14  and  C7_15 
REMARK       I    between atoms: C7_15  and  N4_17 
REMARK    8  A    between atoms: N4_17  and  C8_19 
REMARK    9  A    between atoms: C11_22  and  N5_23 
REMARK   10  A    between atoms: N5_23  and  C12_25 
REMARK   11  A    between atoms: C12_25  and  C13_26 
REMARK   12  A    between atoms: C13_26  and  C14_27 
REMARK   13  A    between atoms: C14_27  and  C15_28 
REMARK   14  A    between atoms: C15_28  and  C16_29 
REMARK   15  A    between atoms: C16_29  and  C17_30 
ROOT
HETATM    1  C5  UNL     1      -2.846   1.081   1.162  1.00  0.00     0.147 A 
HETATM    2  N3  UNL     1      -2.419  -0.139   1.466  1.00  0.00    -0.330 N 
ATOM      3  H3  UNL     1      -2.941  -0.959   1.157  1.00  0.00     0.168 HD
HETATM    4  C6  UNL     1      -1.319  -0.279   2.168  1.00  0.00     0.136 A 
HETATM    5  C11 UNL     1      -0.669   0.865   2.549  1.00  0.00     0.106 A 
HETATM    6  S1  UNL     1      -1.679   2.087   1.874  1.00  0.00    -0.034 SA
ENDROOT
BRANCH   5   7
HETATM    7  N5  UNL     1       0.515   1.062   3.335  1.00  0.00    -0.382 N 
ATOM      8  H5  UNL     1       1.003   0.280   3.771  1.00  0.00     0.160 HD
BRANCH   7   9
HETATM    9  C12 UNL     1       0.994   2.454   3.483  1.00  0.00     0.120 C 
BRANCH   9  10
HETATM   10  C13 UNL     1       1.570   2.905   2.145  1.00  0.00     0.020 C 
BRANCH  10  11
HETATM   11  C14 UNL     1       2.716   1.955   1.837  1.00  0.00     0.002 C 
BRANCH  11  12
HETATM   12  C15 UNL     1       3.378   2.257   0.537  1.00  0.00     0.005 C 
BRANCH  12  13
HETATM   13  C16 UNL     1       2.457   2.161  -0.648  1.00  0.00     0.041 C 
BRANCH  13  14
HETATM   14  C17 UNL     1       3.260   2.481  -1.855  1.00  0.00    -0.030 A 
HETATM   15  C18 UNL     1       3.242   3.649  -2.583  1.00  0.00     0.096 A 
HETATM   16  N6  UNL     1       4.113   3.543  -3.608  1.00  0.00    -0.360 N 
HETATM   17  C19 UNL     1       4.710   2.341  -3.584  1.00  0.00     0.111 A 
ATOM     18  H6  UNL     1       4.292   4.270  -4.300  1.00  0.00     0.165 HD
HETATM   19  C20 UNL     1       5.656   1.730  -4.378  1.00  0.00     0.273 A 
HETATM   20  C23 UNL     1       4.185   1.672  -2.495  1.00  0.00     0.005 A 
HETATM   21  O2  UNL     1       6.158   2.303  -5.376  1.00  0.00    -0.266 OA
HETATM   22  N7  UNL     1       6.073   0.484  -4.098  1.00  0.00    -0.332 N 
HETATM   23  C21 UNL     1       5.586  -0.197  -3.049  1.00  0.00     0.092 A 
ATOM     24  H7  UNL     1       6.775   0.046  -4.695  1.00  0.00     0.168 HD
HETATM   25  C22 UNL     1       4.627   0.376  -2.216  1.00  0.00     0.031 A 
ENDBRANCH  13  14
ENDBRANCH  12  13
ENDBRANCH  11  12
ENDBRANCH  10  11
ENDBRANCH   9  10
ENDBRANCH   7   9
ENDBRANCH   5   7
BRANCH   4  26
HETATM   26  C7  UNL     1      -0.756  -1.614   2.550  1.00  0.00     0.271 C 
HETATM   27  O1  UNL     1       0.300  -1.720   3.212  1.00  0.00    -0.266 OA
HETATM   28  N4  UNL     1      -1.449  -2.784   2.143  1.00  0.00    -0.351 N 
ATOM     29  H4  UNL     1      -2.312  -2.728   1.602  1.00  0.00     0.163 HD
BRANCH  28  30
HETATM   30  C8  UNL     1      -0.875  -4.077   2.531  1.00  0.00     0.085 A 
HETATM   31  C9  UNL     1      -1.890  -5.117   2.862  1.00  0.00     0.027 A 
HETATM   32  C10 UNL     1      -1.002  -5.234   1.610  1.00  0.00     0.027 A 
ENDBRANCH  28  30
ENDBRANCH   4  26
BRANCH   1  33
HETATM   33  N2  UNL     1      -3.907   1.430   0.480  1.00  0.00    -0.370 N 
ATOM     34  H2  UNL     1      -4.119   2.415   0.319  1.00  0.00     0.161 HD
BRANCH  33  35
HETATM   35  C4  UNL     1      -4.762   0.410  -0.034  1.00  0.00     0.121 C 
BRANCH  35  36
HETATM   36  C3  UNL     1      -4.367   0.127  -1.443  1.00  0.00     0.021 C 
BRANCH  36  37
HETATM   37  C2  UNL     1      -5.213  -0.926  -2.091  1.00  0.00     0.029 C 
BRANCH  37  38
HETATM   38  C1  UNL     1      -5.095  -2.220  -1.342  1.00  0.00     0.229 C 
BRANCH  38  39
HETATM   39  N1  UNL     1      -5.922  -3.220  -2.009  1.00  0.00    -0.079 N 
ATOM     40  H13 UNL     1      -6.890  -2.918  -2.117  1.00  0.00     0.274 HD
ATOM     41  H12 UNL     1      -5.695  -3.319  -2.998  1.00  0.00     0.274 HD
ATOM     42  H11 UNL     1      -5.842  -4.100  -1.500  1.00  0.00     0.274 HD
ENDBRANCH  38  39
ENDBRANCH  37  38
ENDBRANCH  36  37
ENDBRANCH  35  36
ENDBRANCH  33  35
ENDBRANCH   1  33
TORSDOF 15
