REMARK  5 active torsions:
REMARK  status: ('A' for Active; 'I' for Inactive)
REMARK    1  A    between atoms: C1_2  and  C2_3 
REMARK       I    between atoms: C1_2  and  N4_21 
REMARK    2  A    between atoms: C2_3  and  S1_4 
REMARK    3  A    between atoms: S1_4  and  C3_5 
REMARK       I    between atoms: N3_11  and  C5_13 
REMARK    4  A    between atoms: C5_13  and  C6_15 
REMARK    5  A    between atoms: N4_21  and  C11_23 
ROOT
HETATM    1  C3  UNL     1       1.508  -0.391   0.967  1.00  0.00     0.205 A 
HETATM    2  N1  UNL     1       2.017  -1.389   1.695  1.00  0.00    -0.271 N 
ATOM      3  H1  UNL     1       1.592  -1.815   2.519  1.00  0.00     0.189 HD
HETATM    4  N2  UNL     1       3.187  -1.724   1.142  1.00  0.00    -0.262 N 
ATOM      5  H2  UNL     1       3.814  -2.456   1.475  1.00  0.00     0.190 HD
HETATM    6  C4  UNL     1       3.401  -0.935   0.073  1.00  0.00     0.248 A 
HETATM    7  N3  UNL     1       4.419  -0.930  -0.745  1.00  0.00    -0.291 N 
ATOM      8  H3  UNL     1       4.424  -0.259  -1.513  1.00  0.00     0.172 HD
HETATM    9  C5  UNL     1       5.496  -1.800  -0.615  1.00  0.00     0.229 C 
HETATM   10  O2  UNL     1       5.351  -3.033  -0.766  1.00  0.00    -0.273 OA
HETATM   11  O3  UNL     1       2.360  -0.141   0.002  1.00  0.00    -0.253 OA
ENDROOT
BRANCH   1  12
HETATM   12  S1  UNL     1      -0.038   0.495   1.193  1.00  0.00    -0.075 SA
BRANCH  12  13
HETATM   13  C2  UNL     1      -1.323  -0.369   0.274  1.00  0.00     0.185 C 
BRANCH  13  14
HETATM   14  C1  UNL     1      -2.604   0.357   0.454  1.00  0.00     0.227 C 
HETATM   15  O1  UNL     1      -2.660   1.414   1.170  1.00  0.00    -0.273 OA
HETATM   16  N4  UNL     1      -3.762  -0.146  -0.183  1.00  0.00    -0.356 N 
ATOM     17  H4  UNL     1      -3.713  -0.990  -0.753  1.00  0.00     0.162 HD
BRANCH  16  18
HETATM   18  C11 UNL     1      -5.021   0.556  -0.014  1.00  0.00     0.084 C 
HETATM   19  C12 UNL     1      -6.067  -0.348   0.603  1.00  0.00     0.025 C 
HETATM   20  C13 UNL     1      -7.241   0.563   0.977  1.00  0.00     0.002 C 
HETATM   21  C14 UNL     1      -7.695   1.368  -0.206  1.00  0.00     0.000 C 
HETATM   22  C15 UNL     1      -7.016   0.955  -1.488  1.00  0.00     0.002 C 
HETATM   23  C16 UNL     1      -5.510   0.963  -1.380  1.00  0.00     0.025 C 
ENDBRANCH  16  18
ENDBRANCH  13  14
ENDBRANCH  12  13
ENDBRANCH   1  12
BRANCH   9  24
HETATM   24  C6  UNL     1       6.844  -1.283  -0.294  1.00  0.00     0.078 C 
HETATM   25  C7  UNL     1       6.881  -0.547   1.017  1.00  0.00     0.014 C 
HETATM   26  C8  UNL     1       6.514   0.886   0.727  1.00  0.00     0.001 C 
HETATM   27  C9  UNL     1       6.644   1.037  -0.767  1.00  0.00     0.001 C 
HETATM   28  C10 UNL     1       7.260  -0.222  -1.287  1.00  0.00     0.014 C 
ENDBRANCH   9  24
TORSDOF 5
