REMARK  7 active torsions:
REMARK  status: ('A' for Active; 'I' for Inactive)
REMARK    1  A    between atoms: C3_4  and  C4_5 
REMARK    2  A    between atoms: C10_13  and  S1_14 
REMARK    3  A    between atoms: S1_14  and  C11_15 
REMARK    4  A    between atoms: C11_15  and  C12_16 
REMARK    5  A    between atoms: C12_16  and  O1_17 
REMARK    6  A    between atoms: C12_16  and  N3_19 
REMARK    7  A    between atoms: N3_19  and  C13_21 
ROOT
HETATM    1  N1  UNL     1      -2.466   0.710   3.888  1.00  0.00    -0.191 NA
HETATM    2  C1  UNL     1      -2.029   0.218   2.974  1.00  0.00     0.107 C 
HETATM    3  C2  UNL     1      -1.430  -0.377   1.824  1.00  0.00     0.139 A 
HETATM    4  C3  UNL     1      -2.093  -0.547   0.652  1.00  0.00     0.063 A 
HETATM    5  N2  UNL     1      -1.359  -1.063  -0.412  1.00  0.00    -0.335 N 
ATOM      6  H2  UNL     1      -1.848  -1.189  -1.298  1.00  0.00     0.168 HD
HETATM    7  C10 UNL     1      -0.077  -1.405  -0.373  1.00  0.00     0.148 A 
HETATM    8  N4  UNL     1       0.556  -1.230   0.796  1.00  0.00    -0.302 N 
ATOM      9  H4  UNL     1       1.542  -1.479   0.869  1.00  0.00     0.171 HD
HETATM   10  C18 UNL     1      -0.072  -0.737   1.869  1.00  0.00     0.270 A 
HETATM   11  O2  UNL     1       0.521  -0.572   2.964  1.00  0.00    -0.266 OA
ENDROOT
BRANCH   4  12
HETATM   12  C4  UNL     1      -3.526  -0.395   0.406  1.00  0.00    -0.051 C 
HETATM   13  C5  UNL     1      -3.878   0.019  -1.016  1.00  0.00     0.036 C 
HETATM   14  C6  UNL     1      -5.348   0.377  -1.055  1.00  0.00     0.004 C 
HETATM   15  C7  UNL     1      -5.759   1.446  -0.099  1.00  0.00     0.001 C 
HETATM   16  C8  UNL     1      -4.992   1.379   1.175  1.00  0.00     0.004 C 
HETATM   17  C9  UNL     1      -4.538  -0.076   1.388  1.00  0.00     0.036 C 
ENDBRANCH   4  12
BRANCH   7  18
HETATM   18  S1  UNL     1       0.699  -2.150  -1.808  1.00  0.00    -0.086 SA
BRANCH  18  19
HETATM   19  C11 UNL     1       1.403  -0.990  -2.952  1.00  0.00     0.165 C 
BRANCH  19  20
HETATM   20  C12 UNL     1       2.655  -0.380  -2.489  1.00  0.00     0.121 C 
BRANCH  20  21
HETATM   21  O1  UNL     1       3.170   0.550  -3.277  1.00  0.00    -0.349 OA
ATOM     22  H1  UNL     1       3.980   0.945  -2.977  1.00  0.00     0.219 HD
ENDBRANCH  20  21
BRANCH  20  23
HETATM   23  N3  UNL     1       3.390  -0.638  -1.350  1.00  0.00    -0.369 N 
ATOM     24  H3  UNL     1       3.039  -1.341  -0.700  1.00  0.00     0.161 HD
BRANCH  23  25
HETATM   25  C13 UNL     1       4.639   0.036  -1.024  1.00  0.00     0.083 C 
HETATM   26  C14 UNL     1       5.527  -0.893  -0.256  1.00  0.00     0.025 C 
HETATM   27  C15 UNL     1       6.490   0.013   0.452  1.00  0.00     0.002 C 
HETATM   28  C16 UNL     1       5.676   1.258   0.762  1.00  0.00     0.002 C 
HETATM   29  C17 UNL     1       4.345   1.099   0.033  1.00  0.00     0.025 C 
ENDBRANCH  23  25
ENDBRANCH  20  23
ENDBRANCH  19  20
ENDBRANCH  18  19
ENDBRANCH   7  18
TORSDOF 7
