REMARK  7 active torsions:
REMARK  status: ('A' for Active; 'I' for Inactive)
REMARK    1  A    between atoms: C7_7  and  O1_8 
REMARK    2  A    between atoms: C14_17  and  C15_18 
REMARK    3  A    between atoms: C15_18  and  O4_20 
REMARK    4  A    between atoms: O4_20  and  C16_21 
REMARK    5  A    between atoms: C16_21  and  C17_22 
REMARK    6  A    between atoms: C17_22  and  C18_23 
REMARK    7  A    between atoms: C18_23  and  O5_24 
ROOT
HETATM    1  C1  UNL     1      -5.726   1.991  -0.331  1.00  0.00     0.019 C 
HETATM    2  C2  UNL     1      -4.581   1.408  -0.039  1.00  0.00    -0.055 C 
HETATM    3  C3  UNL     1      -3.215   1.504  -0.644  1.00  0.00     0.081 C 
HETATM    4  C4  UNL     1      -2.808   0.266   0.125  1.00  0.00     0.093 C 
HETATM    5  C5  UNL     1      -2.838  -0.940  -0.765  1.00  0.00     0.051 C 
HETATM    6  C6  UNL     1      -1.429  -1.411  -1.124  1.00  0.00     0.025 C 
HETATM    7  C7  UNL     1      -0.933  -2.184   0.091  1.00  0.00     0.130 C 
HETATM    8  C8  UNL     1       0.058  -1.274   0.762  1.00  0.00     0.059 C 
HETATM    9  C9  UNL     1      -0.507   0.102   0.375  1.00  0.00     0.135 C 
HETATM   10  O2  UNL     1      -1.706   0.369   0.921  1.00  0.00    -0.369 OA
HETATM   11  C10 UNL     1      -0.557  -0.187  -1.133  1.00  0.00     0.030 C 
HETATM   12  C11 UNL     1       0.911  -0.535  -1.336  1.00  0.00    -0.028 C 
HETATM   13  C12 UNL     1       1.017  -1.406  -2.554  1.00  0.00     0.016 C 
HETATM   14  C13 UNL     1       1.690   0.722  -1.517  1.00  0.00     0.016 C 
HETATM   15  C14 UNL     1       1.318  -1.292  -0.067  1.00  0.00     0.103 C 
HETATM   16  C19 UNL     1      -4.047   0.455   0.918  1.00  0.00    -0.022 C 
HETATM   17  C20 UNL     1      -4.513  -0.032   2.051  1.00  0.00    -0.020 C 
HETATM   18  C21 UNL     1      -5.820   0.359   2.606  1.00  0.00     0.036 C 
ENDROOT
BRANCH  15  19
HETATM   19  C15 UNL     1       2.443  -0.664   0.620  1.00  0.00     0.264 C 
HETATM   20  O3  UNL     1       2.286  -0.191   1.771  1.00  0.00    -0.265 OA
BRANCH  19  21
HETATM   21  O4  UNL     1       3.707  -0.556   0.067  1.00  0.00    -0.321 OA
BRANCH  21  22
HETATM   22  C16 UNL     1       4.791   0.053   0.739  1.00  0.00     0.180 C 
BRANCH  22  23
HETATM   23  C17 UNL     1       6.010  -0.006  -0.157  1.00  0.00     0.053 C 
BRANCH  23  24
HETATM   24  C18 UNL     1       7.205   0.634   0.515  1.00  0.00     0.166 C 
BRANCH  24  25
HETATM   25  O5  UNL     1       6.924   1.989   0.804  1.00  0.00    -0.401 OA
ATOM     26  H5  UNL     1       7.674   2.391   1.226  1.00  0.00     0.209 HD
ENDBRANCH  24  25
ENDBRANCH  23  24
ENDBRANCH  22  23
ENDBRANCH  21  22
ENDBRANCH  19  21
ENDBRANCH  15  19
BRANCH   7  27
HETATM   27  O1  UNL     1      -1.947  -2.610   0.907  1.00  0.00    -0.395 OA
ATOM     28  H1  UNL     1      -1.638  -3.092   1.665  1.00  0.00     0.210 HD
ENDBRANCH   7  27
TORSDOF 7
