REMARK  6 active torsions:
REMARK  status: ('A' for Active; 'I' for Inactive)
REMARK    1  A    between atoms: C2_2  and  C3_3 
REMARK    2  A    between atoms: C9_13  and  C10_14 
REMARK    3  A    between atoms: C10_14  and  C11_15 
REMARK    4  A    between atoms: C11_15  and  O3_17 
REMARK    5  A    between atoms: O3_17  and  C12_18 
REMARK    6  A    between atoms: C16_22  and  C17_23 
ROOT
HETATM    1  C3  UNL     1      -3.657   0.968   0.160  1.00  0.00    -0.082 C 
HETATM    2  C4  UNL     1      -4.078  -0.093   0.818  1.00  0.00    -0.022 C 
HETATM    3  C5  UNL     1      -4.106  -1.571   0.817  1.00  0.00     0.056 C 
HETATM    4  C6  UNL     1      -4.074  -2.190  -0.547  1.00  0.00     0.188 C 
HETATM    5  C7  UNL     1      -4.390  -3.627  -0.359  1.00  0.00     0.073 C 
HETATM    6  N1  UNL     1      -4.616  -4.744  -0.210  1.00  0.00    -0.196 NA
HETATM    7  C8  UNL     1      -2.742  -2.076  -1.174  1.00  0.00     0.236 C 
HETATM    8  O1  UNL     1      -2.252  -3.200  -1.498  1.00  0.00    -0.272 OA
HETATM    9  N2  UNL     1      -1.855  -1.042  -1.514  1.00  0.00    -0.355 N 
ATOM     10  H2  UNL     1      -1.209  -1.336  -2.247  1.00  0.00     0.162 HD
HETATM   11  C9  UNL     1      -1.607   0.310  -1.116  1.00  0.00     0.097 C 
HETATM   12  C19 UNL     1      -2.884   1.121  -1.101  1.00  0.00     0.059 C 
ENDROOT
BRANCH   1  13
HETATM   13  C2  UNL     1      -4.037   2.227   0.820  1.00  0.00     0.029 C 
HETATM   14  C1  UNL     1      -4.912   3.102  -0.052  1.00  0.00     0.010 C 
ENDBRANCH   1  13
BRANCH  11  15
HETATM   15  C10 UNL     1      -0.844   0.462   0.169  1.00  0.00     0.136 C 
BRANCH  15  16
HETATM   16  C11 UNL     1       0.463  -0.221  -0.026  1.00  0.00     0.261 C 
HETATM   17  O2  UNL     1       0.487  -1.404  -0.511  1.00  0.00    -0.265 OA
BRANCH  16  18
HETATM   18  O3  UNL     1       1.685   0.317   0.270  1.00  0.00    -0.316 OA
BRANCH  18  19
HETATM   19  C12 UNL     1       2.913  -0.396   0.058  1.00  0.00     0.132 C 
HETATM   20  C13 UNL     1       3.649   0.293  -1.048  1.00  0.00     0.032 C 
HETATM   21  C14 UNL     1       4.549   1.362  -0.517  1.00  0.00     0.004 C 
HETATM   22  C15 UNL     1       5.547   0.902   0.503  1.00  0.00     0.015 C 
HETATM   23  C16 UNL     1       5.126  -0.326   1.250  1.00  0.00     0.089 C 
HETATM   24  C18 UNL     1       3.640  -0.512   1.342  1.00  0.00     0.048 C 
BRANCH  23  25
HETATM   25  C17 UNL     1       5.816  -1.536   0.729  1.00  0.00     0.177 C 
HETATM   26  O4  UNL     1       5.179  -2.506   0.189  1.00  0.00    -0.648 OA
HETATM   27  O5  UNL     1       7.190  -1.687   0.793  1.00  0.00    -0.648 OA
ENDBRANCH  23  25
ENDBRANCH  18  19
ENDBRANCH  16  18
ENDBRANCH  15  16
ENDBRANCH  11  15
TORSDOF 6
