REMARK  4 active torsions:
REMARK  status: ('A' for Active; 'I' for Inactive)
REMARK    1  A    between atoms: C3_5  and  S1_6 
REMARK    2  A    between atoms: S1_6  and  C4_7 
REMARK    3  A    between atoms: C4_7  and  C5_8 
REMARK    4  A    between atoms: C5_8  and  N2_9 
ROOT
HETATM    1  C5  UNL     1      -0.173  -1.973   0.157  1.00  0.00     0.283 C 
ENDROOT
BRANCH   1   2
HETATM    2  C4  UNL     1       1.255  -1.555   0.213  1.00  0.00     0.112 C 
BRANCH   2   3
HETATM    3  S1  UNL     1       1.660  -0.189  -0.873  1.00  0.00    -0.093 SA
BRANCH   3   4
HETATM    4  C3  UNL     1       3.392   0.204  -0.694  1.00  0.00     0.136 C 
HETATM    5  N1  UNL     1       4.115   1.247  -1.386  1.00  0.00    -0.369 N 
HETATM    6  C2  UNL     1       5.320   1.499  -0.618  1.00  0.00     0.141 C 
ATOM      7  H1  UNL     1       3.833   1.715  -2.247  1.00  0.00     0.161 HD
HETATM    8  C1  UNL     1       5.537   0.138   0.012  1.00  0.00     0.141 C 
HETATM    9  N3  UNL     1       4.207  -0.409   0.088  1.00  0.00    -0.369 N 
ATOM     10  H3  UNL     1       3.944  -1.189   0.690  1.00  0.00     0.161 HD
ENDBRANCH   3   4
ENDBRANCH   2   3
ENDBRANCH   1   2
BRANCH   1  11
HETATM   11  N2  UNL     1      -1.075  -0.921   0.523  1.00  0.00     0.091 N 
HETATM   12  C6  UNL     1      -1.015  -0.536   1.906  1.00  0.00     0.298 C 
HETATM   13  C7  UNL     1      -1.422   0.944   1.942  1.00  0.00     0.198 C 
HETATM   14  O1  UNL     1      -2.640   1.123   1.333  1.00  0.00    -0.384 OA
HETATM   15  C8  UNL     1      -2.610   1.103  -0.047  1.00  0.00     0.127 C 
HETATM   16  C9  UNL     1      -3.972   1.607  -0.555  1.00  0.00     0.033 C 
HETATM   17  C11 UNL     1      -3.067  -0.260  -0.591  1.00  0.00     0.043 C 
HETATM   18  C10 UNL     1      -4.465   0.189  -0.224  1.00  0.00     0.011 C 
HETATM   19  C12 UNL     1      -2.449  -1.316   0.254  1.00  0.00     0.279 C 
ENDBRANCH   1  11
TORSDOF 4
