REMARK  5 active torsions:
REMARK  status: ('A' for Active; 'I' for Inactive)
REMARK    1  A    between atoms: C2_2  and  C3_3 
REMARK    2  A    between atoms: C6_8  and  C7_9 
REMARK    3  A    between atoms: C7_9  and  N1_10 
REMARK    4  A    between atoms: N1_10  and  C8_12 
REMARK    5  A    between atoms: C8_12  and  S2_14 
ROOT
HETATM    1  C3  UNL     1      -1.732   0.323   0.452  1.00  0.00     0.260 C 
HETATM    2  O1  UNL     1      -2.277  -0.580  -0.454  1.00  0.00    -0.351 OA
HETATM    3  C4  UNL     1      -1.610  -1.768  -0.069  1.00  0.00     0.180 C 
HETATM    4  C5  UNL     1      -1.074  -2.508  -1.252  1.00  0.00     0.203 C 
HETATM    5  O2  UNL     1       0.115  -3.073  -0.794  1.00  0.00    -0.379 OA
HETATM    6  C6  UNL     1       0.729  -2.045  -0.084  1.00  0.00     0.170 C 
HETATM    7  C10 UNL     1      -0.333  -1.293   0.616  1.00  0.00     0.186 C 
HETATM    8  O3  UNL     1      -0.369   0.072   0.304  1.00  0.00    -0.351 OA
ENDROOT
BRANCH   6   9
HETATM    9  C7  UNL     1       1.566  -1.240  -1.023  1.00  0.00     0.155 C 
BRANCH   9  10
HETATM   10  N1  UNL     1       2.228  -0.155  -0.333  1.00  0.00    -0.373 N 
ATOM     11  H1  UNL     1       2.075  -0.042   0.669  1.00  0.00     0.161 HD
BRANCH  10  12
HETATM   12  C8  UNL     1       3.090   0.765  -1.009  1.00  0.00     0.134 C 
HETATM   13  S1  UNL     1       3.337   0.592  -2.603  1.00  0.00    -0.053 SA
BRANCH  12  14
HETATM   14  S2  UNL     1       3.899   2.098  -0.141  1.00  0.00    -0.105 SA
HETATM   15  C9  UNL     1       3.500   2.119   1.604  1.00  0.00     0.098 C 
ENDBRANCH  12  14
ENDBRANCH  10  12
ENDBRANCH   9  10
ENDBRANCH   6   9
BRANCH   1  16
HETATM   16  C2  UNL     1      -2.098   1.746   0.157  1.00  0.00     0.056 C 
HETATM   17  C1  UNL     1      -3.564   2.011   0.178  1.00  0.00     0.010 C 
ENDBRANCH   1  16
TORSDOF 5
