REMARK  4 active torsions:
REMARK  status: ('A' for Active; 'I' for Inactive)
REMARK    1  A    between atoms: O1_1  and  C1_3 
REMARK    2  A    between atoms: C4_6  and  N1_7 
REMARK    3  A    between atoms: C8_11  and  C9_12 
REMARK    4  A    between atoms: C9_12  and  N2_13 
ROOT
HETATM    1  N1  UNL     1      -0.294  -0.231  -0.751  1.00  0.00     0.093 N 
HETATM    2  C5  UNL     1       0.226  -1.555  -0.730  1.00  0.00     0.273 C 
HETATM    3  C6  UNL     1       0.961  -1.920   0.522  1.00  0.00     0.031 C 
HETATM    4  C7  UNL     1       2.213  -1.055   0.584  1.00  0.00     0.010 C 
HETATM    5  C8  UNL     1       1.865   0.349   0.232  1.00  0.00     0.034 C 
HETATM    6  C12 UNL     1       0.399   0.653   0.169  1.00  0.00     0.279 C 
ENDROOT
BRANCH   1   7
HETATM    7  C4  UNL     1      -1.708  -0.080  -0.640  1.00  0.00     0.223 C 
HETATM    8  C3  UNL     1      -2.145   0.897   0.415  1.00  0.00     0.038 C 
HETATM    9  C2  UNL     1      -3.588   1.284   0.033  1.00  0.00     0.034 C 
HETATM   10  C1  UNL     1      -4.426   0.083  -0.276  1.00  0.00     0.118 C 
HETATM   11  C14 UNL     1      -3.774  -1.131   0.329  1.00  0.00     0.034 C 
HETATM   12  C13 UNL     1      -2.414  -1.389  -0.330  1.00  0.00     0.038 C 
BRANCH  10  13
HETATM   13  O1  UNL     1      -5.688   0.236   0.287  1.00  0.00    -0.396 OA
ATOM     14  H1  UNL     1      -6.220  -0.526   0.091  1.00  0.00     0.210 HD
ENDBRANCH  10  13
ENDBRANCH   1   7
BRANCH   5  15
HETATM   15  C9  UNL     1       2.658   0.906  -0.925  1.00  0.00     0.156 C 
BRANCH  15  16
HETATM   16  N2  UNL     1       4.074   0.968  -0.649  1.00  0.00    -0.286 N 
HETATM   17  C10 UNL     1       4.680   2.084  -0.109  1.00  0.00     0.201 A 
HETATM   18  N3  UNL     1       5.981   1.832   0.044  1.00  0.00    -0.346 N 
HETATM   19  C11 UNL     1       6.231   0.596  -0.386  1.00  0.00     0.198 A 
ATOM     20  H3  UNL     1       6.671   2.479   0.427  1.00  0.00     0.167 HD
HETATM   21  N4  UNL     1       5.043   0.093  -0.801  1.00  0.00    -0.293 N 
ATOM     22  H4  UNL     1       4.917  -0.845  -1.182  1.00  0.00     0.188 HD
ENDBRANCH  15  16
ENDBRANCH   5  15
TORSDOF 4
