REMARK  4 active torsions:
REMARK  status: ('A' for Active; 'I' for Inactive)
REMARK    1  A    between atoms: C2_2  and  C3_3 
REMARK    2  A    between atoms: C4_5  and  O2_6 
REMARK    3  A    between atoms: C6_10  and  O4_11 
REMARK    4  A    between atoms: C7_13  and  O5_14 
ROOT
HETATM    1  C3  UNL     1       0.281   0.319  -0.427  1.00  0.00     0.196 C 
HETATM    2  O1  UNL     1      -0.711   0.494  -1.389  1.00  0.00    -0.320 OA
HETATM    3  C4  UNL     1      -1.911   0.680  -0.682  1.00  0.00     0.292 C 
HETATM    4  C5  UNL     1      -1.477   0.309   0.715  1.00  0.00     0.211 C 
HETATM    5  O3  UNL     1      -0.223   0.972   0.728  1.00  0.00    -0.340 OA
HETATM    6  C6  UNL     1      -1.086  -1.145   0.750  1.00  0.00     0.186 C 
HETATM    7  C7  UNL     1       0.311  -1.091   0.107  1.00  0.00     0.212 C 
ENDROOT
BRANCH   1   8
HETATM    8  C2  UNL     1       1.586   0.851  -0.863  1.00  0.00     0.067 C 
HETATM    9  C1  UNL     1       2.696   0.698   0.117  1.00  0.00     0.010 C 
ENDBRANCH   1   8
BRANCH   7  10
HETATM   10  O5  UNL     1       0.461  -2.042  -0.866  1.00  0.00    -0.387 OA
ATOM     11  H5  UNL     1       0.480  -2.930  -0.530  1.00  0.00     0.210 HD
ENDBRANCH   7  10
BRANCH   3  12
HETATM   12  O2  UNL     1      -2.199   2.024  -0.705  1.00  0.00    -0.368 OA
ATOM     13  H2  UNL     1      -3.010   2.150  -0.227  1.00  0.00     0.212 HD
ENDBRANCH   3  12
BRANCH   6  14
HETATM   14  O4  UNL     1      -1.025  -1.659   2.036  1.00  0.00    -0.390 OA
ATOM     15  H4  UNL     1      -0.778  -2.576   2.058  1.00  0.00     0.210 HD
ENDBRANCH   6  14
TORSDOF 4
