REMARK  7 active torsions:
REMARK  status: ('A' for Active; 'I' for Inactive)
REMARK    1  A    between atoms: C5_6  and  O1_7 
REMARK    2  A    between atoms: O1_7  and  C6_8 
REMARK    3  A    between atoms: C10_15  and  N2_16 
REMARK       I    between atoms: N2_16  and  C11_18 
REMARK    4  A    between atoms: C11_18  and  C12_20 
REMARK    5  A    between atoms: C12_20  and  C13_21 
REMARK    6  A    between atoms: C13_21  and  S2_22 
REMARK    7  A    between atoms: S2_22  and  C14_23 
ROOT
HETATM    1  N1  UNL     1      -7.456   3.457  -1.464  1.00  0.00    -0.191 NA
HETATM    2  C1  UNL     1      -6.611   2.714  -1.196  1.00  0.00     0.099 C 
HETATM    3  C2  UNL     1      -5.568   1.803  -0.844  1.00  0.00     0.044 A 
HETATM    4  C3  UNL     1      -4.300   1.953  -1.332  1.00  0.00     0.025 A 
HETATM    5  C4  UNL     1      -3.285   1.070  -0.990  1.00  0.00     0.038 A 
HETATM    6  C5  UNL     1      -3.487   0.001  -0.150  1.00  0.00     0.069 A 
HETATM    7  C15 UNL     1      -4.798  -0.144   0.348  1.00  0.00     0.038 A 
HETATM    8  C16 UNL     1      -5.786   0.736   0.000  1.00  0.00     0.025 A 
ENDROOT
BRANCH   6   9
HETATM    9  O1  UNL     1      -2.529  -0.908   0.228  1.00  0.00    -0.340 OA
BRANCH   9  10
HETATM   10  C6  UNL     1      -1.213  -0.894  -0.183  1.00  0.00     0.176 C 
HETATM   11  C7  UNL     1      -0.856  -2.141  -0.933  1.00  0.00     0.019 C 
HETATM   12  C8  UNL     1      -0.566  -3.281  -0.324  1.00  0.00     0.107 C 
HETATM   13  S1  UNL     1      -0.602  -3.324   1.412  1.00  0.00     0.167 S 
HETATM   14  O2  UNL     1       0.427  -4.304   1.928  1.00  0.00    -0.223 OA
HETATM   15  O3  UNL     1      -1.961  -3.765   1.924  1.00  0.00    -0.223 OA
HETATM   16  C9  UNL     1      -0.263  -1.699   2.018  1.00  0.00     0.172 C 
HETATM   17  C10 UNL     1      -0.232  -0.660   0.954  1.00  0.00     0.132 C 
BRANCH  17  18
HETATM   18  N2  UNL     1       1.098  -0.576   0.333  1.00  0.00    -0.353 N 
HETATM   19  C11 UNL     1       1.853   0.619   0.370  1.00  0.00     0.218 C 
HETATM   20  O4  UNL     1       1.351   1.614   0.954  1.00  0.00    -0.274 OA
ATOM     21  H2  UNL     1       1.484  -1.397  -0.134  1.00  0.00     0.163 HD
BRANCH  19  22
HETATM   22  C12 UNL     1       3.181   0.684  -0.257  1.00  0.00     0.113 C 
BRANCH  22  23
HETATM   23  C13 UNL     1       3.817   2.058  -0.088  1.00  0.00     0.093 C 
BRANCH  23  24
HETATM   24  S2  UNL     1       5.433   2.146  -0.852  1.00  0.00    -0.072 SA
BRANCH  24  25
HETATM   25  C14 UNL     1       6.618   1.089  -0.046  1.00  0.00     0.292 C 
HETATM   26  N3  UNL     1       7.969   0.999  -0.478  1.00  0.00    -0.051 NA
HETATM   27  O5  UNL     1       6.299   0.368   0.955  1.00  0.00    -0.264 OA
ENDBRANCH  24  25
ENDBRANCH  23  24
ENDBRANCH  22  23
ENDBRANCH  19  22
ENDBRANCH  17  18
ENDBRANCH   9  10
ENDBRANCH   6   9
TORSDOF 7
