REMARK  6 active torsions:
REMARK  status: ('A' for Active; 'I' for Inactive)
REMARK    1  A    between atoms: S1_3  and  C3_4 
REMARK    2  A    between atoms: C3_4  and  O1_5 
REMARK    3  A    between atoms: C3_4  and  C5_7 
REMARK    4  A    between atoms: C8_12  and  N1_13 
REMARK       I    between atoms: N1_13  and  C9_15 
REMARK    5  A    between atoms: C9_15  and  C10_17 
REMARK    6  A    between atoms: C13_22  and  C14_23 
ROOT
HETATM    1  C1  UNL     1      -4.454   2.164   3.203  1.00  0.00     0.025 C 
HETATM    2  C2  UNL     1      -4.447   1.080   2.705  1.00  0.00    -0.042 C 
HETATM    3  S1  UNL     1      -4.458  -0.507   1.981  1.00  0.00    -0.046 SA
ENDROOT
BRANCH   3   4
HETATM    4  C3  UNL     1      -3.519  -0.482   0.411  1.00  0.00     0.207 C 
BRANCH   4   5
HETATM    5  O1  UNL     1      -3.514  -1.726  -0.179  1.00  0.00    -0.379 OA
HETATM    6  C4  UNL     1      -4.238  -1.847  -1.334  1.00  0.00     0.203 C 
ENDBRANCH   4   5
BRANCH   4   7
HETATM    7  C5  UNL     1      -2.151   0.118   0.617  1.00  0.00     0.110 C 
HETATM    8  C6  UNL     1      -1.361  -0.640   1.581  1.00  0.00     0.057 C 
HETATM    9  S2  UNL     1      -1.963  -1.657   2.362  1.00  0.00    -0.077 SA
HETATM   10  S3  UNL     1       0.388  -0.334   1.824  1.00  0.00    -0.094 SA
HETATM   11  C7  UNL     1       0.813   0.760   0.405  1.00  0.00     0.187 C 
HETATM   12  C8  UNL     1       2.059   0.410  -0.309  1.00  0.00     0.210 C 
HETATM   13  N2  UNL     1      -0.038   0.274  -0.667  1.00  0.00    -0.318 N 
HETATM   14  C12 UNL     1       1.154  -0.190  -1.318  1.00  0.00     0.247 C 
HETATM   15  O3  UNL     1       1.375  -0.860  -2.359  1.00  0.00    -0.271 OA
HETATM   16  C13 UNL     1      -1.471   0.411  -0.677  1.00  0.00     0.202 C 
BRANCH  12  17
HETATM   17  N1  UNL     1       2.946  -0.526   0.304  1.00  0.00    -0.345 N 
HETATM   18  C9  UNL     1       4.323  -0.212   0.414  1.00  0.00     0.217 C 
HETATM   19  O2  UNL     1       4.742   0.894  -0.033  1.00  0.00    -0.274 OA
ATOM     20  H1  UNL     1       2.591  -1.414   0.660  1.00  0.00     0.163 HD
BRANCH  18  21
HETATM   21  C10 UNL     1       5.296  -1.147   1.042  1.00  0.00     0.098 C 
HETATM   22  C11 UNL     1       6.686  -0.607   1.047  1.00  0.00     0.014 C 
ENDBRANCH  18  21
ENDBRANCH  12  17
BRANCH  16  23
HETATM   23  C14 UNL     1      -1.784   1.803  -1.130  1.00  0.00     0.197 C 
HETATM   24  O4  UNL     1      -0.891   2.624  -1.423  1.00  0.00    -0.646 OA
HETATM   25  O5  UNL     1      -3.103   2.244  -1.243  1.00  0.00    -0.646 OA
ENDBRANCH  16  23
ENDBRANCH   4   7
ENDBRANCH   3   4
TORSDOF 6
