REMARK  7 active torsions:
REMARK  status: ('A' for Active; 'I' for Inactive)
REMARK    1  A    between atoms: N1_2  and  C2_4 
REMARK    2  A    between atoms: N3_9  and  C5_10 
REMARK    3  A    between atoms: C5_10  and  C6_11 
REMARK    4  A    between atoms: C6_11  and  N4_12 
REMARK    5  A    between atoms: N4_12  and  C7_13 
REMARK    6  A    between atoms: N4_12  and  C11_21 
REMARK       I    between atoms: N6_16  and  C9_18 
REMARK    7  A    between atoms: C14_24  and  S1_25 
ROOT
HETATM    1  C7  UNL     1      -0.790   2.129   0.785  1.00  0.00     0.193 C 
HETATM    2  C8  UNL     1      -0.785   1.867   2.166  1.00  0.00     0.137 C 
HETATM    3  N5  UNL     1      -0.766   1.663   3.324  1.00  0.00    -0.188 NA
HETATM    4  N6  UNL     1      -1.138   3.237   0.294  1.00  0.00    -0.304 N 
ATOM      5  H6  UNL     1      -1.092   3.286  -0.724  1.00  0.00     0.171 HD
HETATM    6  C9  UNL     1      -1.574   4.403   0.915  1.00  0.00     0.219 C 
HETATM    7  C10 UNL     1      -1.780   5.640   0.078  1.00  0.00     0.117 C 
HETATM    8  O1  UNL     1      -1.825   4.540   2.155  1.00  0.00    -0.274 OA
ENDROOT
BRANCH   1   9
HETATM    9  N4  UNL     1      -0.378   1.091  -0.123  1.00  0.00    -0.323 N 
BRANCH   9  10
HETATM   10  C6  UNL     1       0.771   1.219  -0.951  1.00  0.00     0.152 C 
BRANCH  10  11
HETATM   11  C5  UNL     1       2.105   1.263  -0.326  1.00  0.00     0.167 C 
BRANCH  11  12
HETATM   12  N3  UNL     1       2.537   0.137   0.429  1.00  0.00    -0.191 N 
HETATM   13  C2  UNL     1       3.183  -0.916  -0.176  1.00  0.00     0.679 A 
HETATM   14  N2  UNL     1       3.493  -1.811   0.767  1.00  0.00    -0.201 N 
HETATM   15  C3  UNL     1       3.077  -1.396   1.978  1.00  0.00     0.124 A 
ATOM     16  H2  UNL     1       3.979  -2.690   0.592  1.00  0.00     0.183 HD
HETATM   17  C4  UNL     1       2.485  -0.176   1.727  1.00  0.00     0.126 A 
BRANCH  13  18
HETATM   18  N1  UNL     1       3.428  -0.990  -1.447  1.00  0.00    -0.230 N 
HETATM   19  C1  UNL     1       4.108  -2.134  -2.007  1.00  0.00     0.165 C 
ATOM     20  H1  UNL     1       3.136  -0.229  -2.060  1.00  0.00     0.177 HD
ENDBRANCH  13  18
ENDBRANCH  11  12
ENDBRANCH  10  11
ENDBRANCH   9  10
BRANCH   9  21
HETATM   21  C11 UNL     1      -1.199  -0.040  -0.162  1.00  0.00     0.036 A 
HETATM   22  C12 UNL     1      -2.079  -0.181  -1.235  1.00  0.00     0.031 A 
HETATM   23  C13 UNL     1      -2.898  -1.290  -1.260  1.00  0.00     0.028 A 
HETATM   24  C14 UNL     1      -2.891  -2.261  -0.283  1.00  0.00     0.080 A 
HETATM   25  C15 UNL     1      -2.019  -2.104   0.763  1.00  0.00     0.028 A 
HETATM   26  C16 UNL     1      -1.179  -0.981   0.803  1.00  0.00     0.031 A 
BRANCH  24  27
HETATM   27  S1  UNL     1      -3.928  -3.663  -0.314  1.00  0.00     0.137 S 
HETATM   28  O2  UNL     1      -4.069  -4.234   1.074  1.00  0.00    -0.591 OA
HETATM   29  O3  UNL     1      -5.268  -3.404  -0.879  1.00  0.00    -0.591 OA
HETATM   30  O4  UNL     1      -3.157  -4.859  -1.228  1.00  0.00    -0.591 OA
ENDBRANCH  24  27
ENDBRANCH   9  21
ENDBRANCH   1   9
TORSDOF 7
