REMARK  6 active torsions:
REMARK  status: ('A' for Active; 'I' for Inactive)
REMARK    1  A    between atoms: N1_4  and  C4_5 
REMARK    2  A    between atoms: C4_5  and  C5_6 
REMARK    3  A    between atoms: C8_19  and  N7_20 
REMARK    4  A    between atoms: N7_20  and  C9_22 
REMARK    5  A    between atoms: C9_22  and  C10_23 
REMARK    6  A    between atoms: C11_24  and  O1_25 
ROOT
HETATM    1  C1  UNL     1       1.162  -3.262   0.889  1.00  0.00     0.054 C 
HETATM    2  C2  UNL     1       0.210  -2.140   0.944  1.00  0.00     0.001 A 
HETATM    3  C3  UNL     1      -1.094  -2.172   1.383  1.00  0.00     0.121 A 
HETATM    4  N1  UNL     1      -1.625  -0.938   1.273  1.00  0.00    -0.294 N 
HETATM    5  N6  UNL     1      -0.696  -0.146   0.781  1.00  0.00    -0.283 N 
ATOM      6  H6  UNL     1      -0.822   0.848   0.592  1.00  0.00     0.189 HD
HETATM    7  C8  UNL     1       0.443  -0.828   0.562  1.00  0.00     0.127 A 
ENDROOT
BRANCH   7   8
HETATM    8  N7  UNL     1       1.680  -0.349   0.041  1.00  0.00    -0.350 N 
ATOM      9  H7  UNL     1       2.329  -1.017  -0.374  1.00  0.00     0.166 HD
BRANCH   8  10
HETATM   10  C9  UNL     1       2.007   0.887   0.074  1.00  0.00     0.111 C 
BRANCH  10  11
HETATM   11  C10 UNL     1       3.293   1.288  -0.482  1.00  0.00     0.098 A 
HETATM   12  C11 UNL     1       4.150   0.362  -1.037  1.00  0.00     0.161 A 
HETATM   13  N8  UNL     1       5.339   0.772  -1.546  1.00  0.00    -0.288 N 
HETATM   14  C12 UNL     1       5.722   2.061  -1.531  1.00  0.00     0.329 A 
ATOM     15  H8  UNL     1       5.965   0.078  -1.955  1.00  0.00     0.172 HD
HETATM   16  O2  UNL     1       6.845   2.370  -2.024  1.00  0.00    -0.247 OA
HETATM   17  N9  UNL     1       4.893   2.959  -0.995  1.00  0.00    -0.275 N 
HETATM   18  C13 UNL     1       3.703   2.606  -0.477  1.00  0.00     0.265 A 
ATOM     19  H9  UNL     1       5.170   3.941  -0.978  1.00  0.00     0.173 HD
HETATM   20  O3  UNL     1       2.914   3.442   0.031  1.00  0.00    -0.267 OA
BRANCH  12  21
HETATM   21  O1  UNL     1       3.825  -0.991  -1.089  1.00  0.00    -0.345 OA
ATOM     22  H1  UNL     1       4.416  -1.629  -1.472  1.00  0.00     0.219 HD
ENDBRANCH  12  21
ENDBRANCH  10  11
ENDBRANCH   8  10
ENDBRANCH   7   8
BRANCH   4  23
HETATM   23  C4  UNL     1      -2.954  -0.494   1.610  1.00  0.00     0.226 C 
BRANCH  23  24
HETATM   24  C5  UNL     1      -3.905  -0.611   0.479  1.00  0.00     0.134 A 
HETATM   25  N2  UNL     1      -4.700  -1.609   0.110  1.00  0.00    -0.273 N 
HETATM   26  N3  UNL     1      -5.380  -1.285  -0.960  1.00  0.00    -0.131 N 
ATOM     27  H2  UNL     1      -4.771  -2.504   0.594  1.00  0.00     0.189 HD
HETATM   28  C6  UNL     1      -5.020  -0.044  -1.299  1.00  0.00     0.693 A 
ATOM     29  H3  UNL     1      -6.059  -1.871  -1.445  1.00  0.00     0.205 HD
HETATM   30  N4  UNL     1      -5.479   0.637  -2.319  1.00  0.00    -0.233 N 
HETATM   31  N5  UNL     1      -4.104   0.379  -0.409  1.00  0.00    -0.172 N 
ATOM     32  H42 UNL     1      -6.173   0.316  -2.994  1.00  0.00     0.174 HD
ATOM     33  H41 UNL     1      -5.204   1.585  -2.578  1.00  0.00     0.174 HD
HETATM   34  C7  UNL     1      -3.499   1.695  -0.484  1.00  0.00     0.177 C 
ENDBRANCH  23  24
ENDBRANCH   4  23
TORSDOF 6
