REMARK  7 active torsions:
REMARK  status: ('A' for Active; 'I' for Inactive)
REMARK    1  A    between atoms: O1_2  and  N1_3 
REMARK    2  A    between atoms: N1_3  and  C2_5 
REMARK    3  A    between atoms: C2_5  and  C3_6 
REMARK    4  A    between atoms: C2_5  and  C12_27 
REMARK    5  A    between atoms: C4_9  and  N3_10 
REMARK    6  A    between atoms: C6_16  and  C7_17 
REMARK    7  A    between atoms: C13_33  and  N10_34 
ROOT
HETATM    1  C3  UNL     1      -2.100   0.483  -0.085  1.00  0.00     0.140 A 
HETATM    2  N2  UNL     1      -1.569   1.157   0.934  1.00  0.00    -0.325 N 
ATOM      3  H2  UNL     1      -2.193   1.691   1.539  1.00  0.00     0.169 HD
HETATM    4  C4  UNL     1      -0.265   1.169   1.203  1.00  0.00     0.131 A 
HETATM    5  C5  UNL     1       0.629   0.465   0.418  1.00  0.00     0.122 A 
HETATM    6  N4  UNL     1       1.956   0.256   0.391  1.00  0.00    -0.339 N 
ATOM      7  H4  UNL     1       2.625   0.648   1.054  1.00  0.00     0.167 HD
HETATM    8  C6  UNL     1       2.271  -0.546  -0.638  1.00  0.00     0.091 A 
HETATM    9  N6  UNL     1       1.131  -0.845  -1.265  1.00  0.00    -0.330 N 
ATOM     10  H6  UNL     1       1.045  -1.439  -2.089  1.00  0.00     0.168 HD
HETATM   11  C11 UNL     1       0.111  -0.231  -0.628  1.00  0.00     0.139 A 
HETATM   12  N7  UNL     1      -1.211  -0.218  -0.865  1.00  0.00    -0.325 N 
ATOM     13  H7  UNL     1      -1.571  -0.751  -1.657  1.00  0.00     0.169 HD
ENDROOT
BRANCH   1  14
HETATM   14  C2  UNL     1      -3.502   0.424  -0.436  1.00  0.00     0.131 C 
BRANCH  14  15
HETATM   15  N1  UNL     1      -3.928  -0.251  -1.436  1.00  0.00    -0.261 N 
ATOM     16  H1  UNL     1      -4.941  -0.139  -1.479  1.00  0.00     0.194 HD
BRANCH  15  17
HETATM   17  O1  UNL     1      -3.582  -1.001  -2.389  1.00  0.00    -0.285 OA
HETATM   18  C1  UNL     1      -4.131  -2.274  -2.666  1.00  0.00     0.237 C 
ENDBRANCH  15  17
ENDBRANCH  14  15
BRANCH  14  19
HETATM   19  C12 UNL     1      -4.584   1.105   0.280  1.00  0.00     0.134 A 
HETATM   20  N8  UNL     1      -5.906   1.004  -0.112  1.00  0.00    -0.236 N 
HETATM   21  O2  UNL     1      -6.646   1.693   0.682  1.00  0.00    -0.155 OA
ATOM     22  H8  UNL     1      -6.243   0.465  -0.910  1.00  0.00     0.197 HD
HETATM   23  N9  UNL     1      -5.933   2.258   1.588  1.00  0.00    -0.224 N 
HETATM   24  C13 UNL     1      -4.621   1.904   1.361  1.00  0.00     0.152 A 
ATOM     25  H9  UNL     1      -6.275   2.859   2.338  1.00  0.00     0.198 HD
BRANCH  24  26
HETATM   26  N10 UNL     1      -3.672   2.326   2.118  1.00  0.00    -0.382 N 
ATOM     27 2H10 UNL     1      -2.701   2.064   1.950  1.00  0.00     0.157 HD
ATOM     28 1H10 UNL     1      -3.700   2.932   2.938  1.00  0.00     0.157 HD
ENDBRANCH  24  26
ENDBRANCH  14  19
ENDBRANCH   1  14
BRANCH   4  29
HETATM   29  N3  UNL     1       0.214   1.836   2.203  1.00  0.00    -0.383 N 
ATOM     30  H32 UNL     1      -0.446   2.355   2.782  1.00  0.00     0.157 HD
ATOM     31  H31 UNL     1       1.213   1.845   2.409  1.00  0.00     0.157 HD
ENDBRANCH   4  29
BRANCH   8  32
HETATM   32  C7  UNL     1       3.602  -1.014  -1.018  1.00  0.00     0.110 C 
HETATM   33  C8  UNL     1       4.712   0.014  -0.956  1.00  0.00     0.285 C 
HETATM   34  N5  UNL     1       5.586  -1.092  -0.529  1.00  0.00     0.085 N 
HETATM   35  C9  UNL     1       6.637  -0.711   0.367  1.00  0.00     0.309 C 
HETATM   36  C10 UNL     1       4.403  -1.654   0.121  1.00  0.00     0.285 C 
ENDBRANCH   8  32
TORSDOF 7
