REMARK  7 active torsions:
REMARK  status: ('A' for Active; 'I' for Inactive)
REMARK    1  A    between atoms: N1_1  and  C1_4 
REMARK    2  A    between atoms: C2_7  and  C3_8 
REMARK       I    between atoms: C3_8  and  N3_10 
REMARK    3  A    between atoms: N3_10  and  N4_12 
REMARK       I    between atoms: N4_12  and  C4_14 
REMARK    4  A    between atoms: C4_14  and  O3_16 
REMARK    5  A    between atoms: O3_16  and  C5_17 
REMARK    6  A    between atoms: C5_17  and  C6_18 
REMARK    7  A    between atoms: C7_26  and  S1_27 
ROOT
HETATM    1  C3  UNL     1      -1.576   0.555  -0.404  1.00  0.00     0.288 C 
HETATM    2  O1  UNL     1      -0.953   0.348  -1.501  1.00  0.00    -0.264 OA
HETATM    3  N3  UNL     1      -0.816   0.872   0.708  1.00  0.00    -0.260 N 
ATOM      4  H3  UNL     1      -1.278   1.056   1.599  1.00  0.00     0.190 HD
ENDROOT
BRANCH   3   5
HETATM    5  N4  UNL     1       0.590   0.944   0.624  1.00  0.00    -0.242 N 
HETATM    6  C4  UNL     1       1.350  -0.201   0.298  1.00  0.00     0.379 C 
HETATM    7  O2  UNL     1       0.797  -1.294   0.078  1.00  0.00    -0.237 OA
ATOM      8  H4  UNL     1       1.062   1.831   0.800  1.00  0.00     0.192 HD
BRANCH   6   9
HETATM    9  O3  UNL     1       2.725  -0.091   0.225  1.00  0.00    -0.295 OA
BRANCH   9  10
HETATM   10  C5  UNL     1       3.585  -1.182  -0.104  1.00  0.00     0.259 C 
BRANCH  10  11
HETATM   11  C6  UNL     1       4.988  -0.727  -0.089  1.00  0.00     0.134 A 
HETATM   12  N5  UNL     1       5.921  -1.010   0.853  1.00  0.00    -0.269 N 
HETATM   13  N6  UNL     1       7.033  -0.396   0.484  1.00  0.00    -0.005 NA
ATOM     14  H5  UNL     1       5.791  -1.585   1.685  1.00  0.00     0.185 HD
HETATM   15  N7  UNL     1       6.838   0.266  -0.656  1.00  0.00    -0.225 N 
HETATM   16  N8  UNL     1       5.594   0.056  -0.988  1.00  0.00    -0.273 N 
ATOM     17  H7  UNL     1       7.523   0.824  -1.166  1.00  0.00     0.205 HD
ATOM     18  H8  UNL     1       5.144   0.437  -1.820  1.00  0.00     0.189 HD
ENDBRANCH  10  11
ENDBRANCH   9  10
ENDBRANCH   6   9
ENDBRANCH   3   5
BRANCH   1  19
HETATM   19  C2  UNL     1      -3.060   0.441  -0.441  1.00  0.00     0.136 A 
HETATM   20  N2  UNL     1      -3.722   0.757  -1.538  1.00  0.00    -0.331 N 
HETATM   21  C1  UNL     1      -5.033   0.615  -1.560  1.00  0.00     0.144 A 
ATOM     22  H2  UNL     1      -3.226   1.106  -2.358  1.00  0.00     0.168 HD
HETATM   23  S2  UNL     1      -5.397   0.022  -0.018  1.00  0.00    -0.037 SA
HETATM   24  C7  UNL     1      -3.774  -0.022   0.620  1.00  0.00     0.157 A 
BRANCH  21  25
HETATM   25  N1  UNL     1      -5.861   0.873  -2.547  1.00  0.00    -0.380 N 
ATOM     26  H12 UNL     1      -5.642   1.231  -3.477  1.00  0.00     0.158 HD
ATOM     27  H11 UNL     1      -6.875   0.763  -2.564  1.00  0.00     0.158 HD
ENDBRANCH  21  25
BRANCH  24  28
HETATM   28  S1  UNL     1      -3.314  -0.593   2.224  1.00  0.00     0.147 S 
HETATM   29  O4  UNL     1      -2.091  -1.444   2.205  1.00  0.00    -0.591 OA
HETATM   30  O5  UNL     1      -4.487  -1.494   2.676  1.00  0.00    -0.591 OA
HETATM   31  O6  UNL     1      -3.292   0.632   3.362  1.00  0.00    -0.591 OA
ENDBRANCH  24  28
ENDBRANCH   1  19
TORSDOF 7
