REMARK  6 active torsions:
REMARK  status: ('A' for Active; 'I' for Inactive)
REMARK    1  A    between atoms: C2_3  and  N2_4 
REMARK    2  A    between atoms: C3_9  and  C4_10 
REMARK    3  A    between atoms: C4_10  and  S1_11 
REMARK    4  A    between atoms: S1_11  and  C5_12 
REMARK    5  A    between atoms: C7_20  and  N7_21 
REMARK    6  A    between atoms: N7_21  and  O1_23 
ROOT
HETATM    1  C5  UNL     1      -0.633  -1.000   0.639  1.00  0.00     0.104 A 
HETATM    2  N4  UNL     1      -0.063  -1.757  -0.312  1.00  0.00    -0.291 N 
ATOM      3  H4  UNL     1       0.832  -2.235  -0.213  1.00  0.00     0.187 HD
HETATM    4  N5  UNL     1      -0.819  -1.798  -1.392  1.00  0.00    -0.283 N 
ATOM      5  H5  UNL     1      -0.593  -2.311  -2.245  1.00  0.00     0.188 HD
HETATM    6  C6  UNL     1      -1.928  -1.067  -1.205  1.00  0.00     0.154 A 
HETATM    7  N6  UNL     1      -3.000  -0.783  -1.969  1.00  0.00    -0.172 N 
ATOM      8  H6  UNL     1      -3.065  -1.167  -2.912  1.00  0.00     0.186 HD
HETATM    9  C7  UNL     1      -3.980  -0.002  -1.502  1.00  0.00     0.708 A 
HETATM   10  N8  UNL     1      -3.906   0.513  -0.249  1.00  0.00    -0.149 N 
HETATM   11  C8  UNL     1      -4.952   1.361   0.284  1.00  0.00     0.179 C 
HETATM   12  C9  UNL     1      -2.847   0.251   0.548  1.00  0.00     0.278 A 
HETATM   13  O2  UNL     1      -2.792   0.740   1.714  1.00  0.00    -0.266 OA
HETATM   14  C10 UNL     1      -1.815  -0.554   0.093  1.00  0.00     0.113 A 
ENDROOT
BRANCH   1  15
HETATM   15  S1  UNL     1      -0.067  -0.597   2.282  1.00  0.00    -0.102 SA
BRANCH  15  16
HETATM   16  C4  UNL     1       0.931   0.914   2.169  1.00  0.00     0.158 C 
BRANCH  16  17
HETATM   17  C3  UNL     1       2.146   0.575   1.380  1.00  0.00     0.111 A 
HETATM   18  N3  UNL     1       2.223   0.692   0.049  1.00  0.00    -0.180 N 
HETATM   19  C2  UNL     1       3.369   0.364  -0.618  1.00  0.00     0.683 A 
ATOM     20  H3  UNL     1       1.415   1.030  -0.474  1.00  0.00     0.185 HD
HETATM   21  N1  UNL     1       4.452  -0.086   0.040  1.00  0.00    -0.137 N 
HETATM   22  C1  UNL     1       5.679  -0.439  -0.663  1.00  0.00     0.180 C 
HETATM   23  C11 UNL     1       4.373  -0.203   1.377  1.00  0.00     0.341 A 
HETATM   24  N9  UNL     1       3.241   0.123   2.027  1.00  0.00    -0.296 N 
HETATM   25  O3  UNL     1       5.402  -0.630   1.999  1.00  0.00    -0.246 OA
ATOM     26  H9  UNL     1       3.209   0.025   3.042  1.00  0.00     0.172 HD
BRANCH  19  27
HETATM   27  N2  UNL     1       3.436   0.481  -1.894  1.00  0.00    -0.234 N 
ATOM     28  H22 UNL     1       4.292   0.236  -2.392  1.00  0.00     0.174 HD
ATOM     29  H21 UNL     1       2.615   0.822  -2.393  1.00  0.00     0.174 HD
ENDBRANCH  19  27
ENDBRANCH  16  17
ENDBRANCH  15  16
ENDBRANCH   1  15
BRANCH   9  30
HETATM   30  N7  UNL     1      -5.036   0.305  -2.194  1.00  0.00    -0.098 N 
ATOM     31  H7  UNL     1      -5.766   0.903  -1.807  1.00  0.00     0.213 HD
BRANCH  30  32
HETATM   32  O1  UNL     1      -5.132  -0.205  -3.465  1.00  0.00    -0.276 OA
ATOM     33  H1  UNL     1      -5.904   0.019  -3.971  1.00  0.00     0.245 HD
ENDBRANCH  30  32
ENDBRANCH   9  30
TORSDOF 6
