REMARK  8 active torsions:
REMARK  status: ('A' for Active; 'I' for Inactive)
REMARK    1  A    between atoms: O1_2  and  C2_3 
REMARK    2  A    between atoms: C2_3  and  C3_5 
REMARK    3  A    between atoms: C3_5  and  C4_6 
REMARK    4  A    between atoms: C3_5  and  N5_18 
REMARK    5  A    between atoms: C5_12  and  N3_13 
REMARK    6  A    between atoms: N3_13  and  N4_15 
REMARK    7  A    between atoms: N5_18  and  O4_19 
REMARK       I    between atoms: N5_18  and  C6_21 
REMARK    8  A    between atoms: C6_21  and  C7_23 
ROOT
HETATM    1  C3  UNL     1      -1.425   0.558   0.362  1.00  0.00     0.272 C 
ENDROOT
BRANCH   1   2
HETATM    2  C2  UNL     1      -1.998   1.938   0.166  1.00  0.00     0.290 C 
HETATM    3  O2  UNL     1      -1.313   2.845  -0.369  1.00  0.00    -0.262 OA
BRANCH   2   4
HETATM    4  O1  UNL     1      -3.287   2.263   0.562  1.00  0.00    -0.325 OA
HETATM    5  C1  UNL     1      -3.824   3.567   0.375  1.00  0.00     0.213 C 
ENDBRANCH   2   4
ENDBRANCH   1   2
BRANCH   1   6
HETATM    6  C4  UNL     1      -2.207  -0.454  -0.374  1.00  0.00     0.116 A 
HETATM    7  N1  UNL     1      -2.682  -0.423  -1.628  1.00  0.00    -0.239 N 
HETATM    8  O3  UNL     1      -3.325  -1.538  -1.881  1.00  0.00    -0.155 OA
ATOM      9  H1  UNL     1      -2.562   0.349  -2.284  1.00  0.00     0.196 HD
HETATM   10  N2  UNL     1      -3.296  -2.324  -0.824  1.00  0.00    -0.222 N 
HETATM   11  C5  UNL     1      -2.602  -1.668   0.132  1.00  0.00     0.169 A 
ATOM     12  H2  UNL     1      -3.717  -3.250  -0.743  1.00  0.00     0.198 HD
BRANCH  11  13
HETATM   13  N3  UNL     1      -2.359  -2.118   1.315  1.00  0.00    -0.289 N 
ATOM     14  H3  UNL     1      -1.823  -1.535   1.958  1.00  0.00     0.188 HD
BRANCH  13  15
HETATM   15  N4  UNL     1      -2.798  -3.369   1.756  1.00  0.00    -0.344 N 
ATOM     16  H42 UNL     1      -3.333  -3.939   1.100  1.00  0.00     0.176 HD
ATOM     17  H41 UNL     1      -2.606  -3.725   2.692  1.00  0.00     0.176 HD
ENDBRANCH  13  15
ENDBRANCH  11  13
ENDBRANCH   1   6
BRANCH   1  18
HETATM   18  N5  UNL     1      -0.074   0.559  -0.156  1.00  0.00    -0.206 N 
HETATM   19  C6  UNL     1       1.077   0.267   0.622  1.00  0.00     0.281 C 
HETATM   20  O5  UNL     1       0.866  -0.008   1.840  1.00  0.00    -0.268 OA
BRANCH  18  21
HETATM   21  O4  UNL     1       0.102   0.858  -1.459  1.00  0.00    -0.284 OA
ATOM     22  H4  UNL     1       0.989   0.859  -1.799  1.00  0.00     0.245 HD
ENDBRANCH  18  21
BRANCH  19  23
HETATM   23  C7  UNL     1       2.433   0.270   0.099  1.00  0.00     0.217 C 
HETATM   24  C8  UNL     1       2.694  -0.790  -0.942  1.00  0.00     0.053 C 
HETATM   25  C9  UNL     1       4.100  -1.324  -0.626  1.00  0.00     0.047 C 
HETATM   26  C10 UNL     1       4.590  -0.311   0.346  1.00  0.00     0.248 C 
HETATM   27  N6  UNL     1       3.379  -0.070   1.148  1.00  0.00    -0.044 N 
HETATM   28  S1  UNL     1       4.681   1.335  -0.469  1.00  0.00    -0.133 SA
ATOM     29  H62 UNL     1       3.474   0.616   1.897  1.00  0.00     0.280 HD
ATOM     30  H61 UNL     1       3.099  -0.832   1.766  1.00  0.00     0.280 HD
HETATM   31  C11 UNL     1       2.866   1.658  -0.400  1.00  0.00     0.125 C 
ENDBRANCH  19  23
ENDBRANCH   1  18
TORSDOF 8
