REMARK  7 active torsions:
REMARK  status: ('A' for Active; 'I' for Inactive)
REMARK    1  A    between atoms: C2_3  and  C9_17 
REMARK    2  A    between atoms: N2_4  and  N3_6 
REMARK    3  A    between atoms: N3_6  and  C3_8 
REMARK    4  A    between atoms: C8_13  and  N4_14 
REMARK       I    between atoms: C9_17  and  N5_19 
REMARK    5  A    between atoms: N5_19  and  N6_20 
REMARK    6  A    between atoms: N6_20  and  C10_22 
REMARK    7  A    between atoms: C12_26  and  O4_27 
ROOT
HETATM    1  N1  UNL     1       2.490  -4.646   1.595  1.00  0.00    -0.190 NA
HETATM    2  C1  UNL     1       1.977  -3.724   1.128  1.00  0.00     0.126 C 
HETATM    3  C2  UNL     1       1.335  -2.560   0.501  1.00  0.00     0.213 C 
HETATM    4  N2  UNL     1       1.941  -1.505   0.522  1.00  0.00    -0.285 N 
ATOM      5  H2  UNL     1       2.823  -1.678   1.004  1.00  0.00     0.188 HD
ENDROOT
BRANCH   3   6
HETATM    6  C9  UNL     1       0.002  -2.857  -0.094  1.00  0.00     0.374 C 
HETATM    7  O3  UNL     1      -0.433  -4.039   0.010  1.00  0.00    -0.247 OA
HETATM    8  N5  UNL     1      -0.671  -1.824  -0.725  1.00  0.00    -0.264 NA
BRANCH   8   9
HETATM    9  N6  UNL     1      -1.305  -0.859  -1.319  1.00  0.00    -0.062 N 
ATOM     10  H6  UNL     1      -0.914  -0.512  -2.195  1.00  0.00     0.221 HD
BRANCH   9  11
HETATM   11  C10 UNL     1      -2.508  -0.242  -0.847  1.00  0.00     0.699 C 
HETATM   12  N7  UNL     1      -2.479   0.885  -0.234  1.00  0.00    -0.222 N 
HETATM   13  C11 UNL     1      -3.602   1.599   0.283  1.00  0.00     0.171 C 
ATOM     14  H7  UNL     1      -1.563   1.313  -0.103  1.00  0.00     0.177 HD
HETATM   15  C12 UNL     1      -4.892   1.123  -0.374  1.00  0.00     0.154 C 
HETATM   16  C13 UNL     1      -4.887  -0.404  -0.264  1.00  0.00     0.171 C 
HETATM   17  N8  UNL     1      -3.767  -0.839  -1.064  1.00  0.00    -0.222 N 
ATOM     18  H8  UNL     1      -3.884  -1.564  -1.772  1.00  0.00     0.177 HD
BRANCH  15  19
HETATM   19  O4  UNL     1      -6.031   1.647   0.218  1.00  0.00    -0.392 OA
ATOM     20  H4  UNL     1      -6.835   1.350  -0.192  1.00  0.00     0.210 HD
ENDBRANCH  15  19
ENDBRANCH   9  11
ENDBRANCH   8   9
ENDBRANCH   3   6
BRANCH   4  21
HETATM   21  N3  UNL     1       1.931  -0.225   0.179  1.00  0.00    -0.297 N 
ATOM     22  H3  UNL     1       1.058   0.264  -0.018  1.00  0.00     0.187 HD
BRANCH  21  23
HETATM   23  C3  UNL     1       3.220   0.457   0.094  1.00  0.00     0.081 A 
HETATM   24  C4  UNL     1       4.032   0.267  -1.007  1.00  0.00     0.033 A 
HETATM   25  C5  UNL     1       5.257   0.916  -1.099  1.00  0.00     0.002 A 
HETATM   26  C6  UNL     1       5.607   1.729  -0.068  1.00  0.00     0.003 A 
HETATM   27  C7  UNL     1       4.807   1.928   1.042  1.00  0.00     0.038 A 
HETATM   28  C8  UNL     1       3.561   1.272   1.143  1.00  0.00     0.130 A 
BRANCH  28  29
HETATM   29  N4  UNL     1       2.781   1.495   2.305  1.00  0.00    -0.113 N 
HETATM   30  O1  UNL     1       2.082   0.572   2.743  1.00  0.00    -0.532 OA
HETATM   31  O2  UNL     1       2.807   2.692   2.936  1.00  0.00    -0.532 OA
ENDBRANCH  28  29
ENDBRANCH  21  23
ENDBRANCH   4  21
TORSDOF 7
