REMARK  1 active torsions:
REMARK  status: ('A' for Active; 'I' for Inactive)
REMARK    1  A    between atoms: N1_5  and  N2_7 
ROOT
HETATM    1  N2  UNL     1      -0.706   0.079  -0.451  1.00  0.00    -0.326 N 
HETATM    2  C5  UNL     1      -0.983  -1.317  -0.303  1.00  0.00     0.144 C 
HETATM    3  C6  UNL     1      -2.410  -1.692  -0.615  1.00  0.00     0.049 C 
HETATM    4  C7  UNL     1      -3.384  -0.573  -0.405  1.00  0.00     0.234 C 
HETATM    5  N3  UNL     1      -3.113  -0.066   0.939  1.00  0.00    -0.073 N 
ATOM      6  H31 UNL     1      -2.558  -0.710   1.502  1.00  0.00     0.277 HD
ATOM      7  H32 UNL     1      -3.943  -0.050   1.532  1.00  0.00     0.277 HD
HETATM    8  C8  UNL     1      -2.506   1.214   0.802  1.00  0.00     0.253 C 
HETATM    9  C9  UNL     1      -1.345   1.301  -0.096  1.00  0.00     0.170 C 
ENDROOT
BRANCH   1  10
HETATM   10  N1  UNL     1       0.505   0.333  -1.117  1.00  0.00    -0.311 N 
HETATM   11  C4  UNL     1       1.624   0.351  -0.511  1.00  0.00     0.003 C 
HETATM   12  C3  UNL     1       1.984   0.140   0.909  1.00  0.00     0.054 C 
HETATM   13  C10 UNL     1       2.918   0.623  -1.229  1.00  0.00     0.054 C 
HETATM   14  C2  UNL     1       3.370  -0.476   0.795  1.00  0.00     0.006 C 
HETATM   15  C1  UNL     1       4.012   0.417  -0.238  1.00  0.00     0.006 C 
ATOM     16  H1  UNL     1       0.487   0.509  -2.122  1.00  0.00     0.186 HD
ENDBRANCH   1  10
TORSDOF 1
