REMARK  1 active torsions:
REMARK  status: ('A' for Active; 'I' for Inactive)
REMARK    1  A    between atoms: N1_4  and  C4_5 
ROOT
HETATM    1  C4  UNL     1       0.815  -0.126   0.054  1.00  0.00     0.671 C 
HETATM    2  N2  UNL     1       1.362  -0.912   0.914  1.00  0.00    -0.226 N 
ATOM      3  H2  UNL     1       0.740  -1.482   1.487  1.00  0.00     0.177 HD
HETATM    4  C5  UNL     1       2.783  -1.056   1.137  1.00  0.00     0.139 C 
HETATM    5  C6  UNL     1       3.510   0.177   0.651  1.00  0.00     0.040 C 
HETATM    6  C7  UNL     1       3.067   0.351  -0.806  1.00  0.00     0.139 C 
HETATM    7  N3  UNL     1       1.665   0.671  -0.749  1.00  0.00    -0.226 N 
ATOM      8  H3  UNL     1       1.291   1.459  -1.278  1.00  0.00     0.177 HD
ENDROOT
BRANCH   1   9
HETATM    9  N1  UNL     1      -0.618  -0.054  -0.094  1.00  0.00    -0.218 N 
HETATM   10  C3  UNL     1      -1.154   1.139  -0.667  1.00  0.00     0.141 C 
HETATM   11  C2  UNL     1      -2.621   1.317  -0.475  1.00  0.00     0.020 C 
HETATM   12  C1  UNL     1      -3.276  -0.050  -0.683  1.00  0.00     0.003 C 
HETATM   13  C9  UNL     1      -2.844  -0.879   0.531  1.00  0.00     0.020 C 
HETATM   14  C8  UNL     1      -1.384  -1.188   0.349  1.00  0.00     0.141 C 
ENDBRANCH   1   9
TORSDOF 1
