REMARK  1 active torsions:
REMARK  status: ('A' for Active; 'I' for Inactive)
REMARK    1  A    between atoms: C5_7  and  C6_8 
ROOT
HETATM    1  N1  UNL     1      -2.074   2.799   0.445  1.00  0.00    -0.196 NA
HETATM    2  C1  UNL     1      -1.317   1.948   0.652  1.00  0.00     0.075 C 
HETATM    3  C2  UNL     1      -0.347   0.869   0.937  1.00  0.00     0.164 C 
HETATM    4  S1  UNL     1      -1.276  -0.521   1.646  1.00  0.00    -0.149 SA
HETATM    5  C3  UNL     1      -1.343  -1.593   0.168  1.00  0.00     0.076 C 
HETATM    6  C4  UNL     1      -0.894  -0.647  -0.891  1.00  0.00     0.024 C 
HETATM    7  C5  UNL     1       0.130   0.290  -0.364  1.00  0.00     0.072 C 
ENDROOT
BRANCH   7   8
HETATM    8  C6  UNL     1       1.485  -0.255  -0.302  1.00  0.00     0.097 C 
HETATM    9  N2  UNL     1       2.598   0.537   0.074  1.00  0.00    -0.094 NA
HETATM   10  S2  UNL     1       1.731  -1.819  -0.682  1.00  0.00    -0.068 SA
ENDBRANCH   7   8
TORSDOF 1
