REMARK  3 active torsions:
REMARK  status: ('A' for Active; 'I' for Inactive)
REMARK    1  A    between atoms: O1_2  and  C2_3 
REMARK    2  A    between atoms: C2_3  and  C3_4 
REMARK    3  A    between atoms: C9_10  and  O2_11 
ROOT
HETATM    1  C3  UNL     1      -0.818  -0.560   0.297  1.00  0.00     0.247 C 
HETATM    2  C4  UNL     1      -0.923  -1.947  -0.310  1.00  0.00     0.038 C 
HETATM    3  C5  UNL     1       0.370  -2.687  -0.332  1.00  0.00     0.004 C 
HETATM    4  C6  UNL     1       1.558  -1.845  -0.697  1.00  0.00     0.036 C 
HETATM    5  C7  UNL     1       1.505  -0.608   0.175  1.00  0.00     0.226 C 
HETATM    6  C8  UNL     1       2.641   0.324  -0.036  1.00  0.00     0.069 C 
HETATM    7  C9  UNL     1       1.968   1.658  -0.302  1.00  0.00     0.148 C 
HETATM    8  C10 UNL     1       0.494   1.450   0.076  1.00  0.00     0.305 C 
HETATM    9  N1  UNL     1       0.300   0.096  -0.293  1.00  0.00     0.102 N 
ENDROOT
BRANCH   1  10
HETATM   10  C2  UNL     1      -2.127   0.142   0.023  1.00  0.00     0.202 C 
BRANCH  10  11
HETATM   11  O1  UNL     1      -2.150   1.443   0.509  1.00  0.00    -0.394 OA
HETATM   12  C1  UNL     1      -3.401   1.974   0.193  1.00  0.00     0.201 C 
ENDBRANCH  10  11
ENDBRANCH   1  10
BRANCH   7  13
HETATM   13  O2  UNL     1       2.554   2.655   0.435  1.00  0.00    -0.394 OA
ATOM     14  H2  UNL     1       2.133   3.490   0.268  1.00  0.00     0.210 HD
ENDBRANCH   7  13
TORSDOF 3
