REMARK  2 active torsions:
REMARK  status: ('A' for Active; 'I' for Inactive)
REMARK    1  A    between atoms: C4_5  and  S1_6 
REMARK    2  A    between atoms: S1_6  and  C5_7 
ROOT
HETATM    1  C1  UNL     1      -2.068   1.344  -0.949  1.00  0.00     0.309 C 
HETATM    2  N1  UNL     1      -1.709  -0.007  -0.598  1.00  0.00     0.085 N 
HETATM    3  C2  UNL     1      -1.923  -0.309   0.790  1.00  0.00     0.273 C 
HETATM    4  C3  UNL     1      -0.993  -1.443   1.045  1.00  0.00     0.047 C 
HETATM    5  C4  UNL     1       0.224  -1.102   0.250  1.00  0.00     0.084 C 
HETATM    6  C6  UNL     1      -0.359  -0.346  -0.926  1.00  0.00     0.287 C 
ENDROOT
BRANCH   5   7
HETATM    7  S1  UNL     1       1.409  -0.100   1.142  1.00  0.00    -0.097 SA
BRANCH   7   8
HETATM    8  C5  UNL     1       2.809   0.234   0.090  1.00  0.00     0.150 C 
HETATM    9  N2  UNL     1       3.913   1.010   0.528  1.00  0.00    -0.082 NA
HETATM   10  S2  UNL     1       2.837  -0.366  -1.426  1.00  0.00    -0.056 SA
ENDBRANCH   7   8
ENDBRANCH   5   7
TORSDOF 2
