REMARK  3 active torsions:
REMARK  status: ('A' for Active; 'I' for Inactive)
REMARK    1  A    between atoms: N2_10  and  N3_11 
REMARK    2  A    between atoms: C8_13  and  C9_14 
REMARK    3  A    between atoms: C10_15  and  C11_16 
ROOT
HETATM    1  N1  UNL     1      -0.832  -2.486   2.804  1.00  0.00    -0.195 NA
HETATM    2  C1  UNL     1      -1.095  -1.508   2.248  1.00  0.00     0.086 C 
HETATM    3  C2  UNL     1      -1.432  -0.261   1.541  1.00  0.00     0.211 C 
HETATM    4  C3  UNL     1      -2.915  -0.323   1.246  1.00  0.00     0.045 C 
HETATM    5  C4  UNL     1      -2.922  -0.929  -0.143  1.00  0.00     0.052 C 
HETATM    6  C5  UNL     1      -1.789  -0.159  -0.785  1.00  0.00     0.119 A 
HETATM    7  C6  UNL     1      -2.203   1.201  -1.235  1.00  0.00     0.024 A 
HETATM    8  C7  UNL     1      -1.908   1.044  -2.522  1.00  0.00     0.047 A 
HETATM    9  S1  UNL     1      -1.307  -0.653  -2.419  1.00  0.00    -0.104 SA
HETATM   10  N2  UNL     1      -0.783  -0.189   0.245  1.00  0.00    -0.286 N 
ENDROOT
BRANCH  10  11
HETATM   11  N3  UNL     1       0.583  -0.153   0.004  1.00  0.00    -0.311 N 
HETATM   12  C8  UNL     1       1.366   0.754   0.466  1.00  0.00     0.107 C 
ATOM     13  H3  UNL     1       0.989  -0.889  -0.573  1.00  0.00     0.185 HD
BRANCH  12  14
HETATM   14  C9  UNL     1       2.785   0.702   0.156  1.00  0.00     0.025 C 
HETATM   15  C10 UNL     1       3.279  -0.263  -0.592  1.00  0.00     0.086 C 
BRANCH  15  16
HETATM   16  C11 UNL     1       4.713  -0.304  -0.898  1.00  0.00     0.198 C 
HETATM   17  O1  UNL     1       5.155  -1.235  -1.613  1.00  0.00    -0.645 OA
HETATM   18  O2  UNL     1       5.537   0.683  -0.389  1.00  0.00    -0.645 OA
ENDBRANCH  15  16
ENDBRANCH  12  14
ENDBRANCH  10  11
TORSDOF 3
