REMARK  5 active torsions:
REMARK  status: ('A' for Active; 'I' for Inactive)
REMARK    1  A    between atoms: N1_1  and  N2_4 
REMARK       I    between atoms: N3_6  and  C1_8 
REMARK    2  A    between atoms: C1_8  and  C2_10 
REMARK    3  A    between atoms: C3_11  and  O2_12 
REMARK    4  A    between atoms: C6_16  and  C7_17 
REMARK    5  A    between atoms: C7_17  and  N4_18 
ROOT
HETATM    1  C2  UNL     1      -1.430  -0.651  -0.803  1.00  0.00     0.114 C 
HETATM    2  C3  UNL     1      -1.834  -1.344   0.481  1.00  0.00     0.131 C 
HETATM    3  C4  UNL     1      -0.561  -1.416   1.281  1.00  0.00     0.033 C 
HETATM    4  C5  UNL     1       0.482  -1.630   0.189  1.00  0.00     0.010 C 
HETATM    5  C6  UNL     1       0.070  -0.552  -0.817  1.00  0.00     0.021 C 
ENDROOT
BRANCH   1   6
HETATM    6  C1  UNL     1      -2.160   0.601  -0.912  1.00  0.00     0.244 C 
HETATM    7  N3  UNL     1      -2.092   1.601   0.081  1.00  0.00    -0.256 N 
HETATM    8  N2  UNL     1      -2.465   2.761  -0.115  1.00  0.00    -0.247 N 
ATOM      9  H3  UNL     1      -1.719   1.355   0.998  1.00  0.00     0.191 HD
ATOM     10  H2  UNL     1      -1.793   3.097  -0.805  1.00  0.00     0.207 HD
HETATM   11  O1  UNL     1      -2.880   0.818  -1.913  1.00  0.00    -0.271 OA
BRANCH   8  12
HETATM   12  N1  UNL     1      -3.199   3.753   0.054  1.00  0.00    -0.331 N 
ATOM     13  H12 UNL     1      -3.850   3.377   0.743  1.00  0.00     0.178 HD
ATOM     14  H11 UNL     1      -3.507   4.712  -0.108  1.00  0.00     0.178 HD
ENDBRANCH   8  12
ENDBRANCH   1   6
BRANCH   2  15
HETATM   15  O2  UNL     1      -2.836  -0.640   1.148  1.00  0.00    -0.395 OA
ATOM     16  H2  UNL     1      -3.090  -1.075   1.954  1.00  0.00     0.210 HD
ENDBRANCH   2  15
BRANCH   5  17
HETATM   17  C7  UNL     1       0.602   0.784  -0.475  1.00  0.00     0.155 C 
BRANCH  17  18
HETATM   18  N4  UNL     1       2.048   0.868  -0.504  1.00  0.00    -0.287 N 
HETATM   19  C8  UNL     1       2.946   0.662   0.479  1.00  0.00     0.130 A 
HETATM   20  C9  UNL     1       4.229   0.850   0.013  1.00  0.00     0.127 A 
HETATM   21  N5  UNL     1       4.073   1.175  -1.283  1.00  0.00    -0.296 N 
HETATM   22  N6  UNL     1       2.804   1.183  -1.573  1.00  0.00    -0.241 N 
ATOM     23  H5  UNL     1       4.829   1.382  -1.935  1.00  0.00     0.187 HD
ATOM     24  H6  UNL     1       2.429   1.401  -2.496  1.00  0.00     0.208 HD
ENDBRANCH  17  18
ENDBRANCH   5  17
TORSDOF 5
