REMARK  3 active torsions:
REMARK  status: ('A' for Active; 'I' for Inactive)
REMARK    1  A    between atoms: C4_5  and  C5_6 
REMARK    2  A    between atoms: C5_6  and  C6_7 
REMARK    3  A    between atoms: C6_7  and  N2_8 
ROOT
HETATM    1  C1  UNL     1       4.383  -1.674  -0.469  1.00  0.00     0.060 C 
HETATM    2  C2  UNL     1       3.607  -0.452  -0.182  1.00  0.00     0.015 C 
HETATM    3  C3  UNL     1       4.281   0.724   0.248  1.00  0.00     0.094 C 
HETATM    4  N1  UNL     1       4.830   1.677   0.617  1.00  0.00    -0.192 NA
HETATM    5  C4  UNL     1       2.307  -0.474  -0.330  1.00  0.00    -0.007 C 
ENDROOT
BRANCH   5   6
HETATM    6  C5  UNL     1       1.534   0.761  -0.039  1.00  0.00     0.048 C 
BRANCH   6   7
HETATM    7  C6  UNL     1       0.520   0.536   1.066  1.00  0.00     0.142 C 
BRANCH   7   8
HETATM    8  N2  UNL     1      -0.384  -0.492   0.646  1.00  0.00    -0.226 N 
HETATM    9  C7  UNL     1      -1.628  -0.243   0.443  1.00  0.00     0.682 A 
HETATM   10  N3  UNL     1      -2.104   1.003   0.625  1.00  0.00    -0.166 N 
HETATM   11  N7  UNL     1      -2.476  -1.216   0.047  1.00  0.00    -0.166 N 
HETATM   12  C8  UNL     1      -3.392   1.323   0.429  1.00  0.00     0.205 A 
ATOM     13  H3  UNL     1      -1.459   1.734   0.924  1.00  0.00     0.186 HD
HETATM   14  C9  UNL     1      -3.858   2.666   0.636  1.00  0.00     0.137 C 
HETATM   15  N5  UNL     1      -4.216   0.321   0.032  1.00  0.00    -0.310 N 
HETATM   16  N4  UNL     1      -4.255   3.758   0.814  1.00  0.00    -0.188 NA
HETATM   17  C10 UNL     1      -3.776  -0.937  -0.161  1.00  0.00     0.205 A 
ATOM     18  H5  UNL     1      -5.202   0.528  -0.126  1.00  0.00     0.170 HD
HETATM   19  C11 UNL     1      -4.625  -2.006  -0.579  1.00  0.00     0.137 C 
HETATM   20  N6  UNL     1      -5.297  -2.882  -0.919  1.00  0.00    -0.188 NA
ATOM     21  H7  UNL     1      -2.130  -2.165  -0.095  1.00  0.00     0.186 HD
ATOM     22  H2  UNL     1      -0.034  -1.440   0.505  1.00  0.00     0.177 HD
ENDBRANCH   7   8
ENDBRANCH   6   7
ENDBRANCH   5   6
TORSDOF 3
