REMARK  4 active torsions:
REMARK  status: ('A' for Active; 'I' for Inactive)
REMARK    1  A    between atoms: C2_2  and  C3_3 
REMARK    2  A    between atoms: C3_3  and  C4_4 
REMARK    3  A    between atoms: C3_3  and  N1_7 
REMARK    4  A    between atoms: C4_4  and  O1_5 
ROOT
HETATM    1  N1  UNL     1      -0.139  -0.043   0.208  1.00  0.00    -0.375 N 
HETATM    2  C5  UNL     1       0.195  -1.358  -0.319  1.00  0.00     0.143 C 
HETATM    3  C6  UNL     1       1.388  -1.977   0.334  1.00  0.00     0.151 C 
HETATM    4  N2  UNL     1       2.586  -1.405  -0.223  1.00  0.00    -0.329 N 
HETATM    5  C7  UNL     1       3.811  -1.981  -0.099  1.00  0.00     0.201 A 
HETATM    6  N3  UNL     1       4.651  -1.146  -0.746  1.00  0.00    -0.295 N 
ATOM      7  H3  UNL     1       5.657  -1.287  -0.842  1.00  0.00     0.187 HD
HETATM    8  N4  UNL     1       3.984  -0.128  -1.232  1.00  0.00    -0.288 N 
ATOM      9  H4  UNL     1       4.390   0.643  -1.763  1.00  0.00     0.188 HD
HETATM   10  C8  UNL     1       2.681  -0.256  -0.923  1.00  0.00     0.101 A 
HETATM   11  C9  UNL     1       1.636   0.694  -1.304  1.00  0.00     0.108 C 
HETATM   12  C10 UNL     1       0.660   1.011  -0.149  1.00  0.00     0.031 C 
HETATM   13  C11 UNL     1       1.620   1.284   1.037  1.00  0.00     0.038 C 
HETATM   14  C12 UNL     1       0.098   2.352  -0.468  1.00  0.00     0.038 C 
ENDROOT
BRANCH   1  15
HETATM   15  C3  UNL     1      -1.490  -0.035   0.514  1.00  0.00     0.008 C 
BRANCH  15  16
HETATM   16  C2  UNL     1      -2.333  -0.252  -0.734  1.00  0.00     0.050 C 
HETATM   17  C1  UNL     1      -3.711  -0.738  -0.467  1.00  0.00     0.011 C 
ENDBRANCH  15  16
BRANCH  15  18
HETATM   18  C4  UNL     1      -2.052   0.960   1.452  1.00  0.00     0.216 C 
BRANCH  18  19
HETATM   19  O1  UNL     1      -3.447   0.769   1.624  1.00  0.00    -0.395 OA
ATOM     20  H1  UNL     1      -3.808   1.408   2.227  1.00  0.00     0.209 HD
ENDBRANCH  18  19
ENDBRANCH  15  18
ENDBRANCH   1  15
TORSDOF 4
