REMARK  4 active torsions:
REMARK  status: ('A' for Active; 'I' for Inactive)
REMARK    1  A    between atoms: C2_2  and  C5_5 
REMARK    2  A    between atoms: C5_5  and  O2_7 
REMARK    3  A    between atoms: O2_7  and  C6_8 
REMARK    4  A    between atoms: C11_13  and  N1_14 
ROOT
HETATM    1  C6  UNL     1      -1.017  -0.203   0.163  1.00  0.00     0.162 C 
HETATM    2  C7  UNL     1      -1.500  -1.623   0.214  1.00  0.00     0.035 C 
HETATM    3  C8  UNL     1      -2.940  -1.807  -0.056  1.00  0.00     0.003 C 
HETATM    4  C9  UNL     1      -3.807  -0.626   0.160  1.00  0.00     0.002 C 
HETATM    5  C10 UNL     1      -3.282   0.670  -0.322  1.00  0.00     0.035 C 
HETATM    6  C11 UNL     1      -1.846   0.684  -0.701  1.00  0.00     0.212 C 
ENDROOT
BRANCH   1   7
HETATM    7  O2  UNL     1       0.300  -0.219  -0.363  1.00  0.00    -0.313 OA
BRANCH   7   8
HETATM    8  C5  UNL     1       1.407   0.229   0.346  1.00  0.00     0.267 C 
HETATM    9  O1  UNL     1       1.185   0.662   1.508  1.00  0.00    -0.264 OA
BRANCH   8  10
HETATM   10  C2  UNL     1       2.777   0.217  -0.191  1.00  0.00     0.037 C 
HETATM   11  C1  UNL     1       2.939   1.035  -1.432  1.00  0.00     0.025 C 
HETATM   12  C3  UNL     1       3.740   0.716   0.863  1.00  0.00     0.025 C 
HETATM   13  C4  UNL     1       3.224  -1.211  -0.536  1.00  0.00     0.025 C 
ENDBRANCH   8  10
ENDBRANCH   7   8
ENDBRANCH   1   7
BRANCH   6  14
HETATM   14  N1  UNL     1      -1.354   2.053  -0.523  1.00  0.00    -0.073 N 
ATOM     15  H13 UNL     1      -1.340   2.348   0.453  1.00  0.00     0.274 HD
ATOM     16  H12 UNL     1      -0.354   2.143  -0.703  1.00  0.00     0.274 HD
ATOM     17  H11 UNL     1      -1.921   2.660  -1.114  1.00  0.00     0.274 HD
ENDBRANCH   6  14
TORSDOF 4
