REMARK  2 active torsions:
REMARK  status: ('A' for Active; 'I' for Inactive)
REMARK    1  A    between atoms: C8_10  and  N2_11 
REMARK    2  A    between atoms: N2_11  and  C9_13 
ROOT
HETATM    1  C1  UNL     1      -1.796   3.374   0.329  1.00  0.00     0.097 C 
HETATM    2  C2  UNL     1      -1.419   1.915   0.238  1.00  0.00     0.113 C 
HETATM    3  N1  UNL     1      -1.519   1.070   1.194  1.00  0.00    -0.365 N 
ATOM      4  H1  UNL     1      -1.867   1.286   2.128  1.00  0.00     0.161 HD
HETATM    5  C3  UNL     1      -1.067  -0.237   0.760  1.00  0.00     0.139 C 
HETATM    6  C4  UNL     1      -2.241  -1.062   0.407  1.00  0.00     0.030 C 
HETATM    7  C5  UNL     1      -2.270  -1.609  -0.987  1.00  0.00     0.002 C 
HETATM    8  C6  UNL     1      -0.858  -2.075  -1.296  1.00  0.00     0.005 C 
HETATM    9  C7  UNL     1      -0.057  -0.801  -1.480  1.00  0.00     0.063 C 
HETATM   10  C8  UNL     1      -0.158   0.143  -0.364  1.00  0.00     0.158 C 
HETATM   11  O1  UNL     1      -0.918   1.275  -0.866  1.00  0.00    -0.307 OA
ENDROOT
BRANCH  10  12
HETATM   12  N2  UNL     1       1.069   0.686   0.041  1.00  0.00    -0.386 N 
ATOM     13  H2  UNL     1       1.309   1.632  -0.255  1.00  0.00     0.156 HD
BRANCH  12  14
HETATM   14  C9  UNL     1       1.977  -0.024   0.837  1.00  0.00     0.071 C 
HETATM   15  C10 UNL     1       2.567  -1.287   0.263  1.00  0.00     0.031 C 
HETATM   16  C11 UNL     1       3.190   0.915   1.038  1.00  0.00     0.031 C 
ENDBRANCH  12  14
ENDBRANCH  10  12
TORSDOF 2
