REMARK  2 active torsions:
REMARK  status: ('A' for Active; 'I' for Inactive)
REMARK    1  A    between atoms: C2_2  and  C3_4 
REMARK    2  A    between atoms: C3_4  and  O2_5 
ROOT
HETATM    1  C3  UNL     1       0.863  -0.072  -0.194  1.00  0.00     0.121 C 
HETATM    2  C4  UNL     1      -0.044   0.569  -1.210  1.00  0.00     0.052 C 
HETATM    3  C5  UNL     1      -1.473   0.119  -0.989  1.00  0.00     0.006 C 
HETATM    4  C6  UNL     1      -1.450  -1.386  -0.802  1.00  0.00     0.006 C 
HETATM    5  C7  UNL     1      -0.770  -1.706   0.531  1.00  0.00     0.008 C 
HETATM    6  C8  UNL     1       0.015  -0.468   0.981  1.00  0.00     0.029 C 
HETATM    7  C9  UNL     1      -0.968   0.606   1.345  1.00  0.00     0.027 C 
HETATM    8  C10 UNL     1      -2.033   0.710   0.286  1.00  0.00     0.097 C 
HETATM    9  C11 UNL     1      -2.364   2.112   0.105  1.00  0.00     0.064 C 
HETATM   10  N1  UNL     1      -2.648   3.231  -0.039  1.00  0.00    -0.197 NA
ENDROOT
BRANCH   1  11
HETATM   11  C2  UNL     1       2.005   0.807   0.149  1.00  0.00     0.157 C 
HETATM   12  C1  UNL     1       3.416   0.401  -0.056  1.00  0.00     0.094 C 
HETATM   13  O1  UNL     1       1.774   1.903   0.617  1.00  0.00    -0.295 OA
ENDBRANCH   1  11
BRANCH   1  14
HETATM   14  O2  UNL     1       1.391  -1.270  -0.719  1.00  0.00    -0.382 OA
ATOM     15  H2  UNL     1       0.659  -1.834  -0.939  1.00  0.00     0.211 HD
ENDBRANCH   1  14
TORSDOF 2
