REMARK  3 active torsions:
REMARK  status: ('A' for Active; 'I' for Inactive)
REMARK    1  A    between atoms: C2_2  and  C5_5 
REMARK    2  A    between atoms: C5_5  and  N1_8 
REMARK    3  A    between atoms: N1_8  and  N2_10 
ROOT
HETATM    1  N2  UNL     1       2.234  -0.495  -0.481  1.00  0.00    -0.286 N 
ATOM      2  H2  UNL     1       2.181  -1.450  -0.834  1.00  0.00     0.188 HD
HETATM    3  C8  UNL     1       3.393  -0.003  -0.184  1.00  0.00     0.209 C 
HETATM    4  C9  UNL     1       3.562   1.326   0.315  1.00  0.00     0.130 C 
HETATM    5  N3  UNL     1       3.716   2.403   0.716  1.00  0.00    -0.189 NA
HETATM    6  C10 UNL     1       4.573  -0.802  -0.355  1.00  0.00     0.130 C 
HETATM    7  N4  UNL     1       5.535  -1.457  -0.512  1.00  0.00    -0.189 NA
ENDROOT
BRANCH   1   8
HETATM    8  N1  UNL     1       1.057   0.234  -0.335  1.00  0.00    -0.325 N 
ATOM      9  H1  UNL     1       1.059   1.252  -0.403  1.00  0.00     0.181 HD
BRANCH   8  10
HETATM   10  C5  UNL     1      -0.163  -0.487  -0.085  1.00  0.00     0.045 C 
HETATM   11  C6  UNL     1      -0.404  -1.407  -1.248  1.00  0.00     0.040 C 
HETATM   12  C7  UNL     1       0.035  -1.332   1.144  1.00  0.00     0.040 C 
BRANCH  10  13
HETATM   13  C2  UNL     1      -1.357   0.422   0.051  1.00  0.00    -0.025 C 
HETATM   14  C1  UNL     1      -1.533   1.224  -1.207  1.00  0.00     0.017 C 
HETATM   15  C3  UNL     1      -2.572  -0.365   0.402  1.00  0.00     0.017 C 
HETATM   16  C4  UNL     1      -1.159   1.432   1.180  1.00  0.00     0.017 C 
ENDBRANCH  10  13
ENDBRANCH   8  10
ENDBRANCH   1   8
TORSDOF 3
