REMARK  2 active torsions:
REMARK  status: ('A' for Active; 'I' for Inactive)
REMARK    1  A    between atoms: C4_5  and  C5_6 
REMARK    2  A    between atoms: C5_6  and  O2_9 
ROOT
HETATM    1  C1  UNL     1      -2.746  -0.796  -1.158  1.00  0.00     0.078 C 
HETATM    2  C2  UNL     1      -1.801  -0.629   0.008  1.00  0.00     0.158 C 
HETATM    3  C3  UNL     1      -2.244  -1.578   1.115  1.00  0.00     0.078 C 
HETATM    4  O1  UNL     1      -0.540  -1.039  -0.389  1.00  0.00    -0.345 OA
HETATM    5  C4  UNL     1       0.301  -0.204   0.347  1.00  0.00     0.192 C 
HETATM    6  C8  UNL     1      -0.394   1.097   0.222  1.00  0.00     0.086 C 
HETATM    7  C9  UNL     1      -0.091   2.095   1.282  1.00  0.00     0.048 C 
HETATM    8  C10 UNL     1      -0.337   1.715  -1.142  1.00  0.00     0.048 C 
HETATM    9  O3  UNL     1      -1.731   0.676   0.415  1.00  0.00    -0.343 OA
ENDROOT
BRANCH   5  10
HETATM   10  C5  UNL     1       1.665  -0.285  -0.248  1.00  0.00     0.079 C 
HETATM   11  C6  UNL     1       2.100  -1.741  -0.208  1.00  0.00     0.048 C 
HETATM   12  C7  UNL     1       2.700   0.514   0.494  1.00  0.00     0.048 C 
BRANCH  10  13
HETATM   13  O2  UNL     1       1.710   0.112  -1.581  1.00  0.00    -0.388 OA
ATOM     14  H2  UNL     1       2.579   0.060  -1.960  1.00  0.00     0.210 HD
ENDBRANCH  10  13
ENDBRANCH   5  10
TORSDOF 2
