REMARK  2 active torsions:
REMARK  status: ('A' for Active; 'I' for Inactive)
REMARK    1  A    between atoms: C2_2  and  C4_4 
REMARK    2  A    between atoms: N2_14  and  O1_15 
ROOT
HETATM    1  C4  UNL     1       0.703   0.627  -0.195  1.00  0.00     0.011 C 
HETATM    2  N1  UNL     1       0.772   1.908  -0.211  1.00  0.00    -0.394 N 
ATOM      3  H1  UNL     1       1.698   2.319  -0.331  1.00  0.00     0.159 HD
HETATM    4  C5  UNL     1      -0.310   2.802  -0.078  1.00  0.00     0.119 C 
HETATM    5  C6  UNL     1      -1.592   2.103  -0.547  1.00  0.00     0.022 C 
HETATM    6  C7  UNL     1      -1.670   0.825   0.237  1.00  0.00     0.035 C 
HETATM    7  C8  UNL     1      -0.546  -0.133  -0.032  1.00  0.00     0.076 C 
HETATM    8  C9  UNL     1      -0.885  -0.921  -1.279  1.00  0.00     0.035 C 
HETATM    9  C10 UNL     1      -1.445  -2.216  -0.803  1.00  0.00     0.019 C 
HETATM   10  C11 UNL     1      -1.349  -2.191   0.698  1.00  0.00     0.122 C 
HETATM   11  N2  UNL     1      -0.535  -1.079   1.062  1.00  0.00    -0.184 NA
ENDROOT
BRANCH   1  12
HETATM   12  C2  UNL     1       2.005  -0.095  -0.357  1.00  0.00     0.025 C 
HETATM   13  C1  UNL     1       2.269  -0.950   0.867  1.00  0.00     0.016 C 
HETATM   14  C3  UNL     1       3.167   0.852  -0.498  1.00  0.00     0.016 C 
ENDBRANCH   1  12
BRANCH  11  15
HETATM   15  O1  UNL     1      -0.985  -0.564   2.222  1.00  0.00    -0.312 OA
ATOM     16  H1  UNL     1      -0.978  -1.185   2.941  1.00  0.00     0.237 HD
ENDBRANCH  11  15
TORSDOF 2
