REMARK  8 active torsions:
REMARK  status: ('A' for Active; 'I' for Inactive)
REMARK    1  A    between atoms: C2_2  and  N1_3 
REMARK    2  A    between atoms: C3_6  and  C4_7 
REMARK    3  A    between atoms: C4_7  and  C5_9 
REMARK    4  A    between atoms: C6_15  and  C7_16 
REMARK    5  A    between atoms: C7_16  and  C8_17 
REMARK    6  A    between atoms: C8_17  and  C9_18 
REMARK    7  A    between atoms: C9_18  and  N5_19 
REMARK       I    between atoms: N5_19  and  C10_21 
REMARK    8  A    between atoms: C10_21  and  C11_23 
ROOT
HETATM    1  C5  UNL     1      -1.966   1.613   0.446  1.00  0.00     0.115 A 
HETATM    2  N3  UNL     1      -2.247   2.432   1.415  1.00  0.00    -0.290 N 
ATOM      3  H3  UNL     1      -3.215   2.543   1.716  1.00  0.00     0.187 HD
HETATM    4  N4  UNL     1      -1.314   3.109   2.003  1.00  0.00    -0.269 N 
ATOM      5  H4  UNL     1      -1.404   3.777   2.768  1.00  0.00     0.195 HD
HETATM    6  S1  UNL     1       0.080   2.623   1.204  1.00  0.00    -0.001 SA
HETATM    7  C6  UNL     1      -0.622   1.524   0.102  1.00  0.00     0.033 A 
ENDROOT
BRANCH   7   8
HETATM    8  C7  UNL     1      -0.026   0.625  -0.944  1.00  0.00     0.052 C 
BRANCH   8   9
HETATM    9  C8  UNL     1       1.370   0.199  -0.436  1.00  0.00     0.025 C 
BRANCH   9  10
HETATM   10  C9  UNL     1       1.999  -0.727  -1.417  1.00  0.00     0.123 C 
BRANCH  10  11
HETATM   11  N5  UNL     1       3.331  -1.138  -1.013  1.00  0.00    -0.357 N 
HETATM   12  C10 UNL     1       4.373  -0.209  -0.899  1.00  0.00     0.258 C 
HETATM   13  O2  UNL     1       4.072   1.004  -1.190  1.00  0.00    -0.267 OA
ATOM     14  H5  UNL     1       3.512  -2.121  -0.808  1.00  0.00     0.162 HD
BRANCH  12  15
HETATM   15  C11 UNL     1       5.746  -0.426  -0.504  1.00  0.00     0.115 A 
HETATM   16  C12 UNL     1       6.660   0.639  -0.663  1.00  0.00     0.176 A 
HETATM   17  F1  UNL     1       6.221   1.803  -1.194  1.00  0.00    -0.202 F 
HETATM   18  C13 UNL     1       7.979   0.528  -0.304  1.00  0.00     0.197 A 
HETATM   19  F2  UNL     1       8.828   1.587  -0.472  1.00  0.00    -0.199 F 
HETATM   20  C14 UNL     1       8.458  -0.635   0.228  1.00  0.00     0.199 A 
HETATM   21  F3  UNL     1       9.767  -0.778   0.590  1.00  0.00    -0.199 F 
HETATM   22  C15 UNL     1       7.588  -1.675   0.389  1.00  0.00     0.197 A 
HETATM   23  F4  UNL     1       8.007  -2.864   0.919  1.00  0.00    -0.199 F 
HETATM   24  C16 UNL     1       6.233  -1.597   0.033  1.00  0.00     0.176 A 
HETATM   25  F5  UNL     1       5.435  -2.664   0.233  1.00  0.00    -0.202 F 
ENDBRANCH  12  15
ENDBRANCH  10  11
ENDBRANCH   9  10
ENDBRANCH   8   9
ENDBRANCH   7   8
BRANCH   1  26
HETATM   26  C4  UNL     1      -2.978   0.840  -0.296  1.00  0.00     0.230 C 
HETATM   27  O1  UNL     1      -2.772   0.655  -1.536  1.00  0.00    -0.283 OA
BRANCH  26  28
HETATM   28  C3  UNL     1      -4.184   0.289   0.304  1.00  0.00     0.126 A 
HETATM   29  N2  UNL     1      -5.371   0.071  -0.346  1.00  0.00    -0.292 N 
HETATM   30  N1  UNL     1      -6.263  -0.455   0.455  1.00  0.00    -0.279 N 
ATOM     31  H2  UNL     1      -5.538   0.290  -1.328  1.00  0.00     0.187 HD
HETATM   32  C18 UNL     1      -5.717  -0.610   1.664  1.00  0.00     0.144 A 
HETATM   33  C17 UNL     1      -4.397  -0.144   1.590  1.00  0.00     0.106 A 
HETATM   34 CL2  UNL     1      -6.447  -1.271   3.114  1.00  0.00    -0.061 Cl
HETATM   35 CL1  UNL     1      -3.263  -0.148   2.919  1.00  0.00    -0.078 Cl
BRANCH  30  36
HETATM   36  C2  UNL     1      -7.644  -0.821   0.087  1.00  0.00     0.146 C 
HETATM   37  C1  UNL     1      -8.568   0.339   0.320  1.00  0.00     0.028 C 
ENDBRANCH  30  36
ENDBRANCH  26  28
ENDBRANCH   1  26
TORSDOF 8
