REMARK  9 active torsions:
REMARK  status: ('A' for Active; 'I' for Inactive)
REMARK       I    between atoms: C1_2  and  N1_3 
REMARK    1  A    between atoms: C1_2  and  O2_8 
REMARK    2  A    between atoms: N1_3  and  C2_5 
REMARK    3  A    between atoms: C2_5  and  C3_6 
REMARK    4  A    between atoms: O2_8  and  C4_9 
REMARK    5  A    between atoms: C9_14  and  O3_15 
REMARK    6  A    between atoms: O3_15  and  C10_16 
REMARK    7  A    between atoms: C10_16  and  C11_17 
REMARK    8  A    between atoms: N3_21  and  C13_22 
REMARK    9  A    between atoms: C19_33  and  N4_34 
ROOT
HETATM    1  C11 UNL     1       1.370  -0.574   0.252  1.00  0.00     0.085 A 
HETATM    2  N2  UNL     1       1.929   0.040   1.297  1.00  0.00    -0.350 N 
ATOM      3  H2  UNL     1       1.427   0.399   2.109  1.00  0.00     0.166 HD
HETATM    4  C12 UNL     1       3.255   0.111   1.110  1.00  0.00     0.191 A 
HETATM    5  N3  UNL     1       3.565  -0.461  -0.067  1.00  0.00    -0.281 N 
HETATM    6  C19 UNL     1       2.430  -0.888  -0.611  1.00  0.00     0.206 A 
ENDROOT
BRANCH   1   7
HETATM    7  C10 UNL     1      -0.034  -0.881   0.003  1.00  0.00     0.229 C 
BRANCH   7   8
HETATM    8  O3  UNL     1      -0.930  -0.498   0.961  1.00  0.00    -0.377 OA
BRANCH   8   9
HETATM    9  C9  UNL     1      -1.006   0.838   1.250  1.00  0.00     0.151 C 
HETATM   10  C4  UNL     1      -2.318   1.433   0.731  1.00  0.00     0.162 C 
HETATM   11  C5  UNL     1      -2.674   2.701   1.450  1.00  0.00     0.035 C 
HETATM   12  C6  UNL     1      -3.026   2.423   2.878  1.00  0.00     0.003 C 
HETATM   13  C7  UNL     1      -2.174   1.293   3.367  1.00  0.00     0.003 C 
HETATM   14  C8  UNL     1      -0.816   1.220   2.672  1.00  0.00     0.034 C 
BRANCH  10  15
HETATM   15  O2  UNL     1      -3.399   0.535   0.847  1.00  0.00    -0.296 OA
BRANCH  15  16
HETATM   16  C1  UNL     1      -4.102   0.146  -0.305  1.00  0.00     0.361 C 
HETATM   17  O1  UNL     1      -3.705   0.642  -1.390  1.00  0.00    -0.239 OA
HETATM   18  N1  UNL     1      -5.193  -0.754  -0.233  1.00  0.00    -0.336 N 
ATOM     19  H1  UNL     1      -5.468  -1.122   0.678  1.00  0.00     0.164 HD
BRANCH  18  20
HETATM   20  C2  UNL     1      -5.926  -1.167  -1.395  1.00  0.00     0.140 C 
BRANCH  20  21
HETATM   21  C3  UNL     1      -5.079  -1.880  -2.420  1.00  0.00     0.134 C 
HETATM   22 CL1  UNL     1      -4.340  -3.352  -1.735  1.00  0.00    -0.129 Cl
ENDBRANCH  20  21
ENDBRANCH  18  20
ENDBRANCH  15  16
ENDBRANCH  10  15
ENDBRANCH   8   9
ENDBRANCH   7   8
ENDBRANCH   1   7
BRANCH   6  23
HETATM   23  N4  UNL     1       2.291  -1.564  -1.875  1.00  0.00    -0.095 N 
HETATM   24  O4  UNL     1       1.179  -1.925  -2.294  1.00  0.00    -0.530 OA
HETATM   25  O5  UNL     1       3.426  -1.800  -2.608  1.00  0.00    -0.530 OA
ENDBRANCH   6  23
BRANCH   5  26
HETATM   26  C13 UNL     1       4.887  -0.563  -0.584  1.00  0.00     0.126 A 
HETATM   27  C14 UNL     1       5.645  -1.717  -0.438  1.00  0.00     0.188 A 
HETATM   28  F1  UNL     1       5.112  -2.778   0.214  1.00  0.00    -0.200 F 
HETATM   29  C15 UNL     1       6.919  -1.729  -0.971  1.00  0.00     0.199 A 
HETATM   30  F2  UNL     1       7.654  -2.855  -0.828  1.00  0.00    -0.199 F 
HETATM   31  C16 UNL     1       7.471  -0.655  -1.637  1.00  0.00     0.199 A 
HETATM   32  F3  UNL     1       8.737  -0.689  -2.157  1.00  0.00    -0.199 F 
HETATM   33  C17 UNL     1       6.714   0.498  -1.782  1.00  0.00     0.199 A 
HETATM   34  F4  UNL     1       7.230   1.586  -2.438  1.00  0.00    -0.199 F 
HETATM   35  C18 UNL     1       5.439   0.530  -1.257  1.00  0.00     0.188 A 
HETATM   36  F5  UNL     1       4.701   1.674  -1.406  1.00  0.00    -0.200 F 
ENDBRANCH   5  26
TORSDOF 9
