REMARK  5 active torsions:
REMARK  status: ('A' for Active; 'I' for Inactive)
REMARK       I    between atoms: C1_2  and  N1_3 
REMARK    1  A    between atoms: C1_2  and  S2_12 
REMARK    2  A    between atoms: N1_3  and  C2_5 
REMARK    3  A    between atoms: S2_12  and  C4_13 
REMARK    4  A    between atoms: C4_13  and  C5_14 
REMARK    5  A    between atoms: C5_14  and  N4_15 
ROOT
HETATM    1  O1  UNL     1       1.563  -0.888   1.375  1.00  0.00    -0.260 OA
HETATM    2  C1  UNL     1       2.115  -1.186   0.286  1.00  0.00     0.285 C 
HETATM    3  N1  UNL     1       3.416  -1.686   0.299  1.00  0.00    -0.297 N 
ATOM      4  H1  UNL     1       3.589  -2.691   0.336  1.00  0.00     0.171 HD
ENDROOT
BRANCH   2   5
HETATM    5  S2  UNL     1       1.182  -0.942  -1.211  1.00  0.00    -0.067 SA
BRANCH   5   6
HETATM    6  C4  UNL     1      -0.459  -0.252  -0.856  1.00  0.00     0.114 C 
BRANCH   6   7
HETATM    7  C5  UNL     1      -1.272  -1.245  -0.124  1.00  0.00     0.283 C 
BRANCH   7   8
HETATM    8  N4  UNL     1      -2.589  -0.834   0.242  1.00  0.00     0.089 N 
HETATM    9  C6  UNL     1      -2.630   0.186   1.245  1.00  0.00     0.272 C 
HETATM   10  C7  UNL     1      -2.993   1.442   0.535  1.00  0.00     0.032 C 
HETATM   11  C8  UNL     1      -3.445   1.031  -0.843  1.00  0.00     0.032 C 
HETATM   12  C9  UNL     1      -3.469  -0.479  -0.802  1.00  0.00     0.272 C 
ENDBRANCH   7   8
ENDBRANCH   6   7
ENDBRANCH   5   6
ENDBRANCH   2   5
BRANCH   3  13
HETATM   13  C2  UNL     1       4.413  -0.835   0.263  1.00  0.00     0.167 A 
HETATM   14  N2  UNL     1       4.345   0.503   0.213  1.00  0.00    -0.279 N 
HETATM   15  N3  UNL     1       5.426   1.166   0.189  1.00  0.00    -0.303 N 
ATOM     16  H2  UNL     1       3.443   0.978   0.195  1.00  0.00     0.189 HD
HETATM   17  C3  UNL     1       6.594   0.546   0.212  1.00  0.00     0.160 A 
ATOM     18  H3  UNL     1       5.394   2.185   0.152  1.00  0.00     0.186 HD
HETATM   19  S1  UNL     1       6.099  -1.090   0.273  1.00  0.00    -0.046 SA
ENDBRANCH   3  13
TORSDOF 5
