REMARK  3 active torsions:
REMARK  status: ('A' for Active; 'I' for Inactive)
REMARK    1  A    between atoms: C9_9  and  N1_10 
REMARK       I    between atoms: N1_10  and  C10_12 
REMARK    2  A    between atoms: C10_12  and  C11_14 
REMARK    3  A    between atoms: C11_14  and  N2_15 
ROOT
HETATM    1  N1  UNL     1       0.825  -0.429   0.660  1.00  0.00    -0.354 N 
ATOM      2  H1  UNL     1       0.786  -1.308   1.175  1.00  0.00     0.162 HD
HETATM    3  C10 UNL     1       2.069   0.201   0.480  1.00  0.00     0.237 C 
HETATM    4  O1  UNL     1       2.146   1.280  -0.143  1.00  0.00    -0.272 OA
ENDROOT
BRANCH   1   5
HETATM    5  C9  UNL     1      -0.420   0.140   0.129  1.00  0.00     0.092 C 
HETATM    6  C2  UNL     1      -1.330  -0.928  -0.355  1.00  0.00    -0.027 C 
HETATM    7  C1  UNL     1      -1.816  -1.846   0.749  1.00  0.00     0.017 C 
HETATM    8  C3  UNL     1      -0.579  -1.781  -1.368  1.00  0.00     0.017 C 
HETATM    9  C4  UNL     1      -2.483  -0.266  -1.102  1.00  0.00     0.011 C 
HETATM   10  C5  UNL     1      -3.328   0.599  -0.199  1.00  0.00     0.001 C 
HETATM   11  C6  UNL     1      -2.904   2.024  -0.163  1.00  0.00     0.000 C 
HETATM   12  C7  UNL     1      -1.569   2.251   0.492  1.00  0.00     0.002 C 
HETATM   13  C8  UNL     1      -1.061   1.027   1.196  1.00  0.00     0.026 C 
ENDBRANCH   1   5
BRANCH   3  14
HETATM   14  C11 UNL     1       3.295  -0.403   1.027  1.00  0.00     0.254 C 
BRANCH  14  15
HETATM   15  N2  UNL     1       4.288  -0.412  -0.030  1.00  0.00    -0.262 N 
HETATM   16  C12 UNL     1       5.172   0.597  -0.271  1.00  0.00     0.220 A 
HETATM   17  N3  UNL     1       5.900   0.211  -1.299  1.00  0.00    -0.279 N 
HETATM   18  N4  UNL     1       5.499  -0.985  -1.691  1.00  0.00    -0.227 N 
ATOM     19  H3  UNL     1       6.654   0.750  -1.725  1.00  0.00     0.189 HD
HETATM   20  N5  UNL     1       4.511  -1.354  -0.903  1.00  0.00    -0.225 N 
ATOM     21  H4  UNL     1       5.885  -1.525  -2.465  1.00  0.00     0.210 HD
ATOM     22  H5  UNL     1       4.002  -2.236  -0.966  1.00  0.00     0.210 HD
ENDBRANCH  14  15
ENDBRANCH   3  14
TORSDOF 3
