REMARK  3 active torsions:
REMARK  status: ('A' for Active; 'I' for Inactive)
REMARK    1  A    between atoms: C4_8  and  N3_9 
REMARK       I    between atoms: N3_9  and  C5_11 
REMARK    2  A    between atoms: C5_11  and  C6_13 
REMARK    3  A    between atoms: C6_13  and  N4_14 
ROOT
HETATM    1  N1  UNL     1       3.511  -0.342  -3.153  1.00  0.00    -0.190 NA
HETATM    2  C1  UNL     1       3.899  -0.339  -2.069  1.00  0.00     0.120 C 
HETATM    3  C2  UNL     1       4.443  -0.331  -0.699  1.00  0.00     0.148 A 
HETATM    4  N2  UNL     1       5.759  -0.372  -0.582  1.00  0.00    -0.349 N 
ATOM      5  H2  UNL     1       6.338  -0.412  -1.421  1.00  0.00     0.166 HD
HETATM    6  C3  UNL     1       6.325  -0.362   0.589  1.00  0.00     0.141 A 
HETATM    7  S1  UNL     1       4.985  -0.294   1.628  1.00  0.00    -0.064 SA
HETATM    8  C4  UNL     1       3.695  -0.280   0.420  1.00  0.00     0.116 A 
ENDROOT
BRANCH   8   9
HETATM    9  N3  UNL     1       2.315  -0.235   0.727  1.00  0.00    -0.315 N 
HETATM   10  C5  UNL     1       1.134  -0.239   0.016  1.00  0.00     0.256 C 
HETATM   11  O1  UNL     1       1.010  -0.289  -1.195  1.00  0.00    -0.267 OA
ATOM     12  H3  UNL     1       2.152  -0.187   1.733  1.00  0.00     0.170 HD
BRANCH  10  13
HETATM   13  C6  UNL     1      -0.121  -0.173   0.845  1.00  0.00     0.134 C 
BRANCH  13  14
HETATM   14  N4  UNL     1      -1.317  -0.171   0.112  1.00  0.00    -0.288 NA
HETATM   15  C7  UNL     1      -1.631   0.969  -0.667  1.00  0.00     0.095 C 
HETATM   16  C8  UNL     1      -2.992   0.878  -1.313  1.00  0.00     0.015 C 
HETATM   17  C9  UNL     1      -4.016   0.705  -0.205  1.00  0.00     0.002 C 
HETATM   18  C10 UNL     1      -3.725  -0.697   0.351  1.00  0.00     0.015 C 
HETATM   19  C11 UNL     1      -2.376  -0.633   0.979  1.00  0.00     0.095 C 
ENDBRANCH  13  14
ENDBRANCH  10  13
ENDBRANCH   8   9
TORSDOF 3
