REMARK  3 active torsions:
REMARK  status: ('A' for Active; 'I' for Inactive)
REMARK    1  A    between atoms: C2_2  and  C4_4 
REMARK    2  A    between atoms: C4_4  and  N1_5 
REMARK    3  A    between atoms: N1_5  and  C5_7 
ROOT
HETATM    1  C5  UNL     1      -0.310  -0.816  -0.519  1.00  0.00     0.123 C 
HETATM    2  C6  UNL     1      -0.854  -0.885   0.890  1.00  0.00     0.031 C 
HETATM    3  C7  UNL     1      -1.128   0.506   1.378  1.00  0.00     0.036 C 
HETATM    4  C8  UNL     1      -2.109   1.180   0.418  1.00  0.00     0.148 C 
HETATM    5  C9  UNL     1      -3.440   0.512   0.598  1.00  0.00     0.222 C 
HETATM    6  O1  UNL     1      -3.954  -0.130  -0.490  1.00  0.00    -0.271 OA
HETATM    7  S1  UNL     1      -2.865  -0.932  -1.454  1.00  0.00     0.295 S 
HETATM    8  O2  UNL     1      -2.722  -2.383  -1.151  1.00  0.00    -0.196 OA
HETATM    9  O3  UNL     1      -3.345  -0.818  -2.880  1.00  0.00    -0.196 OA
HETATM   10  C10 UNL     1      -1.319  -0.055  -1.360  1.00  0.00     0.293 C 
HETATM   11  O4  UNL     1      -1.608   1.187  -0.852  1.00  0.00    -0.359 OA
ENDROOT
BRANCH   1  12
HETATM   12  N1  UNL     1       0.936  -0.137  -0.517  1.00  0.00    -0.410 N 
ATOM     13  H1  UNL     1       1.072   0.747  -1.008  1.00  0.00     0.154 HD
BRANCH  12  14
HETATM   14  C4  UNL     1       2.001  -0.774   0.223  1.00  0.00     0.147 C 
BRANCH  14  15
HETATM   15  C2  UNL     1       3.185   0.152   0.096  1.00  0.00    -0.076 C 
HETATM   16  C1  UNL     1       3.754   0.682   1.168  1.00  0.00     0.015 C 
HETATM   17  C3  UNL     1       3.753   0.505  -1.232  1.00  0.00     0.044 C 
ENDBRANCH  14  15
ENDBRANCH  12  14
ENDBRANCH   1  12
TORSDOF 3
