REMARK  3 active torsions:
REMARK  status: ('A' for Active; 'I' for Inactive)
REMARK    1  A    between atoms: S1_2  and  N1_4 
REMARK    2  A    between atoms: S1_2  and  C7_12 
REMARK    3  A    between atoms: N1_4  and  C1_6 
ROOT
HETATM    1  O1  UNL     1       3.271   1.142  -1.987  1.00  0.00    -0.200 OA
HETATM    2  S1  UNL     1       2.182   1.110  -0.940  1.00  0.00     0.268 S 
HETATM    3  O2  UNL     1       1.729   2.554  -0.709  1.00  0.00    -0.200 OA
ENDROOT
BRANCH   2   4
HETATM    4  N1  UNL     1       0.912   0.159  -1.485  1.00  0.00    -0.310 N 
ATOM      5  H1  UNL     1       0.945  -0.339  -2.374  1.00  0.00     0.172 HD
BRANCH   4   6
HETATM    6  C1  UNL     1      -0.213   0.098  -0.618  1.00  0.00     0.093 C 
HETATM    7  C2  UNL     1      -0.672  -1.288  -0.311  1.00  0.00     0.026 C 
HETATM    8  C3  UNL     1      -1.567  -1.183   0.930  1.00  0.00     0.002 C 
HETATM    9  C4  UNL     1      -2.708  -0.288   0.599  1.00  0.00     0.000 C 
HETATM   10  C5  UNL     1      -2.703   0.313  -0.758  1.00  0.00     0.002 C 
HETATM   11  C6  UNL     1      -1.404   0.877  -1.207  1.00  0.00     0.026 C 
ENDBRANCH   4   6
ENDBRANCH   2   4
BRANCH   2  12
HETATM   12  C7  UNL     1       2.935   0.614   0.554  1.00  0.00     0.154 A 
HETATM   13  C8  UNL     1       2.740  -0.460   1.377  1.00  0.00     0.142 A 
HETATM   14  N2  UNL     1       3.497  -0.547   2.437  1.00  0.00    -0.304 N 
HETATM   15  N3  UNL     1       4.388   0.357   2.677  1.00  0.00    -0.269 N 
ATOM     16  H2  UNL     1       3.384  -1.332   3.078  1.00  0.00     0.186 HD
HETATM   17  S2  UNL     1       4.221   1.425   1.394  1.00  0.00     0.017 SA
ATOM     18  H3  UNL     1       5.039   0.409   3.461  1.00  0.00     0.195 HD
ENDBRANCH   2  12
TORSDOF 3
