REMARK  4 active torsions:
REMARK  status: ('A' for Active; 'I' for Inactive)
REMARK    1  A    between atoms: N1_2  and  C3_4 
REMARK    2  A    between atoms: C7_8  and  O1_9 
REMARK    3  A    between atoms: C7_8  and  C8_11 
REMARK    4  A    between atoms: C8_11  and  C9_13 
ROOT
HETATM    1  C3  UNL     1      -1.483  -0.227  -0.387  1.00  0.00     0.263 C 
HETATM    2  C4  UNL     1      -2.312  -1.496  -0.093  1.00  0.00     0.039 C 
HETATM    3  C5  UNL     1      -1.329  -2.587  -0.359  1.00  0.00     0.006 C 
HETATM    4  C6  UNL     1      -0.113  -2.083   0.397  1.00  0.00     0.048 C 
HETATM    5  C7  UNL     1      -0.185  -0.537   0.264  1.00  0.00     0.149 C 
ENDROOT
BRANCH   5   6
HETATM    6  O1  UNL     1      -0.146  -0.011   1.545  1.00  0.00    -0.380 OA
ATOM      7  H1  UNL     1       0.684  -0.209   1.962  1.00  0.00     0.211 HD
ENDBRANCH   5   6
BRANCH   5   8
HETATM    8  C8  UNL     1       0.998  -0.181  -0.566  1.00  0.00     0.170 C 
HETATM    9  O2  UNL     1       0.863  -0.424  -1.775  1.00  0.00    -0.294 OA
BRANCH   8  10
HETATM   10  C9  UNL     1       2.249   0.398  -0.104  1.00  0.00     0.013 C 
HETATM   11  C10 UNL     1       2.154   1.729   0.590  1.00  0.00     0.023 C 
HETATM   12  C11 UNL     1       3.205   0.597  -1.294  1.00  0.00     0.023 C 
HETATM   13  C12 UNL     1       3.012  -0.512   0.848  1.00  0.00     0.023 C 
ENDBRANCH   8  10
ENDBRANCH   5   8
BRANCH   1  14
HETATM   14  N1  UNL     1      -2.259   0.835   0.216  1.00  0.00     0.088 N 
HETATM   15  C1  UNL     1      -3.578   0.926  -0.403  1.00  0.00     0.310 C 
HETATM   16  C2  UNL     1      -1.609   2.125   0.220  1.00  0.00     0.310 C 
ENDBRANCH   1  14
TORSDOF 4
