REMARK  5 active torsions:
REMARK  status: ('A' for Active; 'I' for Inactive)
REMARK       I    between atoms: N1_2  and  C2_3 
REMARK    1  A    between atoms: N1_2  and  C8_16 
REMARK    2  A    between atoms: C2_3  and  C3_5 
REMARK    3  A    between atoms: C4_6  and  C5_7 
REMARK    4  A    between atoms: C5_7  and  O2_8 
REMARK    5  A    between atoms: C5_7  and  C6_10 
ROOT
HETATM    1  C1  UNL     1      -0.319   0.158   2.362  1.00  0.00     0.153 C 
HETATM    2  N1  UNL     1      -0.212  -0.070   0.919  1.00  0.00    -0.348 N 
HETATM    3  C2  UNL     1       1.058  -0.430   0.348  1.00  0.00     0.243 C 
HETATM    4  O1  UNL     1       1.097  -0.613  -0.884  1.00  0.00    -0.268 OA
ENDROOT
BRANCH   3   5
HETATM    5  C3  UNL     1       2.215  -0.563   1.204  1.00  0.00     0.073 C 
HETATM    6  C4  UNL     1       3.435  -0.878   0.873  1.00  0.00     0.017 C 
BRANCH   6   7
HETATM    7  C5  UNL     1       3.935  -1.178  -0.467  1.00  0.00     0.201 C 
BRANCH   7   8
HETATM    8  O2  UNL     1       5.006  -2.124  -0.369  1.00  0.00    -0.385 OA
ATOM      9  H2  UNL     1       5.331  -2.319  -1.240  1.00  0.00     0.210 HD
ENDBRANCH   7   8
BRANCH   7  10
HETATM   10  C6  UNL     1       4.430   0.029  -1.183  1.00  0.00     0.122 A 
HETATM   11  C7  UNL     1       5.644   0.669  -0.911  1.00  0.00     0.142 A 
HETATM   12  N2  UNL     1       5.781   1.721  -1.737  1.00  0.00    -0.287 N 
HETATM   13  N3  UNL     1       4.690   1.721  -2.483  1.00  0.00     0.026 NA
ATOM     14  H2  UNL     1       6.560   2.378  -1.779  1.00  0.00     0.184 HD
HETATM   15  O3  UNL     1       3.906   0.729  -2.153  1.00  0.00    -0.224 OA
ENDBRANCH   7  10
ENDBRANCH   6   7
ENDBRANCH   3   5
BRANCH   2  16
HETATM   16  C8  UNL     1      -1.355   0.058   0.051  1.00  0.00     0.087 C 
HETATM   17  C9  UNL     1      -2.443  -0.899   0.489  1.00  0.00     0.025 C 
HETATM   18  C10 UNL     1      -3.284  -1.379  -0.675  1.00  0.00     0.002 C 
HETATM   19  C11 UNL     1      -4.458  -0.411  -0.783  1.00  0.00     0.000 C 
HETATM   20  C12 UNL     1      -3.856   0.918  -1.236  1.00  0.00     0.000 C 
HETATM   21  C13 UNL     1      -3.292   1.654  -0.055  1.00  0.00     0.002 C 
HETATM   22  C14 UNL     1      -1.807   1.500   0.095  1.00  0.00     0.025 C 
ENDBRANCH   2  16
TORSDOF 5
