REMARK  5 active torsions:
REMARK  status: ('A' for Active; 'I' for Inactive)
REMARK    1  A    between atoms: C3_5  and  C4_6 
REMARK    2  A    between atoms: C4_6  and  N2_7 
REMARK    3  A    between atoms: N4_14  and  C9_15 
REMARK    4  A    between atoms: C9_15  and  C10_16 
REMARK    5  A    between atoms: C15_21  and  O1_22 
ROOT
HETATM    1  C1  UNL     1      -0.295  -0.811  -2.724  1.00  0.00     0.091 C 
HETATM    2  C2  UNL     1       0.263  -0.513  -1.376  1.00  0.00     0.095 A 
HETATM    3  N1  UNL     1       1.459   0.053  -1.150  1.00  0.00    -0.332 N 
ATOM      4  H1  UNL     1       2.115   0.345  -1.874  1.00  0.00     0.168 HD
HETATM    5  C3  UNL     1       1.662   0.177   0.167  1.00  0.00     0.126 A 
HETATM    6  N3  UNL     1       0.566  -0.326   0.755  1.00  0.00    -0.284 N 
ATOM      7  H3  UNL     1       0.410  -0.379   1.762  1.00  0.00     0.188 HD
HETATM    8  N4  UNL     1      -0.281  -0.743  -0.171  1.00  0.00    -0.279 N 
ENDROOT
BRANCH   8   9
HETATM    9  C9  UNL     1      -1.547  -1.324   0.114  1.00  0.00     0.157 C 
BRANCH   9  10
HETATM   10  C10 UNL     1      -2.691  -0.379   0.255  1.00  0.00     0.034 C 
HETATM   11  C11 UNL     1      -2.998   0.459  -0.937  1.00  0.00     0.009 C 
HETATM   12  C12 UNL     1      -4.250   1.259  -0.636  1.00  0.00     0.001 C 
HETATM   13  C13 UNL     1      -4.626   1.224   0.819  1.00  0.00     0.002 C 
HETATM   14  C14 UNL     1      -4.874  -0.177   1.324  1.00  0.00     0.032 C 
HETATM   15  C15 UNL     1      -3.971  -1.133   0.618  1.00  0.00     0.123 C 
BRANCH  15  16
HETATM   16  O1  UNL     1      -3.565  -2.177   1.466  1.00  0.00    -0.395 OA
ATOM     17  H1  UNL     1      -4.360  -2.645   1.691  1.00  0.00     0.210 HD
ENDBRANCH  15  16
ENDBRANCH   9  10
ENDBRANCH   8   9
BRANCH   5  18
HETATM   18  C4  UNL     1       2.822   0.735   0.857  1.00  0.00     0.349 C 
BRANCH  18  19
HETATM   19  N2  UNL     1       3.847  -0.241   1.156  1.00  0.00     0.095 N 
HETATM   20  C5  UNL     1       4.920   0.495   1.841  1.00  0.00     0.273 C 
HETATM   21  C6  UNL     1       5.606   1.289   0.745  1.00  0.00     0.032 C 
HETATM   22  C7  UNL     1       5.374   0.474  -0.504  1.00  0.00     0.032 C 
HETATM   23  C8  UNL     1       4.541  -0.694  -0.029  1.00  0.00     0.273 C 
ENDBRANCH  18  19
ENDBRANCH   5  18
TORSDOF 5
