REMARK  5 active torsions:
REMARK  status: ('A' for Active; 'I' for Inactive)
REMARK    1  A    between atoms: C4_4  and  N1_5 
REMARK    2  A    between atoms: C6_9  and  C7_10 
REMARK    3  A    between atoms: C7_10  and  N4_12 
REMARK    4  A    between atoms: N4_12  and  C8_14 
REMARK    5  A    between atoms: C8_14  and  C9_15 
ROOT
HETATM    1  C9  UNL     1       5.992   0.946  -0.779  1.00  0.00     0.143 C 
HETATM    2  C10 UNL     1       6.285   0.183   0.429  1.00  0.00     0.060 C 
HETATM    3  N5  UNL     1       6.512  -0.445   1.388  1.00  0.00    -0.197 NA
ENDROOT
BRANCH   1   4
HETATM    4  C8  UNL     1       4.906   0.281  -1.612  1.00  0.00     0.135 C 
BRANCH   4   5
HETATM    5  N4  UNL     1       3.725   0.196  -0.814  1.00  0.00    -0.375 N 
ATOM      6  H4  UNL     1       3.779   0.531   0.148  1.00  0.00     0.160 HD
BRANCH   5   7
HETATM    7  C7  UNL     1       2.597  -0.273  -1.222  1.00  0.00     0.158 C 
HETATM    8  N3  UNL     1       2.386  -0.772  -2.535  1.00  0.00    -0.079 NA
BRANCH   7   9
HETATM    9  C6  UNL     1       1.465  -0.301  -0.296  1.00  0.00     0.162 A 
HETATM   10  N2  UNL     1       1.449   0.123   0.996  1.00  0.00    -0.334 N 
HETATM   11  C5  UNL     1       0.230  -0.060   1.534  1.00  0.00     0.202 A 
ATOM     12  H2  UNL     1       2.248   0.523   1.487  1.00  0.00     0.168 HD
HETATM   13  N1  UNL     1      -0.529  -0.607   0.562  1.00  0.00    -0.280 N 
HETATM   14  N6  UNL     1       0.216  -0.746  -0.522  1.00  0.00    -0.279 N 
ATOM     15  H6  UNL     1      -0.111  -1.136  -1.406  1.00  0.00     0.189 HD
BRANCH  13  16
HETATM   16  C4  UNL     1      -1.919  -0.948   0.776  1.00  0.00     0.126 A 
HETATM   17  C2  UNL     1      -2.767   0.161   1.312  1.00  0.00    -0.015 A 
HETATM   18  C1  UNL     1      -3.648  -0.222   2.472  1.00  0.00     0.018 C 
HETATM   19  C3  UNL     1      -2.246   1.578   1.327  1.00  0.00     0.018 C 
HETATM   20  C11 UNL     1      -3.000  -0.411  -0.040  1.00  0.00    -0.015 A 
HETATM   21  C12 UNL     1      -4.273  -1.230  -0.167  1.00  0.00     0.018 C 
HETATM   22  C13 UNL     1      -2.678   0.397  -1.264  1.00  0.00     0.018 C 
ENDBRANCH  13  16
ENDBRANCH   7   9
ENDBRANCH   5   7
ENDBRANCH   4   5
ENDBRANCH   1   4
TORSDOF 5
