REMARK  5 active torsions:
REMARK  status: ('A' for Active; 'I' for Inactive)
REMARK    1  A    between atoms: O1_1  and  C1_3 
REMARK    2  A    between atoms: C1_3  and  C2_4 
REMARK    3  A    between atoms: C2_4  and  N1_5 
REMARK    4  A    between atoms: C6_11  and  C7_12 
REMARK    5  A    between atoms: C7_12  and  C8_13 
ROOT
HETATM    1  N1  UNL     1       3.790  -0.050   0.544  1.00  0.00    -0.186 NA
HETATM    2  C3  UNL     1       3.552  -1.303  -0.100  1.00  0.00     0.127 C 
HETATM    3  C4  UNL     1       2.220  -1.814   0.468  1.00  0.00     0.079 C 
HETATM    4  C5  UNL     1       1.253  -0.688   0.540  1.00  0.00     0.072 A 
HETATM    5  N2  UNL     1      -0.086  -0.690   0.802  1.00  0.00    -0.339 N 
ATOM      6  H2  UNL     1      -0.650  -1.516   1.001  1.00  0.00     0.167 HD
HETATM    7  C6  UNL     1      -0.539   0.571   0.755  1.00  0.00     0.127 A 
HETATM    8  O2  UNL     1       0.501   1.340   0.470  1.00  0.00    -0.272 OA
HETATM    9  C14 UNL     1       1.573   0.631   0.337  1.00  0.00     0.229 A 
HETATM   10  O3  UNL     1       2.930   0.902   0.046  1.00  0.00    -0.234 OA
ENDROOT
BRANCH   7  11
HETATM   11  C7  UNL     1      -1.940   0.991   0.985  1.00  0.00     0.089 C 
BRANCH  11  12
HETATM   12  C8  UNL     1      -2.680   0.991  -0.323  1.00  0.00    -0.007 C 
HETATM   13  C9  UNL     1      -4.109   1.445  -0.086  1.00  0.00     0.005 C 
HETATM   14  C10 UNL     1      -4.891   0.309   0.497  1.00  0.00     0.000 C 
HETATM   15  C11 UNL     1      -5.093  -0.768  -0.557  1.00  0.00     0.000 C 
HETATM   16  C12 UNL     1      -3.982  -0.731  -1.590  1.00  0.00     0.000 C 
HETATM   17  C13 UNL     1      -2.652  -0.395  -0.938  1.00  0.00     0.005 C 
ENDBRANCH  11  12
ENDBRANCH   7  11
BRANCH   1  18
HETATM   18  C2  UNL     1       5.124   0.355   0.724  1.00  0.00     0.147 C 
BRANCH  18  19
HETATM   19  C1  UNL     1       5.912   0.733  -0.477  1.00  0.00     0.181 C 
BRANCH  19  20
HETATM   20  O1  UNL     1       6.015  -0.315  -1.383  1.00  0.00    -0.400 OA
ATOM     21  H1  UNL     1       6.519  -0.073  -2.151  1.00  0.00     0.209 HD
ENDBRANCH  19  20
ENDBRANCH  18  19
ENDBRANCH   1  18
TORSDOF 5
