REMARK  2 active torsions:
REMARK  status: ('A' for Active; 'I' for Inactive)
REMARK    1  A    between atoms: O1_1  and  C1_3 
REMARK    2  A    between atoms: C6_10  and  O4_11 
ROOT
HETATM    1  C1  UNL     1       2.000  -0.284   0.053  1.00  0.00     0.145 C 
HETATM    2  C2  UNL     1       1.667   0.065  -1.358  1.00  0.00     0.200 C 
HETATM    3  O2  UNL     1       0.318  -0.030  -1.545  1.00  0.00    -0.373 OA
HETATM    4  C3  UNL     1      -0.290  -0.386  -0.371  1.00  0.00     0.112 C 
HETATM    5  C4  UNL     1      -1.433  -1.349  -0.531  1.00  0.00     0.208 C 
HETATM    6  O3  UNL     1      -2.521  -0.535  -0.706  1.00  0.00    -0.385 OA
HETATM    7  C5  UNL     1      -2.377   0.576   0.106  1.00  0.00     0.202 C 
HETATM    8  C6  UNL     1      -0.891   0.824   0.261  1.00  0.00     0.178 C 
HETATM    9  C7  UNL     1       0.757  -1.059   0.488  1.00  0.00     0.077 C 
ENDROOT
BRANCH   8  10
HETATM   10  O4  UNL     1      -0.573   1.980  -0.455  1.00  0.00    -0.390 OA
ATOM     11  H4  UNL     1      -0.956   2.751  -0.052  1.00  0.00     0.210 HD
ENDBRANCH   8  10
BRANCH   1  12
HETATM   12  O1  UNL     1       2.083   0.819   0.897  1.00  0.00    -0.393 OA
ATOM     13  H1  UNL     1       2.295   0.597   1.796  1.00  0.00     0.210 HD
ENDBRANCH   1  12
TORSDOF 2
