REMARK  2 active torsions:
REMARK  status: ('A' for Active; 'I' for Inactive)
REMARK    1  A    between atoms: C2_5  and  O3_6 
REMARK    2  A    between atoms: C4_9  and  O4_10 
ROOT
HETATM    1  O1  UNL     1      -0.603   2.093   1.267  1.00  0.00    -0.228 OA
HETATM    2  S1  UNL     1      -0.789   1.517  -0.122  1.00  0.00     0.149 S 
HETATM    3  O2  UNL     1      -1.469   2.477  -1.015  1.00  0.00    -0.228 OA
HETATM    4  C1  UNL     1      -1.672  -0.028   0.030  1.00  0.00     0.172 C 
HETATM    5  C2  UNL     1      -0.617  -1.122  -0.184  1.00  0.00     0.134 C 
HETATM    6  C3  UNL     1       0.474  -0.857   0.834  1.00  0.00     0.065 C 
HETATM    7  C4  UNL     1       1.440   0.200   0.391  1.00  0.00     0.134 C 
HETATM    8  C5  UNL     1       0.857   1.097  -0.698  1.00  0.00     0.172 C 
ENDROOT
BRANCH   5   9
HETATM    9  O3  UNL     1      -1.203  -2.356  -0.020  1.00  0.00    -0.395 OA
ATOM     10  H3  UNL     1      -0.550  -3.033  -0.152  1.00  0.00     0.210 HD
ENDBRANCH   5   9
BRANCH   7  11
HETATM   11  O4  UNL     1       2.663  -0.324   0.042  1.00  0.00    -0.395 OA
ATOM     12  H4  UNL     1       3.275   0.346  -0.239  1.00  0.00     0.210 HD
ENDBRANCH   7  11
TORSDOF 2
