REMARK  7 active torsions:
REMARK  status: ('A' for Active; 'I' for Inactive)
REMARK    1  A    between atoms: C2_2  and  C4_4 
REMARK    2  A    between atoms: C4_4  and  O1_5 
REMARK    3  A    between atoms: C4_4  and  C5_7 
REMARK    4  A    between atoms: C5_7  and  C6_8 
REMARK    5  A    between atoms: C7_9  and  O2_10 
REMARK    6  A    between atoms: C8_12  and  O3_13 
REMARK    7  A    between atoms: N1_18  and  O5_19 
ROOT
HETATM    1  C6  UNL     1       0.588   0.268  -0.056  1.00  0.00     0.150 C 
HETATM    2  C7  UNL     1       1.551  -0.089  -1.135  1.00  0.00     0.171 C 
HETATM    3  C8  UNL     1       2.850  -0.656  -0.644  1.00  0.00     0.179 C 
HETATM    4  C9  UNL     1       3.236  -0.231   0.724  1.00  0.00     0.175 C 
HETATM    5  C10 UNL     1       4.346   0.811   0.691  1.00  0.00     0.044 C 
HETATM    6  O4  UNL     1       2.211   0.285   1.487  1.00  0.00    -0.271 OA
HETATM    7  N1  UNL     1       1.011  -0.230   1.207  1.00  0.00    -0.064 NA
ENDROOT
BRANCH   1   8
HETATM    8  C5  UNL     1      -0.794  -0.132  -0.458  1.00  0.00     0.059 C 
BRANCH   8   9
HETATM    9  C4  UNL     1      -1.836   0.196   0.587  1.00  0.00     0.123 C 
BRANCH   9  10
HETATM   10  C2  UNL     1      -3.203  -0.238   0.108  1.00  0.00     0.006 C 
HETATM   11  C1  UNL     1      -4.278   0.038   1.107  1.00  0.00     0.012 C 
HETATM   12  C3  UNL     1      -3.527   0.300  -1.263  1.00  0.00     0.012 C 
ENDBRANCH   9  10
BRANCH   9  13
HETATM   13  O1  UNL     1      -1.896   1.569   0.823  1.00  0.00    -0.395 OA
ATOM     14  H1  UNL     1      -1.037   1.842   1.124  1.00  0.00     0.210 HD
ENDBRANCH   9  13
ENDBRANCH   8   9
ENDBRANCH   1   8
BRANCH   2  15
HETATM   15  O2  UNL     1       1.761   0.995  -1.991  1.00  0.00    -0.391 OA
ATOM     16  H2  UNL     1       2.375   0.767  -2.679  1.00  0.00     0.210 HD
ENDBRANCH   2  15
BRANCH   7  17
HETATM   17  O5  UNL     1       1.033  -1.546   1.335  1.00  0.00    -0.288 OA
ATOM     18  H5  UNL     1       1.316  -1.879   2.179  1.00  0.00     0.239 HD
ENDBRANCH   7  17
BRANCH   3  19
HETATM   19  O3  UNL     1       2.901  -2.060  -0.811  1.00  0.00    -0.390 OA
ATOM     20  H3  UNL     1       3.724  -2.419  -0.500  1.00  0.00     0.210 HD
ENDBRANCH   3  19
TORSDOF 7
