REMARK  7 active torsions:
REMARK  status: ('A' for Active; 'I' for Inactive)
REMARK    1  A    between atoms: C2_2  and  O1_4 
REMARK    2  A    between atoms: O1_4  and  C4_5 
REMARK    3  A    between atoms: C5_7  and  C6_8 
REMARK    4  A    between atoms: C6_8  and  O3_10 
REMARK    5  A    between atoms: C8_12  and  O4_13 
REMARK    6  A    between atoms: C9_15  and  O5_16 
REMARK    7  A    between atoms: C10_18  and  O6_19 
ROOT
HETATM    1  C4  UNL     1       0.620  -0.323   0.036  1.00  0.00     0.292 C 
HETATM    2  O2  UNL     1      -0.386   0.347   0.673  1.00  0.00    -0.348 OA
HETATM    3  C5  UNL     1      -1.659   0.034   0.389  1.00  0.00     0.184 C 
HETATM    4  C8  UNL     1      -1.775  -0.741  -0.897  1.00  0.00     0.181 C 
HETATM    5  C9  UNL     1      -1.073  -2.070  -0.592  1.00  0.00     0.183 C 
HETATM    6  C10 UNL     1       0.347  -1.753  -0.270  1.00  0.00     0.204 C 
ENDROOT
BRANCH   1   7
HETATM    7  O1  UNL     1       1.731  -0.130   0.838  1.00  0.00    -0.354 OA
BRANCH   7   8
HETATM    8  C2  UNL     1       2.746   0.606   0.319  1.00  0.00     0.116 C 
HETATM    9  C1  UNL     1       3.144   1.789   1.189  1.00  0.00     0.039 C 
HETATM   10  C3  UNL     1       3.947  -0.332   0.261  1.00  0.00     0.039 C 
ENDBRANCH   7   8
ENDBRANCH   1   7
BRANCH   6  11
HETATM   11  O6  UNL     1       1.102  -2.194  -1.381  1.00  0.00    -0.388 OA
ATOM     12  H6  UNL     1       0.928  -3.107  -1.576  1.00  0.00     0.210 HD
ENDBRANCH   6  11
BRANCH   3  13
HETATM   13  C6  UNL     1      -2.620   1.207   0.354  1.00  0.00     0.145 C 
HETATM   14  C7  UNL     1      -2.317   2.181  -0.739  1.00  0.00     0.042 C 
BRANCH  13  15
HETATM   15  O3  UNL     1      -2.680   1.872   1.562  1.00  0.00    -0.393 OA
ATOM     16  H3  UNL     1      -3.282   2.607   1.540  1.00  0.00     0.210 HD
ENDBRANCH  13  15
ENDBRANCH   3  13
BRANCH   5  17
HETATM   17  O5  UNL     1      -1.733  -2.699   0.454  1.00  0.00    -0.390 OA
ATOM     18  H5  UNL     1      -1.298  -3.522   0.643  1.00  0.00     0.210 HD
ENDBRANCH   5  17
BRANCH   4  19
HETATM   19  O4  UNL     1      -3.109  -0.923  -1.202  1.00  0.00    -0.390 OA
ATOM     20  H4  UNL     1      -3.182  -1.412  -2.013  1.00  0.00     0.210 HD
ENDBRANCH   4  19
TORSDOF 7
