REMARK  6 active torsions:
REMARK  status: ('A' for Active; 'I' for Inactive)
REMARK    1  A    between atoms: C2_2  and  O1_3 
REMARK    2  A    between atoms: O1_3  and  C3_4 
REMARK    3  A    between atoms: C3_4  and  C4_5 
REMARK    4  A    between atoms: C8_10  and  O2_11 
REMARK    5  A    between atoms: C9_13  and  O3_14 
REMARK    6  A    between atoms: C10_16  and  O4_17 
ROOT
HETATM    1  C4  UNL     1       0.019  -0.718  -0.402  1.00  0.00     0.046 C 
HETATM    2  C5  UNL     1      -0.686   0.401  -1.073  1.00  0.00     0.007 C 
HETATM    3  C6  UNL     1      -1.626  -0.069  -2.161  1.00  0.00     0.012 C 
HETATM    4  C7  UNL     1      -1.441   1.313  -0.164  1.00  0.00     0.094 C 
HETATM    5  S1  UNL     1      -2.361   2.528  -1.100  1.00  0.00    -0.089 SA
HETATM    6  C8  UNL     1      -2.357   0.432   0.693  1.00  0.00     0.164 C 
HETATM    7  C9  UNL     1      -1.384  -0.359   1.569  1.00  0.00     0.177 C 
HETATM    8  C10 UNL     1      -0.753  -1.394   0.685  1.00  0.00     0.156 C 
ENDROOT
BRANCH   1   9
HETATM    9  C3  UNL     1       1.362  -0.307   0.174  1.00  0.00     0.175 C 
BRANCH   9  10
HETATM   10  O1  UNL     1       2.184   0.160  -0.844  1.00  0.00    -0.391 OA
BRANCH  10  11
HETATM   11  C2  UNL     1       3.411   0.542  -0.358  1.00  0.00     0.163 C 
HETATM   12  C1  UNL     1       4.170  -0.568   0.321  1.00  0.00     0.033 C 
ENDBRANCH  10  11
ENDBRANCH   9  10
ENDBRANCH   1   9
BRANCH   8  13
HETATM   13  O4  UNL     1      -1.663  -2.313   0.184  1.00  0.00    -0.392 OA
ATOM     14  H4  UNL     1      -2.154  -2.743   0.875  1.00  0.00     0.210 HD
ENDBRANCH   8  13
BRANCH   7  15
HETATM   15  O3  UNL     1      -2.026  -0.899   2.674  1.00  0.00    -0.390 OA
ATOM     16  H3  UNL     1      -1.422  -1.390   3.218  1.00  0.00     0.210 HD
ENDBRANCH   7  15
BRANCH   6  17
HETATM   17  O2  UNL     1      -3.239   1.182   1.434  1.00  0.00    -0.392 OA
ATOM     18  H2  UNL     1      -3.807   0.636   1.965  1.00  0.00     0.210 HD
ENDBRANCH   6  17
TORSDOF 6
