REMARK  7 active torsions:
REMARK  status: ('A' for Active; 'I' for Inactive)
REMARK    1  A    between atoms: C6_7  and  N1_8 
REMARK    2  A    between atoms: N1_8  and  C7_10 
REMARK    3  A    between atoms: C8_12  and  N2_13 
REMARK    4  A    between atoms: N2_13  and  O2_14 
REMARK    5  A    between atoms: C9_16  and  O3_17 
REMARK    6  A    between atoms: C9_16  and  N3_19 
REMARK       I    between atoms: N3_19  and  C10_21 
REMARK    7  A    between atoms: C10_21  and  C11_23 
ROOT
HETATM    1  C1  UNL     1       4.131  -0.050   1.816  1.00  0.00     0.029 C 
HETATM    2  C2  UNL     1       3.041  -0.642   0.909  1.00  0.00     0.022 A 
HETATM    3  C3  UNL     1       3.646  -1.886   0.306  1.00  0.00     0.029 C 
HETATM    4  S1  UNL     1       1.642  -1.019   1.994  1.00  0.00    -0.147 SA
HETATM    5  C4  UNL     1       0.377  -0.063   1.123  1.00  0.00     0.113 A 
HETATM    6  C5  UNL     1       1.098   0.602   0.040  1.00  0.00     0.055 A 
HETATM    7  C6  UNL     1       2.514   0.331  -0.058  1.00  0.00     0.108 A 
HETATM    8  C8  UNL     1       0.139   0.048  -0.961  1.00  0.00     0.170 C 
HETATM    9  C9  UNL     1      -0.395  -0.852   0.094  1.00  0.00     0.167 C 
ENDROOT
BRANCH   9  10
HETATM   10  O3  UNL     1       0.044  -2.183   0.021  1.00  0.00    -0.368 OA
ATOM     11  H3  UNL     1      -0.442  -2.680  -0.627  1.00  0.00     0.212 HD
ENDBRANCH   9  10
BRANCH   9  12
HETATM   12  N3  UNL     1      -1.805  -0.721   0.332  1.00  0.00    -0.327 N 
HETATM   13  C10 UNL     1      -2.545   0.468   0.410  1.00  0.00     0.224 C 
HETATM   14  O4  UNL     1      -1.994   1.581   0.276  1.00  0.00    -0.273 OA
ATOM     15  H3  UNL     1      -2.326  -1.589   0.458  1.00  0.00     0.165 HD
BRANCH  13  16
HETATM   16  C11 UNL     1      -3.988   0.436   0.651  1.00  0.00     0.078 C 
HETATM   17  C12 UNL     1      -4.747  -0.327  -0.433  1.00  0.00     0.014 C 
HETATM   18  C13 UNL     1      -5.801   0.764  -0.359  1.00  0.00     0.002 C 
HETATM   19  C14 UNL     1      -4.718   1.688   0.162  1.00  0.00     0.014 C 
ENDBRANCH  13  16
ENDBRANCH   9  12
BRANCH   8  20
HETATM   20  N2  UNL     1       0.739  -0.772  -2.008  1.00  0.00    -0.093 NA
BRANCH  20  21
HETATM   21  O2  UNL     1      -0.224  -1.213  -2.857  1.00  0.00    -0.295 OA
ATOM     22  H2  UNL     1       0.167  -1.747  -3.539  1.00  0.00     0.238 HD
ENDBRANCH  20  21
ENDBRANCH   8  20
BRANCH   7  23
HETATM   23  N1  UNL     1       3.237   1.590   0.163  1.00  0.00    -0.362 N 
ATOM     24  H1  UNL     1       3.160   2.029   1.081  1.00  0.00     0.162 HD
BRANCH  23  25
HETATM   25  C7  UNL     1       4.017   2.221  -0.794  1.00  0.00     0.348 C 
HETATM   26  O1  UNL     1       4.145   1.726  -1.934  1.00  0.00    -0.284 OA
ENDBRANCH  23  25
ENDBRANCH   7  23
TORSDOF 7
