REMARK  7 active torsions:
REMARK  status: ('A' for Active; 'I' for Inactive)
REMARK    1  A    between atoms: C5_5  and  O1_6 
REMARK    2  A    between atoms: C6_8  and  O2_9 
REMARK    3  A    between atoms: C7_11  and  C8_12 
REMARK    4  A    between atoms: C8_12  and  C9_13 
REMARK    5  A    between atoms: C9_13  and  C10_14 
REMARK    6  A    between atoms: C10_14  and  C11_15 
REMARK    7  A    between atoms: C16_23  and  O6_24 
ROOT
HETATM    1  C1  UNL     1      -2.149  -1.302   2.014  1.00  0.00     0.018 C 
HETATM    2  C2  UNL     1      -3.041  -0.549   1.041  1.00  0.00    -0.007 A 
HETATM    3  C3  UNL     1      -4.520  -0.765   1.390  1.00  0.00     0.018 C 
HETATM    4  C4  UNL     1      -2.700   0.757   0.650  1.00  0.00     0.063 A 
HETATM    5  C5  UNL     1      -3.129   1.666  -0.455  1.00  0.00     0.155 C 
HETATM    6  C6  UNL     1      -1.897   1.405  -1.380  1.00  0.00     0.154 C 
HETATM    7  C7  UNL     1      -1.475   0.001  -1.056  1.00  0.00     0.053 C 
HETATM    8  C16 UNL     1      -2.631  -0.488  -0.306  1.00  0.00     0.078 A 
ENDROOT
BRANCH   7   9
HETATM    9  C8  UNL     1      -0.134  -0.207  -0.490  1.00  0.00     0.014 C 
BRANCH   9  10
HETATM   10  C9  UNL     1       1.028   0.206  -1.343  1.00  0.00     0.050 C 
BRANCH  10  11
HETATM   11  C10 UNL     1       2.363  -0.063  -0.655  1.00  0.00     0.148 C 
HETATM   12  C12 UNL     1       2.573  -1.558  -0.469  1.00  0.00     0.049 C 
HETATM   13  C13 UNL     1       3.982  -1.684   0.133  1.00  0.00     0.006 C 
HETATM   14  C14 UNL     1       4.070  -0.897   1.415  1.00  0.00     0.026 C 
HETATM   15  C15 UNL     1       3.546   0.493   1.304  1.00  0.00     0.169 C 
HETATM   16  O5  UNL     1       2.447   0.558   0.534  1.00  0.00    -0.369 OA
BRANCH  11  17
HETATM   17  C11 UNL     1       3.394   0.389  -1.602  1.00  0.00     0.209 C 
HETATM   18  O3  UNL     1       3.442  -0.130  -2.738  1.00  0.00    -0.646 OA
HETATM   19  O4  UNL     1       4.301   1.362  -1.277  1.00  0.00    -0.646 OA
ENDBRANCH  11  17
ENDBRANCH  10  11
ENDBRANCH   9  10
ENDBRANCH   7   9
BRANCH   6  20
HETATM   20  O2  UNL     1      -0.976   2.389  -1.198  1.00  0.00    -0.393 OA
ATOM     21  H2  UNL     1      -0.227   2.230  -1.760  1.00  0.00     0.210 HD
ENDBRANCH   6  20
BRANCH   8  22
HETATM   22  O6  UNL     1      -3.711  -0.597  -1.232  1.00  0.00    -0.388 OA
ATOM     23  H6  UNL     1      -3.435  -0.556  -2.140  1.00  0.00     0.210 HD
ENDBRANCH   8  22
BRANCH   5  24
HETATM   24  O1  UNL     1      -3.020   2.977  -0.028  1.00  0.00    -0.392 OA
ATOM     25  H1  UNL     1      -3.293   3.555  -0.731  1.00  0.00     0.210 HD
ENDBRANCH   5  24
TORSDOF 7
