REMARK  5 active torsions:
REMARK  status: ('A' for Active; 'I' for Inactive)
REMARK       I    between atoms: N1_2  and  C2_4 
REMARK       I    between atoms: C2_4  and  N2_6 
REMARK    1  A    between atoms: N2_6  and  C3_8 
REMARK    2  A    between atoms: C6_11  and  C7_12 
REMARK    3  A    between atoms: C7_12  and  N3_13 
REMARK    4  A    between atoms: N3_13  and  C8_15 
REMARK    5  A    between atoms: C14_21  and  O2_22 
ROOT
HETATM    1  C3  UNL     1       3.417  -0.982  -0.843  1.00  0.00     0.263 C 
HETATM    2  C4  UNL     1       2.952  -2.381  -0.464  1.00  0.00     0.063 C 
HETATM    3  C5  UNL     1       1.711  -2.156   0.446  1.00  0.00     0.073 C 
HETATM    4  C6  UNL     1       0.660  -1.718  -0.486  1.00  0.00     0.099 C 
HETATM    5  O3  UNL     1       1.239  -0.809  -1.427  1.00  0.00    -0.199 OA
HETATM    6  O4  UNL     1       2.246  -0.192  -0.789  1.00  0.00    -0.209 OA
ENDROOT
BRANCH   4   7
HETATM    7  C7  UNL     1      -0.724  -1.353  -0.090  1.00  0.00     0.119 C 
BRANCH   7   8
HETATM    8  N3  UNL     1      -0.810  -0.003   0.247  1.00  0.00    -0.392 N 
ATOM      9  H3  UNL     1       0.046   0.502   0.478  1.00  0.00     0.159 HD
BRANCH   8  10
HETATM   10  C8  UNL     1      -2.004   0.669   0.279  1.00  0.00     0.087 C 
HETATM   11  C9  UNL     1      -2.596   1.038   1.585  1.00  0.00     0.030 C 
HETATM   12  C10 UNL     1      -4.060   1.445   1.408  1.00  0.00    -0.010 C 
HETATM   13  C11 UNL     1      -4.832   0.136   1.339  1.00  0.00     0.005 C 
HETATM   14  C15 UNL     1      -4.172   2.131   0.052  1.00  0.00     0.037 C 
HETATM   15  C12 UNL     1      -4.003  -0.829   0.479  1.00  0.00     0.009 C 
HETATM   16  C13 UNL     1      -3.133  -0.052  -0.474  1.00  0.00     0.037 C 
HETATM   17  C14 UNL     1      -4.026   1.082  -1.003  1.00  0.00     0.124 C 
BRANCH  17  18
HETATM   18  O2  UNL     1      -5.236   0.564  -1.429  1.00  0.00    -0.395 OA
ATOM     19  H2  UNL     1      -5.788   1.265  -1.756  1.00  0.00     0.210 HD
ENDBRANCH  17  18
ENDBRANCH   8  10
ENDBRANCH   7   8
ENDBRANCH   4   7
BRANCH   1  20
HETATM   20  N2  UNL     1       4.378  -0.494   0.089  1.00  0.00    -0.314 N 
HETATM   21  C2  UNL     1       5.370   0.477  -0.348  1.00  0.00     0.317 C 
HETATM   22  N1  UNL     1       6.323   0.898   0.582  1.00  0.00    -0.347 N 
HETATM   23  O1  UNL     1       5.327   0.867  -1.506  1.00  0.00    -0.247 OA
HETATM   24  C1  UNL     1       7.331   1.877   0.207  1.00  0.00     0.151 C 
ATOM     25  H1  UNL     1       6.312   0.517   1.528  1.00  0.00     0.163 HD
ATOM     26  H2  UNL     1       4.371  -0.823   1.055  1.00  0.00     0.167 HD
ENDBRANCH   1  20
TORSDOF 5
