REMARK  6 active torsions:
REMARK  status: ('A' for Active; 'I' for Inactive)
REMARK    1  A    between atoms: N1_2  and  C2_5 
REMARK    2  A    between atoms: C2_5  and  C3_6 
REMARK    3  A    between atoms: C3_6  and  C4_7 
REMARK       I    between atoms: C4_7  and  N2_9 
REMARK    4  A    between atoms: N2_9  and  C5_11 
REMARK    5  A    between atoms: C14_21  and  O3_22 
REMARK    6  A    between atoms: C16_25  and  O4_26 
ROOT
HETATM    1  C5  UNL     1       0.557  -0.701  -0.014  1.00  0.00     0.252 C 
HETATM    2  O2  UNL     1      -0.301  -1.347  -0.915  1.00  0.00    -0.364 OA
HETATM    3  C6  UNL     1      -1.040  -0.381  -1.595  1.00  0.00     0.178 C 
HETATM    4  C7  UNL     1      -2.289   0.011  -0.836  1.00  0.00     0.048 C 
HETATM    5  C8  UNL     1      -2.455   1.511  -0.766  1.00  0.00    -0.010 C 
HETATM    6  C9  UNL     1      -2.326   2.096  -2.169  1.00  0.00     0.010 C 
HETATM    7  C10 UNL     1      -3.828   1.811  -0.247  1.00  0.00     0.005 C 
HETATM    8  C11 UNL     1      -4.553   0.600   0.258  1.00  0.00     0.007 C 
HETATM    9  C12 UNL     1      -3.718  -0.297   1.115  1.00  0.00     0.016 C 
HETATM   10  C13 UNL     1      -4.486  -1.608   1.270  1.00  0.00     0.013 C 
HETATM   11  C14 UNL     1      -2.366  -0.609   0.515  1.00  0.00     0.069 C 
HETATM   12  C15 UNL     1      -1.315  -0.169   1.471  1.00  0.00     0.074 C 
HETATM   13  C16 UNL     1      -0.029  -0.943   1.373  1.00  0.00     0.169 C 
ENDROOT
BRANCH   1  14
HETATM   14  N2  UNL     1       1.876  -1.250  -0.023  1.00  0.00    -0.332 N 
HETATM   15  C4  UNL     1       2.989  -0.411  -0.261  1.00  0.00     0.221 C 
HETATM   16  O1  UNL     1       2.794   0.812  -0.462  1.00  0.00    -0.274 OA
ATOM     17  H2  UNL     1       2.015  -2.247   0.142  1.00  0.00     0.165 HD
BRANCH  15  18
HETATM   18  C3  UNL     1       4.371  -0.955  -0.276  1.00  0.00     0.130 C 
BRANCH  18  19
HETATM   19  C2  UNL     1       5.345   0.161  -0.552  1.00  0.00     0.241 C 
BRANCH  19  20
HETATM   20  N1  UNL     1       6.700  -0.313  -0.577  1.00  0.00    -0.079 N 
HETATM   21  C1  UNL     1       7.593   0.778  -0.842  1.00  0.00     0.267 C 
ATOM     22  H12 UNL     1       6.826  -1.080  -1.238  1.00  0.00     0.276 HD
ATOM     23  H11 UNL     1       6.947  -0.812   0.278  1.00  0.00     0.276 HD
ENDBRANCH  19  20
ENDBRANCH  18  19
ENDBRANCH  15  18
ENDBRANCH   1  14
BRANCH  13  24
HETATM   24  O4  UNL     1       0.829  -0.479   2.368  1.00  0.00    -0.391 OA
ATOM     25  H4  UNL     1       0.464  -0.630   3.232  1.00  0.00     0.210 HD
ENDBRANCH  13  24
BRANCH  11  26
HETATM   26  O3  UNL     1      -2.213  -2.005   0.341  1.00  0.00    -0.389 OA
ATOM     27  H3  UNL     1      -2.262  -2.401   1.203  1.00  0.00     0.210 HD
ENDBRANCH  11  26
TORSDOF 6
