REMARK  6 active torsions:
REMARK  status: ('A' for Active; 'I' for Inactive)
REMARK    1  A    between atoms: N1_10  and  C9_11 
REMARK    2  A    between atoms: C9_11  and  C10_13 
REMARK    3  A    between atoms: C10_13  and  C11_14 
REMARK    4  A    between atoms: C11_14  and  C12_15 
REMARK    5  A    between atoms: C12_15  and  N2_16 
REMARK       I    between atoms: N2_16  and  C13_18 
REMARK    6  A    between atoms: N4_20  and  O2_22 
ROOT
HETATM    1  C9  UNL     1       0.140   0.680   0.885  1.00  0.00     0.102 C 
HETATM    2  S1  UNL     1       0.363   2.134   1.589  1.00  0.00    -0.063 SA
ENDROOT
BRANCH   1   3
HETATM    3  N1  UNL     1      -1.201   0.336   0.515  1.00  0.00    -0.241 N 
HETATM    4  C8  UNL     1      -1.443  -0.951  -0.088  1.00  0.00     0.144 C 
HETATM    5  C4  UNL     1      -2.827  -1.375   0.350  1.00  0.00     0.150 C 
HETATM    6  C7  UNL     1      -1.504  -0.940  -1.582  1.00  0.00     0.030 C 
HETATM    7  O1  UNL     1      -3.774  -0.403   0.147  1.00  0.00    -0.346 OA
HETATM    8  C5  UNL     1      -3.119  -2.497  -0.640  1.00  0.00     0.034 C 
HETATM    9  C2  UNL     1      -3.453   0.855   0.533  1.00  0.00     0.183 C 
HETATM   10  C1  UNL     1      -4.031   1.804  -0.532  1.00  0.00     0.081 C 
HETATM   11  C3  UNL     1      -4.254   1.179   1.802  1.00  0.00     0.081 C 
HETATM   12  O3  UNL     1      -2.178   1.189   0.729  1.00  0.00    -0.238 OA
HETATM   13  C6  UNL     1      -2.446  -2.077  -1.926  1.00  0.00     0.005 C 
ENDBRANCH   1   3
BRANCH   1  14
HETATM   14  C10 UNL     1       1.208  -0.301   0.630  1.00  0.00     0.073 C 
BRANCH  14  15
HETATM   15  C11 UNL     1       2.600   0.186   0.789  1.00  0.00     0.026 C 
BRANCH  15  16
HETATM   16  C12 UNL     1       3.019   1.290  -0.138  1.00  0.00     0.122 C 
BRANCH  16  17
HETATM   17  N2  UNL     1       4.396   1.628   0.174  1.00  0.00    -0.363 N 
HETATM   18  C13 UNL     1       5.402   0.695  -0.110  1.00  0.00     0.208 C 
HETATM   19  N3  UNL     1       5.855  -0.293   0.798  1.00  0.00    -0.062 NA
HETATM   20  N4  UNL     1       5.942   0.749  -1.274  1.00  0.00    -0.241 N 
ATOM     21  H4  UNL     1       5.631   1.453  -1.944  1.00  0.00     0.197 HD
ATOM     22  H2  UNL     1       4.627   2.529   0.593  1.00  0.00     0.162 HD
BRANCH  20  23
HETATM   23  O2  UNL     1       6.932  -0.131  -1.623  1.00  0.00    -0.287 OA
ATOM     24  H2  UNL     1       7.331  -0.091  -2.484  1.00  0.00     0.244 HD
ENDBRANCH  20  23
ENDBRANCH  16  17
ENDBRANCH  15  16
ENDBRANCH  14  15
ENDBRANCH   1  14
TORSDOF 6
