REMARK  7 active torsions:
REMARK  status: ('A' for Active; 'I' for Inactive)
REMARK    1  A    between atoms: O1_1  and  C1_3 
REMARK    2  A    between atoms: C1_3  and  C2_4 
REMARK    3  A    between atoms: C3_6  and  N1_7 
REMARK    4  A    between atoms: C4_9  and  C5_10 
REMARK    5  A    between atoms: C10_15  and  O3_16 
REMARK    6  A    between atoms: C11_18  and  O4_19 
REMARK    7  A    between atoms: C12_21  and  O5_22 
ROOT
HETATM    1  C2  UNL     1      -2.468   0.933  -0.769  1.00  0.00     0.179 C 
HETATM    2  O2  UNL     1      -1.157   0.508  -0.758  1.00  0.00    -0.354 OA
HETATM    3  C3  UNL     1      -0.936  -0.150   0.451  1.00  0.00     0.252 C 
HETATM    4  C10 UNL     1      -1.514  -1.539   0.280  1.00  0.00     0.198 C 
HETATM    5  C11 UNL     1      -2.999  -1.380   0.072  1.00  0.00     0.182 C 
HETATM    6  C12 UNL     1      -3.444   0.007  -0.164  1.00  0.00     0.180 C 
ENDROOT
BRANCH   3   7
HETATM    7  N1  UNL     1       0.416  -0.148   0.858  1.00  0.00    -0.374 N 
HETATM    8  C4  UNL     1       1.348  -0.456   0.038  1.00  0.00     0.062 C 
ATOM      9  H1  UNL     1       0.652   0.102   1.818  1.00  0.00     0.161 HD
BRANCH   8  10
HETATM   10  C5  UNL     1       2.743  -0.422   0.574  1.00  0.00     0.024 C 
HETATM   11  C6  UNL     1       3.652  -1.059  -0.425  1.00  0.00     0.010 C 
HETATM   12  C7  UNL     1       4.941  -0.284  -0.251  1.00  0.00     0.001 C 
HETATM   13  C8  UNL     1       4.465   1.142  -0.080  1.00  0.00     0.001 C 
HETATM   14  C9  UNL     1       3.148   1.042   0.672  1.00  0.00     0.010 C 
ENDBRANCH   8  10
ENDBRANCH   3   7
BRANCH   4  15
HETATM   15  O3  UNL     1      -0.954  -2.180  -0.842  1.00  0.00    -0.389 OA
ATOM     16  H3  UNL     1      -1.317  -3.051  -0.949  1.00  0.00     0.210 HD
ENDBRANCH   4  15
BRANCH   1  17
HETATM   17  C1  UNL     1      -2.469   2.320  -0.109  1.00  0.00     0.198 C 
BRANCH  17  18
HETATM   18  O1  UNL     1      -3.732   2.863  -0.056  1.00  0.00    -0.398 OA
ATOM     19  H1  UNL     1      -3.733   3.721   0.352  1.00  0.00     0.209 HD
ENDBRANCH  17  18
ENDBRANCH   1  17
BRANCH   5  20
HETATM   20  O4  UNL     1      -3.612  -1.834   1.264  1.00  0.00    -0.390 OA
ATOM     21  H4  UNL     1      -4.548  -1.734   1.133  1.00  0.00     0.210 HD
ENDBRANCH   5  20
BRANCH   6  22
HETATM   22  O5  UNL     1      -4.584  -0.040  -1.001  1.00  0.00    -0.390 OA
ATOM     23  H5  UNL     1      -5.213  -0.636  -0.611  1.00  0.00     0.210 HD
ENDBRANCH   6  22
TORSDOF 7
