REMARK  7 active torsions:
REMARK  status: ('A' for Active; 'I' for Inactive)
REMARK    1  A    between atoms: O1_1  and  C1_3 
REMARK    2  A    between atoms: C1_3  and  C2_4 
REMARK    3  A    between atoms: C3_6  and  O3_7 
REMARK    4  A    between atoms: O3_7  and  C4_8 
REMARK    5  A    between atoms: C10_14  and  O4_15 
REMARK    6  A    between atoms: C11_17  and  O5_18 
REMARK    7  A    between atoms: C12_20  and  O6_21 
ROOT
HETATM    1  C2  UNL     1      -2.555   0.282   1.023  1.00  0.00     0.179 C 
HETATM    2  O2  UNL     1      -1.478   0.929   0.440  1.00  0.00    -0.348 OA
HETATM    3  C3  UNL     1      -0.606   0.062  -0.198  1.00  0.00     0.292 C 
HETATM    4  C10 UNL     1      -1.255  -1.290  -0.420  1.00  0.00     0.204 C 
HETATM    5  C11 UNL     1      -2.647  -1.164  -1.001  1.00  0.00     0.183 C 
HETATM    6  C12 UNL     1      -3.463  -0.352  -0.023  1.00  0.00     0.180 C 
ENDROOT
BRANCH   3   7
HETATM    7  O3  UNL     1       0.547  -0.172   0.545  1.00  0.00    -0.353 OA
BRANCH   7   8
HETATM    8  C4  UNL     1       1.708   0.162  -0.137  1.00  0.00     0.124 C 
HETATM    9  C5  UNL     1       2.691  -0.981  -0.219  1.00  0.00     0.032 C 
HETATM   10  C6  UNL     1       3.869  -0.786   0.719  1.00  0.00     0.002 C 
HETATM   11  C7  UNL     1       4.637   0.442   0.290  1.00  0.00     0.000 C 
HETATM   12  C8  UNL     1       3.728   1.617   0.136  1.00  0.00     0.002 C 
HETATM   13  C9  UNL     1       2.369   1.279   0.664  1.00  0.00     0.032 C 
ENDBRANCH   7   8
ENDBRANCH   3   7
BRANCH   4  14
HETATM   14  O4  UNL     1      -0.436  -2.069  -1.234  1.00  0.00    -0.388 OA
ATOM     15  H4  UNL     1      -0.843  -2.916  -1.373  1.00  0.00     0.210 HD
ENDBRANCH   4  14
BRANCH   1  16
HETATM   16  C1  UNL     1      -3.395   1.322   1.728  1.00  0.00     0.198 C 
BRANCH  16  17
HETATM   17  O1  UNL     1      -3.876   2.296   0.872  1.00  0.00    -0.398 OA
ATOM     18  H1  UNL     1      -4.404   2.950   1.315  1.00  0.00     0.209 HD
ENDBRANCH  16  17
ENDBRANCH   1  16
BRANCH   5  19
HETATM   19  O5  UNL     1      -2.561  -0.539  -2.238  1.00  0.00    -0.390 OA
ATOM     20  H5  UNL     1      -3.435  -0.460  -2.603  1.00  0.00     0.210 HD
ENDBRANCH   5  19
BRANCH   6  21
HETATM   21  O6  UNL     1      -4.312  -1.236   0.647  1.00  0.00    -0.390 OA
ATOM     22  H6  UNL     1      -4.878  -1.631  -0.005  1.00  0.00     0.210 HD
ENDBRANCH   6  21
TORSDOF 7
