REMARK  9 active torsions:
REMARK  status: ('A' for Active; 'I' for Inactive)
REMARK    1  A    between atoms: C2_2  and  O1_4 
REMARK    2  A    between atoms: O1_4  and  C4_5 
REMARK    3  A    between atoms: C5_6  and  O2_7 
REMARK    4  A    between atoms: C6_9  and  O3_10 
REMARK    5  A    between atoms: C7_12  and  O4_13 
REMARK    6  A    between atoms: C8_15  and  N1_16 
REMARK    7  A    between atoms: N1_16  and  N2_18 
REMARK    8  A    between atoms: N2_18  and  N3_19 
REMARK    9  A    between atoms: C9_22  and  O5_23 
ROOT
HETATM    1  C4  UNL     1      -0.149   0.330  -0.069  1.00  0.00     0.184 C 
HETATM    2  C5  UNL     1       0.543  -0.092   1.200  1.00  0.00     0.181 C 
HETATM    3  C6  UNL     1       1.298  -1.375   0.890  1.00  0.00     0.180 C 
HETATM    4  C7  UNL     1       2.482  -0.898   0.048  1.00  0.00     0.177 C 
HETATM    5  C8  UNL     1       1.982  -0.377  -1.243  1.00  0.00     0.177 C 
HETATM    6  C9  UNL     1       0.568   0.018  -1.314  1.00  0.00     0.177 C 
ENDROOT
BRANCH   5   7
HETATM    7  N1  UNL     1       2.801   0.798  -1.586  1.00  0.00    -0.243 N 
ATOM      8  H1  UNL     1       2.955   1.044  -2.564  1.00  0.00     0.197 HD
BRANCH   7   9
HETATM    9  N2  UNL     1       3.298   1.481  -0.695  1.00  0.00    -0.248 NA
BRANCH   9  10
HETATM   10  N3  UNL     1       3.618   2.416   0.035  1.00  0.00    -0.261 N 
ATOM     11  H32 UNL     1       3.075   3.105  -0.485  1.00  0.00     0.193 HD
ATOM     12  H31 UNL     1       4.031   2.983   0.775  1.00  0.00     0.193 HD
ENDBRANCH   9  10
ENDBRANCH   7   9
ENDBRANCH   5   7
BRANCH   4  13
HETATM   13  O4  UNL     1       3.363  -1.936  -0.124  1.00  0.00    -0.391 OA
ATOM     14  H4  UNL     1       4.099  -1.640  -0.647  1.00  0.00     0.210 HD
ENDBRANCH   4  13
BRANCH   6  15
HETATM   15  O5  UNL     1       0.421   1.114  -2.197  1.00  0.00    -0.391 OA
ATOM     16  H5  UNL     1       0.884   0.912  -3.001  1.00  0.00     0.210 HD
ENDBRANCH   6  15
BRANCH   3  17
HETATM   17  O3  UNL     1       1.725  -2.022   2.035  1.00  0.00    -0.390 OA
ATOM     18  H3  UNL     1       2.197  -2.824   1.841  1.00  0.00     0.210 HD
ENDBRANCH   3  17
BRANCH   1  19
HETATM   19  O1  UNL     1      -1.438  -0.211  -0.024  1.00  0.00    -0.376 OA
BRANCH  19  20
HETATM   20  C2  UNL     1      -2.427   0.718   0.115  1.00  0.00     0.114 C 
HETATM   21  C1  UNL     1      -3.307   0.619  -1.139  1.00  0.00     0.039 C 
HETATM   22  C3  UNL     1      -3.344   0.467   1.288  1.00  0.00     0.039 C 
ENDBRANCH  19  20
ENDBRANCH   1  19
BRANCH   2  23
HETATM   23  O2  UNL     1      -0.406  -0.294   2.200  1.00  0.00    -0.390 OA
ATOM     24  H2  UNL     1       0.031  -0.560   3.001  1.00  0.00     0.210 HD
ENDBRANCH   2  23
TORSDOF 9
