REMARK  4 active torsions:
REMARK  status: ('A' for Active; 'I' for Inactive)
REMARK    1  A    between atoms: C4_5  and  O1_6 
REMARK    2  A    between atoms: C4_5  and  N2_8 
REMARK    3  A    between atoms: N2_8  and  C5_10 
REMARK    4  A    between atoms: C7_12  and  C8_13 
ROOT
HETATM    1  N2  UNL     1       0.560  -1.157  -0.165  1.00  0.00    -0.353 N 
ATOM      2  H2  UNL     1       0.228  -2.105  -0.345  1.00  0.00     0.163 HD
ENDROOT
BRANCH   1   3
HETATM    3  C4  UNL     1      -0.426  -0.195   0.205  1.00  0.00     0.135 C 
HETATM    4  C3  UNL     1      -1.019   0.476  -0.966  1.00  0.00     0.091 C 
HETATM    5  C2  UNL     1      -2.502   0.106  -1.108  1.00  0.00     0.276 C 
HETATM    6  N1  UNL     1      -3.143   0.523   0.108  1.00  0.00     0.084 N 
HETATM    7  C1  UNL     1      -4.588   0.444  -0.093  1.00  0.00     0.309 C 
HETATM    8  C11 UNL     1      -2.748  -0.343   1.198  1.00  0.00     0.276 C 
HETATM    9  C10 UNL     1      -1.399  -0.922   1.103  1.00  0.00     0.091 C 
BRANCH   3  10
HETATM   10  O1  UNL     1       0.134   0.824   1.017  1.00  0.00    -0.371 OA
ATOM     11  H1  UNL     1       0.516   0.392   1.772  1.00  0.00     0.212 HD
ENDBRANCH   3  10
ENDBRANCH   1   3
BRANCH   1  12
HETATM   12  C5  UNL     1       1.968  -0.932  -0.310  1.00  0.00     0.074 A 
HETATM   13  C6  UNL     1       2.737   0.179  -0.213  1.00  0.00     0.057 A 
HETATM   14  C7  UNL     1       4.073   0.063  -0.316  1.00  0.00     0.072 A 
HETATM   15  C9  UNL     1       4.572  -1.200  -0.512  1.00  0.00     0.093 A 
HETATM   16 CL1  UNL     1       6.254  -1.732  -0.664  1.00  0.00    -0.075 Cl
HETATM   17  S1  UNL     1       3.173  -2.166  -0.554  1.00  0.00    -0.059 SA
BRANCH  14  18
HETATM   18  C8  UNL     1       4.999   1.206  -0.196  1.00  0.00     0.211 C 
HETATM   19  O2  UNL     1       5.923   1.335  -0.986  1.00  0.00    -0.644 OA
HETATM   20  O3  UNL     1       4.761   2.088   0.828  1.00  0.00    -0.644 OA
ENDBRANCH  14  18
ENDBRANCH   1  12
TORSDOF 4
