REMARK  6 active torsions:
REMARK  status: ('A' for Active; 'I' for Inactive)
REMARK    1  A    between atoms: C2_2  and  C3_3 
REMARK    2  A    between atoms: C5_6  and  O1_7 
REMARK    3  A    between atoms: C6_9  and  C7_10 
REMARK    4  A    between atoms: N2_14  and  C9_15 
REMARK    5  A    between atoms: C12_18  and  O2_19 
REMARK    6  A    between atoms: C13_21  and  O3_22 
ROOT
HETATM    1  C7  UNL     1       0.621  -0.112   0.373  1.00  0.00    -0.017 A 
HETATM    2  C8  UNL     1       0.047   0.292   1.555  1.00  0.00     0.116 A 
HETATM    3  N1  UNL     1      -1.249   0.580   1.290  1.00  0.00    -0.309 N 
ATOM      4  H1  UNL     1      -1.925   0.906   1.980  1.00  0.00     0.186 HD
HETATM    5  N2  UNL     1      -1.511   0.381   0.026  1.00  0.00    -0.292 N 
HETATM    6  C14 UNL     1      -0.382  -0.046  -0.567  1.00  0.00     0.120 A 
ENDROOT
BRANCH   1   7
HETATM    7  C6  UNL     1       2.026  -0.540   0.116  1.00  0.00     0.057 C 
HETATM    8  C3  UNL     1       3.066   0.436   0.583  1.00  0.00     0.017 C 
HETATM    9  C4  UNL     1       3.338  -0.466   1.754  1.00  0.00     0.116 C 
HETATM   10 CL1  UNL     1       5.035  -0.976   1.898  1.00  0.00    -0.122 Cl
HETATM   11  C5  UNL     1       2.497  -1.558   1.132  1.00  0.00     0.146 C 
BRANCH   8  12
HETATM   12  C2  UNL     1       4.286   0.553  -0.287  1.00  0.00     0.002 C 
HETATM   13  C1  UNL     1       4.092   1.439  -1.478  1.00  0.00     0.005 C 
ENDBRANCH   8  12
BRANCH  11  14
HETATM   14  O1  UNL     1       3.262  -2.580   0.530  1.00  0.00    -0.393 OA
ATOM     15  H1  UNL     1       2.734  -3.266   0.139  1.00  0.00     0.210 HD
ENDBRANCH  11  14
ENDBRANCH   1   7
BRANCH   5  16
HETATM   16  C9  UNL     1      -2.789   0.570  -0.677  1.00  0.00     0.161 C 
HETATM   17  C10 UNL     1      -3.660   1.494   0.055  1.00  0.00     0.001 C 
HETATM   18  C11 UNL     1      -4.914   1.090  -0.074  1.00  0.00     0.005 C 
HETATM   19  C12 UNL     1      -5.000  -0.140  -0.905  1.00  0.00     0.172 C 
HETATM   20  C13 UNL     1      -3.587  -0.703  -0.686  1.00  0.00     0.179 C 
BRANCH  19  21
HETATM   21  O2  UNL     1      -5.974  -1.011  -0.466  1.00  0.00    -0.389 OA
ATOM     22  H2  UNL     1      -6.029  -1.797  -0.997  1.00  0.00     0.210 HD
ENDBRANCH  19  21
BRANCH  20  23
HETATM   23  O3  UNL     1      -3.572  -1.233   0.598  1.00  0.00    -0.390 OA
ATOM     24  H3  UNL     1      -4.077  -2.038   0.592  1.00  0.00     0.210 HD
ENDBRANCH  20  23
ENDBRANCH   5  16
TORSDOF 6
