REMARK  6 active torsions:
REMARK  status: ('A' for Active; 'I' for Inactive)
REMARK    1  A    between atoms: C6_7  and  N1_8 
REMARK    2  A    between atoms: C8_10  and  C9_11 
REMARK    3  A    between atoms: C9_11  and  C10_13 
REMARK    4  A    between atoms: C10_13  and  N2_14 
REMARK    5  A    between atoms: C11_18  and  O2_19 
REMARK    6  A    between atoms: C12_21  and  O3_22 
ROOT
HETATM    1  N1  UNL     1       0.291   0.793   0.302  1.00  0.00    -0.328 N 
HETATM    2  C7  UNL     1       1.409   0.026   0.412  1.00  0.00     0.112 A 
HETATM    3  C8  UNL     1       2.528   0.787   0.248  1.00  0.00     0.065 A 
HETATM    4  C11 UNL     1       2.122   2.069   0.027  1.00  0.00     0.132 A 
HETATM    5  C12 UNL     1       0.741   2.035   0.068  1.00  0.00     0.177 A 
ENDROOT
BRANCH   1   6
HETATM    6  C6  UNL     1      -1.024   0.269   0.430  1.00  0.00     0.110 C 
HETATM    7  C5  UNL     1      -2.107   1.271   0.589  1.00  0.00     0.105 C 
HETATM    8  C4  UNL     1      -3.291   0.483   1.177  1.00  0.00     0.022 C 
HETATM    9 CL1  UNL     1      -2.748   1.847  -0.991  1.00  0.00    -0.123 Cl
HETATM   10  C3  UNL     1      -3.788  -0.456   0.118  1.00  0.00     0.006 C 
HETATM   11  C2  UNL     1      -2.771  -1.180  -0.651  1.00  0.00    -0.017 C 
HETATM   12  C1  UNL     1      -2.724  -2.619  -0.099  1.00  0.00     0.010 C 
HETATM   13  C13 UNL     1      -1.399  -0.669  -0.691  1.00  0.00     0.031 C 
ENDBRANCH   1   6
BRANCH   5  14
HETATM   14  O3  UNL     1      -0.051   3.136  -0.110  1.00  0.00    -0.344 OA
ATOM     15  H3  UNL     1       0.268   4.015  -0.276  1.00  0.00     0.219 HD
ENDBRANCH   5  14
BRANCH   3  16
HETATM   16  C9  UNL     1       3.902   0.323   0.297  1.00  0.00     0.189 C 
HETATM   17  O1  UNL     1       4.882   1.129   0.128  1.00  0.00    -0.290 OA
BRANCH  16  18
HETATM   18  C10 UNL     1       4.162  -1.126   0.551  1.00  0.00     0.313 C 
BRANCH  18  19
HETATM   19  N2  UNL     1       5.561  -1.429   0.571  1.00  0.00    -0.072 N 
ATOM     20  H23 UNL     1       6.018  -1.117  -0.285  1.00  0.00     0.274 HD
ATOM     21  H22 UNL     1       6.056  -0.842   1.242  1.00  0.00     0.274 HD
ATOM     22  H21 UNL     1       5.739  -2.418   0.744  1.00  0.00     0.274 HD
ENDBRANCH  18  19
ENDBRANCH  16  18
ENDBRANCH   3  16
BRANCH   4  23
HETATM   23  O2  UNL     1       2.971   3.142  -0.186  1.00  0.00    -0.356 OA
ATOM     24  H2  UNL     1       2.688   4.036  -0.340  1.00  0.00     0.218 HD
ENDBRANCH   4  23
TORSDOF 6
