REMARK  5 active torsions:
REMARK  status: ('A' for Active; 'I' for Inactive)
REMARK    1  A    between atoms: N1_2  and  C2_5 
REMARK    2  A    between atoms: N2_7  and  C4_8 
REMARK    3  A    between atoms: C6_10  and  N3_11 
REMARK    4  A    between atoms: C11_19  and  N5_20 
REMARK    5  A    between atoms: N5_20  and  C12_22 
ROOT
HETATM    1  C4  UNL     1       0.966  -0.407  -0.419  1.00  0.00     0.122 A 
HETATM    2  C5  UNL     1       1.111   0.958  -0.213  1.00  0.00     0.097 A 
HETATM    3  C6  UNL     1       0.005   1.762  -0.067  1.00  0.00     0.122 A 
HETATM    4  N4  UNL     1      -1.182   1.193  -0.130  1.00  0.00    -0.177 N 
ATOM      5  H4  UNL     1      -2.000   1.793  -0.023  1.00  0.00     0.185 HD
HETATM    6  C11 UNL     1      -1.398  -0.153  -0.330  1.00  0.00     0.681 A 
HETATM    7  N6  UNL     1      -0.283  -0.891  -0.466  1.00  0.00    -0.177 N 
ATOM      8  H6  UNL     1      -0.396  -1.894  -0.616  1.00  0.00     0.185 HD
ENDROOT
BRANCH   1   9
HETATM    9  N2  UNL     1       2.139  -1.200  -0.561  1.00  0.00    -0.363 N 
HETATM   10  C3  UNL     1       2.454  -2.561  -0.884  1.00  0.00     0.159 C 
HETATM   11  C2  UNL     1       3.728  -2.427  -0.087  1.00  0.00     0.221 C 
HETATM   12  C17 UNL     1       3.552  -0.941  -0.430  1.00  0.00     0.159 C 
BRANCH  11  13
HETATM   13  N1  UNL     1       4.888  -3.015  -0.736  1.00  0.00    -0.072 N 
HETATM   14  C1  UNL     1       5.824  -3.472   0.272  1.00  0.00     0.267 C 
ATOM     15  H12 UNL     1       5.321  -2.377  -1.404  1.00  0.00     0.277 HD
ATOM     16  H11 UNL     1       4.631  -3.756  -1.388  1.00  0.00     0.277 HD
ENDBRANCH  11  13
ENDBRANCH   1   9
BRANCH   3  17
HETATM   17  N3  UNL     1       0.255   3.159   0.132  1.00  0.00    -0.363 N 
HETATM   18  C7  UNL     1       1.602   3.691   0.144  1.00  0.00     0.150 C 
HETATM   19  C8  UNL     1       1.503   5.197   0.176  1.00  0.00     0.187 C 
HETATM   20  O1  UNL     1       0.788   5.673   1.243  1.00  0.00    -0.388 OA
HETATM   21  C9  UNL     1      -0.378   5.008   1.499  1.00  0.00     0.187 C 
HETATM   22  C10 UNL     1      -0.808   4.113   0.338  1.00  0.00     0.150 C 
ENDBRANCH   3  17
BRANCH   6  23
HETATM   23  N5  UNL     1      -2.585  -0.512  -0.362  1.00  0.00    -0.221 N 
ATOM     24  H5  UNL     1      -3.187   0.300  -0.226  1.00  0.00     0.178 HD
BRANCH  23  25
HETATM   25  C12 UNL     1      -3.366  -1.638  -0.519  1.00  0.00     0.099 C 
HETATM   26  C13 UNL     1      -3.563  -2.490   0.708  1.00  0.00     0.026 C 
HETATM   27  C14 UNL     1      -4.903  -3.137   0.450  1.00  0.00     0.002 C 
HETATM   28  C15 UNL     1      -5.736  -2.016  -0.077  1.00  0.00     0.002 C 
HETATM   29  C16 UNL     1      -4.793  -1.159  -0.851  1.00  0.00     0.026 C 
ENDBRANCH  23  25
ENDBRANCH   6  23
TORSDOF 5
