REMARK  5 active torsions:
REMARK  status: ('A' for Active; 'I' for Inactive)
REMARK    1  A    between atoms: C6_6  and  N1_7 
REMARK    2  A    between atoms: C8_9  and  C9_10 
REMARK    3  A    between atoms: C11_12  and  O1_13 
REMARK    4  A    between atoms: C12_15  and  C13_16 
REMARK    5  A    between atoms: C13_16  and  S1_17 
ROOT
HETATM    1  N1  UNL     1      -1.792  -0.743   0.102  1.00  0.00    -0.280 N 
HETATM    2  C7  UNL     1      -1.012   0.295   0.406  1.00  0.00     0.135 A 
HETATM    3  C8  UNL     1       0.169   0.222  -0.291  1.00  0.00     0.045 A 
HETATM    4  N2  UNL     1       0.057  -0.917  -1.031  1.00  0.00    -0.286 N 
ATOM      5  H2  UNL     1       0.762  -1.281  -1.672  1.00  0.00     0.184 HD
HETATM    6  N3  UNL     1      -1.134  -1.480  -0.776  1.00  0.00    -0.020 NA
ENDROOT
BRANCH   3   7
HETATM    7  C9  UNL     1       1.301   1.160  -0.251  1.00  0.00     0.041 C 
HETATM    8  C10 UNL     1       1.653   1.715  -1.600  1.00  0.00     0.043 C 
HETATM    9  C11 UNL     1       2.984   1.138  -2.000  1.00  0.00     0.124 C 
HETATM   10  C12 UNL     1       3.395   0.180  -0.931  1.00  0.00     0.032 C 
HETATM   11  C14 UNL     1       2.545   0.484   0.282  1.00  0.00     0.019 C 
BRANCH   9  12
HETATM   12  O1  UNL     1       2.903   0.544  -3.265  1.00  0.00    -0.395 OA
ATOM     13  H1  UNL     1       3.743   0.180  -3.518  1.00  0.00     0.210 HD
ENDBRANCH   9  12
BRANCH  10  14
HETATM   14  C13 UNL     1       4.871   0.314  -0.625  1.00  0.00     0.172 C 
BRANCH  14  15
HETATM   15  S1  UNL     1       5.347  -0.846   0.662  1.00  0.00     0.102 S 
HETATM   16  O2  UNL     1       5.028  -2.240   0.183  1.00  0.00    -0.595 OA
HETATM   17  O3  UNL     1       4.597  -0.535   1.905  1.00  0.00    -0.595 OA
HETATM   18  O4  UNL     1       6.985  -0.686   0.992  1.00  0.00    -0.595 OA
ENDBRANCH  14  15
ENDBRANCH  10  14
ENDBRANCH   3   7
BRANCH   1  19
HETATM   19  C6  UNL     1      -3.102  -1.046   0.605  1.00  0.00     0.109 C 
HETATM   20  C2  UNL     1      -4.196  -0.319  -0.148  1.00  0.00     0.006 C 
HETATM   21  C1  UNL     1      -4.589  -0.987  -1.419  1.00  0.00     0.012 C 
HETATM   22  C3  UNL     1      -5.308  -0.329   0.898  1.00  0.00     0.006 C 
HETATM   23  C4  UNL     1      -4.546   0.202   2.105  1.00  0.00     0.002 C 
HETATM   24  C5  UNL     1      -3.276  -0.605   2.051  1.00  0.00     0.027 C 
ENDBRANCH   1  19
TORSDOF 5
