REMARK  6 active torsions:
REMARK  status: ('A' for Active; 'I' for Inactive)
REMARK       I    between atoms: C2_4  and  N2_5 
REMARK       I    between atoms: C2_4  and  N3_8 
REMARK    1  A    between atoms: N3_8  and  C4_10 
REMARK    2  A    between atoms: C4_10  and  C5_11 
REMARK    3  A    between atoms: C4_10  and  C7_14 
REMARK       I    between atoms: C7_14  and  N4_16 
REMARK    4  A    between atoms: C12_21  and  C13_22 
REMARK       I    between atoms: C13_22  and  N5_24 
REMARK    5  A    between atoms: N5_24  and  N6_26 
REMARK    6  A    between atoms: N6_26  and  C14_28 
ROOT
HETATM    1  C7  UNL     1      -0.444  -0.546   0.173  1.00  0.00     0.251 C 
HETATM    2  O2  UNL     1      -0.814   0.028   1.257  1.00  0.00    -0.271 OA
HETATM    3  N4  UNL     1       0.875  -1.081   0.101  1.00  0.00    -0.337 N 
HETATM    4  C8  UNL     1       1.432  -1.759  -1.025  1.00  0.00     0.127 C 
HETATM    5  C9  UNL     1       1.949  -3.098  -0.645  1.00  0.00     0.020 C 
HETATM    6  C10 UNL     1       2.750  -3.092   0.599  1.00  0.00     0.004 C 
HETATM    7  C11 UNL     1       2.888  -1.803   1.319  1.00  0.00     0.035 C 
HETATM    8  C12 UNL     1       1.728  -0.889   1.259  1.00  0.00     0.181 C 
ENDROOT
BRANCH   1   9
HETATM    9  C4  UNL     1      -1.454  -0.575  -0.892  1.00  0.00     0.260 C 
BRANCH   9  10
HETATM   10  N3  UNL     1      -2.228   0.669  -0.937  1.00  0.00    -0.206 N 
HETATM   11  C2  UNL     1      -3.046   1.170   0.090  1.00  0.00     0.670 C 
HETATM   12  N1  UNL     1      -4.000   0.583   0.686  1.00  0.00    -0.231 N 
HETATM   13  N2  UNL     1      -2.785   2.528   0.531  1.00  0.00    -0.231 N 
HETATM   14  C1  UNL     1      -4.814   1.125   1.726  1.00  0.00     0.165 C 
ATOM     15  H1  UNL     1      -4.206  -0.372   0.393  1.00  0.00     0.177 HD
HETATM   16  C3  UNL     1      -3.720   3.604   0.391  1.00  0.00     0.165 C 
ATOM     17  H2  UNL     1      -1.884   2.728   0.966  1.00  0.00     0.177 HD
ATOM     18  H3  UNL     1      -2.167   1.222  -1.792  1.00  0.00     0.179 HD
ENDBRANCH   9  10
BRANCH   9  19
HETATM   19  C5  UNL     1      -2.350  -1.754  -0.887  1.00  0.00     0.155 C 
HETATM   20  C6  UNL     1      -1.904  -3.152  -0.654  1.00  0.00     0.093 C 
HETATM   21  O1  UNL     1      -3.569  -1.649  -1.082  1.00  0.00    -0.296 OA
ENDBRANCH   9  19
ENDBRANCH   1   9
BRANCH   8  22
HETATM   22  C13 UNL     1       2.291   0.520   1.222  1.00  0.00     0.259 C 
HETATM   23  O3  UNL     1       2.929   0.971   2.203  1.00  0.00    -0.269 OA
HETATM   24  N5  UNL     1       2.109   1.343   0.088  1.00  0.00    -0.266 N 
ATOM     25  H5  UNL     1       1.595   1.000  -0.724  1.00  0.00     0.190 HD
BRANCH  24  26
HETATM   26  N6  UNL     1       2.642   2.628   0.096  1.00  0.00    -0.276 N 
ATOM     27  H6  UNL     1       2.157   3.326   0.660  1.00  0.00     0.189 HD
BRANCH  26  28
HETATM   28  C14 UNL     1       3.784   3.054  -0.599  1.00  0.00     0.199 C 
HETATM   29  N7  UNL     1       4.552   2.189  -1.418  1.00  0.00    -0.068 NA
HETATM   30  S1  UNL     1       4.272   4.599  -0.471  1.00  0.00    -0.043 SA
ENDBRANCH  26  28
ENDBRANCH  24  26
ENDBRANCH   8  22
TORSDOF 6
