REMARK  9 active torsions:
REMARK  status: ('A' for Active; 'I' for Inactive)
REMARK    1  A    between atoms: N1_2  and  C2_5 
REMARK    2  A    between atoms: C4_7  and  C5_8 
REMARK       I    between atoms: C5_8  and  N2_10 
REMARK    3  A    between atoms: N2_10  and  C6_12 
REMARK    4  A    between atoms: C6_12  and  C7_13 
REMARK    5  A    between atoms: C7_13  and  N3_14 
REMARK    6  A    between atoms: C14_21  and  C15_22 
REMARK    7  A    between atoms: C15_22  and  O2_23 
REMARK    8  A    between atoms: C17_27  and  O4_28 
REMARK    9  A    between atoms: C18_30  and  O5_31 
ROOT
HETATM    1  C2  UNL     1      -4.445   0.885  -0.073  1.00  0.00     0.218 C 
HETATM    2  C3  UNL     1      -3.005   1.283   0.150  1.00  0.00     0.060 C 
HETATM    3  C4  UNL     1      -2.253  -0.021   0.461  1.00  0.00     0.099 C 
HETATM    4  C14 UNL     1      -2.531  -0.925  -0.723  1.00  0.00     0.166 C 
HETATM    5  O3  UNL     1      -3.842  -1.366  -0.690  1.00  0.00    -0.372 OA
HETATM    6  C16 UNL     1      -4.667  -0.591   0.101  1.00  0.00     0.183 C 
HETATM    7  C17 UNL     1      -4.320  -0.893   1.564  1.00  0.00     0.179 C 
HETATM    8  C18 UNL     1      -2.870  -0.568   1.734  1.00  0.00     0.170 C 
ENDROOT
BRANCH   3   9
HETATM    9  C5  UNL     1      -0.819   0.237   0.649  1.00  0.00     0.231 C 
HETATM   10  O1  UNL     1      -0.296  -0.060   1.747  1.00  0.00    -0.273 OA
HETATM   11  N2  UNL     1       0.006   0.805  -0.349  1.00  0.00    -0.359 N 
ATOM     12  H2  UNL     1      -0.443   1.040  -1.234  1.00  0.00     0.162 HD
BRANCH  11  13
HETATM   13  C6  UNL     1       1.405   1.084  -0.247  1.00  0.00     0.150 C 
BRANCH  13  14
HETATM   14  C7  UNL     1       2.222  -0.143  -0.011  1.00  0.00     0.256 C 
BRANCH  14  15
HETATM   15  N3  UNL     1       3.657   0.180   0.085  1.00  0.00    -0.069 N 
HETATM   16  C8  UNL     1       3.754   1.539   0.654  1.00  0.00     0.272 C 
HETATM   17  C9  UNL     1       4.226  -0.684   1.057  1.00  0.00     0.237 C 
HETATM   18  C10 UNL     1       4.938  -1.827   0.399  1.00  0.00     0.028 C 
HETATM   19  C11 UNL     1       6.144  -1.181  -0.283  1.00  0.00     0.003 C 
HETATM   20  C12 UNL     1       5.705  -0.142  -1.281  1.00  0.00     0.028 C 
HETATM   21  C13 UNL     1       4.268   0.233  -1.196  1.00  0.00     0.237 C 
ENDBRANCH  14  15
ENDBRANCH  13  14
ENDBRANCH  11  13
ENDBRANCH   3   9
BRANCH   4  22
HETATM   22  C15 UNL     1      -1.537  -2.048  -0.831  1.00  0.00     0.197 C 
BRANCH  22  23
HETATM   23  O2  UNL     1      -1.608  -2.936   0.232  1.00  0.00    -0.398 OA
ATOM     24  H2  UNL     1      -0.980  -3.646   0.164  1.00  0.00     0.209 HD
ENDBRANCH  22  23
ENDBRANCH   4  22
BRANCH   8  25
HETATM   25  O5  UNL     1      -2.776   0.458   2.684  1.00  0.00    -0.392 OA
ATOM     26  H5  UNL     1      -3.162   0.115   3.481  1.00  0.00     0.210 HD
ENDBRANCH   8  25
BRANCH   1  27
HETATM   27  N1  UNL     1      -4.966   1.382  -1.327  1.00  0.00    -0.072 N 
HETATM   28  C1  UNL     1      -4.958   2.833  -1.332  1.00  0.00     0.267 C 
ATOM     29  H12 UNL     1      -5.891   1.005  -1.532  1.00  0.00     0.277 HD
ATOM     30  H11 UNL     1      -4.466   0.995  -2.128  1.00  0.00     0.277 HD
ENDBRANCH   1  27
BRANCH   7  31
HETATM   31  O4  UNL     1      -4.665  -2.167   1.931  1.00  0.00    -0.390 OA
ATOM     32  H4  UNL     1      -4.450  -2.354   2.837  1.00  0.00     0.210 HD
ENDBRANCH   7  31
TORSDOF 9
