REMARK  3 active torsions:
REMARK  status: ('A' for Active; 'I' for Inactive)
REMARK    1  A    between atoms: O1_2  and  C2_3 
REMARK    2  A    between atoms: C15_17  and  C16_18 
REMARK    3  A    between atoms: C18_25  and  S1_26 
ROOT
HETATM    1  C2  UNL     1      -3.088   0.630  -0.005  1.00  0.00     0.215 C 
HETATM    2  C3  UNL     1      -1.938   1.301   0.684  1.00  0.00     0.018 C 
HETATM    3  C4  UNL     1      -1.007   0.385   1.027  1.00  0.00    -0.047 C 
HETATM    4  C5  UNL     1       0.275   0.680   1.728  1.00  0.00     0.082 C 
HETATM    5  C6  UNL     1       0.018   1.570   2.958  1.00  0.00     0.022 C 
HETATM    6  C7  UNL     1       1.275   1.356   0.869  1.00  0.00     0.141 C 
HETATM    7  O2  UNL     1       2.180   2.001   1.370  1.00  0.00    -0.297 OA
HETATM    8  C8  UNL     1       1.220   1.280  -0.607  1.00  0.00     0.096 C 
HETATM    9  C9  UNL     1       1.590   2.595  -1.263  1.00  0.00     0.021 C 
HETATM   10  C10 UNL     1       2.136   0.231  -1.190  1.00  0.00     0.149 A 
HETATM   11  C11 UNL     1       1.284  -0.885  -1.748  1.00  0.00     0.049 C 
HETATM   12  C12 UNL     1       0.625  -1.725  -0.682  1.00  0.00     0.010 C 
HETATM   13  C13 UNL     1      -0.842  -1.494  -0.638  1.00  0.00     0.009 C 
HETATM   14  C14 UNL     1      -1.601  -2.801  -0.928  1.00  0.00     0.012 C 
HETATM   15  C15 UNL     1      -1.404  -0.967   0.630  1.00  0.00     0.103 C 
HETATM   16  C17 UNL     1      -2.885  -0.792   0.380  1.00  0.00     0.179 C 
HETATM   17  O4  UNL     1      -3.774  -1.607   0.461  1.00  0.00    -0.293 OA
HETATM   18  O5  UNL     1       3.066   0.672  -2.113  1.00  0.00    -0.261 OA
HETATM   19  N1  UNL     1       4.081   0.295  -1.329  1.00  0.00    -0.260 N 
ATOM     20  H1  UNL     1       5.096   0.336  -1.418  1.00  0.00     0.195 HD
HETATM   21  C18 UNL     1       3.302  -0.130  -0.440  1.00  0.00     0.106 A 
ENDROOT
BRANCH  21  22
HETATM   22  S1  UNL     1       3.607  -0.892   1.151  1.00  0.00    -0.116 SA
HETATM   23  C19 UNL     1       5.354  -1.066   1.511  1.00  0.00     0.097 C 
ENDBRANCH  21  22
BRANCH  15  24
HETATM   24  C16 UNL     1      -1.265  -1.980   1.693  1.00  0.00     0.253 C 
HETATM   25  O3  UNL     1      -2.034  -1.984   2.651  1.00  0.00    -0.305 OA
ENDBRANCH  15  24
BRANCH   1  26
HETATM   26  O1  UNL     1      -4.293   1.031   0.569  1.00  0.00    -0.379 OA
HETATM   27  C1  UNL     1      -5.155   1.587  -0.371  1.00  0.00     0.202 C 
ENDBRANCH   1  26
TORSDOF 3
