REMARK  4 active torsions:
REMARK  status: ('A' for Active; 'I' for Inactive)
REMARK    1  A    between atoms: C2_2  and  O1_3 
REMARK    2  A    between atoms: O1_3  and  C3_4 
REMARK    3  A    between atoms: C3_4  and  C4_6 
REMARK       I    between atoms: N2_12  and  C8_13 
REMARK    4  A    between atoms: C8_13  and  O4_15 
ROOT
HETATM    1  C4  UNL     1       2.488   1.210  -0.530  1.00  0.00     0.109 C 
HETATM    2  C5  UNL     1       1.613  -0.014  -0.483  1.00  0.00    -0.002 C 
HETATM    3  C6  UNL     1       0.315   0.105  -0.227  1.00  0.00    -0.024 C 
HETATM    4  C7  UNL     1      -0.186   1.428  -0.006  1.00  0.00     0.033 C 
HETATM    5  N1  UNL     1      -1.404   1.886  -0.054  1.00  0.00    -0.292 N 
ATOM      6  H1  UNL     1      -1.564   2.875   0.138  1.00  0.00     0.187 HD
HETATM    7  N2  UNL     1      -2.531   1.052  -0.367  1.00  0.00    -0.180 N 
HETATM    8  C8  UNL     1      -3.489   1.622  -1.216  1.00  0.00     0.387 C 
HETATM    9  O3  UNL     1      -4.324   0.978  -1.846  1.00  0.00    -0.236 OA
HETATM   10  C10 UNL     1      -2.681  -0.289   0.067  1.00  0.00     0.158 A 
HETATM   11  C11 UNL     1      -1.720  -1.284   0.095  1.00  0.00     0.026 A 
HETATM   12  C12 UNL     1      -2.373  -2.377   0.569  1.00  0.00     0.033 A 
HETATM   13  C13 UNL     1      -1.942  -3.758   0.827  1.00  0.00     0.070 C 
HETATM   14  N3  UNL     1      -3.668  -2.013   0.809  1.00  0.00    -0.301 N 
ATOM     15  H3  UNL     1      -4.386  -2.640   1.172  1.00  0.00     0.187 HD
HETATM   16  N4  UNL     1      -3.867  -0.739   0.508  1.00  0.00    -0.279 N 
HETATM   17  C14 UNL     1      -5.101   0.002   0.683  1.00  0.00     0.179 C 
HETATM   18  C15 UNL     1      -0.284  -1.271  -0.241  1.00  0.00     0.014 C 
HETATM   19  C16 UNL     1       0.484  -2.009   0.865  1.00  0.00     0.025 C 
HETATM   20  C17 UNL     1      -0.004  -1.856  -1.606  1.00  0.00     0.025 C 
HETATM   21  C18 UNL     1       0.692   2.601   0.340  1.00  0.00     0.060 C 
HETATM   22  C19 UNL     1       2.063   2.097   0.634  1.00  0.00     0.024 C 
ENDROOT
BRANCH   1  23
HETATM   23  C3  UNL     1       3.903   0.842  -0.461  1.00  0.00     0.266 C 
HETATM   24  O2  UNL     1       4.655   1.167  -1.420  1.00  0.00    -0.265 OA
BRANCH  23  25
HETATM   25  O1  UNL     1       4.488   0.160   0.582  1.00  0.00    -0.321 OA
BRANCH  25  26
HETATM   26  C2  UNL     1       5.851  -0.192   0.645  1.00  0.00     0.174 C 
HETATM   27  C1  UNL     1       6.290  -1.081  -0.482  1.00  0.00     0.034 C 
ENDBRANCH  25  26
ENDBRANCH  23  25
ENDBRANCH   1  23
BRANCH   8  28
HETATM   28  O4  UNL     1      -3.499   3.005  -1.358  1.00  0.00    -0.307 OA
HETATM   29  C9  UNL     1      -4.415   3.687  -2.183  1.00  0.00     0.215 C 
ENDBRANCH   8  28
TORSDOF 4
