REMARK  4 active torsions:
REMARK  status: ('A' for Active; 'I' for Inactive)
REMARK    1  A    between atoms: C2_2  and  O2_4 
REMARK    2  A    between atoms: O2_4  and  C3_5 
REMARK    3  A    between atoms: C14_17  and  O4_18 
REMARK    4  A    between atoms: O4_18  and  C15_19 
ROOT
HETATM    1  C3  UNL     1      -1.453  -1.652   0.442  1.00  0.00     0.110 A 
HETATM    2  C4  UNL     1      -0.643  -2.737   0.176  1.00  0.00     0.180 A 
HETATM    3  O3  UNL     1       0.397  -2.279  -0.450  1.00  0.00    -0.323 OA
HETATM    4  C5  UNL     1       0.326  -0.952  -0.617  1.00  0.00     0.070 A 
HETATM    5  C6  UNL     1      -0.851  -0.519  -0.055  1.00  0.00     0.013 A 
HETATM    6  C7  UNL     1      -1.524   0.796   0.115  1.00  0.00     0.028 C 
HETATM    7  C8  UNL     1      -2.913   0.814  -0.517  1.00  0.00     0.016 C 
HETATM    8  C9  UNL     1      -0.786   1.935  -0.546  1.00  0.00     0.024 C 
HETATM    9  C10 UNL     1      -0.842   1.719  -2.015  1.00  0.00    -0.024 C 
HETATM   10  C11 UNL     1       0.238   1.231  -2.598  1.00  0.00    -0.024 C 
HETATM   11  C12 UNL     1       1.459   0.903  -1.878  1.00  0.00     0.033 C 
HETATM   12  C13 UNL     1       1.533  -0.467  -1.335  1.00  0.00     0.089 C 
HETATM   13  C14 UNL     1       2.729  -0.379  -0.402  1.00  0.00     0.212 C 
HETATM   14  C17 UNL     1       2.531   0.935   0.257  1.00  0.00     0.162 C 
HETATM   15  O6  UNL     1       2.970   1.222   1.346  1.00  0.00    -0.295 OA
HETATM   16  C18 UNL     1       1.724   1.757  -0.673  1.00  0.00     0.075 C 
HETATM   17  C19 UNL     1       0.534   2.284   0.011  1.00  0.00    -0.029 C 
HETATM   18  C20 UNL     1       0.485   2.052   1.512  1.00  0.00     0.016 C 
HETATM   19  C21 UNL     1       0.652   3.830  -0.090  1.00  0.00     0.016 C 
ENDROOT
BRANCH   1  20
HETATM   20  O2  UNL     1      -2.664  -1.738   1.105  1.00  0.00    -0.277 OA
BRANCH  20  21
HETATM   21  C2  UNL     1      -3.805  -2.282   0.577  1.00  0.00     0.260 C 
HETATM   22  C1  UNL     1      -5.099  -2.365   1.304  1.00  0.00     0.126 C 
HETATM   23  O1  UNL     1      -3.731  -2.726  -0.581  1.00  0.00    -0.265 OA
ENDBRANCH  20  21
ENDBRANCH   1  20
BRANCH  13  24
HETATM   24  O4  UNL     1       2.793  -1.451   0.486  1.00  0.00    -0.308 OA
BRANCH  24  25
HETATM   25  C15 UNL     1       3.825  -2.346   0.603  1.00  0.00     0.255 C 
HETATM   26  C16 UNL     1       3.845  -3.476   1.569  1.00  0.00     0.126 C 
HETATM   27  O5  UNL     1       4.822  -2.204  -0.156  1.00  0.00    -0.266 OA
ENDBRANCH  24  25
ENDBRANCH  13  24
TORSDOF 4
