REMARK  4 active torsions:
REMARK  status: ('A' for Active; 'I' for Inactive)
REMARK    1  A    between atoms: C2_2  and  O1_4 
REMARK    2  A    between atoms: O1_4  and  C4_5 
REMARK    3  A    between atoms: C4_5  and  O3_7 
REMARK    4  A    between atoms: O3_7  and  C5_8 
ROOT
HETATM    1  C5  UNL     1       0.062   0.400  -0.523  1.00  0.00     0.174 C 
HETATM    2  C6  UNL     1      -0.276   1.065  -1.826  1.00  0.00     0.046 C 
HETATM    3  C7  UNL     1      -1.628   1.720  -2.022  1.00  0.00     0.054 C 
HETATM    4  C8  UNL     1      -1.518   3.138  -2.539  1.00  0.00     0.016 C 
HETATM    5  C9  UNL     1      -2.275   1.634  -0.733  1.00  0.00     0.228 C 
HETATM    6  O4  UNL     1      -1.443   2.423   0.037  1.00  0.00    -0.343 OA
HETATM    7  C10 UNL     1      -1.910   2.647   1.336  1.00  0.00     0.243 C 
HETATM    8  C11 UNL     1      -2.434   1.199   1.568  1.00  0.00     0.216 C 
HETATM    9  C12 UNL     1      -2.843   1.218   3.053  1.00  0.00     0.084 C 
HETATM   10  O5  UNL     1      -3.575   1.199   0.844  1.00  0.00    -0.195 OA
HETATM   11  O6  UNL     1      -3.507   1.904  -0.320  1.00  0.00    -0.192 OA
HETATM   12  O7  UNL     1      -1.378   0.430   1.437  1.00  0.00    -0.332 OA
HETATM   13  C13 UNL     1      -1.032  -0.216   0.248  1.00  0.00     0.127 C 
HETATM   14  C14 UNL     1      -2.206   0.148  -0.581  1.00  0.00     0.018 C 
HETATM   15  C15 UNL     1      -2.850  -0.906  -0.944  1.00  0.00    -0.014 C 
HETATM   16  C16 UNL     1      -2.229  -2.154  -0.434  1.00  0.00     0.040 C 
HETATM   17  C17 UNL     1      -1.136  -1.641   0.478  1.00  0.00    -0.006 C 
HETATM   18  C18 UNL     1      -1.680  -1.940   1.898  1.00  0.00     0.018 C 
HETATM   19  C19 UNL     1       0.014  -2.565   0.286  1.00  0.00     0.018 C 
ENDROOT
BRANCH   1  20
HETATM   20  O3  UNL     1       1.152  -0.448  -0.839  1.00  0.00    -0.289 OA
BRANCH  20  21
HETATM   21  C4  UNL     1       2.444  -0.292  -0.402  1.00  0.00     0.407 C 
HETATM   22  O2  UNL     1       2.695   0.681   0.342  1.00  0.00    -0.229 OA
BRANCH  21  23
HETATM   23  O1  UNL     1       3.484  -1.144  -0.735  1.00  0.00    -0.293 OA
BRANCH  23  24
HETATM   24  C2  UNL     1       4.776  -0.886  -0.227  1.00  0.00     0.126 C 
HETATM   25  C1  UNL     1       5.794  -0.650  -1.318  1.00  0.00     0.040 C 
HETATM   26  C3  UNL     1       5.290  -2.001   0.651  1.00  0.00     0.040 C 
ENDBRANCH  23  24
ENDBRANCH  21  23
ENDBRANCH  20  21
ENDBRANCH   1  20
TORSDOF 4
