REMARK  5 active torsions:
REMARK  status: ('A' for Active; 'I' for Inactive)
REMARK    1  A    between atoms: C2_2  and  O1_5 
REMARK    2  A    between atoms: O1_5  and  C5_6 
REMARK    3  A    between atoms: C5_6  and  C6_8 
REMARK    4  A    between atoms: C6_8  and  C7_9 
REMARK    5  A    between atoms: C7_9  and  C8_11 
ROOT
HETATM    1  C8  UNL     1      -0.162  -1.604  -0.446  1.00  0.00     0.126 C 
HETATM    2  C9  UNL     1      -1.135  -1.050   0.607  1.00  0.00     0.026 C 
HETATM    3  C10 UNL     1      -2.200  -0.409  -0.291  1.00  0.00     0.019 C 
HETATM    4  C11 UNL     1      -1.248   0.309  -1.263  1.00  0.00     0.131 C 
HETATM    5  C12 UNL     1      -2.143   0.853  -2.305  1.00  0.00     0.141 C 
HETATM    6  O4  UNL     1      -2.156   0.539  -3.461  1.00  0.00    -0.297 OA
HETATM    7  C13 UNL     1      -3.108   1.898  -1.811  1.00  0.00     0.115 C 
HETATM    8  C14 UNL     1      -3.284   1.880  -0.339  1.00  0.00     0.178 C 
HETATM    9  O5  UNL     1      -4.613   2.199  -0.058  1.00  0.00    -0.233 OA
HETATM   10  O6  UNL     1      -5.070   1.388   0.839  1.00  0.00    -0.229 OA
HETATM   11  C15 UNL     1      -4.528   0.121   0.511  1.00  0.00     0.099 C 
HETATM   12  C16 UNL     1      -4.719  -0.858   1.621  1.00  0.00     0.050 C 
HETATM   13  C17 UNL     1      -5.207  -0.305  -0.742  1.00  0.00     0.050 C 
HETATM   14  C18 UNL     1      -3.086   0.548   0.339  1.00  0.00     0.024 C 
HETATM   15  C19 UNL     1      -2.574   0.873   1.750  1.00  0.00     0.022 C 
HETATM   16  C20 UNL     1      -0.440  -0.846  -1.683  1.00  0.00     0.149 C 
HETATM   17  O7  UNL     1      -0.084  -1.112  -2.799  1.00  0.00    -0.296 OA
ENDROOT
BRANCH   1  18
HETATM   18  C7  UNL     1       1.239  -1.325  -0.041  1.00  0.00     0.147 C 
HETATM   19  O3  UNL     1       1.479  -0.762   1.012  1.00  0.00    -0.297 OA
BRANCH  18  20
HETATM   20  C6  UNL     1       2.371  -1.727  -0.910  1.00  0.00     0.190 C 
BRANCH  20  21
HETATM   21  C5  UNL     1       3.685  -1.440  -0.351  1.00  0.00     0.266 C 
HETATM   22  O2  UNL     1       4.359  -2.349   0.177  1.00  0.00    -0.265 OA
BRANCH  21  23
HETATM   23  O1  UNL     1       4.201  -0.165  -0.397  1.00  0.00    -0.311 OA
BRANCH  23  24
HETATM   24  C2  UNL     1       5.456   0.235   0.100  1.00  0.00     0.060 C 
HETATM   25  C1  UNL     1       5.610  -0.039   1.582  1.00  0.00     0.045 C 
HETATM   26  C3  UNL     1       5.460   1.769  -0.023  1.00  0.00     0.045 C 
HETATM   27  C4  UNL     1       6.620  -0.267  -0.694  1.00  0.00     0.045 C 
ENDBRANCH  23  24
ENDBRANCH  21  23
ENDBRANCH  20  21
ENDBRANCH  18  20
ENDBRANCH   1  18
TORSDOF 5
