REMARK  5 active torsions:
REMARK  status: ('A' for Active; 'I' for Inactive)
REMARK    1  A    between atoms: C2_2  and  C4_4 
REMARK    2  A    between atoms: C5_7  and  O1_8 
REMARK    3  A    between atoms: C6_10  and  C7_11 
REMARK    4  A    between atoms: N2_12  and  C8_14 
REMARK    5  A    between atoms: C14_20  and  O2_21 
ROOT
HETATM    1  C4  UNL     1       3.192  -0.233   0.038  1.00  0.00     0.049 A 
HETATM    2  N1  UNL     1       3.081   0.660  -0.993  1.00  0.00    -0.337 N 
ATOM      3  H1  UNL     1       3.862   1.048  -1.522  1.00  0.00     0.168 HD
HETATM    4  C5  UNL     1       1.774   0.949  -1.204  1.00  0.00     0.155 A 
HETATM    5  C6  UNL     1       0.992   0.219  -0.288  1.00  0.00     0.065 A 
HETATM    6  C14 UNL     1       1.907  -0.492   0.453  1.00  0.00     0.104 A 
ENDROOT
BRANCH   5   7
HETATM    7  C7  UNL     1      -0.451   0.208  -0.175  1.00  0.00     0.102 C 
HETATM    8  N2  UNL     1      -1.131  -0.466   0.648  1.00  0.00    -0.393 N 
ATOM      9  H2  UNL     1      -0.658  -1.074   1.317  1.00  0.00     0.159 HD
BRANCH   8  10
HETATM   10  C8  UNL     1      -2.551  -0.384   0.650  1.00  0.00     0.081 C 
HETATM   11  C9  UNL     1      -3.317  -1.357  -0.158  1.00  0.00     0.025 C 
HETATM   12  C10 UNL     1      -4.762  -1.277   0.336  1.00  0.00     0.002 C 
HETATM   13  C11 UNL     1      -5.340   0.065   0.433  1.00  0.00     0.000 C 
HETATM   14  C12 UNL     1      -4.395   1.208   0.618  1.00  0.00     0.002 C 
HETATM   15  C13 UNL     1      -3.030   0.989   0.127  1.00  0.00     0.025 C 
ENDBRANCH   8  10
ENDBRANCH   5   7
BRANCH   4  16
HETATM   16  O1  UNL     1       1.273   1.815  -2.155  1.00  0.00    -0.345 OA
ATOM     17  H1  UNL     1       0.357   2.018  -2.303  1.00  0.00     0.219 HD
ENDBRANCH   4  16
BRANCH   6  18
HETATM   18  O2  UNL     1       1.656  -1.378   1.502  1.00  0.00    -0.358 OA
ATOM     19  H2  UNL     1       0.768  -1.557   1.789  1.00  0.00     0.217 HD
ENDBRANCH   6  18
BRANCH   1  20
HETATM   20  C2  UNL     1       4.471  -0.607   0.669  1.00  0.00     0.030 C 
HETATM   21  C1  UNL     1       5.421  -1.088  -0.465  1.00  0.00     0.016 C 
HETATM   22  C3  UNL     1       5.144   0.752   1.134  1.00  0.00     0.016 C 
ENDBRANCH   1  20
TORSDOF 5
