REMARK  3 active torsions:
REMARK  status: ('A' for Active; 'I' for Inactive)
REMARK    1  A    between atoms: O1_1  and  C1_3 
REMARK    2  A    between atoms: C4_12  and  C5_13 
REMARK    3  A    between atoms: C5_13  and  C6_14 
ROOT
HETATM    1  C1  UNL     1       2.073   0.017  -1.057  1.00  0.00     0.151 A 
HETATM    2  N1  UNL     1       3.227  -0.663  -1.100  1.00  0.00    -0.313 N 
ATOM      3  H1  UNL     1       3.649  -0.897  -1.999  1.00  0.00     0.170 HD
HETATM    4  C2  UNL     1       3.828  -1.036   0.043  1.00  0.00     0.178 A 
HETATM    5  S1  UNL     1       5.250  -1.876   0.020  1.00  0.00    -0.040 SA
HETATM    6  N2  UNL     1       3.273  -0.728   1.229  1.00  0.00    -0.323 N 
ATOM      7  H2  UNL     1       3.731  -1.012   2.095  1.00  0.00     0.169 HD
HETATM    8  C3  UNL     1       2.092  -0.032   1.276  1.00  0.00     0.113 A 
HETATM    9  S2  UNL     1       1.506   0.313   2.760  1.00  0.00    -0.060 SA
HETATM   10  C4  UNL     1       1.462   0.359   0.121  1.00  0.00     0.031 A 
ENDROOT
BRANCH  10  11
HETATM   11  C5  UNL     1       0.223   1.106   0.135  1.00  0.00     0.051 C 
BRANCH  11  12
HETATM   12  C6  UNL     1      -1.014   0.396  -0.260  1.00  0.00    -0.010 C 
HETATM   13  C7  UNL     1      -2.187   1.374  -0.177  1.00  0.00     0.005 C 
HETATM   14  C8  UNL     1      -3.341   0.418  -0.486  1.00  0.00     0.000 C 
HETATM   15  C9  UNL     1      -2.993  -0.794   0.318  1.00  0.00     0.000 C 
HETATM   16  C10 UNL     1      -1.493  -0.694   0.632  1.00  0.00     0.005 C 
ENDBRANCH  11  12
ENDBRANCH  10  11
BRANCH   1  17
HETATM   17  O1  UNL     1       1.480   0.386  -2.249  1.00  0.00    -0.346 OA
ATOM     18  H1  UNL     1       0.662   0.868  -2.219  1.00  0.00     0.219 HD
ENDBRANCH   1  17
TORSDOF 3
