REMARK  5 active torsions:
REMARK  status: ('A' for Active; 'I' for Inactive)
REMARK    1  A    between atoms: C2_2  and  C4_4 
REMARK    2  A    between atoms: C4_4  and  C5_5 
REMARK    3  A    between atoms: C5_5  and  C6_6 
REMARK    4  A    between atoms: C6_6  and  O1_7 
REMARK    5  A    between atoms: C11_13  and  O2_14 
ROOT
HETATM    1  C4  UNL     1      -1.053   0.107  -0.144  1.00  0.00    -0.035 C 
HETATM    2  C7  UNL     1      -0.327   1.375  -0.636  1.00  0.00     0.011 C 
HETATM    3  C8  UNL     1       0.896   1.619   0.211  1.00  0.00     0.013 C 
HETATM    4  C9  UNL     1       1.968   0.635  -0.197  1.00  0.00    -0.014 C 
HETATM    5  C10 UNL     1       2.801   1.269  -1.270  1.00  0.00     0.018 C 
HETATM    6  C11 UNL     1       2.786   0.160   0.969  1.00  0.00     0.126 C 
HETATM    7  C12 UNL     1       2.855  -1.338   0.890  1.00  0.00     0.033 C 
HETATM    8  C13 UNL     1       2.307  -1.689  -0.495  1.00  0.00     0.008 C 
HETATM    9  C14 UNL     1       1.252  -0.614  -0.662  1.00  0.00    -0.003 C 
HETATM   10  C15 UNL     1       0.066  -0.858   0.234  1.00  0.00     0.015 C 
ENDROOT
BRANCH   1  11
HETATM   11  C2  UNL     1      -1.831   0.490   1.054  1.00  0.00    -0.014 C 
HETATM   12  C1  UNL     1      -2.598  -0.614   1.737  1.00  0.00     0.010 C 
HETATM   13  C3  UNL     1      -2.725   1.692   0.824  1.00  0.00     0.010 C 
ENDBRANCH   1  11
BRANCH   1  14
HETATM   14  C5  UNL     1      -1.755  -0.448  -1.314  1.00  0.00     0.036 C 
BRANCH  14  15
HETATM   15  C6  UNL     1      -2.532  -1.701  -1.166  1.00  0.00     0.165 C 
BRANCH  15  16
HETATM   16  O1  UNL     1      -3.072  -2.034  -2.442  1.00  0.00    -0.401 OA
ATOM     17  H1  UNL     1      -3.570  -2.837  -2.347  1.00  0.00     0.209 HD
ENDBRANCH  15  16
ENDBRANCH  14  15
ENDBRANCH   1  14
BRANCH   6  18
HETATM   18  O2  UNL     1       2.353   0.626   2.187  1.00  0.00    -0.395 OA
ATOM     19  H2  UNL     1       2.871   0.325   2.925  1.00  0.00     0.210 HD
ENDBRANCH   6  18
TORSDOF 5
