REMARK  5 active torsions:
REMARK  status: ('A' for Active; 'I' for Inactive)
REMARK    1  A    between atoms: C2_2  and  C4_4 
REMARK    2  A    between atoms: C4_4  and  C5_5 
REMARK    3  A    between atoms: C5_5  and  O1_6 
REMARK    4  A    between atoms: C5_5  and  C6_8 
REMARK    5  A    between atoms: C12_14  and  N1_15 
ROOT
HETATM    1  C6  UNL     1      -0.258   0.004  -0.324  1.00  0.00    -0.011 C 
HETATM    2  C7  UNL     1      -0.650  -1.180   0.500  1.00  0.00     0.017 C 
HETATM    3  C8  UNL     1      -2.165  -1.281   0.612  1.00  0.00    -0.011 C 
HETATM    4  C9  UNL     1      -2.808  -1.415  -0.745  1.00  0.00     0.009 C 
HETATM    5  C10 UNL     1      -2.436  -0.208  -1.565  1.00  0.00    -0.011 C 
HETATM    6  C11 UNL     1      -2.941   1.062  -0.906  1.00  0.00     0.043 C 
HETATM    7  C12 UNL     1      -2.277   1.170   0.428  1.00  0.00     0.125 C 
HETATM    8  C13 UNL     1      -2.666  -0.030   1.264  1.00  0.00     0.043 C 
HETATM    9  C14 UNL     1      -0.769   1.266   0.321  1.00  0.00     0.050 C 
HETATM   10  C15 UNL     1      -0.957  -0.127  -1.679  1.00  0.00     0.017 C 
ENDROOT
BRANCH   1  11
HETATM   11  C5  UNL     1       1.206   0.017  -0.594  1.00  0.00     0.127 C 
BRANCH  11  12
HETATM   12  C4  UNL     1       2.090   0.063   0.586  1.00  0.00     0.036 C 
BRANCH  12  13
HETATM   13  C2  UNL     1       3.523   0.241   0.215  1.00  0.00    -0.020 C 
HETATM   14  C1  UNL     1       4.439   0.295   1.417  1.00  0.00     0.009 C 
HETATM   15  C3  UNL     1       4.049  -0.837  -0.697  1.00  0.00     0.009 C 
ENDBRANCH  12  13
ENDBRANCH  11  12
BRANCH  11  16
HETATM   16  O1  UNL     1       1.520  -1.033  -1.445  1.00  0.00    -0.395 OA
ATOM     17  H1  UNL     1       0.951  -1.063  -2.205  1.00  0.00     0.210 HD
ENDBRANCH  11  16
ENDBRANCH   1  11
BRANCH   7  18
HETATM   18  N1  UNL     1      -2.761   2.389   1.066  1.00  0.00    -0.070 N 
ATOM     19  H13 UNL     1      -2.628   3.219   0.488  1.00  0.00     0.275 HD
ATOM     20  H12 UNL     1      -3.779   2.429   1.125  1.00  0.00     0.275 HD
ATOM     21  H11 UNL     1      -2.308   2.463   1.977  1.00  0.00     0.275 HD
ENDBRANCH   7  18
TORSDOF 5
