REMARK  4 active torsions:
REMARK  status: ('A' for Active; 'I' for Inactive)
REMARK    1  A    between atoms: C2_2  and  N2_6 
REMARK    2  A    between atoms: N2_6  and  N3_8 
REMARK    3  A    between atoms: C3_10  and  C4_11 
REMARK    4  A    between atoms: C4_11  and  C5_12 
ROOT
HETATM    1  C4  UNL     1       0.796  -0.725   0.667  1.00  0.00     0.055 C 
ENDROOT
BRANCH   1   2
HETATM    2  C3  UNL     1       1.704  -0.026  -0.256  1.00  0.00     0.081 C 
HETATM    3  N3  UNL     1       2.871   0.338   0.160  1.00  0.00    -0.314 N 
ATOM      4  H3  UNL     1       3.125   0.125   1.125  1.00  0.00     0.185 HD
BRANCH   3   5
HETATM    5  N2  UNL     1       3.800   1.003  -0.630  1.00  0.00    -0.290 N 
ATOM      6  H2  UNL     1       3.475   1.533  -1.439  1.00  0.00     0.188 HD
BRANCH   5   7
HETATM    7  C2  UNL     1       5.184   0.965  -0.342  1.00  0.00     0.085 C 
HETATM    8  C1  UNL     1       5.872  -0.339  -0.070  1.00  0.00     0.090 C 
HETATM    9  N1  UNL     1       5.915   2.033  -0.299  1.00  0.00    -0.388 N 
ATOM     10  H12 UNL     1       6.913   2.006  -0.091  1.00  0.00     0.157 HD
ATOM     11  H11 UNL     1       5.447   2.920  -0.484  1.00  0.00     0.157 HD
ENDBRANCH   5   7
ENDBRANCH   3   5
ENDBRANCH   1   2
BRANCH   1  12
HETATM   12  C5  UNL     1      -0.654  -0.400   0.441  1.00  0.00    -0.035 C 
HETATM   13  C6  UNL     1      -1.092  -0.782  -0.967  1.00  0.00     0.014 C 
HETATM   14  C7  UNL     1      -2.569  -0.523  -1.085  1.00  0.00    -0.013 C 
HETATM   15  C8  UNL     1      -2.916   0.928  -0.832  1.00  0.00     0.009 C 
HETATM   16  C12 UNL     1      -3.385  -1.346  -0.113  1.00  0.00     0.009 C 
HETATM   17  C9  UNL     1      -2.431   1.298   0.557  1.00  0.00    -0.013 C 
HETATM   18  C10 UNL     1      -3.143   0.477   1.587  1.00  0.00     0.009 C 
HETATM   19  C14 UNL     1      -0.955   1.058   0.626  1.00  0.00     0.014 C 
HETATM   20  C11 UNL     1      -2.934  -0.990   1.284  1.00  0.00    -0.013 C 
HETATM   21  C13 UNL     1      -1.462  -1.275   1.387  1.00  0.00     0.014 C 
ENDBRANCH   1  12
TORSDOF 4
