REMARK  3 active torsions:
REMARK  status: ('A' for Active; 'I' for Inactive)
REMARK    1  A    between atoms: C2_2  and  C3_3 
REMARK    2  A    between atoms: C3_3  and  N1_4 
REMARK    3  A    between atoms: C5_6  and  C6_7 
ROOT
HETATM    1  N1  UNL     1       2.462   0.756  -0.168  1.00  0.00    -0.192 N 
HETATM    2  C4  UNL     1       1.211   0.313  -0.270  1.00  0.00     0.135 A 
HETATM    3  C5  UNL     1       0.371   1.116   0.479  1.00  0.00     0.047 A 
HETATM    4  N2  UNL     1       1.160   2.054   1.032  1.00  0.00    -0.194 N 
ATOM      5  H2  UNL     1       0.850   2.807   1.647  1.00  0.00     0.184 HD
HETATM    6  C14 UNL     1       2.427   1.832   0.638  1.00  0.00     0.678 A 
HETATM    7  N3  UNL     1       3.467   2.539   0.974  1.00  0.00    -0.234 N 
ATOM      8  H31 UNL     1       3.440   3.355   1.585  1.00  0.00     0.174 HD
ATOM      9  H32 UNL     1       4.428   2.371   0.675  1.00  0.00     0.174 HD
ENDROOT
BRANCH   3  10
HETATM   10  C6  UNL     1      -1.074   1.030   0.676  1.00  0.00     0.038 C 
HETATM   11  C7  UNL     1      -1.475  -0.267   1.339  1.00  0.00     0.016 C 
HETATM   12  C8  UNL     1      -2.212  -1.081   0.307  1.00  0.00    -0.010 C 
HETATM   13  C9  UNL     1      -3.260  -1.900   1.054  1.00  0.00     0.011 C 
HETATM   14  C10 UNL     1      -2.857  -0.038  -0.576  1.00  0.00    -0.044 C 
HETATM   15  C11 UNL     1      -4.187   0.362  -0.026  1.00  0.00     0.015 C 
HETATM   16  C12 UNL     1      -3.084  -0.599  -1.972  1.00  0.00     0.015 C 
HETATM   17  C13 UNL     1      -1.868   1.115  -0.600  1.00  0.00     0.020 C 
ENDBRANCH   3  10
BRANCH   1  18
HETATM   18  C3  UNL     1       3.672   0.220  -0.785  1.00  0.00     0.146 C 
BRANCH  18  19
HETATM   19  C2  UNL     1       4.249  -0.789   0.166  1.00  0.00     0.016 C 
HETATM   20  C1  UNL     1       5.508  -1.428  -0.342  1.00  0.00     0.006 C 
ENDBRANCH  18  19
ENDBRANCH   1  18
TORSDOF 3
