REMARK  5 active torsions:
REMARK  status: ('A' for Active; 'I' for Inactive)
REMARK    1  A    between atoms: C2_2  and  C3_3 
REMARK    2  A    between atoms: C3_3  and  C4_4 
REMARK    3  A    between atoms: C7_7  and  C9_9 
REMARK    4  A    between atoms: C9_9  and  O1_10 
REMARK    5  A    between atoms: C14_16  and  O2_18 
ROOT
HETATM    1  C4  UNL     1       0.076   0.569  -0.318  1.00  0.00     0.006 C 
HETATM    2  C5  UNL     1      -0.455   1.459   0.777  1.00  0.00     0.007 C 
HETATM    3  C6  UNL     1      -1.910   1.585   0.354  1.00  0.00     0.012 C 
HETATM    4  C7  UNL     1      -2.222   0.134  -0.037  1.00  0.00    -0.015 C 
HETATM    5  C8  UNL     1      -3.476   0.048  -0.856  1.00  0.00     0.018 C 
HETATM    6  C10 UNL     1      -0.994  -0.278  -0.848  1.00  0.00    -0.034 C 
HETATM    7  C11 UNL     1      -1.269   0.115  -2.326  1.00  0.00     0.016 C 
HETATM    8  C12 UNL     1      -0.839  -1.742  -0.858  1.00  0.00     0.016 C 
ENDROOT
BRANCH   1   9
HETATM    9  C3  UNL     1       1.410  -0.078   0.020  1.00  0.00    -0.003 A 
HETATM   10  C13 UNL     1       2.353  -0.251  -1.090  1.00  0.00     0.051 A 
HETATM   11  C14 UNL     1       2.568   0.924  -0.138  1.00  0.00     0.063 A 
HETATM   12  C15 UNL     1       3.805   0.873   0.651  1.00  0.00     0.046 C 
BRANCH   9  13
HETATM   13  C2  UNL     1       1.450  -0.883   1.266  1.00  0.00     0.008 C 
HETATM   14  C1  UNL     1       2.708  -1.577   1.623  1.00  0.00     0.006 C 
ENDBRANCH   9  13
BRANCH  11  15
HETATM   15  O2  UNL     1       2.207   2.199  -0.639  1.00  0.00    -0.389 OA
ATOM     16  H2  UNL     1       2.922   2.817  -0.737  1.00  0.00     0.210 HD
ENDBRANCH  11  15
ENDBRANCH   1   9
BRANCH   4  17
HETATM   17  C9  UNL     1      -2.419  -0.618   1.228  1.00  0.00     0.173 C 
BRANCH  17  18
HETATM   18  O1  UNL     1      -3.504   0.011   1.896  1.00  0.00    -0.400 OA
ATOM     19  H1  UNL     1      -3.630  -0.470   2.705  1.00  0.00     0.209 HD
ENDBRANCH  17  18
ENDBRANCH   4  17
TORSDOF 5
