REMARK  3 active torsions:
REMARK  status: ('A' for Active; 'I' for Inactive)
REMARK    1  A    between atoms: C2_4  and  C3_5 
REMARK    2  A    between atoms: C3_5  and  N2_6 
REMARK    3  A    between atoms: N2_6  and  C4_8 
ROOT
HETATM    1  C4  UNL     1      -0.302   0.083  -0.215  1.00  0.00     0.026 C 
HETATM    2  C5  UNL     1      -0.591   1.442  -0.798  1.00  0.00     0.031 C 
HETATM    3  C6  UNL     1      -1.880   2.047  -0.279  1.00  0.00     0.003 C 
HETATM    4  C7  UNL     1      -3.020   1.142  -0.654  1.00  0.00     0.005 C 
HETATM    5  C8  UNL     1      -3.105  -0.128   0.037  1.00  0.00    -0.006 C 
HETATM    6  C9  UNL     1      -2.281  -0.340   1.260  1.00  0.00    -0.007 C 
HETATM    7  C10 UNL     1      -2.322  -1.830   0.866  1.00  0.00     0.010 C 
HETATM    8  C11 UNL     1      -2.377  -1.287  -0.576  1.00  0.00    -0.007 C 
HETATM    9  C12 UNL     1      -0.985  -1.017  -1.011  1.00  0.00     0.035 C 
HETATM   10  C13 UNL     1      -0.856   0.070   1.188  1.00  0.00     0.035 C 
ENDROOT
BRANCH   1  11
HETATM   11  N2  UNL     1       1.097  -0.170  -0.276  1.00  0.00    -0.407 N 
ATOM     12  H2  UNL     1       1.466  -0.938  -0.836  1.00  0.00     0.154 HD
BRANCH  11  13
HETATM   13  C3  UNL     1       1.962   0.671   0.460  1.00  0.00     0.173 C 
BRANCH  13  14
HETATM   14  C2  UNL     1       3.360   0.205   0.252  1.00  0.00     0.043 A 
HETATM   15  N1  UNL     1       4.485   0.934   0.333  1.00  0.00    -0.353 N 
HETATM   16  C1  UNL     1       5.552   0.124   0.078  1.00  0.00     0.180 A 
ATOM     17  H1  UNL     1       4.533   1.930   0.550  1.00  0.00     0.166 HD
HETATM   18  N3  UNL     1       5.111  -1.128  -0.168  1.00  0.00    -0.360 N 
HETATM   19  C14 UNL     1       3.749  -1.076  -0.059  1.00  0.00     0.115 A 
ATOM     20  H3  UNL     1       5.678  -1.946  -0.390  1.00  0.00     0.166 HD
ENDBRANCH  13  14
ENDBRANCH  11  13
ENDBRANCH   1  11
TORSDOF 3
