REMARK  3 active torsions:
REMARK  status: ('A' for Active; 'I' for Inactive)
REMARK    1  A    between atoms: C6_8  and  C7_9 
REMARK    2  A    between atoms: C12_14  and  N2_15 
REMARK    3  A    between atoms: N2_15  and  C13_17 
ROOT
HETATM    1  C7  UNL     1       1.379  -0.657   0.192  1.00  0.00     0.043 C 
HETATM    2  C8  UNL     1       1.718  -1.571  -1.027  1.00  0.00     0.011 C 
HETATM    3  C9  UNL     1       0.735  -2.723  -1.145  1.00  0.00     0.001 C 
HETATM    4  C10 UNL     1       0.174  -3.133   0.179  1.00  0.00     0.002 C 
HETATM    5  C11 UNL     1      -0.505  -1.935   0.827  1.00  0.00     0.025 C 
HETATM    6  C12 UNL     1      -0.128  -0.660   0.072  1.00  0.00     0.085 C 
ENDROOT
BRANCH   1   7
HETATM    7  C6  UNL     1       2.082   0.582   0.068  1.00  0.00    -0.028 A 
HETATM    8  C1  UNL     1       3.283   0.675   0.821  1.00  0.00     0.056 A 
HETATM    9  N1  UNL     1       3.846  -0.499   1.416  1.00  0.00    -0.102 NA
HETATM   10  C2  UNL     1       3.950   1.847   0.922  1.00  0.00     0.069 A 
HETATM   11  C3  UNL     1       3.492   3.017   0.290  1.00  0.00     0.118 A 
HETATM   12  F1  UNL     1       4.208   4.179   0.451  1.00  0.00    -0.206 F 
HETATM   13  C4  UNL     1       2.335   2.949  -0.446  1.00  0.00     0.043 A 
HETATM   14  C5  UNL     1       1.651   1.733  -0.543  1.00  0.00     0.012 A 
ENDBRANCH   1   7
BRANCH   6  15
HETATM   15  N2  UNL     1      -0.966   0.381   0.380  1.00  0.00    -0.412 N 
ATOM     16  H2  UNL     1      -0.847   0.945   1.222  1.00  0.00     0.154 HD
BRANCH  15  17
HETATM   17  C13 UNL     1      -2.039   0.627  -0.578  1.00  0.00     0.077 C 
HETATM   18  C14 UNL     1      -3.134  -0.342  -0.707  1.00  0.00     0.024 C 
HETATM   19  C15 UNL     1      -4.246   0.313   0.152  1.00  0.00     0.002 C 
HETATM   20  C16 UNL     1      -4.177   1.733  -0.402  1.00  0.00     0.002 C 
HETATM   21  C17 UNL     1      -2.692   1.965  -0.553  1.00  0.00     0.024 C 
ENDBRANCH  15  17
ENDBRANCH   6  15
TORSDOF 3
