REMARK  3 active torsions:
REMARK  status: ('A' for Active; 'I' for Inactive)
REMARK    1  A    between atoms: C1_2  and  C2_3 
REMARK    2  A    between atoms: C1_2  and  C8_9 
REMARK    3  A    between atoms: C2_3  and  C3_4 
ROOT
HETATM    1  C8  UNL     1       1.791   0.498  -0.175  1.00  0.00    -0.028 A 
HETATM    2  C9  UNL     1       2.521  -0.292  -1.073  1.00  0.00     0.012 A 
HETATM    3  C10 UNL     1       3.424  -1.220  -0.600  1.00  0.00     0.038 A 
HETATM    4  C11 UNL     1       3.629  -1.395   0.743  1.00  0.00     0.079 A 
HETATM    5 BR1  UNL     1       4.892  -2.695   1.399  1.00  0.00    -0.031 Br
HETATM    6  N1  UNL     1       2.921  -0.629   1.590  1.00  0.00    -0.360 N 
ATOM      7  H1  UNL     1       3.063  -0.746   2.593  1.00  0.00     0.166 HD
HETATM    8  C12 UNL     1       2.032   0.286   1.165  1.00  0.00     0.097 A 
ENDROOT
BRANCH   1   9
HETATM    9  C1  UNL     1       0.831   1.530  -0.661  1.00  0.00     0.093 C 
HETATM   10  S1  UNL     1       1.652   3.170  -0.325  1.00  0.00    -0.087 SA
BRANCH   9  11
HETATM   11  C2  UNL     1      -0.504   1.518  -0.021  1.00  0.00     0.025 C 
BRANCH  11  12
HETATM   12  C3  UNL     1      -1.347   0.327  -0.203  1.00  0.00    -0.013 C 
HETATM   13  C4  UNL     1      -2.702   0.535   0.534  1.00  0.00     0.005 C 
HETATM   14  C5  UNL     1      -3.282  -0.830   0.609  1.00  0.00     0.000 C 
HETATM   15  C6  UNL     1      -2.226  -1.800   0.154  1.00  0.00     0.000 C 
HETATM   16  C7  UNL     1      -0.935  -0.972   0.389  1.00  0.00     0.005 C 
ENDBRANCH  11  12
ENDBRANCH   9  11
ENDBRANCH   1   9
TORSDOF 3
