REMARK  5 active torsions:
REMARK  status: ('A' for Active; 'I' for Inactive)
REMARK    1  A    between atoms: C10_10  and  C11_11 
REMARK    2  A    between atoms: C11_11  and  C12_13 
REMARK    3  A    between atoms: C12_13  and  C13_14 
REMARK    4  A    between atoms: C13_14  and  O1_15 
REMARK    5  A    between atoms: N1_17  and  O2_19 
ROOT
HETATM    1  C1  UNL     1      -2.771   0.917  -1.180  1.00  0.00     0.015 C 
HETATM    2  C2  UNL     1      -2.352   0.179   0.058  1.00  0.00    -0.040 C 
HETATM    3  C3  UNL     1      -3.561   0.028   0.943  1.00  0.00     0.015 C 
HETATM    4  C4  UNL     1      -1.831  -1.207  -0.239  1.00  0.00    -0.005 C 
HETATM    5  C5  UNL     1      -1.509  -1.852   1.100  1.00  0.00     0.010 C 
HETATM    6  C6  UNL     1      -0.458  -1.071   1.837  1.00  0.00    -0.013 C 
HETATM    7  C7  UNL     1      -0.852   0.364   2.066  1.00  0.00     0.010 C 
HETATM    8  C8  UNL     1      -1.274   0.947   0.745  1.00  0.00    -0.005 C 
HETATM    9  C9  UNL     1      -0.026   0.999  -0.131  1.00  0.00     0.018 C 
HETATM   10  C10 UNL     1       0.528  -0.393  -0.317  1.00  0.00    -0.008 C 
HETATM   11  C14 UNL     1       0.801  -1.080   0.986  1.00  0.00     0.017 C 
HETATM   12  C15 UNL     1      -0.566  -1.189  -1.041  1.00  0.00     0.018 C 
ENDROOT
BRANCH  10  13
HETATM   13  C11 UNL     1       1.760  -0.362  -1.171  1.00  0.00     0.186 C 
HETATM   14  F1  UNL     1       2.302  -1.611  -1.370  1.00  0.00    -0.248 F 
BRANCH  13  15
HETATM   15  C12 UNL     1       2.835   0.521  -0.629  1.00  0.00     0.123 C 
BRANCH  15  16
HETATM   16  C13 UNL     1       4.003   0.490  -1.528  1.00  0.00     0.138 C 
HETATM   17  N1  UNL     1       5.147   0.091  -1.113  1.00  0.00    -0.251 N 
ATOM     18  H1  UNL     1       5.941   0.076  -1.753  1.00  0.00     0.196 HD
BRANCH  16  19
HETATM   19  O1  UNL     1       3.870   0.894  -2.839  1.00  0.00    -0.348 OA
ATOM     20  H1  UNL     1       4.623   0.874  -3.418  1.00  0.00     0.219 HD
ENDBRANCH  16  19
BRANCH  17  21
HETATM   21  O2  UNL     1       5.311  -0.318   0.190  1.00  0.00    -0.288 OA
ATOM     22  H2  UNL     1       6.160  -0.614   0.498  1.00  0.00     0.244 HD
ENDBRANCH  17  21
ENDBRANCH  15  16
ENDBRANCH  13  15
ENDBRANCH  10  13
TORSDOF 5
