REMARK  4 active torsions:
REMARK  status: ('A' for Active; 'I' for Inactive)
REMARK    1  A    between atoms: C1_4  and  N2_5 
REMARK    2  A    between atoms: C1_4  and  C11_16 
REMARK    3  A    between atoms: N2_5  and  C2_7 
REMARK    4  A    between atoms: C2_7  and  C3_8 
ROOT
HETATM    1  N2  UNL     1       0.958  -1.698  -0.804  1.00  0.00    -0.354 N 
ATOM      2  H2  UNL     1       0.894  -2.644  -1.179  1.00  0.00     0.166 HD
ENDROOT
BRANCH   1   3
HETATM    3  C1  UNL     1       2.016  -1.463   0.093  1.00  0.00     0.115 C 
HETATM    4  N1  UNL     1       2.193  -2.292   1.047  1.00  0.00    -0.384 N 
ATOM      5  H12 UNL     1       1.564  -3.091   1.124  1.00  0.00     0.157 HD
ATOM      6  H11 UNL     1       2.960  -2.122   1.697  1.00  0.00     0.157 HD
BRANCH   3   7
HETATM    7  C11 UNL     1       2.929  -0.303  -0.019  1.00  0.00     0.050 A 
HETATM    8  C12 UNL     1       3.980   0.019   0.793  1.00  0.00     0.025 A 
HETATM    9  C13 UNL     1       4.674   1.123   0.503  1.00  0.00     0.033 A 
HETATM   10  C14 UNL     1       4.278   1.851  -0.588  1.00  0.00     0.075 A 
HETATM   11 CL1  UNL     1       4.966   3.333  -1.231  1.00  0.00    -0.076 Cl
HETATM   12  S1  UNL     1       2.949   0.960  -1.168  1.00  0.00    -0.074 SA
ENDBRANCH   3   7
ENDBRANCH   1   3
BRANCH   1  13
HETATM   13  C2  UNL     1      -0.023  -0.794  -1.249  1.00  0.00     0.072 C 
BRANCH  13  14
HETATM   14  C3  UNL     1      -1.019  -0.298  -0.319  1.00  0.00    -0.007 C 
HETATM   15  C4  UNL     1      -1.955   0.667  -1.064  1.00  0.00     0.020 C 
HETATM   16  C5  UNL     1      -2.686   1.349   0.076  1.00  0.00    -0.009 C 
HETATM   17  C6  UNL     1      -3.776   0.387   0.572  1.00  0.00     0.010 C 
HETATM   18  C9  UNL     1      -1.931   1.002   1.320  1.00  0.00    -0.005 C 
HETATM   19  C7  UNL     1      -2.648  -0.311   1.348  1.00  0.00    -0.009 C 
HETATM   20  C8  UNL     1      -1.890  -1.256   0.401  1.00  0.00     0.020 C 
HETATM   21  C10 UNL     1      -0.547   0.605   0.787  1.00  0.00     0.020 C 
ENDBRANCH  13  14
ENDBRANCH   1  13
TORSDOF 4
