REMARK  6 active torsions:
REMARK  status: ('A' for Active; 'I' for Inactive)
REMARK    1  A    between atoms: C2_2  and  C3_3 
REMARK    2  A    between atoms: C3_3  and  C4_4 
REMARK    3  A    between atoms: C4_4  and  O1_5 
REMARK    4  A    between atoms: C4_4  and  C5_7 
REMARK    5  A    between atoms: C7_9  and  O2_10 
REMARK    6  A    between atoms: C12_17  and  C13_18 
ROOT
HETATM    1  C5  UNL     1       0.023   0.304   0.121  1.00  0.00    -0.024 C 
HETATM    2  C6  UNL     1      -0.003   1.467  -0.893  1.00  0.00     0.076 C 
HETATM    3  C7  UNL     1      -0.228   2.798  -0.304  1.00  0.00     0.156 C 
HETATM    4  C8  UNL     1      -1.520   3.058   0.337  1.00  0.00     0.199 C 
HETATM    5  F1  UNL     1      -1.376   3.075   1.734  1.00  0.00    -0.247 F 
HETATM    6  C9  UNL     1      -2.645   2.104   0.048  1.00  0.00     0.040 C 
HETATM    7  C10 UNL     1      -2.681   0.933   0.976  1.00  0.00     0.007 C 
HETATM    8  C11 UNL     1      -2.398  -0.393   0.417  1.00  0.00     0.036 C 
HETATM    9  C12 UNL     1      -1.011  -0.629  -0.200  1.00  0.00    -0.064 C 
ENDROOT
BRANCH   1  10
HETATM   10  C4  UNL     1       1.355   0.161   0.645  1.00  0.00     0.050 C 
BRANCH  10  11
HETATM   11  C3  UNL     1       2.528  -0.127  -0.260  1.00  0.00     0.064 C 
BRANCH  11  12
HETATM   12  C2  UNL     1       3.823   0.308   0.476  1.00  0.00     0.002 C 
HETATM   13  C1  UNL     1       5.019   0.040  -0.386  1.00  0.00     0.005 C 
ENDBRANCH  11  12
ENDBRANCH  10  11
BRANCH  10  14
HETATM   14  O1  UNL     1       1.562  -0.586   1.791  1.00  0.00    -0.364 OA
ATOM     15  H1  UNL     1       0.824  -0.405   2.361  1.00  0.00     0.217 HD
ENDBRANCH  10  14
ENDBRANCH   1  10
BRANCH   9  16
HETATM   16  C13 UNL     1      -0.920  -2.120  -0.211  1.00  0.00    -0.027 C 
HETATM   17  C14 UNL     1       0.068  -2.713  -1.164  1.00  0.00     0.019 C 
HETATM   18  C15 UNL     1      -0.926  -2.770   1.143  1.00  0.00     0.019 C 
HETATM   19  C16 UNL     1      -2.259  -2.571  -0.826  1.00  0.00     0.019 C 
ENDBRANCH   9  16
BRANCH   3  20
HETATM   20  O2  UNL     1       0.035   3.740  -1.320  1.00  0.00    -0.392 OA
ATOM     21  H2  UNL     1      -0.110   4.599  -0.940  1.00  0.00     0.210 HD
ENDBRANCH   3  20
TORSDOF 6
