REMARK  3 active torsions:
REMARK  status: ('A' for Active; 'I' for Inactive)
REMARK    1  A    between atoms: N2_5  and  C4_6 
REMARK    2  A    between atoms: C7_11  and  N4_12 
REMARK    3  A    between atoms: C15_22  and  N5_23 
ROOT
HETATM    1  C4  UNL     1       1.831   0.209  -0.009  1.00  0.00     0.683 A 
HETATM    2  N3  UNL     1       1.754   1.447  -0.499  1.00  0.00    -0.174 N 
ATOM      3  H3  UNL     1       2.620   1.946  -0.703  1.00  0.00     0.186 HD
HETATM    4  C5  UNL     1       0.584   2.064  -0.735  1.00  0.00     0.154 A 
HETATM    5  C6  UNL     1      -0.578   1.343  -0.440  1.00  0.00     0.159 A 
HETATM    6  C7  UNL     1      -0.521   0.065   0.067  1.00  0.00     0.158 A 
HETATM    7  N6  UNL     1       0.704  -0.456   0.264  1.00  0.00    -0.174 N 
ATOM      8  H6  UNL     1       0.776  -1.402   0.639  1.00  0.00     0.186 HD
HETATM    9  O1  UNL     1      -1.768   2.003  -0.692  1.00  0.00    -0.332 OA
HETATM   10  C16 UNL     1      -1.907   3.354  -1.010  1.00  0.00     0.076 C 
HETATM   11  C17 UNL     1      -2.428   3.544  -2.441  1.00  0.00     0.048 C 
HETATM   12  C18 UNL     1      -2.956   4.022  -0.111  1.00  0.00     0.048 C 
HETATM   13  C19 UNL     1      -0.656   4.166  -0.886  1.00  0.00     0.159 C 
HETATM   14  N7  UNL     1       0.499   3.366  -1.250  1.00  0.00    -0.371 N 
ATOM     15  H7  UNL     1       1.226   3.739  -1.861  1.00  0.00     0.161 HD
ENDROOT
BRANCH   6  16
HETATM   16  N4  UNL     1      -1.739  -0.603   0.341  1.00  0.00    -0.336 N 
HETATM   17  C8  UNL     1      -2.810  -0.237   1.242  1.00  0.00     0.136 C 
HETATM   18  C9  UNL     1      -3.966  -1.109   0.876  1.00  0.00    -0.015 C 
HETATM   19  C10 UNL     1      -5.252  -0.338   0.688  1.00  0.00     0.017 C 
HETATM   20  C13 UNL     1      -4.238  -2.196   1.868  1.00  0.00     0.090 C 
HETATM   21  C14 UNL     1      -3.578  -1.760  -0.440  1.00  0.00     0.065 C 
HETATM   22  C11 UNL     1      -6.339  -1.116   1.359  1.00  0.00     0.080 C 
HETATM   23  C12 UNL     1      -5.667  -2.087   2.303  1.00  0.00     0.244 C 
HETATM   24  F1  UNL     1      -5.765  -1.649   3.608  1.00  0.00    -0.206 F 
HETATM   25  F2  UNL     1      -6.326  -3.303   2.237  1.00  0.00    -0.206 F 
HETATM   26  C15 UNL     1      -2.090  -1.868  -0.321  1.00  0.00     0.286 C 
BRANCH  26  27
HETATM   27  N5  UNL     1      -1.677  -2.927   0.556  1.00  0.00    -0.058 N 
ATOM     28  H53 UNL     1      -0.693  -2.871   0.817  1.00  0.00     0.276 HD
ATOM     29  H52 UNL     1      -2.066  -2.844   1.495  1.00  0.00     0.276 HD
ATOM     30  H51 UNL     1      -1.921  -3.805   0.097  1.00  0.00     0.276 HD
ENDBRANCH  26  27
ENDBRANCH   6  16
BRANCH   1  31
HETATM   31  N2  UNL     1       3.078  -0.382   0.216  1.00  0.00    -0.210 N 
HETATM   32  C3  UNL     1       3.165  -1.719   0.746  1.00  0.00     0.185 C 
HETATM   33  C2  UNL     1       4.509  -2.303   0.828  1.00  0.00     0.079 C 
HETATM   34  N1  UNL     1       5.552  -1.695   0.113  1.00  0.00    -0.386 N 
HETATM   35  C1  UNL     1       6.785  -1.538   0.825  1.00  0.00     0.149 C 
HETATM   36  C21 UNL     1       5.219  -0.639  -0.771  1.00  0.00     0.040 C 
HETATM   37  C20 UNL     1       4.300   0.339  -0.079  1.00  0.00     0.172 C 
HETATM   38  C22 UNL     1       6.488   0.105  -1.134  1.00  0.00     0.040 C 
HETATM   39  C23 UNL     1       4.568  -1.097  -2.055  1.00  0.00     0.040 C 
ENDBRANCH   1  31
TORSDOF 3
