REMARK  4 active torsions:
REMARK  status: ('A' for Active; 'I' for Inactive)
REMARK    1  A    between atoms: C2_2  and  C4_5 
REMARK    2  A    between atoms: C9_14  and  O3_15 
REMARK    3  A    between atoms: C10_17  and  C11_18 
REMARK    4  A    between atoms: C11_18  and  C12_19 
ROOT
HETATM    1  C4  UNL     1      -2.842   0.811  -0.072  1.00  0.00     0.107 C 
HETATM    2  N1  UNL     1      -3.488   0.089   1.013  1.00  0.00    -0.414 N 
ATOM      3  H1  UNL     1      -4.457   0.267   1.278  1.00  0.00     0.153 HD
HETATM    4  C5  UNL     1      -2.690  -0.881   1.683  1.00  0.00     0.122 C 
HETATM    5  C6  UNL     1      -2.461  -2.018   0.744  1.00  0.00     0.046 C 
HETATM    6  C7  UNL     1      -1.073  -2.650   0.720  1.00  0.00     0.153 C 
HETATM    7  O1  UNL     1      -0.156  -1.947   1.406  1.00  0.00    -0.309 OA
HETATM    8  C8  UNL     1       1.173  -1.811   1.499  1.00  0.00     0.313 C 
HETATM    9  O2  UNL     1       1.696  -1.963   2.632  1.00  0.00    -0.257 OA
HETATM   10  C9  UNL     1       2.102  -1.493   0.375  1.00  0.00     0.123 C 
HETATM   11  C10 UNL     1       1.976  -0.134  -0.201  1.00  0.00     0.054 C 
HETATM   12  C15 UNL     1       1.543  -0.154  -1.645  1.00  0.00     0.038 C 
HETATM   13  C16 UNL     1       0.289   0.405  -2.065  1.00  0.00    -0.029 C 
HETATM   14  C17 UNL     1      -0.924   0.476  -1.652  1.00  0.00    -0.023 C 
HETATM   15  C18 UNL     1      -1.605  -0.045  -0.438  1.00  0.00     0.044 C 
HETATM   16  C19 UNL     1      -2.132  -1.416  -0.595  1.00  0.00     0.013 C 
HETATM   17  C20 UNL     1      -3.120  -1.572  -1.681  1.00  0.00     0.190 C 
HETATM   18  O4  UNL     1      -3.035  -2.951  -2.072  1.00  0.00    -0.320 OA
HETATM   19  C21 UNL     1      -2.180  -3.618  -1.213  1.00  0.00     0.266 C 
HETATM   20  O5  UNL     1      -2.168  -4.815  -0.866  1.00  0.00    -0.265 OA
HETATM   21  C22 UNL     1      -1.203  -2.553  -0.745  1.00  0.00     0.127 C 
ENDROOT
BRANCH  11  22
HETATM   22  C11 UNL     1       3.180   0.741  -0.127  1.00  0.00     0.038 C 
BRANCH  22  23
HETATM   23  C12 UNL     1       3.721   1.158   1.190  1.00  0.00     0.101 C 
HETATM   24  C13 UNL     1       4.929   2.107   0.931  1.00  0.00     0.048 C 
HETATM   25  C14 UNL     1       6.080   1.155   1.088  1.00  0.00     0.141 C 
HETATM   26  N2  UNL     1       5.569   0.213   2.007  1.00  0.00    -0.340 N 
HETATM   27  N3  UNL     1       4.327   0.237   2.037  1.00  0.00    -0.336 N 
ATOM     28  H2  UNL     1       6.146  -0.408   2.574  1.00  0.00     0.179 HD
ATOM     29  H3  UNL     1       3.787  -0.379   2.644  1.00  0.00     0.180 HD
ENDBRANCH  22  23
ENDBRANCH  11  22
BRANCH  10  30
HETATM   30  O3  UNL     1       3.353  -2.006   0.612  1.00  0.00    -0.359 OA
ATOM     31  H3  UNL     1       3.944  -1.804  -0.103  1.00  0.00     0.217 HD
ENDBRANCH  10  30
BRANCH   1  32
HETATM   32  C2  UNL     1      -2.449   2.137   0.547  1.00  0.00     0.050 C 
HETATM   33  C1  UNL     1      -3.722   2.828   1.093  1.00  0.00     0.034 C 
HETATM   34  C3  UNL     1      -2.001   3.084  -0.560  1.00  0.00     0.034 C 
HETATM   35 CL1  UNL     1      -1.255   2.032   1.812  1.00  0.00    -0.118 Cl
ENDBRANCH   1  32
TORSDOF 4
