REMARK  5 active torsions:
REMARK  status: ('A' for Active; 'I' for Inactive)
REMARK    1  A    between atoms: O1_2  and  C2_3 
REMARK    2  A    between atoms: C3_4  and  O2_5 
REMARK    3  A    between atoms: C4_7  and  O3_8 
REMARK    4  A    between atoms: C8_16  and  S1_17 
REMARK    5  A    between atoms: S1_17  and  O6_20 
ROOT
HETATM    1  C2  UNL     1      -3.161  -2.067   0.212  1.00  0.00     0.124 A 
HETATM    2  C3  UNL     1      -3.463  -0.738   0.458  1.00  0.00     0.136 A 
HETATM    3  C4  UNL     1      -2.488   0.254   0.483  1.00  0.00     0.131 A 
HETATM    4  C5  UNL     1      -1.188  -0.124   0.252  1.00  0.00     0.096 A 
HETATM    5  C6  UNL     1      -0.875  -1.456   0.007  1.00  0.00     0.083 A 
HETATM    6  C7  UNL     1      -1.855  -2.425  -0.014  1.00  0.00     0.076 A 
HETATM    7 BR1  UNL     1      -1.338  -4.230  -0.362  1.00  0.00    -0.045 Br
HETATM    8  N1  UNL     1       0.509  -1.799  -0.166  1.00  0.00    -0.344 N 
ATOM      9  H1  UNL     1       0.762  -2.768  -0.358  1.00  0.00     0.166 HD
HETATM   10  C8  UNL     1       1.457  -0.893  -0.083  1.00  0.00     0.158 C 
HETATM   11  C10 UNL     1       1.237   0.488   0.230  1.00  0.00     0.167 C 
HETATM   12  C11 UNL     1       1.663   0.973   1.603  1.00  0.00     0.112 C 
HETATM   13 CL1  UNL     1       2.432  -0.202   2.627  1.00  0.00    -0.122 Cl
HETATM   14  C12 UNL     1       2.440   2.252   1.366  1.00  0.00     0.022 C 
HETATM   15  C13 UNL     1       1.426   3.337   1.099  1.00  0.00     0.003 C 
HETATM   16  C14 UNL     1       0.567   3.143  -0.103  1.00  0.00     0.020 C 
HETATM   17  C15 UNL     1      -0.669   2.237   0.191  1.00  0.00     0.124 C 
HETATM   18  N2  UNL     1      -0.199   0.896   0.217  1.00  0.00    -0.364 N 
ENDROOT
BRANCH  10  19
HETATM   19  S1  UNL     1       3.050  -1.552  -0.353  1.00  0.00     0.311 S 
HETATM   20  O4  UNL     1       3.256  -2.903   0.209  1.00  0.00    -0.192 OA
HETATM   21  O5  UNL     1       4.057  -0.559   0.213  1.00  0.00    -0.192 OA
BRANCH  19  22
HETATM   22  O6  UNL     1       3.401  -1.627  -2.009  1.00  0.00    -0.276 OA
HETATM   23  C9  UNL     1       4.794  -1.648  -2.095  1.00  0.00     0.226 C 
ENDBRANCH  19  22
ENDBRANCH  10  19
BRANCH   3  24
HETATM   24  O3  UNL     1      -2.863   1.550   0.733  1.00  0.00    -0.356 OA
ATOM     25  H3  UNL     1      -2.197   2.227   0.750  1.00  0.00     0.218 HD
ENDBRANCH   3  24
BRANCH   1  26
HETATM   26  O1  UNL     1      -4.163  -3.050   0.192  1.00  0.00    -0.352 OA
HETATM   27  C1  UNL     1      -4.843  -3.375  -1.027  1.00  0.00     0.210 C 
ENDBRANCH   1  26
BRANCH   2  28
HETATM   28  O2  UNL     1      -4.794  -0.454   0.678  1.00  0.00    -0.356 OA
ATOM     29  H2  UNL     1      -5.001   0.458   0.847  1.00  0.00     0.218 HD
ENDBRANCH   2  28
TORSDOF 5
