REMARK  8 active torsions:
REMARK  status: ('A' for Active; 'I' for Inactive)
REMARK    1  A    between atoms: C2_2  and  C3_3 
REMARK    2  A    between atoms: C3_3  and  C6_6 
REMARK    3  A    between atoms: C6_6  and  C9_9 
REMARK    4  A    between atoms: C13_13  and  C14_14 
REMARK    5  A    between atoms: C14_14  and  O2_16 
REMARK    6  A    between atoms: C25_27  and  O3_28 
REMARK    7  A    between atoms: C26_30  and  O4_31 
REMARK    8  A    between atoms: C30_37  and  O6_38 
ROOT
HETATM    1  C9  UNL     1      -1.826   0.156  -0.079  1.00  0.00     0.059 C 
HETATM    2  C10 UNL     1      -1.854   0.759   1.112  1.00  0.00    -0.040 C 
HETATM    3  C11 UNL     1      -3.045   1.450   1.509  1.00  0.00     0.038 C 
HETATM    4  C12 UNL     1      -2.927   1.677   3.038  1.00  0.00     0.020 C 
HETATM    5  C13 UNL     1      -1.797   0.788   3.442  1.00  0.00     0.099 C 
HETATM    6  C16 UNL     1      -0.902   0.960   2.276  1.00  0.00     0.002 C 
HETATM    7  C17 UNL     1      -0.639   2.484   2.259  1.00  0.00     0.022 C 
HETATM    8  C18 UNL     1       0.356   0.202   2.255  1.00  0.00    -0.028 C 
HETATM    9  C19 UNL     1       0.942   0.415   3.682  1.00  0.00     0.016 C 
HETATM   10  C20 UNL     1       0.165  -1.261   2.154  1.00  0.00     0.011 C 
HETATM   11  C21 UNL     1       1.268  -2.002   1.426  1.00  0.00     0.016 C 
HETATM   12  C22 UNL     1       1.262  -1.768  -0.035  1.00  0.00     0.019 C 
HETATM   13  C23 UNL     1       2.717  -1.975  -0.495  1.00  0.00     0.018 C 
HETATM   14  C24 UNL     1       2.924  -3.494  -0.338  1.00  0.00     0.035 C 
HETATM   15  C25 UNL     1       1.671  -4.008  -0.939  1.00  0.00     0.147 C 
HETATM   16  C26 UNL     1       0.640  -2.960  -0.749  1.00  0.00     0.158 C 
HETATM   17  C27 UNL     1       0.692  -0.526  -0.580  1.00  0.00     0.170 C 
HETATM   18  O5  UNL     1      -0.746  -0.576  -0.625  1.00  0.00    -0.344 OA
HETATM   19  C28 UNL     1       1.199   0.774  -0.084  1.00  0.00    -0.029 C 
HETATM   20  C29 UNL     1       2.238   1.540  -0.739  1.00  0.00     0.022 C 
HETATM   21  C30 UNL     1       1.946   1.923  -2.198  1.00  0.00     0.164 C 
HETATM   22  C31 UNL     1       3.056   2.939  -2.439  1.00  0.00     0.057 C 
HETATM   23  C32 UNL     1       4.012   2.583  -1.417  1.00  0.00     0.066 C 
HETATM   24  C33 UNL     1       5.410   2.299  -1.707  1.00  0.00     0.021 C 
HETATM   25  C34 UNL     1       5.791   1.664  -0.352  1.00  0.00     0.017 C 
HETATM   26  C35 UNL     1       4.434   1.400   0.336  1.00  0.00     0.096 C 
HETATM   27  N1  UNL     1       3.583   1.285  -0.813  1.00  0.00    -0.280 NA
HETATM   28  C36 UNL     1       1.452   0.740   1.391  1.00  0.00     0.048 C 
ENDROOT
BRANCH  21  29
HETATM   29  O6  UNL     1       2.300   0.891  -3.079  1.00  0.00    -0.390 OA
ATOM     30  H6  UNL     1       2.119   1.128  -3.981  1.00  0.00     0.210 HD
ENDBRANCH  21  29
BRANCH  16  31
HETATM   31  O4  UNL     1      -0.453  -3.441  -0.033  1.00  0.00    -0.392 OA
ATOM     32  H4  UNL     1      -0.841  -4.185  -0.479  1.00  0.00     0.210 HD
ENDBRANCH  16  31
BRANCH   1  33
HETATM   33  C6  UNL     1      -3.029   0.256  -0.900  1.00  0.00     0.012 C 
HETATM   34  C7  UNL     1      -3.384   1.726  -1.206  1.00  0.00     0.023 C 
HETATM   35  C8  UNL     1      -4.175  -0.612  -0.569  1.00  0.00     0.023 C 
BRANCH  33  36
HETATM   36  C3  UNL     1      -2.711  -0.193  -2.355  1.00  0.00    -0.018 C 
HETATM   37  C4  UNL     1      -2.547  -1.681  -2.447  1.00  0.00     0.020 C 
HETATM   38  C5  UNL     1      -1.638   0.628  -2.941  1.00  0.00     0.020 C 
BRANCH  36  39
HETATM   39  C2  UNL     1      -3.970   0.056  -3.178  1.00  0.00    -0.027 C 
HETATM   40  C1  UNL     1      -3.995   0.012  -4.494  1.00  0.00     0.007 C 
ENDBRANCH  36  39
ENDBRANCH  33  36
ENDBRANCH   1  33
BRANCH  15  41
HETATM   41  O3  UNL     1       1.905  -4.238  -2.305  1.00  0.00    -0.393 OA
ATOM     42  H3  UNL     1       1.102  -4.568  -2.690  1.00  0.00     0.210 HD
ENDBRANCH  15  41
BRANCH   5  43
HETATM   43  C14 UNL     1      -2.307  -0.469   3.883  1.00  0.00     0.263 C 
HETATM   44  O1  UNL     1      -2.077  -1.041   4.990  1.00  0.00    -0.265 OA
BRANCH  43  45
HETATM   45  O2  UNL     1      -3.157  -1.214   3.074  1.00  0.00    -0.326 OA
HETATM   46  C15 UNL     1      -3.702  -2.460   3.436  1.00  0.00     0.213 C 
ENDBRANCH  43  45
ENDBRANCH   5  43
TORSDOF 8
