REMARK  9 active torsions:
REMARK  status: ('A' for Active; 'I' for Inactive)
REMARK    1  A    between atoms: C2_2  and  C3_3 
REMARK    2  A    between atoms: C3_3  and  C4_5 
REMARK    3  A    between atoms: C15_16  and  O2_17 
REMARK    4  A    between atoms: C16_19  and  O3_20 
REMARK    5  A    between atoms: C19_23  and  C20_24 
REMARK    6  A    between atoms: C20_24  and  O5_26 
REMARK    7  A    between atoms: O5_26  and  C21_27 
REMARK    8  A    between atoms: C21_27  and  C22_28 
REMARK    9  A    between atoms: C29_37  and  O8_38 
ROOT
HETATM    1  C4  UNL     1       5.494   1.120  -0.939  1.00  0.00     0.039 C 
HETATM    2  C5  UNL     1       6.093  -0.174  -1.369  1.00  0.00     0.028 C 
HETATM    3  C6  UNL     1       4.389   1.539  -1.863  1.00  0.00    -0.006 C 
HETATM    4  C7  UNL     1       3.228   1.617  -1.225  1.00  0.00    -0.074 C 
HETATM    5  C8  UNL     1       1.847   1.971  -1.610  1.00  0.00     0.061 C 
HETATM    6  C9  UNL     1       0.867   1.199  -0.798  1.00  0.00    -0.018 C 
HETATM    7  C10 UNL     1       1.133   0.368   0.198  1.00  0.00    -0.069 C 
HETATM    8  C11 UNL     1      -0.121  -0.207   0.740  1.00  0.00     0.027 C 
HETATM    9  C12 UNL     1      -1.368   0.252   0.001  1.00  0.00     0.021 C 
HETATM   10  C13 UNL     1      -2.346  -0.717   0.561  1.00  0.00    -0.012 C 
HETATM   11  C14 UNL     1      -2.571  -0.450   1.988  1.00  0.00     0.046 C 
HETATM   12  C15 UNL     1      -3.265   0.919   2.126  1.00  0.00     0.148 C 
HETATM   13  C16 UNL     1      -4.457   1.044   1.254  1.00  0.00     0.150 C 
HETATM   14  C18 UNL     1      -4.833  -0.301   0.762  1.00  0.00     0.055 C 
HETATM   15  C19 UNL     1      -3.665  -0.913  -0.045  1.00  0.00     0.059 C 
HETATM   16  C23 UNL     1      -3.850  -2.419   0.121  1.00  0.00     0.021 C 
HETATM   17  C24 UNL     1      -2.541  -2.943   0.760  1.00  0.00     0.012 C 
HETATM   18  C25 UNL     1      -1.584  -1.974   0.233  1.00  0.00    -0.025 C 
HETATM   19  C26 UNL     1      -1.462  -2.338  -1.197  1.00  0.00     0.017 C 
HETATM   20  C27 UNL     1      -0.233  -1.721   0.796  1.00  0.00    -0.003 C 
HETATM   21  C28 UNL     1      -0.079  -2.287   2.202  1.00  0.00     0.019 C 
HETATM   22  C29 UNL     1       0.899  -2.402   0.028  1.00  0.00     0.127 C 
HETATM   23  C30 UNL     1       2.213  -2.345   0.765  1.00  0.00     0.034 C 
HETATM   24  C31 UNL     1       3.071  -1.185   0.282  1.00  0.00     0.017 C 
HETATM   25  C32 UNL     1       2.535   0.144   0.690  1.00  0.00    -0.013 C 
HETATM   26  C33 UNL     1       2.562   0.335   2.221  1.00  0.00     0.021 C 
HETATM   27  C34 UNL     1       3.414   1.250   0.195  1.00  0.00     0.028 C 
HETATM   28  C35 UNL     1       4.870   1.104   0.439  1.00  0.00     0.031 C 
ENDROOT
BRANCH  15  29
HETATM   29  C20 UNL     1      -3.917  -0.409  -1.386  1.00  0.00     0.269 C 
HETATM   30  O4  UNL     1      -4.477  -1.137  -2.237  1.00  0.00    -0.264 OA
BRANCH  29  31
HETATM   31  O5  UNL     1      -3.558   0.852  -1.742  1.00  0.00    -0.310 OA
BRANCH  31  32
HETATM   32  C21 UNL     1      -3.748   1.448  -2.983  1.00  0.00     0.291 C 
BRANCH  32  33
HETATM   33  C22 UNL     1      -5.168   1.555  -3.393  1.00  0.00     0.198 C 
HETATM   34  O6  UNL     1      -5.487   2.066  -4.511  1.00  0.00    -0.646 OA
HETATM   35  O7  UNL     1      -6.217   1.117  -2.608  1.00  0.00    -0.646 OA
ENDBRANCH  32  33
ENDBRANCH  31  32
ENDBRANCH  29  31
ENDBRANCH  15  29
BRANCH  13  36
HETATM   36  O3  UNL     1      -5.483   1.635   1.979  1.00  0.00    -0.388 OA
HETATM   37  C17 UNL     1      -5.858   2.874   1.491  1.00  0.00     0.202 C 
ENDBRANCH  13  36
BRANCH  12  38
HETATM   38  O2  UNL     1      -3.684   0.951   3.479  1.00  0.00    -0.393 OA
ATOM     39  H2  UNL     1      -4.112   1.795   3.564  1.00  0.00     0.210 HD
ENDBRANCH  12  38
BRANCH  22  40
HETATM   40  O8  UNL     1       1.167  -1.890  -1.199  1.00  0.00    -0.395 OA
ATOM     41  H8  UNL     1       1.871  -2.313  -1.676  1.00  0.00     0.210 HD
ENDBRANCH  22  40
BRANCH   1  42
HETATM   42  C3  UNL     1       6.576   2.167  -1.001  1.00  0.00     0.160 C 
HETATM   43  O1  UNL     1       6.351   3.156  -1.777  1.00  0.00    -0.292 OA
BRANCH  42  44
HETATM   44  C2  UNL     1       7.794   2.074  -0.239  1.00  0.00     0.041 C 
HETATM   45  C1  UNL     1       8.139   1.116   0.583  1.00  0.00     0.015 C 
ENDBRANCH  42  44
ENDBRANCH   1  42
TORSDOF 9
