REMARK  8 active torsions:
REMARK  status: ('A' for Active; 'I' for Inactive)
REMARK    1  A    between atoms: O1_2  and  C2_3 
REMARK    2  A    between atoms: C2_3  and  C3_5 
REMARK    3  A    between atoms: C3_5  and  N1_6 
REMARK    4  A    between atoms: N1_6  and  C4_9 
REMARK    5  A    between atoms: C16_21  and  N2_22 
REMARK       I    between atoms: N2_22  and  C17_24 
REMARK    6  A    between atoms: C17_24  and  O4_26 
REMARK    7  A    between atoms: O4_26  and  C18_27 
REMARK    8  A    between atoms: C23_32  and  C24_33 
ROOT
HETATM    1  C4  UNL     1      -5.844  -0.930  -0.618  1.00  0.00     0.194 C 
HETATM    2  C5  UNL     1      -5.110  -2.034   0.036  1.00  0.00     0.034 C 
HETATM    3  C6  UNL     1      -3.752  -1.684   0.577  1.00  0.00     0.012 C 
HETATM    4  C7  UNL     1      -2.912  -0.962  -0.414  1.00  0.00    -0.029 C 
HETATM    5  C8  UNL     1      -2.485  -1.975  -1.461  1.00  0.00     0.016 C 
HETATM    6  C9  UNL     1      -3.655   0.198  -1.025  1.00  0.00     0.004 C 
HETATM    7  C10 UNL     1      -2.849   0.976  -2.014  1.00  0.00     0.007 C 
HETATM    8  C11 UNL     1      -1.534   1.471  -1.393  1.00  0.00     0.006 C 
HETATM    9  C12 UNL     1      -0.862   0.248  -0.871  1.00  0.00     0.003 C 
HETATM   10  C13 UNL     1       0.598   0.397  -0.564  1.00  0.00    -0.002 C 
HETATM   11  C14 UNL     1       0.958   1.341   0.513  1.00  0.00     0.007 C 
HETATM   12  C15 UNL     1       2.434   1.624   0.459  1.00  0.00     0.026 C 
HETATM   13  C16 UNL     1       3.259   0.447   0.008  1.00  0.00     0.087 C 
HETATM   14  C25 UNL     1       2.599  -0.866   0.221  1.00  0.00     0.034 C 
HETATM   15  C26 UNL     1       1.203  -0.941  -0.351  1.00  0.00     0.014 C 
HETATM   16  C27 UNL     1       0.381  -1.784   0.548  1.00  0.00    -0.025 C 
HETATM   17  C28 UNL     1      -0.888  -1.531   0.798  1.00  0.00    -0.020 C 
HETATM   18  C29 UNL     1      -1.646  -0.401   0.230  1.00  0.00    -0.015 C 
HETATM   19  C30 UNL     1      -1.958   0.536   1.369  1.00  0.00     0.021 C 
HETATM   20  C31 UNL     1      -4.988  -0.140  -1.593  1.00  0.00    -0.015 C 
HETATM   21  C32 UNL     1      -4.981  -0.842  -2.901  1.00  0.00     0.017 C 
HETATM   22  C33 UNL     1      -5.745   1.182  -1.804  1.00  0.00     0.017 C 
ENDROOT
BRANCH  13  23
HETATM   23  N2  UNL     1       4.491   0.477   0.772  1.00  0.00    -0.332 N 
HETATM   24  C17 UNL     1       5.759   0.648   0.173  1.00  0.00     0.361 C 
HETATM   25  O3  UNL     1       5.842   0.780  -1.056  1.00  0.00    -0.238 OA
ATOM     26  H2  UNL     1       4.440   0.370   1.785  1.00  0.00     0.165 HD
BRANCH  24  27
HETATM   27  O4  UNL     1       6.924   0.674   0.913  1.00  0.00    -0.295 OA
BRANCH  27  28
HETATM   28  C18 UNL     1       8.197   0.837   0.406  1.00  0.00     0.181 C 
HETATM   29  C19 UNL     1       8.932   2.056   0.877  1.00  0.00     0.068 C 
HETATM   30  C20 UNL     1      10.336   1.473   1.084  1.00  0.00     0.126 C 
HETATM   31  C21 UNL     1      10.905   1.038  -0.224  1.00  0.00     0.036 C 
HETATM   32  O7  UNL     1       9.990   0.245   1.688  1.00  0.00    -0.361 OA
HETATM   33  C22 UNL     1      10.197  -0.302  -0.474  1.00  0.00     0.055 C 
HETATM   34  C23 UNL     1       9.165  -0.261   0.656  1.00  0.00     0.175 C 
BRANCH  34  35
HETATM   35  C24 UNL     1       8.600  -1.555   0.972  1.00  0.00     0.212 C 
HETATM   36  O5  UNL     1       8.821  -2.168   2.061  1.00  0.00    -0.646 OA
HETATM   37  O6  UNL     1       7.776  -2.180   0.067  1.00  0.00    -0.646 OA
ENDBRANCH  34  35
ENDBRANCH  27  28
ENDBRANCH  24  27
ENDBRANCH  13  23
BRANCH   1  38
HETATM   38  N1  UNL     1      -6.598  -0.059   0.250  1.00  0.00    -0.061 N 
ATOM     39  H12 UNL     1      -6.945   0.749  -0.267  1.00  0.00     0.278 HD
ATOM     40  H11 UNL     1      -5.980   0.412   0.911  1.00  0.00     0.278 HD
BRANCH  38  41
HETATM   41  C3  UNL     1      -7.665  -0.710   0.938  1.00  0.00     0.343 C 
BRANCH  41  42
HETATM   42  C2  UNL     1      -8.439   0.228   1.797  1.00  0.00     0.284 C 
HETATM   43  O2  UNL     1      -8.090   1.438   1.836  1.00  0.00    -0.263 OA
BRANCH  42  44
HETATM   44  O1  UNL     1      -9.528  -0.146   2.564  1.00  0.00    -0.325 OA
HETATM   45  C1  UNL     1     -10.201   0.841   3.354  1.00  0.00     0.213 C 
ENDBRANCH  42  44
ENDBRANCH  41  42
ENDBRANCH  38  41
ENDBRANCH   1  38
TORSDOF 8
