REMARK  8 active torsions:
REMARK  status: ('A' for Active; 'I' for Inactive)
REMARK    1  A    between atoms: C2_2  and  C3_3 
REMARK    2  A    between atoms: C6_8  and  O3_9 
REMARK    3  A    between atoms: O3_9  and  C7_10 
REMARK    4  A    between atoms: C7_10  and  C8_12 
REMARK    5  A    between atoms: C8_12  and  N1_13 
REMARK    6  A    between atoms: C14_20  and  C15_21 
REMARK    7  A    between atoms: C24_30  and  O6_31 
REMARK    8  A    between atoms: C31_39  and  O7_40 
ROOT
HETATM    1  C15 UNL     1       0.353   1.345  -0.225  1.00  0.00    -0.008 C 
HETATM    2  C16 UNL     1      -0.146   1.458   1.159  1.00  0.00     0.005 C 
HETATM    3  C17 UNL     1      -1.486   0.703   1.221  1.00  0.00     0.006 C 
HETATM    4  C18 UNL     1      -2.191   0.766  -0.117  1.00  0.00     0.001 C 
HETATM    5  C19 UNL     1      -3.618   0.402   0.108  1.00  0.00    -0.005 C 
HETATM    6  C20 UNL     1      -4.481   0.984  -0.958  1.00  0.00     0.006 C 
HETATM    7  C21 UNL     1      -5.850   0.369  -1.067  1.00  0.00     0.006 C 
HETATM    8  C22 UNL     1      -6.128  -0.295   0.263  1.00  0.00    -0.004 C 
HETATM    9  C23 UNL     1      -7.583  -0.556   0.358  1.00  0.00     0.037 C 
HETATM   10  C24 UNL     1      -8.015  -1.541   1.392  1.00  0.00     0.118 C 
HETATM   11  C25 UNL     1      -7.029  -2.645   1.640  1.00  0.00     0.032 C 
HETATM   12  C26 UNL     1      -5.617  -2.187   1.685  1.00  0.00     0.012 C 
HETATM   13  C27 UNL     1      -5.233  -1.493   0.368  1.00  0.00    -0.036 C 
HETATM   14  C28 UNL     1      -5.599  -2.448  -0.715  1.00  0.00     0.016 C 
HETATM   15  C29 UNL     1      -3.787  -1.059   0.368  1.00  0.00     0.001 C 
HETATM   16  C30 UNL     1      -2.867  -1.966  -0.386  1.00  0.00     0.038 C 
HETATM   17  C31 UNL     1      -2.012  -1.357  -1.439  1.00  0.00     0.127 C 
HETATM   18  C32 UNL     1      -1.477  -0.002  -1.176  1.00  0.00    -0.014 C 
HETATM   19  C33 UNL     1      -1.424   0.792  -2.488  1.00  0.00     0.018 C 
HETATM   20  C34 UNL     1      -0.005  -0.065  -0.724  1.00  0.00     0.017 C 
ENDROOT
BRANCH   1  21
HETATM   21  C14 UNL     1       1.798   1.668  -0.464  1.00  0.00     0.011 C 
HETATM   22  C2  UNL     1       2.202   3.078  -0.209  1.00  0.00     0.049 C 
HETATM   23  C1  UNL     1       2.134   3.496   1.256  1.00  0.00     0.027 C 
HETATM   24  C4  UNL     1       3.616   3.345  -0.742  1.00  0.00     0.023 C 
HETATM   25  C5  UNL     1       4.441   2.095  -0.892  1.00  0.00     0.034 C 
HETATM   26  C6  UNL     1       4.126   1.211   0.268  1.00  0.00     0.132 C 
HETATM   27  C13 UNL     1       2.713   0.689   0.232  1.00  0.00     0.039 C 
BRANCH  22  28
HETATM   28  C3  UNL     1       1.349   4.063  -0.930  1.00  0.00     0.181 C 
HETATM   29  O1  UNL     1       1.801   4.647  -1.939  1.00  0.00    -0.647 OA
HETATM   30  O2  UNL     1       0.050   4.390  -0.555  1.00  0.00    -0.647 OA
ENDBRANCH  22  28
BRANCH  26  31
HETATM   31  O3  UNL     1       5.070   0.178   0.465  1.00  0.00    -0.315 OA
BRANCH  31  32
HETATM   32  C7  UNL     1       5.854   0.067   1.618  1.00  0.00     0.287 C 
HETATM   33  O4  UNL     1       5.644   0.967   2.474  1.00  0.00    -0.263 OA
BRANCH  32  34
HETATM   34  C8  UNL     1       6.850  -1.007   1.837  1.00  0.00     0.383 C 
BRANCH  34  35
HETATM   35  N1  UNL     1       7.065  -1.851   0.704  1.00  0.00     0.102 N 
HETATM   36  C9  UNL     1       7.730  -1.176  -0.388  1.00  0.00     0.299 C 
HETATM   37  C10 UNL     1       9.150  -0.783  -0.010  1.00  0.00     0.198 C 
HETATM   38  O5  UNL     1       9.679  -1.622   0.968  1.00  0.00    -0.388 OA
HETATM   39  C11 UNL     1       9.283  -2.928   0.695  1.00  0.00     0.198 C 
HETATM   40  C12 UNL     1       7.813  -3.042   1.018  1.00  0.00     0.299 C 
ENDBRANCH  34  35
ENDBRANCH  32  34
ENDBRANCH  31  32
ENDBRANCH  26  31
ENDBRANCH   1  21
BRANCH  17  41
HETATM   41  O7  UNL     1      -2.616  -1.458  -2.722  1.00  0.00    -0.395 OA
ATOM     42  H7  UNL     1      -2.070  -1.069  -3.395  1.00  0.00     0.210 HD
ENDBRANCH  17  41
BRANCH  10  43
HETATM   43  O6  UNL     1      -8.402  -0.896   2.576  1.00  0.00    -0.396 OA
ATOM     44  H6  UNL     1      -8.677  -1.523   3.234  1.00  0.00     0.210 HD
ENDBRANCH  10  43
TORSDOF 8
