REMARK  8 active torsions:
REMARK  status: ('A' for Active; 'I' for Inactive)
REMARK    1  A    between atoms: C1_2  and  C2_4 
REMARK    2  A    between atoms: C5_7  and  N2_8 
REMARK       I    between atoms: N2_8  and  C6_10 
REMARK       I    between atoms: C6_10  and  N3_12 
REMARK    3  A    between atoms: N3_12  and  C7_14 
REMARK    4  A    between atoms: C9_16  and  N4_17 
REMARK    5  A    between atoms: C12_23  and  N5_24 
REMARK    6  A    between atoms: N5_24  and  C13_26 
REMARK    7  A    between atoms: C16_32  and  N7_33 
REMARK    8  A    between atoms: N7_33  and  C17_35 
ROOT
HETATM    1  C7  UNL     1      -0.363  -1.734  -0.564  1.00  0.00     0.111 C 
HETATM    2  C8  UNL     1      -0.311  -3.183  -0.999  1.00  0.00     0.060 C 
HETATM    3  C9  UNL     1      -1.679  -3.752  -1.243  1.00  0.00     0.185 C 
HETATM    4  C10 UNL     1      -2.639  -3.497  -0.131  1.00  0.00     0.035 C 
HETATM    5  C11 UNL     1      -1.877  -2.897   1.040  1.00  0.00     0.030 C 
HETATM    6  C12 UNL     1      -1.365  -1.537   0.568  1.00  0.00     0.122 C 
ENDROOT
BRANCH   6   7
HETATM    7  N5  UNL     1      -2.505  -0.787   0.144  1.00  0.00    -0.219 N 
ATOM      8  H5  UNL     1      -2.756  -0.779  -0.845  1.00  0.00     0.178 HD
BRANCH   7   9
HETATM    9  C13 UNL     1      -3.222  -0.123   0.978  1.00  0.00     0.679 A 
HETATM   10  N6  UNL     1      -2.998  -0.052   2.300  1.00  0.00    -0.200 N 
HETATM   11  C14 UNL     1      -3.783   0.666   3.149  1.00  0.00     0.133 A 
ATOM     12  H6  UNL     1      -2.202  -0.560   2.686  1.00  0.00     0.183 HD
HETATM   13  C15 UNL     1      -4.864   1.363   2.663  1.00  0.00     0.094 A 
HETATM   14 CL1  UNL     1      -5.888   2.296   3.742  1.00  0.00    -0.079 Cl
HETATM   15  C16 UNL     1      -5.105   1.299   1.308  1.00  0.00     0.140 A 
HETATM   16  N8  UNL     1      -4.307   0.581   0.514  1.00  0.00    -0.175 N 
ATOM     17  H8  UNL     1      -4.513   0.554  -0.485  1.00  0.00     0.186 HD
BRANCH  15  18
HETATM   18  N7  UNL     1      -6.112   1.952   0.866  1.00  0.00    -0.370 N 
ATOM     19  H7  UNL     1      -6.656   2.469   1.557  1.00  0.00     0.161 HD
BRANCH  18  20
HETATM   20  C17 UNL     1      -6.559   2.037  -0.487  1.00  0.00     0.083 A 
HETATM   21  C18 UNL     1      -7.751   2.828  -0.869  1.00  0.00     0.027 A 
HETATM   22  C19 UNL     1      -7.926   1.362  -0.718  1.00  0.00     0.027 A 
ENDBRANCH  18  20
ENDBRANCH  15  18
ENDBRANCH   7   9
ENDBRANCH   6   7
BRANCH   1  23
HETATM   23  N3  UNL     1       0.983  -1.413  -0.086  1.00  0.00    -0.336 N 
HETATM   24  C6  UNL     1       1.760  -0.409  -0.699  1.00  0.00     0.316 C 
HETATM   25  N2  UNL     1       3.050  -0.113  -0.228  1.00  0.00    -0.339 N 
HETATM   26  O2  UNL     1       1.287   0.216  -1.670  1.00  0.00    -0.247 OA
ATOM     27  H2  UNL     1       3.436  -0.625   0.566  1.00  0.00     0.164 HD
ATOM     28  H3  UNL     1       1.367  -1.927   0.707  1.00  0.00     0.164 HD
BRANCH  25  29
HETATM   29  C5  UNL     1       3.825   0.916  -0.871  1.00  0.00     0.086 C 
HETATM   30  C4  UNL     1       4.016   2.031   0.126  1.00  0.00     0.026 C 
HETATM   31  C3  UNL     1       5.265   2.779  -0.263  1.00  0.00     0.015 C 
HETATM   32  C2  UNL     1       6.437   1.882   0.099  1.00  0.00     0.075 C 
HETATM   33  C21 UNL     1       6.298   0.564  -0.581  1.00  0.00     0.015 C 
HETATM   34  C20 UNL     1       5.110   0.408  -1.449  1.00  0.00     0.026 C 
BRANCH  32  35
HETATM   35  C1  UNL     1       7.715   2.562  -0.161  1.00  0.00     0.235 C 
HETATM   36  N1  UNL     1       8.926   1.874   0.121  1.00  0.00    -0.062 NA
HETATM   37  O1  UNL     1       7.701   3.729  -0.624  1.00  0.00    -0.277 OA
ENDBRANCH  32  35
ENDBRANCH  25  29
ENDBRANCH   1  23
BRANCH   3  38
HETATM   38  N4  UNL     1      -2.197  -3.229  -2.502  1.00  0.00    -0.075 N 
ATOM     39  H43 UNL     1      -2.191  -2.209  -2.530  1.00  0.00     0.274 HD
ATOM     40  H42 UNL     1      -1.562  -3.398  -3.282  1.00  0.00     0.274 HD
ATOM     41  H41 UNL     1      -3.126  -3.616  -2.668  1.00  0.00     0.274 HD
ENDBRANCH   3  38
TORSDOF 8
