REMARK  10 active torsions:
REMARK  status: ('A' for Active; 'I' for Inactive)
REMARK    1  A    between atoms: N1_1  and  C1_4 
REMARK    2  A    between atoms: C2_7  and  N3_8 
REMARK    3  A    between atoms: N3_8  and  C3_10 
REMARK    4  A    between atoms: C9_16  and  N4_17 
REMARK       I    between atoms: N4_17  and  C10_19 
REMARK    5  A    between atoms: C10_19  and  C11_21 
REMARK    6  A    between atoms: C13_23  and  C14_24 
REMARK    7  A    between atoms: C14_24  and  C15_25 
REMARK    8  A    between atoms: C15_25  and  O2_26 
REMARK    9  A    between atoms: C18_36  and  C19_37 
REMARK   10  A    between atoms: C20_38  and  C21_39 
ROOT
HETATM    1  C3  UNL     1       0.372  -1.650  -1.522  1.00  0.00     0.126 C 
HETATM    2  C4  UNL     1       0.835  -3.046  -1.173  1.00  0.00     0.011 C 
HETATM    3  C5  UNL     1       1.059  -3.786  -2.455  1.00  0.00     0.007 C 
HETATM    4  C6  UNL     1      -0.355  -3.970  -3.024  1.00  0.00     0.007 C 
HETATM    5  C7  UNL     1      -1.261  -3.317  -2.005  1.00  0.00     0.011 C 
HETATM    6  C8  UNL     1      -0.498  -3.661  -0.714  1.00  0.00     0.013 C 
HETATM    7  C9  UNL     1      -1.051  -1.843  -2.074  1.00  0.00     0.112 C 
ENDROOT
BRANCH   1   8
HETATM    8  N3  UNL     1       0.366  -0.808  -0.370  1.00  0.00    -0.219 N 
ATOM      9  H3  UNL     1      -0.518  -0.593   0.090  1.00  0.00     0.178 HD
BRANCH   8  10
HETATM   10  C2  UNL     1       1.447  -0.322   0.091  1.00  0.00     0.681 A 
HETATM   11  N2  UNL     1       2.633  -0.585  -0.491  1.00  0.00    -0.176 N 
HETATM   12  C1  UNL     1       3.804  -0.080  -0.020  1.00  0.00     0.136 A 
ATOM     13  H2  UNL     1       2.653  -1.185  -1.315  1.00  0.00     0.186 HD
HETATM   14  C18 UNL     1       3.804   0.731   1.088  1.00  0.00     0.100 A 
HETATM   15  C17 UNL     1       2.588   1.012   1.701  1.00  0.00     0.141 A 
HETATM   16  N6  UNL     1       1.485   0.479   1.180  1.00  0.00    -0.180 N 
HETATM   17 CL1  UNL     1       2.580   2.043   3.111  1.00  0.00    -0.062 Cl
ATOM     18  H6  UNL     1       0.599   0.691   1.638  1.00  0.00     0.185 HD
BRANCH  12  19
HETATM   19  N1  UNL     1       4.934  -0.336  -0.583  1.00  0.00    -0.384 N 
ATOM     20  H12 UNL     1       4.934  -0.938  -1.406  1.00  0.00     0.157 HD
ATOM     21  H11 UNL     1       5.813   0.043  -0.230  1.00  0.00     0.157 HD
ENDBRANCH  12  19
BRANCH  14  22
HETATM   22  C19 UNL     1       5.011   1.286   1.621  1.00  0.00    -0.059 C 
HETATM   23  C20 UNL     1       6.032   1.772   2.057  1.00  0.00    -0.096 C 
BRANCH  23  24
HETATM   24  C21 UNL     1       7.279   2.343   2.571  1.00  0.00     0.065 A 
HETATM   25  C22 UNL     1       8.593   1.893   2.056  1.00  0.00     0.018 A 
HETATM   26  C23 UNL     1       8.084   3.242   1.672  1.00  0.00     0.018 A 
ENDBRANCH  23  24
ENDBRANCH  14  22
ENDBRANCH   8  10
ENDBRANCH   1   8
BRANCH   7  27
HETATM   27  N4  UNL     1      -2.016  -1.191  -1.225  1.00  0.00    -0.352 N 
HETATM   28  C10 UNL     1      -2.925  -0.208  -1.682  1.00  0.00     0.248 C 
HETATM   29  O1  UNL     1      -2.891   0.115  -2.895  1.00  0.00    -0.271 OA
ATOM     30  H4  UNL     1      -2.045  -1.453  -0.240  1.00  0.00     0.163 HD
BRANCH  28  31
HETATM   31  C11 UNL     1      -3.896   0.440  -0.802  1.00  0.00     0.277 C 
HETATM   32  C12 UNL     1      -3.279   1.113   0.390  1.00  0.00     0.049 C 
HETATM   33  C13 UNL     1      -4.087   2.374   0.568  1.00  0.00     0.016 C 
HETATM   34  C16 UNL     1      -4.785   2.592  -0.739  1.00  0.00     0.238 C 
HETATM   35  N5  UNL     1      -4.696   1.392  -1.501  1.00  0.00    -0.062 N 
ATOM     36  H52 UNL     1      -4.354   1.561  -2.447  1.00  0.00     0.278 HD
ATOM     37  H51 UNL     1      -5.615   1.020  -1.742  1.00  0.00     0.278 HD
BRANCH  33  38
HETATM   38  C14 UNL     1      -5.001   2.334   1.753  1.00  0.00     0.032 C 
BRANCH  38  39
HETATM   39  C15 UNL     1      -6.010   1.222   1.686  1.00  0.00     0.164 C 
BRANCH  39  40
HETATM   40  O2  UNL     1      -6.788   1.318   2.863  1.00  0.00    -0.401 OA
ATOM     41  H2  UNL     1      -7.426   0.615   2.821  1.00  0.00     0.209 HD
ENDBRANCH  39  40
ENDBRANCH  38  39
ENDBRANCH  33  38
ENDBRANCH  28  31
ENDBRANCH   7  27
TORSDOF 10
