REMARK  6 active torsions:
REMARK  status: ('A' for Active; 'I' for Inactive)
REMARK    1  A    between atoms: C1_2  and  C2_4 
REMARK    2  A    between atoms: C8_10  and  N2_11 
REMARK       I    between atoms: N2_11  and  C9_13 
REMARK    3  A    between atoms: C9_13  and  C10_15 
REMARK    4  A    between atoms: C12_21  and  C13_22 
REMARK       I    between atoms: C13_22  and  N5_24 
REMARK    5  A    between atoms: N5_24  and  N6_25 
REMARK       I    between atoms: N6_25  and  C14_27 
REMARK    6  A    between atoms: C14_27  and  C15_29 
ROOT
HETATM    1  C10 UNL     1       1.276  -1.525   0.612  1.00  0.00     0.135 A 
HETATM    2  N3  UNL     1       1.240  -2.845   1.198  1.00  0.00    -0.346 N 
ATOM      3  H3  UNL     1       0.611  -3.167   1.933  1.00  0.00     0.167 HD
HETATM    4  C11 UNL     1       2.178  -3.555   0.599  1.00  0.00     0.181 A 
HETATM    5  N4  UNL     1       2.802  -2.770  -0.316  1.00  0.00    -0.345 N 
ATOM      6  H4  UNL     1       3.567  -3.034  -0.937  1.00  0.00     0.167 HD
HETATM    7  C12 UNL     1       2.189  -1.553  -0.229  1.00  0.00     0.151 A 
ENDROOT
BRANCH   1   8
HETATM    8  C9  UNL     1       0.144  -0.710   1.131  1.00  0.00     0.274 C 
HETATM    9  N2  UNL     1      -0.847  -0.480   0.186  1.00  0.00    -0.328 N 
ATOM     10  H2  UNL     1      -0.594  -0.678  -0.782  1.00  0.00     0.168 HD
HETATM   11  O2  UNL     1       0.114  -0.342   2.280  1.00  0.00    -0.266 OA
BRANCH   9  12
HETATM   12  C8  UNL     1      -2.150  -0.011   0.394  1.00  0.00    -0.002 C 
HETATM   13  C6  UNL     1      -2.797   1.045   1.087  1.00  0.00     0.033 C 
HETATM   14  C5  UNL     1      -3.798   0.240   2.084  1.00  0.00     0.015 C 
HETATM   15  C7  UNL     1      -3.814   1.920   0.389  1.00  0.00     0.029 C 
HETATM   16  C4  UNL     1      -4.604  -0.724   1.293  1.00  0.00    -0.012 C 
HETATM   17  C3  UNL     1      -5.626   0.116   0.507  1.00  0.00     0.023 C 
HETATM   18  C20 UNL     1      -3.956  -1.617   0.257  1.00  0.00     0.015 C 
HETATM   19  C2  UNL     1      -4.787   1.031  -0.353  1.00  0.00     0.040 C 
HETATM   20  C21 UNL     1      -3.997   0.270  -1.360  1.00  0.00     0.029 C 
HETATM   21  C19 UNL     1      -3.090  -0.620  -0.645  1.00  0.00     0.033 C 
BRANCH  19  22
HETATM   22  C1  UNL     1      -5.811   1.872  -1.073  1.00  0.00     0.239 C 
HETATM   23  N1  UNL     1      -6.900   2.447  -0.291  1.00  0.00    -0.061 NA
HETATM   24  O1  UNL     1      -5.733   2.043  -2.308  1.00  0.00    -0.276 OA
ENDBRANCH  19  22
ENDBRANCH   9  12
ENDBRANCH   1   8
BRANCH   7  25
HETATM   25  C13 UNL     1       2.696  -0.406  -1.244  1.00  0.00     0.364 C 
HETATM   26  O3  UNL     1       1.831  -0.418  -2.109  1.00  0.00    -0.247 OA
HETATM   27  N5  UNL     1       3.799   0.095  -0.832  1.00  0.00    -0.277 NA
BRANCH  27  28
HETATM   28  N6  UNL     1       5.010   0.698  -0.464  1.00  0.00    -0.194 N 
HETATM   29  C14 UNL     1       6.002  -0.171   0.003  1.00  0.00     0.297 C 
HETATM   30  O4  UNL     1       5.852  -1.385   0.179  1.00  0.00    -0.263 OA
ATOM     31  H6  UNL     1       5.158   1.705  -0.532  1.00  0.00     0.205 HD
BRANCH  29  32
HETATM   32  C15 UNL     1       7.346   0.289   0.282  1.00  0.00     0.106 A 
HETATM   33  C16 UNL     1       7.925   1.194   1.159  1.00  0.00     0.079 A 
HETATM   34  C17 UNL     1       9.279   1.395   0.776  1.00  0.00     0.134 A 
HETATM   35  F1  UNL     1      10.136   2.225   1.384  1.00  0.00    -0.205 F 
HETATM   36  C18 UNL     1       9.506   0.623  -0.299  1.00  0.00     0.130 A 
HETATM   37  N7  UNL     1       8.388  -0.037  -0.606  1.00  0.00    -0.358 N 
ATOM     38  H7  UNL     1       8.300  -0.692  -1.383  1.00  0.00     0.165 HD
ENDBRANCH  29  32
ENDBRANCH  27  28
ENDBRANCH   7  25
TORSDOF 6
