REMARK  10 active torsions:
REMARK  status: ('A' for Active; 'I' for Inactive)
REMARK    1  A    between atoms: C5_5  and  C16_30 
REMARK    2  A    between atoms: C8_10  and  C9_13 
REMARK    3  A    between atoms: C9_13  and  N3_14 
REMARK       I    between atoms: N3_14  and  C10_16 
REMARK    4  A    between atoms: C10_16  and  C11_18 
REMARK    5  A    between atoms: C11_18  and  N4_19 
REMARK    6  A    between atoms: N4_19  and  N5_20 
REMARK    7  A    between atoms: N5_20  and  C12_22 
REMARK    8  A    between atoms: C12_22  and  N6_24 
REMARK    9  A    between atoms: N6_24  and  C13_26 
REMARK   10  A    between atoms: C13_26  and  C14_27 
ROOT
HETATM    1  C9  UNL     1      -0.563   0.056  -0.400  1.00  0.00     0.072 C 
HETATM    2  C15 UNL     1      -1.390   0.292  -1.567  1.00  0.00     0.045 C 
HETATM    3  C16 UNL     1      -2.130  -0.991  -1.291  1.00  0.00    -0.027 C 
HETATM    4  C17 UNL     1      -2.355  -1.776  -2.577  1.00  0.00     0.016 C 
HETATM    5  C18 UNL     1      -0.844  -1.478  -0.663  1.00  0.00     0.045 C 
ENDROOT
BRANCH   1   6
HETATM    6  C8  UNL     1      -1.298   0.437   0.911  1.00  0.00     0.205 C 
HETATM    7  N1  UNL     1      -1.786  -0.687   1.615  1.00  0.00    -0.379 N 
HETATM    8  C7  UNL     1      -2.816  -1.437   1.043  1.00  0.00     0.067 C 
ATOM      9  H1  UNL     1      -1.395  -0.945   2.521  1.00  0.00     0.160 HD
HETATM   10  C5  UNL     1      -3.263  -0.965  -0.345  1.00  0.00    -0.003 C 
HETATM   11  C4  UNL     1      -4.098   0.239  -0.249  1.00  0.00     0.045 C 
HETATM   12  C6  UNL     1      -4.221  -2.094  -0.798  1.00  0.00     0.021 C 
HETATM   13  C2  UNL     1      -3.582   1.319   0.665  1.00  0.00     0.021 C 
HETATM   14  C1  UNL     1      -4.162   1.195   2.087  1.00  0.00     0.037 C 
HETATM   15  C3  UNL     1      -4.236   2.606   0.137  1.00  0.00     0.037 C 
HETATM   16  N2  UNL     1      -2.193   1.496   0.618  1.00  0.00    -0.392 N 
ATOM     17  H2  UNL     1      -1.816   2.410   0.367  1.00  0.00     0.156 HD
ENDBRANCH   1   6
BRANCH   1  18
HETATM   18  N3  UNL     1       0.846   0.246  -0.336  1.00  0.00    -0.347 N 
HETATM   19  C10 UNL     1       1.775   0.036  -1.325  1.00  0.00     0.234 C 
HETATM   20  O1  UNL     1       1.495  -0.309  -2.471  1.00  0.00    -0.272 OA
ATOM     21  H3  UNL     1       1.211   0.580   0.556  1.00  0.00     0.163 HD
BRANCH  19  22
HETATM   22  C11 UNL     1       3.237   0.211  -0.977  1.00  0.00     0.237 C 
BRANCH  22  23
HETATM   23  N4  UNL     1       3.309   0.636   0.439  1.00  0.00    -0.130 NA
BRANCH  23  24
HETATM   24  N5  UNL     1       4.016  -0.251   1.192  1.00  0.00    -0.280 N 
ATOM     25  H5  UNL     1       3.384  -0.799   1.776  1.00  0.00     0.184 HD
BRANCH  24  26
HETATM   26  C12 UNL     1       5.317  -0.637   1.409  1.00  0.00     0.183 C 
HETATM   27  S1  UNL     1       5.504  -1.900   2.533  1.00  0.00    -0.040 SA
BRANCH  26  28
HETATM   28  N6  UNL     1       6.538  -0.195   0.880  1.00  0.00    -0.365 N 
ATOM     29  H6  UNL     1       7.389  -0.660   1.195  1.00  0.00     0.161 HD
BRANCH  28  30
HETATM   30  C13 UNL     1       6.671   0.876  -0.083  1.00  0.00     0.133 C 
BRANCH  30  31
HETATM   31  C14 UNL     1       8.186   1.073  -0.363  1.00  0.00     0.104 C 
HETATM   32 BR1  UNL     1       8.903  -0.568  -1.093  1.00  0.00    -0.095 Br
ENDBRANCH  30  31
ENDBRANCH  28  30
ENDBRANCH  26  28
ENDBRANCH  24  26
ENDBRANCH  23  24
ENDBRANCH  22  23
ENDBRANCH  19  22
ENDBRANCH   1  18
TORSDOF 10
