REMARK  5 active torsions:
REMARK  status: ('A' for Active; 'I' for Inactive)
REMARK    1  A    between atoms: N1_2  and  C2_4 
REMARK    2  A    between atoms: C3_7  and  C4_8 
REMARK    3  A    between atoms: C4_8  and  S1_9 
REMARK    4  A    between atoms: S1_9  and  C5_10 
REMARK    5  A    between atoms: C7_20  and  O1_21 
ROOT
HETATM    1  C4  UNL     1      -0.137  -1.218  -0.109  1.00  0.00     0.142 C 
ENDROOT
BRANCH   1   2
HETATM    2  C3  UNL     1      -1.219  -0.159   0.055  1.00  0.00     0.061 A 
HETATM    3  N2  UNL     1      -2.459  -0.563   0.281  1.00  0.00    -0.337 N 
HETATM    4  C2  UNL     1      -3.411   0.328   0.478  1.00  0.00     0.146 A 
ATOM      5  H2  UNL     1      -2.677  -1.559   0.303  1.00  0.00     0.168 HD
HETATM    6  S3  UNL     1      -2.602   1.803   0.354  1.00  0.00    -0.028 SA
HETATM    7  C7  UNL     1      -1.005   1.185   0.040  1.00  0.00     0.136 A 
BRANCH   4   8
HETATM    8  N1  UNL     1      -4.689   0.179   0.728  1.00  0.00    -0.375 N 
HETATM    9  C1  UNL     1      -5.248  -1.145   0.824  1.00  0.00     0.148 C 
ATOM     10  H1  UNL     1      -5.285   0.997   0.854  1.00  0.00     0.161 HD
ENDBRANCH   4   8
BRANCH   7  11
HETATM   11  O1  UNL     1       0.147   1.955  -0.173  1.00  0.00    -0.347 OA
HETATM   12  C8  UNL     1       0.332   2.472  -1.464  1.00  0.00     0.211 C 
ENDBRANCH   7  11
ENDBRANCH   1   2
BRANCH   1  13
HETATM   13  S1  UNL     1       1.065  -0.826  -1.329  1.00  0.00    -0.097 SA
BRANCH  13  14
HETATM   14  C5  UNL     1       2.689  -0.515  -0.594  1.00  0.00     0.130 A 
HETATM   15  N3  UNL     1       3.609  -1.487  -0.419  1.00  0.00    -0.286 N 
HETATM   16  N4  UNL     1       4.718  -1.225   0.103  1.00  0.00    -0.279 N 
ATOM     17  H3  UNL     1       3.400  -2.441  -0.713  1.00  0.00     0.188 HD
HETATM   18  C6  UNL     1       4.978   0.033   0.483  1.00  0.00     0.159 A 
ATOM     19  H4  UNL     1       5.413  -1.960   0.237  1.00  0.00     0.189 HD
HETATM   20  N5  UNL     1       6.062   0.499   1.042  1.00  0.00    -0.379 N 
HETATM   21  S2  UNL     1       3.508   0.813   0.036  1.00  0.00    -0.027 SA
ATOM     22  H52 UNL     1       6.932   0.037   1.307  1.00  0.00     0.158 HD
ATOM     23  H51 UNL     1       6.260   1.457   1.331  1.00  0.00     0.158 HD
ENDBRANCH  13  14
ENDBRANCH   1  13
TORSDOF 5
