REMARK  5 active torsions:
REMARK  status: ('A' for Active; 'I' for Inactive)
REMARK    1  A    between atoms: C2_2  and  O1_3 
REMARK    2  A    between atoms: O1_3  and  C3_4 
REMARK    3  A    between atoms: C3_4  and  C4_6 
REMARK    4  A    between atoms: C5_8  and  N1_9 
REMARK    5  A    between atoms: N1_9  and  N2_11 
REMARK       I    between atoms: N2_11  and  C6_13 
ROOT
HETATM    1  C4  UNL     1      -1.158  -0.424  -0.440  1.00  0.00     0.090 A 
HETATM    2  S1  UNL     1       0.367   0.266  -0.017  1.00  0.00    -0.063 SA
HETATM    3  C5  UNL     1       1.664  -0.784  -0.320  1.00  0.00     0.113 A 
HETATM    4  C8  UNL     1       1.354  -2.002  -0.843  1.00  0.00     0.106 A 
HETATM    5  C9  UNL     1       2.500  -2.873  -1.089  1.00  0.00     0.104 C 
HETATM    6  N3  UNL     1       3.420  -3.561  -1.302  1.00  0.00    -0.191 NA
HETATM    7  C10 UNL     1       0.055  -2.446  -1.145  1.00  0.00     0.057 A 
HETATM    8  N4  UNL     1       0.021  -3.648  -1.638  1.00  0.00    -0.397 N 
ATOM      9  H41 UNL     1      -0.922  -3.970  -1.857  1.00  0.00     0.156 HD
ATOM     10  H42 UNL     1       0.869  -4.197  -1.780  1.00  0.00     0.156 HD
HETATM   11  C11 UNL     1      -1.086  -1.708  -0.954  1.00  0.00    -0.011 A 
HETATM   12  C12 UNL     1      -2.419  -2.337  -1.329  1.00  0.00     0.052 C 
ENDROOT
BRANCH   3  13
HETATM   13  N1  UNL     1       3.003  -0.384  -0.032  1.00  0.00    -0.290 N 
ATOM     14  H1  UNL     1       3.782  -1.015  -0.219  1.00  0.00     0.188 HD
BRANCH  13  15
HETATM   15  N2  UNL     1       3.233   0.879   0.507  1.00  0.00    -0.270 N 
HETATM   16  C6  UNL     1       4.543   1.307   0.849  1.00  0.00     0.232 C 
HETATM   17  C7  UNL     1       4.756   2.647   1.416  1.00  0.00     0.119 C 
HETATM   18  O3  UNL     1       5.496   0.512   0.652  1.00  0.00    -0.272 OA
ATOM     19  H2  UNL     1       2.445   1.509   0.659  1.00  0.00     0.190 HD
ENDBRANCH  13  15
ENDBRANCH   3  13
BRANCH   1  20
HETATM   20  C3  UNL     1      -2.397   0.326  -0.256  1.00  0.00     0.300 C 
HETATM   21  O2  UNL     1      -3.517  -0.103  -0.537  1.00  0.00    -0.259 OA
BRANCH  20  22
HETATM   22  O1  UNL     1      -2.303   1.606   0.271  1.00  0.00    -0.317 OA
BRANCH  22  23
HETATM   23  C2  UNL     1      -3.478   2.404   0.480  1.00  0.00     0.174 C 
HETATM   24  C1  UNL     1      -4.444   1.758   1.428  1.00  0.00     0.034 C 
ENDBRANCH  22  23
ENDBRANCH  20  22
ENDBRANCH   1  20
TORSDOF 5
