REMARK  6 active torsions:
REMARK  status: ('A' for Active; 'I' for Inactive)
REMARK    1  A    between atoms: O1_2  and  C2_3 
REMARK    2  A    between atoms: C2_3  and  C3_5 
REMARK    3  A    between atoms: C3_5  and  S1_6 
REMARK    4  A    between atoms: S1_6  and  C4_7 
REMARK    5  A    between atoms: C5_10  and  N2_11 
REMARK    6  A    between atoms: C7_18  and  N4_19 
ROOT
HETATM    1  C4  UNL     1      -0.923  -0.237   0.892  1.00  0.00     0.122 A 
HETATM    2  N1  UNL     1      -0.908   1.092   1.007  1.00  0.00    -0.183 N 
ATOM      3  H1  UNL     1      -0.109   1.550   1.446  1.00  0.00     0.185 HD
HETATM    4  C5  UNL     1      -1.944   1.845   0.546  1.00  0.00     0.677 A 
HETATM    5  N3  UNL     1      -2.993   1.281  -0.027  1.00  0.00    -0.179 N 
ATOM      6  H3  UNL     1      -3.750   1.878  -0.360  1.00  0.00     0.185 HD
HETATM    7  C6  UNL     1      -3.102  -0.051  -0.188  1.00  0.00     0.152 A 
HETATM    8  S2  UNL     1      -4.394  -0.765  -0.895  1.00  0.00    -0.057 SA
HETATM    9  C7  UNL     1      -2.039  -0.813   0.286  1.00  0.00     0.175 A 
ENDROOT
BRANCH   1  10
HETATM   10  S1  UNL     1       0.410  -1.224   1.463  1.00  0.00    -0.099 SA
BRANCH  10  11
HETATM   11  C3  UNL     1       1.663  -1.638   0.276  1.00  0.00     0.191 C 
BRANCH  11  12
HETATM   12  C2  UNL     1       2.447  -0.459  -0.121  1.00  0.00     0.268 C 
HETATM   13  O2  UNL     1       2.247   0.658   0.384  1.00  0.00    -0.264 OA
BRANCH  12  14
HETATM   14  O1  UNL     1       3.435  -0.598  -1.083  1.00  0.00    -0.326 OA
HETATM   15  C1  UNL     1       4.178   0.551  -1.450  1.00  0.00     0.213 C 
ENDBRANCH  12  14
ENDBRANCH  11  12
ENDBRANCH  10  11
ENDBRANCH   1  10
BRANCH   9  16
HETATM   16  N4  UNL     1      -2.073  -2.209   0.172  1.00  0.00    -0.110 N 
HETATM   17  O3  UNL     1      -1.189  -2.979   0.577  1.00  0.00    -0.532 OA
HETATM   18  O4  UNL     1      -3.164  -2.793  -0.428  1.00  0.00    -0.532 OA
ENDBRANCH   9  16
BRANCH   4  19
HETATM   19  N2  UNL     1      -1.906   3.133   0.666  1.00  0.00    -0.234 N 
ATOM     20  H22 UNL     1      -1.096   3.568   1.108  1.00  0.00     0.174 HD
ATOM     21  H21 UNL     1      -2.682   3.697   0.321  1.00  0.00     0.174 HD
ENDBRANCH   4  19
TORSDOF 6
