REMARK  6 active torsions:
REMARK  status: ('A' for Active; 'I' for Inactive)
REMARK    1  A    between atoms: C2_2  and  S1_3 
REMARK    2  A    between atoms: S1_3  and  C3_4 
REMARK    3  A    between atoms: C4_6  and  C5_7 
REMARK    4  A    between atoms: C5_7  and  O3_9 
REMARK    5  A    between atoms: O3_9  and  N1_10 
REMARK       I    between atoms: N1_10  and  C6_12 
REMARK       I    between atoms: C6_12  and  N3_16 
REMARK    6  A    between atoms: N3_16  and  N4_18 
ROOT
HETATM    1  O3  UNL     1       2.387  -0.879  -0.476  1.00  0.00    -0.178 OA
ENDROOT
BRANCH   1   2
HETATM    2  C5  UNL     1       1.446  -1.385   0.405  1.00  0.00     0.339 C 
HETATM    3  O2  UNL     1       1.832  -2.144   1.322  1.00  0.00    -0.255 OA
BRANCH   2   4
HETATM    4  C4  UNL     1       0.013  -1.044   0.276  1.00  0.00     0.154 A 
HETATM    5  O1  UNL     1      -0.491  -0.277  -0.625  1.00  0.00    -0.297 OA
HETATM    6  C3  UNL     1      -1.818  -0.187  -0.446  1.00  0.00     0.118 A 
HETATM    7  C8  UNL     1      -2.164  -0.953   0.644  1.00  0.00    -0.018 A 
HETATM    8  C7  UNL     1      -0.961  -1.504   1.102  1.00  0.00     0.053 A 
HETATM    9  C9  UNL     1      -3.496  -1.185   1.228  1.00  0.00     0.052 C 
BRANCH   6  10
HETATM   10  S1  UNL     1      -2.768   0.807  -1.549  1.00  0.00    -0.105 SA
BRANCH  10  11
HETATM   11  C2  UNL     1      -4.494   0.929  -1.228  1.00  0.00     0.077 C 
HETATM   12  C1  UNL     1      -4.762   1.719   0.038  1.00  0.00     0.016 C 
ENDBRANCH  10  11
ENDBRANCH   6  10
ENDBRANCH   2   4
ENDBRANCH   1   2
BRANCH   1  13
HETATM   13  N1  UNL     1       3.727  -1.147  -0.423  1.00  0.00    -0.086 N 
HETATM   14  C6  UNL     1       4.649  -0.152  -0.002  1.00  0.00     0.715 C 
HETATM   15  N2  UNL     1       4.953  -0.158   1.247  1.00  0.00    -0.232 N 
HETATM   16  N3  UNL     1       5.218   0.799  -0.865  1.00  0.00    -0.070 N 
ATOM     17  H22 UNL     1       4.540  -0.849   1.874  1.00  0.00     0.174 HD
ATOM     18  H21 UNL     1       5.615   0.557   1.549  1.00  0.00     0.174 HD
ATOM     19  H3  UNL     1       5.011   0.761  -1.863  1.00  0.00     0.212 HD
ATOM     20  H1  UNL     1       4.068  -2.071  -0.689  1.00  0.00     0.214 HD
BRANCH  16  21
HETATM   21  N4  UNL     1       6.053   1.782  -0.380  1.00  0.00    -0.024 N 
HETATM   22  O4  UNL     1       7.276   1.790  -0.657  1.00  0.00    -0.516 OA
HETATM   23  O5  UNL     1       5.611   2.811   0.434  1.00  0.00    -0.516 OA
ENDBRANCH  16  21
ENDBRANCH   1  13
TORSDOF 6
