REMARK  5 active torsions:
REMARK  status: ('A' for Active; 'I' for Inactive)
REMARK    1  A    between atoms: O1_2  and  C2_3 
REMARK    2  A    between atoms: C5_7  and  C6_8 
REMARK    3  A    between atoms: C6_8  and  N1_9 
REMARK    4  A    between atoms: N1_9  and  C7_11 
REMARK    5  A    between atoms: C17_21  and  O2_22 
ROOT
HETATM    1  N1  UNL     1       0.247  -0.468  -0.301  1.00  0.00    -0.389 N 
ATOM      2  H1  UNL     1       0.499  -0.958  -1.160  1.00  0.00     0.159 HD
ENDROOT
BRANCH   1   3
HETATM    3  C6  UNL     1       1.181  -0.201   0.519  1.00  0.00     0.099 C 
BRANCH   3   4
HETATM    4  C5  UNL     1       2.570  -0.601   0.207  1.00  0.00     0.028 A 
HETATM    5  C3  UNL     1       2.850  -1.256  -0.960  1.00  0.00    -0.004 A 
HETATM    6  S1  UNL     1       4.531  -1.504  -0.889  1.00  0.00    -0.067 SA
HETATM    7  C4  UNL     1       1.961  -1.689  -2.086  1.00  0.00     0.057 C 
HETATM    8  C2  UNL     1       4.849  -0.776   0.616  1.00  0.00     0.144 A 
HETATM    9  C17 UNL     1       3.612  -0.352   1.027  1.00  0.00     0.119 A 
BRANCH   8  10
HETATM   10  O1  UNL     1       6.089  -0.641   1.280  1.00  0.00    -0.346 OA
HETATM   11  C1  UNL     1       6.735   0.615   1.052  1.00  0.00     0.211 C 
ENDBRANCH   8  10
BRANCH   9  12
HETATM   12  O2  UNL     1       3.522   0.313   2.276  1.00  0.00    -0.357 OA
ATOM     13  H2  UNL     1       2.665   0.607   2.561  1.00  0.00     0.218 HD
ENDBRANCH   9  12
ENDBRANCH   3   4
ENDBRANCH   1   3
BRANCH   1  14
HETATM   14  C7  UNL     1      -1.135  -0.132  -0.109  1.00  0.00     0.030 C 
HETATM   15  C8  UNL     1      -1.544  -0.053   1.348  1.00  0.00     0.035 C 
HETATM   16  C9  UNL     1      -3.006   0.326   1.411  1.00  0.00    -0.012 C 
HETATM   17  C10 UNL     1      -3.908  -0.635   0.710  1.00  0.00     0.009 C 
HETATM   18  C14 UNL     1      -3.215   1.695   0.793  1.00  0.00     0.009 C 
HETATM   19  C11 UNL     1      -3.457  -0.717  -0.733  1.00  0.00    -0.012 C 
HETATM   20  C12 UNL     1      -3.581   0.616  -1.395  1.00  0.00     0.009 C 
HETATM   21  C16 UNL     1      -2.032  -1.158  -0.767  1.00  0.00     0.035 C 
HETATM   22  C13 UNL     1      -2.776   1.657  -0.668  1.00  0.00    -0.012 C 
HETATM   23  C15 UNL     1      -1.342   1.250  -0.692  1.00  0.00     0.035 C 
ENDBRANCH   1  14
TORSDOF 5
