REMARK  4 active torsions:
REMARK  status: ('A' for Active; 'I' for Inactive)
REMARK    1  A    between atoms: S1_2  and  C2_3 
REMARK    2  A    between atoms: C8_13  and  N2_14 
REMARK       I    between atoms: N2_14  and  C9_16 
REMARK    3  A    between atoms: C9_16  and  O2_18 
REMARK    4  A    between atoms: O2_18  and  C10_19 
ROOT
HETATM    1  C2  UNL     1       3.521   0.517   1.542  1.00  0.00     0.112 A 
HETATM    2  N1  UNL     1       2.366   0.539   0.907  1.00  0.00    -0.346 N 
ATOM      3  H1  UNL     1       1.523   0.846   1.392  1.00  0.00     0.167 HD
HETATM    4  C3  UNL     1       2.302   0.169  -0.338  1.00  0.00     0.047 A 
HETATM    5  C4  UNL     1       3.462  -0.233  -0.943  1.00  0.00     0.011 A 
HETATM    6  S2  UNL     1       4.591  -0.051   0.343  1.00  0.00    -0.068 SA
HETATM    7  C5  UNL     1       3.491  -0.677  -2.373  1.00  0.00     0.068 C 
HETATM    8  C6  UNL     1       2.584   0.102  -3.252  1.00  0.00     0.089 C 
HETATM    9 CL1  UNL     1       2.009  -1.009  -4.547  1.00  0.00    -0.125 Cl
HETATM   10  C7  UNL     1       1.434   0.754  -2.562  1.00  0.00     0.052 C 
HETATM   11  C8  UNL     1       1.089   0.119  -1.241  1.00  0.00     0.139 C 
ENDROOT
BRANCH  11  12
HETATM   12  N2  UNL     1      -0.033   0.765  -0.653  1.00  0.00    -0.327 N 
HETATM   13  C9  UNL     1      -1.265   0.130  -0.335  1.00  0.00     0.361 C 
HETATM   14  O1  UNL     1      -1.360  -1.096  -0.596  1.00  0.00    -0.238 OA
ATOM     15  H2  UNL     1       0.052   1.760  -0.443  1.00  0.00     0.165 HD
BRANCH  13  16
HETATM   16  O2  UNL     1      -2.334   0.766   0.230  1.00  0.00    -0.294 OA
BRANCH  16  17
HETATM   17  C10 UNL     1      -3.566   0.169   0.558  1.00  0.00     0.061 C 
HETATM   18  C11 UNL     1      -4.465   1.225   1.161  1.00  0.00     0.046 C 
HETATM   19  C12 UNL     1      -4.273  -0.399  -0.648  1.00  0.00     0.046 C 
HETATM   20  C13 UNL     1      -3.427  -0.949   1.563  1.00  0.00     0.046 C 
ENDBRANCH  16  17
ENDBRANCH  13  16
ENDBRANCH  11  12
BRANCH   1  21
HETATM   21  S1  UNL     1       3.790   0.992   3.257  1.00  0.00    -0.109 SA
HETATM   22  C1  UNL     1       3.564  -0.468   4.310  1.00  0.00     0.097 C 
ENDBRANCH   1  21
TORSDOF 4
