REMARK  3 active torsions:
REMARK  status: ('A' for Active; 'I' for Inactive)
REMARK    1  A    between atoms: C4_6  and  C5_7 
REMARK    2  A    between atoms: N3_13  and  N4_14 
REMARK    3  A    between atoms: C7_16  and  C8_17 
ROOT
HETATM    1  C1  UNL     1       1.882  -0.724  -1.401  1.00  0.00     0.091 C 
HETATM    2  C2  UNL     1       2.552   0.036  -0.290  1.00  0.00     0.103 A 
HETATM    3  N1  UNL     1       3.822  -0.085  -0.131  1.00  0.00    -0.331 N 
ATOM      4  H1  UNL     1       4.334  -0.696  -0.767  1.00  0.00     0.168 HD
HETATM    5  C3  UNL     1       4.547   0.589   0.886  1.00  0.00     0.105 A 
HETATM    6  C4  UNL     1       5.866   0.444   1.027  1.00  0.00     0.037 C 
HETATM    7  N2  UNL     1       3.807   1.433   1.758  1.00  0.00    -0.318 N 
ATOM      8  H2  UNL     1       4.283   1.939   2.505  1.00  0.00     0.170 HD
HETATM    9  C6  UNL     1       2.386   1.573   1.586  1.00  0.00     0.200 A 
HETATM   10  S1  UNL     1       1.517   2.523   2.559  1.00  0.00    -0.038 SA
HETATM   11  N3  UNL     1       1.732   0.857   0.533  1.00  0.00    -0.218 N 
ENDROOT
BRANCH  11  12
HETATM   12  N4  UNL     1       0.373   0.930   0.293  1.00  0.00    -0.300 N 
HETATM   13  C7  UNL     1      -0.438  -0.061   0.453  1.00  0.00     0.127 C 
ATOM     14  H4  UNL     1      -0.011   1.818  -0.029  1.00  0.00     0.186 HD
BRANCH  13  15
HETATM   15  C8  UNL     1      -1.866   0.151   0.161  1.00  0.00     0.028 A 
HETATM   16  S2  UNL     1      -2.619   1.598  -0.386  1.00  0.00    -0.093 SA
HETATM   17  C9  UNL     1      -4.225   1.045  -0.483  1.00  0.00    -0.014 A 
HETATM   18  C10 UNL     1      -5.427   1.822  -0.905  1.00  0.00     0.057 C 
HETATM   19  C11 UNL     1      -4.129  -0.264  -0.082  1.00  0.00    -0.042 A 
HETATM   20  C12 UNL     1      -5.394  -1.099  -0.040  1.00  0.00     0.050 C 
HETATM   21  C13 UNL     1      -2.917  -0.720   0.247  1.00  0.00    -0.036 A 
HETATM   22  C14 UNL     1      -2.661  -2.142   0.707  1.00  0.00     0.050 C 
ENDBRANCH  13  15
ENDBRANCH  11  12
BRANCH   6  23
HETATM   23  C5  UNL     1       6.670  -0.420   0.146  1.00  0.00     0.145 C 
HETATM   24 CL1  UNL     1       7.897   0.606  -0.663  1.00  0.00    -0.126 Cl
ENDBRANCH   6  23
TORSDOF 3
