REMARK  2 active torsions:
REMARK  status: ('A' for Active; 'I' for Inactive)
REMARK    1  A    between atoms: C4_5  and  C5_6 
REMARK    2  A    between atoms: N3_13  and  N4_14 
ROOT
HETATM    1  C5  UNL     1       1.585  -1.745  -1.114  1.00  0.00     0.163 A 
HETATM    2  N1  UNL     1       1.594  -3.116  -1.370  1.00  0.00    -0.281 N 
ATOM      3  H1  UNL     1       2.415  -3.719  -1.317  1.00  0.00     0.188 HD
HETATM    4  N2  UNL     1       0.386  -3.509  -1.689  1.00  0.00    -0.273 N 
ATOM      5  H2  UNL     1       0.123  -4.466  -1.923  1.00  0.00     0.189 HD
HETATM    6  C6  UNL     1      -0.450  -2.466  -1.661  1.00  0.00     0.214 A 
HETATM    7  S2  UNL     1      -2.038  -2.434  -1.993  1.00  0.00    -0.037 SA
HETATM    8  N3  UNL     1       0.327  -1.390  -1.298  1.00  0.00    -0.210 N 
ENDROOT
BRANCH   8   9
HETATM    9  N4  UNL     1      -0.263  -0.147  -1.122  1.00  0.00    -0.298 N 
HETATM   10  C7  UNL     1      -0.966   0.153  -0.071  1.00  0.00     0.004 C 
HETATM   11  C8  UNL     1      -1.248  -0.728   1.065  1.00  0.00     0.054 C 
HETATM   12  C13 UNL     1      -1.528   1.529  -0.042  1.00  0.00     0.054 C 
HETATM   13  C9  UNL     1      -2.711  -0.649   1.440  1.00  0.00     0.010 C 
HETATM   14  C10 UNL     1      -3.217   0.735   1.630  1.00  0.00    -0.018 C 
HETATM   15  C11 UNL     1      -4.537   0.974   0.889  1.00  0.00     0.010 C 
HETATM   16  C12 UNL     1      -2.244   1.807   1.259  1.00  0.00     0.010 C 
ATOM     17  H4  UNL     1      -0.140   0.560  -1.847  1.00  0.00     0.187 HD
ENDBRANCH   8   9
BRANCH   1  18
HETATM   18  C4  UNL     1       2.771  -1.020  -0.695  1.00  0.00     0.074 A 
HETATM   19  S1  UNL     1       4.088  -1.845   0.104  1.00  0.00    -0.096 SA
HETATM   20  C3  UNL     1       5.090  -0.509   0.434  1.00  0.00     0.059 A 
HETATM   21  C2  UNL     1       4.379   0.538  -0.085  1.00  0.00    -0.032 A 
HETATM   22  C1  UNL     1       4.979   1.931   0.026  1.00  0.00     0.050 C 
HETATM   23  C14 UNL     1       3.190   0.254  -0.662  1.00  0.00     0.061 A 
HETATM   24 CL1  UNL     1       2.245   1.560  -1.455  1.00  0.00    -0.082 Cl
ENDBRANCH   1  18
TORSDOF 2
