REMARK  2 active torsions:
REMARK  status: ('A' for Active; 'I' for Inactive)
REMARK    1  A    between atoms: C5_5  and  N1_6 
REMARK    2  A    between atoms: N1_6  and  N2_8 
ROOT
HETATM    1  N2  UNL     1       1.720  -1.761   0.241  1.00  0.00    -0.297 N 
ATOM      2  H2  UNL     1       1.716  -2.313   1.099  1.00  0.00     0.187 HD
HETATM    3  C6  UNL     1       0.689  -1.060  -0.004  1.00  0.00     0.073 C 
HETATM    4  C7  UNL     1      -0.466  -1.069   0.953  1.00  0.00     0.104 C 
HETATM    5  C8  UNL     1      -1.690  -1.116   0.089  1.00  0.00    -0.030 C 
HETATM    6  C9  UNL     1      -2.249  -2.274  -0.129  1.00  0.00     0.192 C 
HETATM    7  F1  UNL     1      -1.724  -3.433   0.426  1.00  0.00    -0.219 F 
HETATM    8  C10 UNL     1      -2.206   0.139  -0.475  1.00  0.00     0.057 C 
HETATM    9  C11 UNL     1      -3.482  -0.103  -1.230  1.00  0.00     0.023 C 
HETATM   10  C12 UNL     1      -4.595  -0.231  -0.215  1.00  0.00     0.002 C 
HETATM   11  C13 UNL     1      -4.970   1.209   0.165  1.00  0.00     0.000 C 
HETATM   12  C14 UNL     1      -3.681   2.000   0.187  1.00  0.00     0.002 C 
HETATM   13  C15 UNL     1      -2.493   1.169   0.599  1.00  0.00     0.023 C 
HETATM   14  C16 UNL     1      -1.135   0.654  -1.408  1.00  0.00     0.204 C 
HETATM   15  O1  UNL     1      -1.419   1.565  -2.148  1.00  0.00    -0.284 OA
HETATM   16  S1  UNL     1       0.513  -0.027  -1.455  1.00  0.00    -0.036 SA
ENDROOT
BRANCH   1  17
HETATM   17  N1  UNL     1       2.843  -1.839  -0.553  1.00  0.00    -0.293 N 
ATOM     18  H1  UNL     1       2.862  -2.500  -1.330  1.00  0.00     0.187 HD
BRANCH  17  19
HETATM   19  C5  UNL     1       3.998  -1.000  -0.306  1.00  0.00     0.089 A 
HETATM   20  C4  UNL     1       4.309   0.195  -0.902  1.00  0.00     0.039 A 
HETATM   21  C3  UNL     1       5.434   0.805  -0.503  1.00  0.00     0.017 A 
HETATM   22  C2  UNL     1       6.177   0.182   0.465  1.00  0.00    -0.019 A 
HETATM   23  C1  UNL     1       7.472   0.659   1.080  1.00  0.00     0.056 C 
HETATM   24  S2  UNL     1       5.287  -1.230   0.789  1.00  0.00    -0.076 SA
ENDBRANCH  17  19
ENDBRANCH   1  17
TORSDOF 2
