REMARK  7 active torsions:
REMARK  status: ('A' for Active; 'I' for Inactive)
REMARK    1  A    between atoms: N2_6  and  N3_7 
REMARK    2  A    between atoms: C4_9  and  C5_10 
REMARK    3  A    between atoms: C7_12  and  S1_13 
REMARK    4  A    between atoms: S1_13  and  C8_14 
REMARK    5  A    between atoms: C8_14  and  C9_15 
REMARK    6  A    between atoms: C15_21  and  O1_22 
REMARK    7  A    between atoms: C17_25  and  O2_26 
ROOT
HETATM    1  C5  UNL     1       1.864  -1.954  -0.339  1.00  0.00     0.015 A 
HETATM    2  C6  UNL     1       0.744  -1.389   0.238  1.00  0.00     0.037 A 
HETATM    3  C7  UNL     1      -0.543  -1.831   0.019  1.00  0.00     0.034 A 
HETATM    4  C15 UNL     1      -0.718  -2.901  -0.828  1.00  0.00     0.085 A 
HETATM    5  C16 UNL     1       0.378  -3.491  -1.424  1.00  0.00     0.075 A 
HETATM    6  C17 UNL     1       1.657  -3.034  -1.191  1.00  0.00     0.080 A 
ENDROOT
BRANCH   1   7
HETATM    7  C4  UNL     1       3.214  -1.437  -0.067  1.00  0.00     0.122 C 
HETATM    8  N3  UNL     1       3.326  -0.451   0.718  1.00  0.00    -0.303 N 
ATOM      9  H3  UNL     1       2.458  -0.083   1.108  1.00  0.00     0.186 HD
BRANCH   8  10
HETATM   10  N2  UNL     1       4.485   0.181   1.105  1.00  0.00    -0.255 N 
HETATM   11  C3  UNL     1       5.013   0.151   2.339  1.00  0.00     0.207 A 
HETATM   12  N1  UNL     1       6.154   0.881   2.366  1.00  0.00    -0.353 N 
HETATM   13  C2  UNL     1       6.365   1.382   1.153  1.00  0.00     0.030 A 
ATOM     14  H1  UNL     1       6.751   1.022   3.181  1.00  0.00     0.166 HD
HETATM   15  C1  UNL     1       7.488   2.242   0.706  1.00  0.00     0.070 C 
HETATM   16  C18 UNL     1       5.304   0.936   0.357  1.00  0.00     0.053 A 
HETATM   17  C19 UNL     1       5.113   1.240  -1.063  1.00  0.00     0.072 C 
ENDBRANCH   8  10
ENDBRANCH   1   7
BRANCH   6  18
HETATM   18  O2  UNL     1       2.783  -3.613  -1.780  1.00  0.00    -0.360 OA
ATOM     19  H2  UNL     1       2.642  -4.351  -2.362  1.00  0.00     0.217 HD
ENDBRANCH   6  18
BRANCH   3  20
HETATM   20  S1  UNL     1      -1.906  -1.024   0.818  1.00  0.00    -0.127 SA
BRANCH  20  21
HETATM   21  C8  UNL     1      -2.557   0.336  -0.190  1.00  0.00     0.084 C 
BRANCH  21  22
HETATM   22  C9  UNL     1      -3.712   0.970   0.560  1.00  0.00    -0.005 C 
HETATM   23  C10 UNL     1      -4.232   2.096  -0.303  1.00  0.00     0.005 C 
HETATM   24  C11 UNL     1      -5.559   1.695  -0.943  1.00  0.00     0.000 C 
HETATM   25  C12 UNL     1      -6.569   1.613   0.180  1.00  0.00     0.000 C 
HETATM   26  C13 UNL     1      -6.115   0.579   1.151  1.00  0.00     0.000 C 
HETATM   27  C14 UNL     1      -4.788  -0.033   0.827  1.00  0.00     0.005 C 
ENDBRANCH  21  22
ENDBRANCH  20  21
ENDBRANCH   3  20
BRANCH   4  28
HETATM   28  O1  UNL     1      -2.016  -3.336  -1.040  1.00  0.00    -0.359 OA
ATOM     29  H1  UNL     1      -2.137  -4.075  -1.625  1.00  0.00     0.217 HD
ENDBRANCH   4  28
TORSDOF 7
