REMARK  3 active torsions:
REMARK  status: ('A' for Active; 'I' for Inactive)
REMARK    1  A    between atoms: O1_2  and  C2_3 
REMARK    2  A    between atoms: C3_6  and  N2_7 
REMARK    3  A    between atoms: C10_15  and  N3_16 
ROOT
HETATM    1  C2  UNL     1       3.404   1.521  -0.991  1.00  0.00     0.225 A 
HETATM    2  N1  UNL     1       4.649   1.074  -0.802  1.00  0.00    -0.307 N 
ATOM      3  H1  UNL     1       5.444   1.649  -1.081  1.00  0.00     0.171 HD
HETATM    4  C3  UNL     1       4.859  -0.151  -0.236  1.00  0.00     0.118 A 
HETATM    5  C6  UNL     1       3.728  -0.874   0.116  1.00  0.00     0.037 A 
HETATM    6  C7  UNL     1       3.877  -2.120   0.684  1.00  0.00     0.021 A 
HETATM    7  C8  UNL     1       2.752  -2.847   1.032  1.00  0.00     0.046 A 
HETATM    8  C9  UNL     1       1.501  -2.327   0.810  1.00  0.00     0.145 A 
HETATM    9  F1  UNL     1       0.440  -3.087   1.172  1.00  0.00    -0.204 F 
HETATM   10  C10 UNL     1       1.304  -1.085   0.243  1.00  0.00     0.097 A 
HETATM   11  C22 UNL     1       2.444  -0.387  -0.091  1.00  0.00     0.079 A 
HETATM   12  N4  UNL     1       2.318   0.822  -0.650  1.00  0.00    -0.319 N 
ATOM     13  H4  UNL     1       1.390   1.211  -0.816  1.00  0.00     0.169 HD
ENDROOT
BRANCH  10  14
HETATM   14  N3  UNL     1      -0.002  -0.570   0.025  1.00  0.00    -0.376 N 
HETATM   15  C11 UNL     1      -0.638   0.212   1.062  1.00  0.00     0.126 C 
HETATM   16  C12 UNL     1      -1.848   0.955   0.562  1.00  0.00     0.061 C 
HETATM   17  C13 UNL     1      -2.791   0.111  -0.227  1.00  0.00     0.102 C 
HETATM   18  C14 UNL     1      -2.164  -1.160  -0.750  1.00  0.00     0.061 C 
HETATM   19  C16 UNL     1      -4.015  -0.168   0.620  1.00  0.00     0.082 C 
HETATM   20  O3  UNL     1      -3.348   0.773  -1.323  1.00  0.00    -0.229 OA
HETATM   21  C15 UNL     1      -0.746  -0.784  -1.191  1.00  0.00     0.126 C 
HETATM   22  C17 UNL     1      -5.125   0.263  -0.332  1.00  0.00     0.099 C 
HETATM   23  C18 UNL     1      -6.316  -0.615  -0.171  1.00  0.00     0.041 C 
HETATM   24  C21 UNL     1      -5.603   1.652  -0.071  1.00  0.00     0.041 C 
HETATM   25  O2  UNL     1      -4.493   0.126  -1.563  1.00  0.00    -0.229 OA
HETATM   26  C19 UNL     1      -7.046   0.029   0.991  1.00  0.00     0.003 C 
HETATM   27  C20 UNL     1      -6.731   1.489   0.892  1.00  0.00     0.003 C 
ENDBRANCH  10  14
BRANCH   4  28
HETATM   28  N2  UNL     1       6.181  -0.612  -0.020  1.00  0.00    -0.375 N 
HETATM   29  C4  UNL     1       6.729  -0.779   1.300  1.00  0.00     0.150 C 
HETATM   30  C5  UNL     1       6.999  -0.920  -1.167  1.00  0.00     0.150 C 
ENDBRANCH   4  28
BRANCH   1  31
HETATM   31  O1  UNL     1       3.158   2.781  -1.572  1.00  0.00    -0.327 OA
HETATM   32  C1  UNL     1       4.250   3.562  -1.951  1.00  0.00     0.213 C 
ENDBRANCH   1  31
TORSDOF 3
