REMARK  3 active torsions:
REMARK  status: ('A' for Active; 'I' for Inactive)
REMARK    1  A    between atoms: C2_2  and  C4_4 
REMARK    2  A    between atoms: C4_4  and  C5_5 
REMARK    3  A    between atoms: C14_20  and  C15_21 
ROOT
HETATM    1  C5  UNL     1      -4.987  -0.529   1.260  1.00  0.00     0.134 C 
HETATM    2  C6  UNL     1      -5.238  -1.741   0.407  1.00  0.00     0.062 C 
HETATM    3  C7  UNL     1      -4.057  -2.014  -0.424  1.00  0.00     0.017 C 
HETATM    4  C8  UNL     1      -2.830  -1.661  -0.024  1.00  0.00     0.124 A 
HETATM    5  O1  UNL     1      -1.574  -1.792  -0.590  1.00  0.00    -0.265 OA
HETATM    6  C9  UNL     1      -0.635  -1.235   0.289  1.00  0.00     0.437 A 
HETATM    7  N1  UNL     1      -1.403  -0.768   1.392  1.00  0.00    -0.284 N 
ATOM      8  H1  UNL     1      -1.000  -0.305   2.207  1.00  0.00     0.169 HD
HETATM    9  C10 UNL     1      -2.647  -0.991   1.251  1.00  0.00     0.179 A 
HETATM   10  O2  UNL     1      -3.799  -0.739   2.021  1.00  0.00    -0.328 OA
HETATM   11  O3  UNL     1       0.222  -2.301   0.655  1.00  0.00    -0.144 OA
HETATM   12  O4  UNL     1       1.049  -2.436  -0.386  1.00  0.00    -0.191 OA
HETATM   13  C11 UNL     1       1.998  -1.403  -0.199  1.00  0.00     0.230 C 
HETATM   14  C12 UNL     1       2.694  -1.055  -1.478  1.00  0.00     0.075 C 
HETATM   15  C13 UNL     1       3.640   0.086  -1.192  1.00  0.00     0.015 C 
HETATM   16  C14 UNL     1       4.681  -0.405  -0.214  1.00  0.00     0.019 C 
HETATM   17  C21 UNL     1       4.058  -0.862   1.089  1.00  0.00     0.015 C 
HETATM   18  C22 UNL     1       3.000  -1.903   0.792  1.00  0.00     0.075 C 
HETATM   19  O5  UNL     1       1.341  -0.245   0.265  1.00  0.00    -0.191 OA
HETATM   20  O6  UNL     1       0.141  -0.246  -0.306  1.00  0.00    -0.144 OA
ENDROOT
BRANCH   1  21
HETATM   21  C4  UNL     1      -4.907   0.688   0.386  1.00  0.00     0.036 C 
BRANCH  21  22
HETATM   22  C2  UNL     1      -6.179   0.902  -0.377  1.00  0.00    -0.020 C 
HETATM   23  C1  UNL     1      -7.331   1.082   0.587  1.00  0.00     0.009 C 
HETATM   24  C3  UNL     1      -6.052   2.223  -1.124  1.00  0.00     0.009 C 
ENDBRANCH  21  22
ENDBRANCH   1  21
BRANCH  16  25
HETATM   25  C15 UNL     1       5.630   0.686   0.108  1.00  0.00    -0.051 A 
HETATM   26  C16 UNL     1       5.250   1.876   0.690  1.00  0.00     0.007 A 
HETATM   27  C17 UNL     1       6.189   2.860   0.966  1.00  0.00     0.004 A 
HETATM   28  C18 UNL     1       7.519   2.650   0.658  1.00  0.00     0.042 A 
HETATM   29  C19 UNL     1       7.894   1.462   0.078  1.00  0.00     0.116 A 
HETATM   30  F1  UNL     1       9.195   1.244  -0.230  1.00  0.00    -0.206 F 
HETATM   31  C20 UNL     1       6.957   0.500  -0.189  1.00  0.00     0.049 A 
ENDBRANCH  16  25
TORSDOF 3
