REMARK  3 active torsions:
REMARK  status: ('A' for Active; 'I' for Inactive)
REMARK    1  A    between atoms: C4_5  and  N1_6 
REMARK    2  A    between atoms: N2_9  and  C7_10 
REMARK    3  A    between atoms: C10_16  and  C11_17 
ROOT
HETATM    1  N1  UNL     1      -1.613   0.679  -0.279  1.00  0.00    -0.354 N 
HETATM    2  C5  UNL     1      -1.939   1.847  -1.067  1.00  0.00     0.145 C 
HETATM    3  C6  UNL     1      -0.588   2.345  -1.517  1.00  0.00     0.149 C 
HETATM    4  N2  UNL     1       0.197   2.083  -0.333  1.00  0.00    -0.320 N 
HETATM    5  C10 UNL     1      -0.323   0.881   0.287  1.00  0.00     0.224 C 
ENDROOT
BRANCH   5   6
HETATM    6  C11 UNL     1       0.673  -0.176   0.015  1.00  0.00    -0.013 A 
HETATM    7  C12 UNL     1       0.795  -0.836  -1.183  1.00  0.00     0.014 A 
HETATM    8  C13 UNL     1       1.782  -1.798  -1.337  1.00  0.00     0.040 A 
HETATM    9  C14 UNL     1       2.649  -2.114  -0.317  1.00  0.00     0.105 A 
HETATM   10  C15 UNL     1       2.545  -1.466   0.890  1.00  0.00     0.105 A 
HETATM   11  O3  UNL     1       3.712  -3.024  -0.205  1.00  0.00    -0.323 OA
HETATM   12  C16 UNL     1       1.555  -0.512   1.020  1.00  0.00     0.050 A 
HETATM   13  O2  UNL     1       3.530  -1.982   1.705  1.00  0.00    -0.323 OA
HETATM   14  C17 UNL     1       3.899  -3.243   1.189  1.00  0.00     0.352 C 
ENDBRANCH   5   6
BRANCH   1  15
HETATM   15  C4  UNL     1      -2.485  -0.433  -0.141  1.00  0.00     0.032 A 
HETATM   16  C3  UNL     1      -3.683  -0.506  -0.851  1.00  0.00     0.031 A 
HETATM   17  C2  UNL     1      -4.554  -1.576  -0.732  1.00  0.00     0.021 A 
HETATM   18  C1  UNL     1      -4.247  -2.612   0.109  1.00  0.00     0.011 A 
HETATM   19 BR1  UNL     1      -5.445  -4.102   0.285  1.00  0.00    -0.051 Br
HETATM   20  C19 UNL     1      -3.090  -2.580   0.818  1.00  0.00     0.021 A 
HETATM   21  C18 UNL     1      -2.242  -1.503   0.680  1.00  0.00     0.031 A 
ENDBRANCH   1  15
BRANCH   4  22
HETATM   22  C7  UNL     1       1.280   2.861   0.139  1.00  0.00     0.228 A 
HETATM   23  N3  UNL     1       2.595   2.773  -0.125  1.00  0.00    -0.330 N 
HETATM   24  C8  UNL     1       3.263   3.738   0.560  1.00  0.00     0.116 A 
ATOM     25  H3  UNL     1       3.026   2.087  -0.745  1.00  0.00     0.168 HD
HETATM   26  C9  UNL     1       2.278   4.412   1.251  1.00  0.00     0.162 A 
HETATM   27  O1  UNL     1       1.125   3.870   0.980  1.00  0.00    -0.290 OA
ENDBRANCH   4  22
TORSDOF 3
