REMARK  5 active torsions:
REMARK  status: ('A' for Active; 'I' for Inactive)
REMARK    1  A    between atoms: C2_2  and  O2_4 
REMARK    2  A    between atoms: O2_4  and  C3_5 
REMARK    3  A    between atoms: C3_5  and  C4_6 
REMARK    4  A    between atoms: N1_8  and  C6_10 
REMARK    5  A    between atoms: C13_18  and  C14_20 
ROOT
HETATM    1  C3  UNL     1       0.256  -0.295  -0.401  1.00  0.00     0.226 C 
HETATM    2  S1  UNL     1       0.022   0.085   1.400  1.00  0.00    -0.071 SA
HETATM    3  C12 UNL     1       1.746   0.047   0.972  1.00  0.00     0.078 C 
HETATM    4  C13 UNL     1       2.819   0.733   1.334  1.00  0.00     0.082 C 
HETATM    5 CL1  UNL     1       2.659   2.014   2.506  1.00  0.00    -0.080 Cl
HETATM    6  C18 UNL     1       1.449  -1.054   0.070  1.00  0.00     0.219 C 
HETATM    7  O3  UNL     1       2.041  -2.140  -0.128  1.00  0.00    -0.287 OA
ENDROOT
BRANCH   1   8
HETATM    8  O2  UNL     1       0.463   0.905  -1.049  1.00  0.00    -0.284 OA
BRANCH   8   9
HETATM    9  C2  UNL     1       0.785   1.106  -2.352  1.00  0.00     0.257 C 
HETATM   10  C1  UNL     1       0.977   2.489  -2.932  1.00  0.00     0.126 C 
HETATM   11  O1  UNL     1       0.933   0.127  -3.119  1.00  0.00    -0.266 OA
ENDBRANCH   8   9
ENDBRANCH   1   8
BRANCH   1  12
HETATM   12  C4  UNL     1      -0.845  -1.146  -0.900  1.00  0.00     0.033 C 
HETATM   13  C5  UNL     1      -0.624  -2.237  -1.933  1.00  0.00     0.068 C 
HETATM   14  N1  UNL     1      -2.008  -1.015  -0.538  1.00  0.00    -0.389 N 
ATOM     15  H1  UNL     1      -2.578  -1.713  -1.017  1.00  0.00     0.159 HD
BRANCH  14  16
HETATM   16  C6  UNL     1      -2.820  -0.273   0.275  1.00  0.00     0.081 C 
HETATM   17  C7  UNL     1      -4.045   0.149  -0.588  1.00  0.00     0.025 C 
HETATM   18  C8  UNL     1      -4.943   1.073   0.187  1.00  0.00     0.002 C 
HETATM   19  C9  UNL     1      -5.524   0.297   1.371  1.00  0.00     0.000 C 
HETATM   20  C10 UNL     1      -4.328  -0.120   2.206  1.00  0.00     0.002 C 
HETATM   21  C11 UNL     1      -3.424  -1.048   1.440  1.00  0.00     0.025 C 
ENDBRANCH  14  16
ENDBRANCH   1  12
BRANCH   4  22
HETATM   22  C14 UNL     1       4.162   0.420   0.761  1.00  0.00     0.062 A 
HETATM   23  C15 UNL     1       4.311   0.084  -0.562  1.00  0.00     0.082 A 
HETATM   24  S2  UNL     1       5.999  -0.175  -0.662  1.00  0.00    -0.087 SA
HETATM   25  C16 UNL     1       6.405   0.153   0.962  1.00  0.00     0.047 A 
HETATM   26  C17 UNL     1       7.759   0.119   1.635  1.00  0.00     0.076 C 
HETATM   27  N2  UNL     1       5.230   0.444   1.495  1.00  0.00    -0.352 N 
ATOM     28  H2  UNL     1       5.164   0.687   2.483  1.00  0.00     0.166 HD
ENDBRANCH   4  22
TORSDOF 5
