REMARK  4 active torsions:
REMARK  status: ('A' for Active; 'I' for Inactive)
REMARK    1  A    between atoms: C2_2  and  C3_3 
REMARK    2  A    between atoms: C3_3  and  S1_4 
REMARK    3  A    between atoms: S1_4  and  C4_5 
REMARK    4  A    between atoms: C5_6  and  N1_7 
ROOT
HETATM    1  C4  UNL     1       0.882  -0.809   0.035  1.00  0.00     0.085 C 
HETATM    2  C5  UNL     1       0.025  -1.437  -0.753  1.00  0.00     0.128 C 
HETATM    3  C6  UNL     1      -1.410  -1.614  -0.775  1.00  0.00     0.051 C 
HETATM    4  C7  UNL     1      -2.322  -0.561  -0.374  1.00  0.00    -0.011 A 
HETATM    5  C8  UNL     1      -3.372  -0.430  -1.303  1.00  0.00     0.014 A 
HETATM    6  C9  UNL     1      -4.382   0.453  -1.173  1.00  0.00     0.020 A 
HETATM    7  C10 UNL     1      -4.413   1.289  -0.086  1.00  0.00     0.012 A 
HETATM    8 BR1  UNL     1      -5.850   2.518   0.093  1.00  0.00    -0.051 Br
HETATM    9  C11 UNL     1      -3.407   1.207   0.860  1.00  0.00     0.044 A 
HETATM   10  C12 UNL     1      -2.372   0.281   0.708  1.00  0.00     0.081 A 
HETATM   11  S2  UNL     1      -1.299   0.428   2.083  1.00  0.00     0.236 S 
HETATM   12  O3  UNL     1      -1.465   1.826   2.661  1.00  0.00    -0.211 OA
HETATM   13  O4  UNL     1      -1.581  -0.600   3.147  1.00  0.00    -0.211 OA
HETATM   14  S3  UNL     1       0.641   0.253   1.435  1.00  0.00     0.018 SA
ENDROOT
BRANCH   1  15
HETATM   15  S1  UNL     1       2.582  -1.129  -0.376  1.00  0.00    -0.119 SA
BRANCH  15  16
HETATM   16  C3  UNL     1       3.797  -0.423   0.700  1.00  0.00     0.080 C 
BRANCH  16  17
HETATM   17  C2  UNL     1       4.516   0.737   0.126  1.00  0.00     0.006 C 
HETATM   18  C1  UNL     1       3.667   1.866  -0.270  1.00  0.00     0.006 C 
ENDBRANCH  16  17
ENDBRANCH  15  16
ENDBRANCH   1  15
BRANCH   2  19
HETATM   19  N1  UNL     1       0.685  -2.225  -1.785  1.00  0.00    -0.114 N 
HETATM   20  O1  UNL     1       1.153  -3.346  -1.573  1.00  0.00    -0.532 OA
HETATM   21  O2  UNL     1       0.723  -1.615  -3.005  1.00  0.00    -0.532 OA
ENDBRANCH   2  19
TORSDOF 4
