REMARK  5 active torsions:
REMARK  status: ('A' for Active; 'I' for Inactive)
REMARK    1  A    between atoms: C2_3  and  C3_4 
REMARK    2  A    between atoms: C5_7  and  N2_8 
REMARK    3  A    between atoms: N2_8  and  N3_10 
REMARK    4  A    between atoms: C6_12  and  C7_13 
REMARK    5  A    between atoms: C12_20  and  O1_21 
ROOT
HETATM    1  C3  UNL     1      -1.617  -0.487  -2.270  1.00  0.00     0.060 A 
HETATM    2  C4  UNL     1      -2.429  -1.169  -3.147  1.00  0.00     0.084 A 
HETATM    3  S1  UNL     1      -1.894  -2.776  -2.995  1.00  0.00    -0.062 SA
HETATM    4  C5  UNL     1      -0.672  -2.518  -1.836  1.00  0.00     0.163 A 
HETATM    5  N4  UNL     1      -0.727  -1.206  -1.614  1.00  0.00    -0.334 N 
ATOM      6  H4  UNL     1      -0.092  -0.765  -0.948  1.00  0.00     0.168 HD
ENDROOT
BRANCH   4   7
HETATM    7  N2  UNL     1       0.120  -3.414  -1.303  1.00  0.00    -0.280 N 
ATOM      8  H2  UNL     1       0.035  -4.391  -1.584  1.00  0.00     0.189 HD
BRANCH   7   9
HETATM    9  N3  UNL     1       1.060  -3.060  -0.375  1.00  0.00    -0.309 N 
HETATM   10  C6  UNL     1       0.806  -2.654   0.814  1.00  0.00     0.123 C 
ATOM     11  H3  UNL     1       2.040  -3.124  -0.651  1.00  0.00     0.186 HD
BRANCH  10  12
HETATM   12  C7  UNL     1       1.788  -2.278   1.803  1.00  0.00     0.037 A 
HETATM   13  C8  UNL     1       3.129  -2.339   1.503  1.00  0.00     0.048 A 
HETATM   14 CL1  UNL     1       3.731  -2.854  -0.046  1.00  0.00    -0.083 Cl
HETATM   15  C9  UNL     1       4.050  -1.974   2.482  1.00  0.00     0.026 A 
HETATM   16  C10 UNL     1       3.633  -1.558   3.730  1.00  0.00     0.024 A 
HETATM   17  C11 UNL     1       2.296  -1.497   4.030  1.00  0.00     0.045 A 
HETATM   18 BR1  UNL     1       1.683  -0.930   5.742  1.00  0.00    -0.048 Br
HETATM   19  C12 UNL     1       1.380  -1.863   3.047  1.00  0.00     0.096 A 
BRANCH  19  20
HETATM   20  O1  UNL     1       0.034  -1.796   3.366  1.00  0.00    -0.358 OA
ATOM     21  H1  UNL     1      -0.248  -1.509   4.226  1.00  0.00     0.217 HD
ENDBRANCH  19  20
ENDBRANCH  10  12
ENDBRANCH   7   9
ENDBRANCH   4   7
BRANCH   1  22
HETATM   22  C2  UNL     1      -1.781   0.999  -2.113  1.00  0.00     0.058 A 
HETATM   23  C1  UNL     1      -1.120   1.905  -1.374  1.00  0.00     0.084 A 
HETATM   24  N1  UNL     1       0.002   1.561  -0.518  1.00  0.00    -0.099 NA
HETATM   25  C16 UNL     1      -1.542   3.213  -1.451  1.00  0.00     0.047 A 
HETATM   26  C13 UNL     1      -2.566   3.509  -2.241  1.00  0.00     0.025 A 
HETATM   27  S3  UNL     1      -1.147   4.789  -0.796  1.00  0.00    -0.099 SA
HETATM   28  S2  UNL     1      -2.962   1.942  -2.899  1.00  0.00    -0.085 SA
HETATM   29  C14 UNL     1      -2.993   4.808  -2.327  1.00  0.00     0.027 A 
HETATM   30  C15 UNL     1      -2.329   5.726  -1.585  1.00  0.00     0.052 A 
ENDBRANCH   1  22
TORSDOF 5
