REMARK  3 active torsions:
REMARK  status: ('A' for Active; 'I' for Inactive)
REMARK    1  A    between atoms: C4_8  and  S1_9 
REMARK    2  A    between atoms: S1_9  and  C5_10 
REMARK    3  A    between atoms: C11_26  and  C12_27 
ROOT
HETATM    1  C1  UNL     1      -1.124  -4.466   0.612  1.00  0.00     0.063 C 
HETATM    2  C2  UNL     1      -0.722  -3.006   0.798  1.00  0.00    -0.015 C 
HETATM    3  N1  UNL     1       0.516  -2.716   0.928  1.00  0.00    -0.349 N 
ATOM      4  H1  UNL     1       1.228  -3.446   0.911  1.00  0.00     0.167 HD
HETATM    5  C3  UNL     1       0.883  -1.327   1.100  1.00  0.00     0.115 A 
HETATM    6  N2  UNL     1       2.189  -1.025   1.282  1.00  0.00    -0.335 N 
ATOM      7  H2  UNL     1       2.889  -1.767   1.266  1.00  0.00     0.168 HD
HETATM    8  C4  UNL     1       2.564   0.234   1.482  1.00  0.00     0.101 A 
HETATM    9  C7  UNL     1       1.627   1.235   1.505  1.00  0.00     0.105 A 
HETATM   10  C8  UNL     1       2.044   2.595   1.724  1.00  0.00     0.104 C 
HETATM   11  N5  UNL     1       2.359   3.680   1.909  1.00  0.00    -0.191 NA
HETATM   12  C9  UNL     1       0.304   0.980   1.326  1.00  0.00     0.060 A 
HETATM   13  N6  UNL     1      -0.613   1.897   1.341  1.00  0.00    -0.397 N 
ATOM     14  H61 UNL     1      -1.606   1.706   1.207  1.00  0.00     0.156 HD
ATOM     15  H62 UNL     1      -0.339   2.867   1.494  1.00  0.00     0.156 HD
HETATM   16  C10 UNL     1      -0.077  -0.369   1.113  1.00  0.00     0.023 A 
HETATM   17  C11 UNL     1      -1.481  -0.663   0.877  1.00  0.00     0.063 C 
HETATM   18  C19 UNL     1      -1.848  -2.069   0.837  1.00  0.00     0.066 C 
ENDROOT
BRANCH   8  19
HETATM   19  S1  UNL     1       4.319   0.566   1.718  1.00  0.00    -0.044 SA
BRANCH  19  20
HETATM   20  C5  UNL     1       4.991   0.874   0.068  1.00  0.00     0.135 A 
HETATM   21  N3  UNL     1       5.086   2.025  -0.581  1.00  0.00    -0.286 N 
HETATM   22  N4  UNL     1       5.589   2.063  -1.745  1.00  0.00    -0.283 N 
ATOM     23  H3  UNL     1       4.753   2.884  -0.143  1.00  0.00     0.188 HD
HETATM   24  C6  UNL     1       6.017   0.922  -2.296  1.00  0.00     0.159 A 
ATOM     25  H4  UNL     1       5.665   2.946  -2.250  1.00  0.00     0.188 HD
HETATM   26  S2  UNL     1       6.704   0.717  -3.789  1.00  0.00    -0.051 SA
HETATM   27  S3  UNL     1       5.666  -0.213  -1.067  1.00  0.00    -0.033 SA
ENDBRANCH  19  20
ENDBRANCH   8  19
BRANCH  17  28
HETATM   28  C12 UNL     1      -2.061   0.151  -0.227  1.00  0.00    -0.041 A 
HETATM   29  C13 UNL     1      -1.375   0.359  -1.393  1.00  0.00     0.034 A 
HETATM   30  C14 UNL     1      -1.863   1.108  -2.446  1.00  0.00     0.056 A 
HETATM   31 CL1  UNL     1      -0.938   1.346  -3.929  1.00  0.00    -0.083 Cl
HETATM   32  C15 UNL     1      -3.112   1.659  -2.275  1.00  0.00     0.056 A 
HETATM   33 CL2  UNL     1      -3.778   2.617  -3.579  1.00  0.00    -0.083 Cl
HETATM   34  C16 UNL     1      -3.816   1.463  -1.116  1.00  0.00     0.033 A 
HETATM   35  C17 UNL     1      -3.298   0.704  -0.074  1.00  0.00    -0.053 A 
HETATM   36  C18 UNL     1      -4.134   0.542   1.140  1.00  0.00     0.049 C 
ENDBRANCH  17  28
TORSDOF 3
