REMARK  4 active torsions:
REMARK  status: ('A' for Active; 'I' for Inactive)
REMARK    1  A    between atoms: C2_2  and  C4_4 
REMARK    2  A    between atoms: C5_8  and  N2_9 
REMARK    3  A    between atoms: N3_16  and  C12_17 
REMARK    4  A    between atoms: C12_17  and  C13_18 
ROOT
HETATM    1  N2  UNL     1       1.293  -0.323   0.233  1.00  0.00    -0.344 N 
HETATM    2  C6  UNL     1       0.805  -1.481  -0.481  1.00  0.00     0.128 C 
HETATM    3  C7  UNL     1      -0.675  -1.601  -0.514  1.00  0.00     0.056 C 
HETATM    4  C8  UNL     1      -1.400  -0.342  -0.962  1.00  0.00     0.227 C 
HETATM    5  C9  UNL     1      -0.389   0.701  -1.435  1.00  0.00     0.073 C 
HETATM    6  C10 UNL     1      -0.504   1.266  -0.057  1.00  0.00     0.243 C 
HETATM    7  C11 UNL     1       0.477   0.659   0.918  1.00  0.00     0.162 C 
HETATM    8  N3  UNL     1      -1.731   0.519   0.088  1.00  0.00     0.100 N 
ENDROOT
BRANCH   1   9
HETATM    9  C5  UNL     1       2.680  -0.096   0.293  1.00  0.00     0.246 A 
HETATM   10  O1  UNL     1       3.269   0.903   0.901  1.00  0.00    -0.199 OA
HETATM   11  N1  UNL     1       4.548   0.854   0.789  1.00  0.00    -0.245 N 
HETATM   12  C4  UNL     1       4.842  -0.240   0.064  1.00  0.00     0.108 A 
ATOM     13  H1  UNL     1       5.216   1.520   1.177  1.00  0.00     0.196 HD
HETATM   14  N4  UNL     1       3.694  -0.823  -0.241  1.00  0.00    -0.308 N 
ATOM     15  H4  UNL     1       3.589  -1.678  -0.787  1.00  0.00     0.170 HD
BRANCH  12  16
HETATM   16  C2  UNL     1       6.244  -0.608  -0.261  1.00  0.00     0.047 C 
HETATM   17  C1  UNL     1       6.872   0.512  -1.063  1.00  0.00     0.017 C 
HETATM   18  C3  UNL     1       7.061  -0.886   0.979  1.00  0.00     0.017 C 
ENDBRANCH  12  16
ENDBRANCH   1   9
BRANCH   8  19
HETATM   19  C12 UNL     1      -2.888   1.285   0.188  1.00  0.00     0.278 C 
BRANCH  19  20
HETATM   20  C13 UNL     1      -4.116   0.456   0.446  1.00  0.00     0.014 C 
HETATM   21  C14 UNL     1      -4.463  -0.558  -0.575  1.00  0.00     0.006 C 
HETATM   22  C15 UNL     1      -5.903  -0.911  -0.200  1.00  0.00     0.000 C 
HETATM   23  C16 UNL     1      -6.493   0.366   0.335  1.00  0.00     0.000 C 
HETATM   24  C17 UNL     1      -5.358   1.336   0.481  1.00  0.00     0.006 C 
ENDBRANCH  19  20
ENDBRANCH   8  19
TORSDOF 4
