REMARK  4 active torsions:
REMARK  status: ('A' for Active; 'I' for Inactive)
REMARK    1  A    between atoms: C2_2  and  C3_3 
REMARK    2  A    between atoms: N1_5  and  C5_6 
REMARK    3  A    between atoms: C5_6  and  N2_7 
REMARK    4  A    between atoms: C6_14  and  C7_15 
ROOT
HETATM    1  N2  UNL     1       1.146  -1.832   0.653  1.00  0.00    -0.235 N 
HETATM    2  N3  UNL     1       0.721  -3.064   0.500  1.00  0.00    -0.223 N 
ATOM      3  H3  UNL     1      -0.114  -3.467   0.925  1.00  0.00     0.210 HD
HETATM    4  N4  UNL     1       1.557  -3.684  -0.293  1.00  0.00    -0.227 N 
ATOM      5  H4  UNL     1       1.475  -4.657  -0.588  1.00  0.00     0.210 HD
HETATM    6  N5  UNL     1       2.518  -2.862  -0.652  1.00  0.00    -0.272 N 
ATOM      7  H5  UNL     1       3.305  -3.075  -1.265  1.00  0.00     0.190 HD
HETATM    8  C6  UNL     1       2.262  -1.691  -0.057  1.00  0.00     0.121 A 
ENDROOT
BRANCH   1   9
HETATM    9  C5  UNL     1       0.565  -0.757   1.440  1.00  0.00     0.424 C 
BRANCH   9  10
HETATM   10  N1  UNL     1      -0.359   0.060   0.729  1.00  0.00     0.113 N 
HETATM   11  C4  UNL     1      -0.856   1.085   1.606  1.00  0.00     0.280 C 
HETATM   12  C3  UNL     1      -2.311   0.896   1.845  1.00  0.00     0.020 C 
HETATM   13  C17 UNL     1      -2.753   0.040   0.697  1.00  0.00     0.025 C 
HETATM   14  C12 UNL     1      -1.501  -0.609   0.222  1.00  0.00     0.229 C 
HETATM   15  C16 UNL     1      -3.477   0.796  -0.387  1.00  0.00     0.007 C 
HETATM   16  C13 UNL     1      -1.519  -0.668  -1.299  1.00  0.00     0.036 C 
HETATM   17  C14 UNL     1      -2.853  -1.177  -1.763  1.00  0.00     0.002 C 
HETATM   18  C15 UNL     1      -3.988  -0.263  -1.374  1.00  0.00     0.001 C 
BRANCH  12  19
HETATM   19  C2  UNL     1      -2.988   2.237   1.890  1.00  0.00     0.002 C 
HETATM   20  C1  UNL     1      -2.357   3.030   3.033  1.00  0.00     0.005 C 
ENDBRANCH  12  19
ENDBRANCH   9  10
ENDBRANCH   1   9
BRANCH   8  21
HETATM   21  C7  UNL     1       3.138  -0.499  -0.229  1.00  0.00     0.056 C 
HETATM   22  C8  UNL     1       4.531  -0.820   0.196  1.00  0.00     0.012 C 
HETATM   23  C9  UNL     1       5.455  -0.623  -0.967  1.00  0.00     0.001 C 
HETATM   24  C10 UNL     1       4.731   0.409  -1.801  1.00  0.00     0.001 C 
HETATM   25  C11 UNL     1       3.288  -0.096  -1.678  1.00  0.00     0.012 C 
ENDBRANCH   8  21
TORSDOF 4
