REMARK  4 active torsions:
REMARK  status: ('A' for Active; 'I' for Inactive)
REMARK    1  A    between atoms: C5_6  and  C6_7 
REMARK    2  A    between atoms: C6_7  and  N1_8 
REMARK    3  A    between atoms: N1_8  and  O2_9 
REMARK    4  A    between atoms: N1_8  and  C7_11 
ROOT
HETATM    1  C6  UNL     1      -0.341   0.005   0.253  1.00  0.00     0.155 C 
ENDROOT
BRANCH   1   2
HETATM    2  C5  UNL     1       0.965   0.578  -0.193  1.00  0.00     0.164 C 
HETATM    3  C4  UNL     1       1.478   0.038  -1.475  1.00  0.00     0.204 C 
HETATM    4  O1  UNL     1       2.678  -0.607  -1.175  1.00  0.00    -0.353 OA
HETATM    5  C2  UNL     1       3.078  -0.014  -0.001  1.00  0.00     0.157 C 
HETATM    6  C1  UNL     1       3.734   1.338  -0.203  1.00  0.00     0.078 C 
HETATM    7  C3  UNL     1       4.013  -0.908   0.804  1.00  0.00     0.078 C 
HETATM    8  O3  UNL     1       1.926   0.125   0.737  1.00  0.00    -0.347 OA
ENDBRANCH   1   2
BRANCH   1   9
HETATM    9  N1  UNL     1      -1.477   0.336  -0.559  1.00  0.00    -0.189 NA
BRANCH   9  10
HETATM   10  O2  UNL     1      -1.701   1.648  -0.630  1.00  0.00    -0.312 OA
ATOM     11  H2  UNL     1      -2.453   1.867  -1.168  1.00  0.00     0.237 HD
ENDBRANCH   9  10
BRANCH   9  12
HETATM   12  C7  UNL     1      -2.622  -0.342   0.076  1.00  0.00     0.027 C 
HETATM   13  C8  UNL     1      -2.415  -1.831   0.049  1.00  0.00     0.034 C 
HETATM   14  C9  UNL     1      -3.893  -0.059  -0.716  1.00  0.00     0.034 C 
HETATM   15  C10 UNL     1      -2.843   0.203   1.463  1.00  0.00     0.034 C 
ENDBRANCH   9  12
ENDBRANCH   1   9
TORSDOF 4
