REMARK  3 active torsions:
REMARK  status: ('A' for Active; 'I' for Inactive)
REMARK    1  A    between atoms: C2_3  and  O2_5 
REMARK    2  A    between atoms: O2_5  and  C3_6 
REMARK    3  A    between atoms: C3_6  and  C4_7 
ROOT
HETATM    1  N1  UNL     1       4.476   3.342   0.373  1.00  0.00    -0.186 NA
HETATM    2  C1  UNL     1       4.158   2.220   0.316  1.00  0.00     0.170 C 
HETATM    3  C2  UNL     1       3.787   0.840   0.255  1.00  0.00     0.365 C 
HETATM    4  O1  UNL     1       4.683  -0.008   0.478  1.00  0.00    -0.247 OA
ENDROOT
BRANCH   3   5
HETATM    5  O2  UNL     1       2.500   0.411  -0.035  1.00  0.00    -0.309 OA
BRANCH   5   6
HETATM    6  C3  UNL     1       2.254  -0.964  -0.068  1.00  0.00     0.184 C 
BRANCH   6   7
HETATM    7  C4  UNL     1       0.846  -1.335  -0.387  1.00  0.00     0.010 C 
HETATM    8  C5  UNL     1      -0.185  -0.866   0.497  1.00  0.00     0.007 C 
HETATM    9  C6  UNL     1      -0.531  -1.057   1.881  1.00  0.00     0.000 C 
HETATM   10  C7  UNL     1      -1.714  -0.063   2.024  1.00  0.00     0.000 C 
HETATM   11  C8  UNL     1      -2.612   0.066   0.850  1.00  0.00     0.000 C 
HETATM   12  C9  UNL     1      -2.341   1.069  -0.203  1.00  0.00     0.000 C 
HETATM   13  C10 UNL     1      -1.758   0.669  -1.516  1.00  0.00     0.000 C 
HETATM   14  C11 UNL     1      -0.289   0.594  -1.691  1.00  0.00     0.000 C 
HETATM   15  C12 UNL     1       0.392  -0.731  -1.738  1.00  0.00     0.007 C 
ENDBRANCH   6   7
ENDBRANCH   5   6
ENDBRANCH   3   5
TORSDOF 3
