REMARK  16 active torsions:
REMARK  status: ('A' for Active; 'I' for Inactive)
REMARK    1  A    between atoms: C2_2  and  N1_3 
REMARK    2  A    between atoms: C3_4  and  C4_5 
REMARK    3  A    between atoms: C4_5  and  N2_6 
REMARK    4  A    between atoms: C6_16  and  C7_17 
REMARK    5  A    between atoms: C7_17  and  C8_18 
REMARK    6  A    between atoms: C8_18  and  N6_19 
REMARK    7  A    between atoms: C8_18  and  C9_23 
REMARK    8  A    between atoms: C9_23  and  N9_29 
REMARK    9  A    between atoms: N7_24  and  N8_26 
REMARK   10  A    between atoms: N9_29  and  C10_31 
REMARK   11  A    between atoms: C11_35  and  N11_36 
REMARK   12  A    between atoms: C14_39  and  N12_40 
REMARK   13  A    between atoms: N12_40  and  C15_42 
REMARK   14  A    between atoms: C17_46  and  O1_47 
REMARK   15  A    between atoms: C18_49  and  O2_50 
REMARK   16  A    between atoms: C20_56  and  O4_57 
ROOT
HETATM    1  N9  UNL     1       1.742  -1.182  -0.879  1.00  0.00    -0.345 N 
ATOM      2  H9  UNL     1       2.567  -1.754  -1.059  1.00  0.00     0.163 HD
ENDROOT
BRANCH   1   3
HETATM    3  C9  UNL     1       1.840   0.126  -0.252  1.00  0.00     0.124 C 
HETATM    4  N7  UNL     1       1.227   1.077  -0.852  1.00  0.00    -0.294 N 
ATOM      5  H7  UNL     1       0.794   0.846  -1.746  1.00  0.00     0.187 HD
BRANCH   3   6
HETATM    6  C8  UNL     1       2.512   0.195   1.038  1.00  0.00     0.255 C 
BRANCH   6   7
HETATM    7  C7  UNL     1       3.922  -0.056   1.116  1.00  0.00     0.087 C 
BRANCH   7   8
HETATM    8  C6  UNL     1       4.873   0.851   0.287  1.00  0.00     0.189 C 
HETATM    9  N1  UNL     1       6.156   0.520   0.791  1.00  0.00    -0.348 N 
HETATM   10  C3  UNL     1       7.066  -0.361   0.262  1.00  0.00     0.109 C 
HETATM   11  N3  UNL     1       6.767  -0.794  -0.934  1.00  0.00    -0.319 N 
HETATM   12  C5  UNL     1       5.581  -0.390  -1.609  1.00  0.00     0.191 C 
ATOM     13  H3  UNL     1       7.403  -1.442  -1.398  1.00  0.00     0.169 HD
HETATM   14  N4  UNL     1       5.364  -0.853  -2.964  1.00  0.00    -0.063 NA
HETATM   15  N5  UNL     1       4.709   0.380  -1.088  1.00  0.00    -0.343 N 
ATOM     16  H5  UNL     1       3.895   0.668  -1.631  1.00  0.00     0.164 HD
BRANCH   9  17
HETATM   17  C2  UNL     1       6.488   1.321   2.047  1.00  0.00     0.122 C 
HETATM   18  C1  UNL     1       6.587   2.781   1.637  1.00  0.00     0.026 C 
ENDBRANCH   9  17
BRANCH  10  19
HETATM   19  C4  UNL     1       8.212  -0.882   0.987  1.00  0.00     0.305 C 
BRANCH  19  20
HETATM   20  N2  UNL     1       9.433  -0.116   0.814  1.00  0.00    -0.073 N 
ATOM     21  H23 UNL     1       9.654  -0.019  -0.177  1.00  0.00     0.274 HD
ATOM     22  H22 UNL     1       9.275   0.863   1.055  1.00  0.00     0.274 HD
ATOM     23  H21 UNL     1      10.238  -0.482   1.323  1.00  0.00     0.274 HD
ENDBRANCH  19  20
ENDBRANCH  10  19
ENDBRANCH   7   8
ENDBRANCH   6   7
BRANCH   6  24
HETATM   24  N6  UNL     1       1.824  -0.802   1.895  1.00  0.00    -0.068 N 
ATOM     25  H63 UNL     1       2.068  -1.763   1.657  1.00  0.00     0.275 HD
ATOM     26  H62 UNL     1       2.172  -0.807   2.854  1.00  0.00     0.275 HD
ATOM     27  H61 UNL     1       0.821  -0.624   1.840  1.00  0.00     0.275 HD
ENDBRANCH   6  24
ENDBRANCH   3   6
BRANCH   4  28
HETATM   28  N8  UNL     1       1.088   2.382  -0.419  1.00  0.00    -0.344 N 
ATOM     29  H82 UNL     1       1.527   2.594   0.477  1.00  0.00     0.176 HD
ATOM     30  H81 UNL     1       0.600   3.139  -0.897  1.00  0.00     0.176 HD
ENDBRANCH   4  28
ENDBRANCH   1   3
BRANCH   1  31
HETATM   31  C10 UNL     1       0.396  -1.636  -1.239  1.00  0.00     0.346 C 
HETATM   32  N10 UNL     1      -0.578  -0.913  -0.353  1.00  0.00    -0.003 N 
HETATM   33  C11 UNL     1      -1.710  -0.988  -1.247  1.00  0.00     0.454 C 
ATOM     34 2H10 UNL     1      -0.706  -1.276   0.592  1.00  0.00     0.285 HD
ATOM     35 1H10 UNL     1      -0.307   0.013  -0.022  1.00  0.00     0.285 HD
HETATM   36  O3  UNL     1      -1.190  -0.453  -2.422  1.00  0.00    -0.308 OA
HETATM   37  C20 UNL     1      -0.056  -1.218  -2.592  1.00  0.00     0.311 C 
BRANCH  33  38
HETATM   38  N11 UNL     1      -2.870  -0.225  -0.787  1.00  0.00    -0.248 N 
HETATM   39  C12 UNL     1      -2.882   1.150  -0.745  1.00  0.00     0.119 A 
HETATM   40  C13 UNL     1      -4.112   1.371  -0.254  1.00  0.00     0.069 A 
HETATM   41  C14 UNL     1      -4.970   0.553   0.062  1.00  0.00     0.122 A 
HETATM   42  N14 UNL     1      -3.951  -0.647  -0.383  1.00  0.00    -0.280 N 
ATOM     43  H14 UNL     1      -4.187  -1.638  -0.331  1.00  0.00     0.189 HD
BRANCH  41  44
HETATM   44  N12 UNL     1      -5.876  -0.341   0.407  1.00  0.00    -0.331 N 
ATOM     45  H12 UNL     1      -5.625  -1.244   0.811  1.00  0.00     0.168 HD
BRANCH  44  46
HETATM   46  C15 UNL     1      -7.264   0.051   0.171  1.00  0.00     0.081 C 
HETATM   47  N13 UNL     1      -7.788  -0.162  -0.888  1.00  0.00    -0.377 N 
HETATM   48  C16 UNL     1      -9.106   0.150  -1.289  1.00  0.00     0.155 C 
ATOM     49  H13 UNL     1      -7.208  -0.627  -1.586  1.00  0.00     0.160 HD
HETATM   50  C17 UNL     1     -10.016   0.494  -0.105  1.00  0.00     0.165 C 
HETATM   51  C18 UNL     1      -9.405   0.384   1.240  1.00  0.00     0.155 C 
HETATM   52  C19 UNL     1      -7.968   0.857   1.210  1.00  0.00     0.110 C 
BRANCH  50  53
HETATM   53  O1  UNL     1     -11.068  -0.502  -0.145  1.00  0.00    -0.391 OA
ATOM     54  H1  UNL     1     -11.632  -0.289   0.589  1.00  0.00     0.210 HD
ENDBRANCH  50  53
BRANCH  51  55
HETATM   55  O2  UNL     1      -9.366  -0.929   1.731  1.00  0.00    -0.393 OA
ATOM     56  H2  UNL     1      -8.974  -1.000   2.594  1.00  0.00     0.210 HD
ENDBRANCH  51  55
ENDBRANCH  44  46
ENDBRANCH  41  44
ENDBRANCH  33  38
BRANCH  37  57
HETATM   57  O4  UNL     1      -0.522  -2.398  -3.246  1.00  0.00    -0.367 OA
ATOM     58  H4  UNL     1      -0.811  -2.131  -4.111  1.00  0.00     0.212 HD
ENDBRANCH  37  57
ENDBRANCH   1  31
TORSDOF 16
