REMARK  15 active torsions:
REMARK  status: ('A' for Active; 'I' for Inactive)
REMARK    1  A    between atoms: N1_2  and  C2_4 
REMARK    2  A    between atoms: C3_7  and  N3_8 
REMARK    3  A    between atoms: N5_15  and  C5_16 
REMARK    4  A    between atoms: C6_18  and  N6_19 
REMARK    5  A    between atoms: C8_25  and  C9_26 
REMARK    6  A    between atoms: C9_26  and  O3_27 
REMARK    7  A    between atoms: C9_26  and  N9_29 
REMARK    8  A    between atoms: N9_29  and  C10_31 
REMARK    9  A    between atoms: C10_31  and  C11_32 
REMARK   10  A    between atoms: C11_32  and  N10_33 
REMARK   11  A    between atoms: C12_37  and  C13_38 
REMARK   12  A    between atoms: C13_38  and  N11_39 
REMARK       I    between atoms: N11_39  and  C14_41 
REMARK   13  A    between atoms: C14_41  and  C15_43 
REMARK   14  A    between atoms: C16_44  and  O5_45 
REMARK   15  A    between atoms: C18_52  and  O8_53 
ROOT
HETATM    1  C5  UNL     1      -1.854  -0.980  -0.355  1.00  0.00     0.282 C 
HETATM    2  O2  UNL     1      -0.504  -0.911  -0.064  1.00  0.00    -0.336 OA
HETATM    3  C6  UNL     1      -0.069   0.360  -0.289  1.00  0.00     0.257 C 
HETATM    4  C12 UNL     1      -1.259   1.284  -0.050  1.00  0.00     0.087 C 
HETATM    5  C18 UNL     1      -2.432   0.375  -0.200  1.00  0.00     0.178 C 
ENDROOT
BRANCH   3   6
HETATM    6  N6  UNL     1       0.308   0.480  -1.690  1.00  0.00    -0.242 N 
HETATM    7  N7  UNL     1      -0.426   1.206  -2.581  1.00  0.00    -0.238 N 
HETATM    8  N8  UNL     1       0.128   1.133  -3.768  1.00  0.00    -0.295 N 
ATOM      9  H7  UNL     1      -1.275   1.726  -2.359  1.00  0.00     0.208 HD
HETATM   10  C7  UNL     1       1.218   0.378  -3.708  1.00  0.00     0.144 A 
ATOM     11  H8  UNL     1      -0.226   1.588  -4.610  1.00  0.00     0.187 HD
HETATM   12  C8  UNL     1       1.325  -0.040  -2.358  1.00  0.00     0.122 A 
BRANCH  12  13
HETATM   13  C9  UNL     1       2.413  -0.876  -1.878  1.00  0.00     0.166 C 
BRANCH  13  14
HETATM   14  O3  UNL     1       3.195  -1.397  -2.783  1.00  0.00    -0.345 OA
ATOM     15  H3  UNL     1       3.906  -1.943  -2.469  1.00  0.00     0.219 HD
ENDBRANCH  13  14
BRANCH  13  16
HETATM   16  N9  UNL     1       2.753  -1.210  -0.571  1.00  0.00    -0.367 N 
ATOM     17  H9  UNL     1       2.187  -0.847   0.196  1.00  0.00     0.161 HD
BRANCH  16  18
HETATM   18  C10 UNL     1       3.890  -2.060  -0.266  1.00  0.00     0.149 C 
BRANCH  18  19
HETATM   19  C11 UNL     1       5.175  -1.437  -0.696  1.00  0.00     0.249 C 
BRANCH  19  20
HETATM   20  N10 UNL     1       6.308  -2.327  -0.356  1.00  0.00    -0.078 N 
ATOM     21 3H10 UNL     1       6.316  -2.575   0.633  1.00  0.00     0.274 HD
ATOM     22 2H10 UNL     1       6.188  -3.263  -0.743  1.00  0.00     0.274 HD
ATOM     23 1H10 UNL     1       7.187  -1.901  -0.650  1.00  0.00     0.274 HD
ENDBRANCH  19  20
ENDBRANCH  18  19
ENDBRANCH  16  18
ENDBRANCH  13  16
ENDBRANCH  12  13
ENDBRANCH   3   6
BRANCH   4  24
HETATM   24  C13 UNL     1      -1.210   1.894   1.323  1.00  0.00     0.134 C 
BRANCH  24  25
HETATM   25  N11 UNL     1      -0.025   2.686   1.578  1.00  0.00    -0.356 N 
HETATM   26  C14 UNL     1       0.326   3.827   0.857  1.00  0.00     0.262 C 
HETATM   27  O4  UNL     1      -0.424   4.211  -0.076  1.00  0.00    -0.267 OA
ATOM     28  H11 UNL     1       0.593   2.390   2.334  1.00  0.00     0.162 HD
BRANCH  26  29
HETATM   29  C15 UNL     1       1.515   4.605   1.121  1.00  0.00     0.161 A 
HETATM   30  C16 UNL     1       2.498   4.418   2.067  1.00  0.00     0.226 A 
HETATM   31  O6  UNL     1       3.378   5.383   1.920  1.00  0.00    -0.208 OA
HETATM   32  N12 UNL     1       3.054   6.175   0.967  1.00  0.00    -0.222 N 
HETATM   33  C17 UNL     1       1.909   5.758   0.423  1.00  0.00     0.286 A 
ATOM     34  H12 UNL     1       3.586   6.993   0.671  1.00  0.00     0.198 HD
HETATM   35  O7  UNL     1       1.274   6.277  -0.538  1.00  0.00    -0.265 OA
BRANCH  30  36
HETATM   36  O5  UNL     1       2.589   3.413   3.023  1.00  0.00    -0.339 OA
ATOM     37  H5  UNL     1       3.267   3.284   3.676  1.00  0.00     0.220 HD
ENDBRANCH  30  36
ENDBRANCH  26  29
ENDBRANCH  24  25
ENDBRANCH   4  24
BRANCH   1  38
HETATM   38  N5  UNL     1      -2.483  -1.977   0.494  1.00  0.00    -0.101 N 
HETATM   39  C2  UNL     1      -3.648  -2.553   0.152  1.00  0.00     0.700 A 
HETATM   40  N2  UNL     1      -4.217  -3.485   0.968  1.00  0.00    -0.022 N 
HETATM   41  C3  UNL     1      -3.625  -3.841   2.122  1.00  0.00     0.694 A 
ATOM     42  H2  UNL     1      -5.101  -3.917   0.700  1.00  0.00     0.203 HD
HETATM   43  N4  UNL     1      -2.460  -3.276   2.484  1.00  0.00    -0.140 N 
HETATM   44  C4  UNL     1      -1.907  -2.346   1.653  1.00  0.00     0.357 A 
ATOM     45  H4  UNL     1      -2.001  -3.536   3.357  1.00  0.00     0.189 HD
HETATM   46  O1  UNL     1      -0.805  -1.850   2.051  1.00  0.00    -0.245 OA
BRANCH  39  47
HETATM   47  N1  UNL     1      -4.215  -2.213  -0.954  1.00  0.00    -0.230 N 
HETATM   48  C1  UNL     1      -5.474  -2.835  -1.327  1.00  0.00     0.165 C 
ATOM     49  H1  UNL     1      -3.785  -1.515  -1.561  1.00  0.00     0.177 HD
ENDBRANCH  39  47
BRANCH  41  50
HETATM   50  N3  UNL     1      -4.135  -4.718   2.917  1.00  0.00    -0.234 N 
ATOM     51  H32 UNL     1      -5.019  -5.147   2.642  1.00  0.00     0.174 HD
ATOM     52  H31 UNL     1      -3.686  -4.988   3.792  1.00  0.00     0.174 HD
ENDBRANCH  41  50
ENDBRANCH   1  38
BRANCH   5  53
HETATM   53  O8  UNL     1      -3.142   0.807  -1.344  1.00  0.00    -0.391 OA
ATOM     54  H8  UNL     1      -3.513   1.676  -1.245  1.00  0.00     0.210 HD
ENDBRANCH   5  53
TORSDOF 15
