REMARK  13 active torsions:
REMARK  status: ('A' for Active; 'I' for Inactive)
REMARK    1  A    between atoms: C4_6  and  C5_7 
REMARK    2  A    between atoms: C5_7  and  O3_8 
REMARK    3  A    between atoms: C5_7  and  C6_10 
REMARK    4  A    between atoms: C6_10  and  C7_11 
REMARK    5  A    between atoms: C7_11  and  O4_12 
REMARK    6  A    between atoms: C7_11  and  C8_14 
REMARK    7  A    between atoms: C8_14  and  O5_15 
REMARK    8  A    between atoms: C8_14  and  N1_17 
REMARK    9  A    between atoms: N1_17  and  C9_19 
REMARK   10  A    between atoms: C18_41  and  N7_42 
REMARK   11  A    between atoms: N7_42  and  C19_45 
REMARK   12  A    between atoms: C19_45  and  N8_46 
REMARK   13  A    between atoms: C19_45  and  O10_50 
ROOT
HETATM    1  C7  UNL     1      -0.379   0.369  -0.593  1.00  0.00     0.168 C 
ENDROOT
BRANCH   1   2
HETATM    2  C6  UNL     1       0.208  -0.994  -0.654  1.00  0.00     0.071 C 
BRANCH   2   3
HETATM    3  C5  UNL     1       1.561  -1.048  -1.266  1.00  0.00     0.159 C 
BRANCH   3   4
HETATM    4  C4  UNL     1       2.655  -0.296  -0.619  1.00  0.00     0.252 C 
HETATM    5  O2  UNL     1       2.513   1.082  -0.504  1.00  0.00    -0.303 OA
HETATM    6  C3  UNL     1       3.489   1.966  -0.036  1.00  0.00     0.267 C 
HETATM    7  C2  UNL     1       4.777   1.757   0.655  1.00  0.00     0.132 C 
HETATM    8  O1  UNL     1       3.201   3.168  -0.251  1.00  0.00    -0.265 OA
HETATM    9  C1  UNL     1       4.525   1.332   2.103  1.00  0.00     0.024 C 
HETATM   10  C18 UNL     1       5.707   0.800  -0.004  1.00  0.00     0.305 C 
HETATM   11  N6  UNL     1       5.185   0.109  -1.136  1.00  0.00    -0.330 N 
HETATM   12  C17 UNL     1       3.954  -0.534  -1.350  1.00  0.00     0.251 C 
ATOM     13  H6  UNL     1       5.819   0.075  -1.934  1.00  0.00     0.164 HD
HETATM   14  O9  UNL     1       3.945  -1.405  -2.256  1.00  0.00    -0.270 OA
BRANCH  10  15
HETATM   15  N7  UNL     1       6.213  -0.121   1.011  1.00  0.00    -0.002 N 
ATOM     16  H72 UNL     1       6.745   0.367   1.732  1.00  0.00     0.284 HD
ATOM     17  H71 UNL     1       5.462  -0.488   1.596  1.00  0.00     0.284 HD
BRANCH  15  18
HETATM   18  C19 UNL     1       6.989  -1.187   0.398  1.00  0.00     0.521 C 
BRANCH  18  19
HETATM   19  N8  UNL     1       8.117  -0.723  -0.345  1.00  0.00    -0.027 N 
ATOM     20  H83 UNL     1       7.830  -0.039  -1.045  1.00  0.00     0.279 HD
ATOM     21  H82 UNL     1       8.713  -0.133   0.236  1.00  0.00     0.279 HD
ATOM     22  H81 UNL     1       8.661  -1.471  -0.775  1.00  0.00     0.279 HD
ENDBRANCH  18  19
BRANCH  18  23
HETATM   23  O10 UNL     1       7.454  -2.000   1.445  1.00  0.00    -0.349 OA
ATOM     24  H10 UNL     1       7.961  -2.696   1.045  1.00  0.00     0.213 HD
ENDBRANCH  18  23
ENDBRANCH  15  18
ENDBRANCH  10  15
ENDBRANCH   3   4
BRANCH   3  25
HETATM   25  O3  UNL     1       1.965  -2.419  -1.289  1.00  0.00    -0.392 OA
ATOM     26  H3  UNL     1       1.261  -2.903  -1.705  1.00  0.00     0.210 HD
ENDBRANCH   3  25
ENDBRANCH   2   3
ENDBRANCH   1   2
BRANCH   1  27
HETATM   27  O4  UNL     1      -0.508   0.952  -1.855  1.00  0.00    -0.391 OA
ATOM     28  H4  UNL     1      -0.883   1.824  -1.816  1.00  0.00     0.210 HD
ENDBRANCH   1  27
BRANCH   1  29
HETATM   29  C8  UNL     1      -1.834   0.309  -0.054  1.00  0.00     0.243 C 
BRANCH  29  30
HETATM   30  O5  UNL     1      -2.259   1.642  -0.053  1.00  0.00    -0.374 OA
ATOM     31  H5  UNL     1      -3.149   1.605   0.277  1.00  0.00     0.212 HD
ENDBRANCH  29  30
BRANCH  29  32
HETATM   32  N1  UNL     1      -2.551  -0.515  -0.955  1.00  0.00    -0.384 N 
ATOM     33  H1  UNL     1      -2.075  -1.212  -1.527  1.00  0.00     0.156 HD
BRANCH  32  34
HETATM   34  C9  UNL     1      -3.968  -0.334  -1.033  1.00  0.00     0.150 C 
HETATM   35  C10 UNL     1      -4.424   0.998  -1.539  1.00  0.00     0.052 C 
HETATM   36  C11 UNL     1      -5.785   0.770  -2.214  1.00  0.00     0.125 C 
HETATM   37  N2  UNL     1      -6.874   1.046  -1.318  1.00  0.00    -0.360 N 
HETATM   38  C12 UNL     1      -7.012   1.287   0.066  1.00  0.00     0.235 C 
ATOM     39  H2  UNL     1      -7.771   1.075  -1.803  1.00  0.00     0.162 HD
HETATM   40  O6  UNL     1      -8.129   1.824   0.390  1.00  0.00    -0.272 OA
HETATM   41  C13 UNL     1      -6.163   1.066   1.274  1.00  0.00     0.236 C 
HETATM   42  N3  UNL     1      -5.467  -0.209   1.128  1.00  0.00    -0.287 N 
HETATM   43  C14 UNL     1      -4.625  -0.722   0.223  1.00  0.00     0.124 A 
HETATM   44  C16 UNL     1      -5.845  -0.928   2.207  1.00  0.00     0.319 A 
HETATM   45  N4  UNL     1      -4.171  -1.988   0.432  1.00  0.00    -0.284 N 
HETATM   46  N5  UNL     1      -4.530  -2.702   1.477  1.00  0.00    -0.260 N 
ATOM     47  H4  UNL     1      -3.529  -2.398  -0.246  1.00  0.00     0.188 HD
HETATM   48  C15 UNL     1      -5.381  -2.205   2.411  1.00  0.00     0.328 A 
ATOM     49  H5  UNL     1      -4.162  -3.647   1.588  1.00  0.00     0.190 HD
HETATM   50  O7  UNL     1      -5.704  -2.920   3.402  1.00  0.00    -0.261 OA
HETATM   51  O8  UNL     1      -6.637  -0.430   3.048  1.00  0.00    -0.262 OA
ENDBRANCH  32  34
ENDBRANCH  29  32
ENDBRANCH   1  29
TORSDOF 13
