REMARK  12 active torsions:
REMARK  status: ('A' for Active; 'I' for Inactive)
REMARK    1  A    between atoms: N1_1  and  C1_4 
REMARK    2  A    between atoms: C2_10  and  C3_11 
REMARK    3  A    between atoms: C3_11  and  N4_12 
REMARK    4  A    between atoms: C8_23  and  O4_24 
REMARK       I    between atoms: N10_38  and  C13_39 
REMARK    5  A    between atoms: C13_39  and  C14_41 
REMARK    6  A    between atoms: C14_41  and  C15_42 
REMARK    7  A    between atoms: C15_42  and  O7_43 
REMARK    8  A    between atoms: O7_43  and  C16_44 
REMARK    9  A    between atoms: C16_44  and  C17_45 
REMARK   10  A    between atoms: C17_45  and  N11_46 
REMARK   11  A    between atoms: C17_45  and  C18_50 
REMARK   12  A    between atoms: C18_50  and  O8_51 
ROOT
HETATM    1  N4  UNL     1      -3.988  -0.451   0.905  1.00  0.00    -0.293 N 
HETATM    2  C4  UNL     1      -3.376  -0.724  -0.232  1.00  0.00     0.083 A 
HETATM    3  C5  UNL     1      -4.037  -0.637  -1.482  1.00  0.00     0.125 A 
HETATM    4  C6  UNL     1      -5.355  -0.258  -1.470  1.00  0.00     0.278 A 
HETATM    5  O2  UNL     1      -5.951  -0.178  -2.575  1.00  0.00    -0.265 OA
HETATM    6  N5  UNL     1      -5.942   0.006  -0.296  1.00  0.00    -0.273 N 
ATOM      7  H5  UNL     1      -6.923   0.285  -0.299  1.00  0.00     0.173 HD
HETATM    8  C7  UNL     1      -5.318  -0.076   0.870  1.00  0.00     0.330 A 
HETATM    9  O3  UNL     1      -5.847   0.164   1.973  1.00  0.00    -0.246 OA
HETATM   10  N6  UNL     1      -3.552  -0.887  -2.793  1.00  0.00    -0.342 N 
ATOM     11  H6  UNL     1      -4.024  -0.417  -3.566  1.00  0.00     0.164 HD
HETATM   12  C8  UNL     1      -2.439  -1.757  -3.121  1.00  0.00     0.324 C 
HETATM   13  N7  UNL     1      -1.229  -1.388  -2.518  1.00  0.00    -0.356 N 
ATOM     14  H7  UNL     1      -0.358  -1.616  -2.997  1.00  0.00     0.159 HD
HETATM   15  C9  UNL     1      -1.161  -0.733  -1.311  1.00  0.00     0.245 C 
HETATM   16  C10 UNL     1      -1.988  -1.248  -0.158  1.00  0.00     0.282 C 
HETATM   17  N8  UNL     1      -2.056  -2.705  -0.173  1.00  0.00    -0.053 N 
ATOM     18  H81 UNL     1      -1.953  -3.058  -1.125  1.00  0.00     0.278 HD
ATOM     19  H82 UNL     1      -3.005  -3.020   0.027  1.00  0.00     0.278 HD
HETATM   20  C11 UNL     1      -1.126  -3.341   0.698  1.00  0.00     0.337 C 
HETATM   21  C12 UNL     1       0.247  -3.017   0.318  1.00  0.00     0.262 C 
HETATM   22  O5  UNL     1       1.034  -4.026   0.403  1.00  0.00    -0.270 OA
HETATM   23  N9  UNL     1       0.819  -1.808  -0.113  1.00  0.00    -0.262 N 
ATOM     24  H9  UNL     1       1.793  -1.658   0.151  1.00  0.00     0.190 HD
HETATM   25  N10 UNL     1       0.233  -0.797  -0.847  1.00  0.00    -0.232 N 
HETATM   26  C13 UNL     1       1.026   0.306  -1.209  1.00  0.00     0.242 C 
HETATM   27  O6  UNL     1       0.574   1.268  -1.876  1.00  0.00    -0.272 OA
ENDROOT
BRANCH  26  28
HETATM   28  C14 UNL     1       2.456   0.365  -0.802  1.00  0.00     0.131 C 
BRANCH  28  29
HETATM   29  C15 UNL     1       3.107   1.640  -1.290  1.00  0.00     0.177 C 
BRANCH  29  30
HETATM   30  O7  UNL     1       4.429   1.768  -0.962  1.00  0.00    -0.389 OA
BRANCH  30  31
HETATM   31  C16 UNL     1       4.725   1.770   0.379  1.00  0.00     0.202 C 
BRANCH  31  32
HETATM   32  C17 UNL     1       6.237   1.933   0.578  1.00  0.00     0.230 C 
BRANCH  32  33
HETATM   33  N11 UNL     1       6.498   1.927   1.988  1.00  0.00    -0.071 N 
ATOM     34 3H11 UNL     1       5.955   2.627   2.494  1.00  0.00     0.274 HD
ATOM     35 2H11 UNL     1       6.124   1.101   2.456  1.00  0.00     0.274 HD
ATOM     36 1H11 UNL     1       7.504   2.035   2.120  1.00  0.00     0.274 HD
ENDBRANCH  32  33
BRANCH  32  37
HETATM   37  C18 UNL     1       6.990   0.851  -0.163  1.00  0.00     0.199 C 
BRANCH  37  38
HETATM   38  O8  UNL     1       8.357   1.039   0.021  1.00  0.00    -0.399 OA
ATOM     39  H8  UNL     1       8.830   0.359  -0.445  1.00  0.00     0.209 HD
ENDBRANCH  37  38
ENDBRANCH  32  37
ENDBRANCH  31  32
ENDBRANCH  30  31
ENDBRANCH  29  30
ENDBRANCH  28  29
ENDBRANCH  26  28
BRANCH  12  40
HETATM   40  O4  UNL     1      -2.279  -1.656  -4.515  1.00  0.00    -0.360 OA
ATOM     41  H4  UNL     1      -1.550  -2.226  -4.730  1.00  0.00     0.214 HD
ENDBRANCH  12  40
BRANCH   1  42
HETATM   42  C3  UNL     1      -3.334  -0.427   2.167  1.00  0.00     0.197 C 
BRANCH  42  43
HETATM   43  C2  UNL     1      -3.098   0.967   2.626  1.00  0.00     0.098 A 
HETATM   44  C1  UNL     1      -2.188   1.904   2.273  1.00  0.00     0.147 A 
HETATM   45  N2  UNL     1      -2.424   3.032   3.025  1.00  0.00    -0.224 N 
HETATM   46  O1  UNL     1      -3.424   2.763   3.780  1.00  0.00    -0.155 OA
ATOM     47  H2  UNL     1      -1.905   3.909   2.989  1.00  0.00     0.198 HD
HETATM   48  N3  UNL     1      -3.868   1.583   3.604  1.00  0.00    -0.240 N 
ATOM     49  H3  UNL     1      -4.655   1.162   4.097  1.00  0.00     0.196 HD
BRANCH  44  50
HETATM   50  N1  UNL     1      -1.231   1.863   1.418  1.00  0.00    -0.382 N 
ATOM     51  H12 UNL     1      -0.545   2.569   1.152  1.00  0.00     0.157 HD
ATOM     52  H11 UNL     1      -1.056   1.027   0.861  1.00  0.00     0.157 HD
ENDBRANCH  44  50
ENDBRANCH  42  43
ENDBRANCH   1  42
TORSDOF 12
