REMARK  12 active torsions:
REMARK  status: ('A' for Active; 'I' for Inactive)
REMARK    1  A    between atoms: O1_2  and  N1_3 
REMARK    2  A    between atoms: N1_3  and  C2_4 
REMARK    3  A    between atoms: C2_4  and  C3_5 
REMARK    4  A    between atoms: N4_10  and  C4_11 
REMARK    5  A    between atoms: C6_16  and  O3_17 
REMARK    6  A    between atoms: O3_17  and  C7_18 
REMARK    7  A    between atoms: C10_25  and  N7_26 
REMARK    8  A    between atoms: N7_26  and  C11_28 
REMARK    9  A    between atoms: C14_33  and  N9_34 
REMARK   10  A    between atoms: C15_39  and  O5_40 
REMARK   11  A    between atoms: C16_42  and  N11_43 
REMARK   12  A    between atoms: C17_47  and  O6_48 
ROOT
HETATM    1  C4  UNL     1      -2.320  -0.765   0.437  1.00  0.00     0.242 C 
HETATM    2  N5  UNL     1      -1.151  -1.612   0.703  1.00  0.00    -0.333 N 
ATOM      3  H5  UNL     1      -1.256  -2.343   1.406  1.00  0.00     0.164 HD
HETATM    4  C5  UNL     1       0.128  -1.501   0.059  1.00  0.00     0.251 C 
HETATM    5  O2  UNL     1       0.886  -2.480   0.032  1.00  0.00    -0.271 OA
HETATM    6  C6  UNL     1       0.573  -0.199  -0.589  1.00  0.00     0.246 C 
HETATM    7  C15 UNL     1      -0.202  -0.008  -1.801  1.00  0.00     0.189 C 
HETATM    8  C16 UNL     1      -1.643   0.316  -1.744  1.00  0.00     0.247 C 
HETATM    9  C17 UNL     1      -2.479  -0.711  -1.064  1.00  0.00     0.195 C 
ENDROOT
BRANCH   6  10
HETATM   10  O3  UNL     1       1.913  -0.219  -0.953  1.00  0.00    -0.346 OA
BRANCH  10  11
HETATM   11  C7  UNL     1       2.776   0.316  -0.003  1.00  0.00     0.257 C 
HETATM   12  N6  UNL     1       3.083   1.741  -0.282  1.00  0.00    -0.331 N 
HETATM   13  C8  UNL     1       3.670   2.178  -1.476  1.00  0.00     0.229 C 
ATOM     14  H6  UNL     1       2.856   2.435   0.430  1.00  0.00     0.165 HD
HETATM   15  O4  UNL     1       3.933   3.432  -1.578  1.00  0.00    -0.273 OA
HETATM   16  C9  UNL     1       4.004   1.290  -2.614  1.00  0.00     0.179 C 
HETATM   17  S1  UNL     1       4.689  -0.229  -1.889  1.00  0.00    -0.130 SA
HETATM   18  C10 UNL     1       4.068  -0.439  -0.171  1.00  0.00     0.194 C 
BRANCH  18  19
HETATM   19  N7  UNL     1       5.009  -0.290   0.817  1.00  0.00    -0.358 N 
ATOM     20  H7  UNL     1       4.567  -0.560   1.695  1.00  0.00     0.162 HD
BRANCH  19  21
HETATM   21  C11 UNL     1       6.158   0.033   1.078  1.00  0.00     0.119 A 
HETATM   22  C12 UNL     1       6.548  -0.037   2.437  1.00  0.00     0.066 A 
HETATM   23  C13 UNL     1       7.805   0.273   2.873  1.00  0.00     0.110 A 
HETATM   24  N8  UNL     1       8.693   0.664   1.947  1.00  0.00    -0.202 N 
HETATM   25  C14 UNL     1       8.342   0.740   0.659  1.00  0.00     0.677 A 
ATOM     26  H8  UNL     1       9.644   0.905   2.228  1.00  0.00     0.183 HD
HETATM   27  N10 UNL     1       7.115   0.433   0.216  1.00  0.00    -0.177 N 
ATOM     28  H10 UNL     1       6.904   0.502  -0.779  1.00  0.00     0.185 HD
BRANCH  25  29
HETATM   29  N9  UNL     1       9.261   1.148  -0.159  1.00  0.00    -0.234 N 
ATOM     30  H92 UNL     1      10.195   1.382   0.178  1.00  0.00     0.174 HD
ATOM     31  H91 UNL     1       8.993   1.206  -1.142  1.00  0.00     0.174 HD
ENDBRANCH  25  29
ENDBRANCH  19  21
ENDBRANCH  18  19
ENDBRANCH  10  11
ENDBRANCH   6  10
BRANCH   7  32
HETATM   32  O5  UNL     1      -0.120  -1.202  -2.566  1.00  0.00    -0.390 OA
ATOM     33  H5  UNL     1      -0.627  -1.077  -3.359  1.00  0.00     0.210 HD
ENDBRANCH   7  32
BRANCH   8  34
HETATM   34  N11 UNL     1      -1.974   1.637  -1.339  1.00  0.00    -0.070 N 
ATOM     35 3H11 UNL     1      -1.539   1.841  -0.439  1.00  0.00     0.274 HD
ATOM     36 2H11 UNL     1      -1.492   2.311  -1.934  1.00  0.00     0.274 HD
ATOM     37 1H11 UNL     1      -2.968   1.861  -1.300  1.00  0.00     0.274 HD
ENDBRANCH   8  34
BRANCH   1  38
HETATM   38  N4  UNL     1      -3.538  -1.359   0.943  1.00  0.00    -0.236 N 
HETATM   39  N3  UNL     1      -3.783  -2.419   1.672  1.00  0.00    -0.237 N 
HETATM   40  N2  UNL     1      -5.113  -2.566   1.876  1.00  0.00    -0.286 N 
ATOM     41  H3  UNL     1      -3.068  -3.049   2.037  1.00  0.00     0.208 HD
HETATM   42  C3  UNL     1      -5.755  -1.581   1.264  1.00  0.00     0.086 A 
ATOM     43  H2  UNL     1      -5.551  -3.314   2.414  1.00  0.00     0.188 HD
HETATM   44  C18 UNL     1      -4.737  -0.812   0.672  1.00  0.00     0.161 A 
HETATM   45  N12 UNL     1      -5.095   0.384  -0.008  1.00  0.00    -0.079 NA
BRANCH  42  46
HETATM   46  C2  UNL     1      -7.200  -1.326   1.013  1.00  0.00     0.204 C 
BRANCH  46  47
HETATM   47  N1  UNL     1      -7.491   0.012   1.453  1.00  0.00    -0.096 NA
BRANCH  47  48
HETATM   48  O1  UNL     1      -8.733   0.333   1.096  1.00  0.00    -0.291 OA
HETATM   49  C1  UNL     1      -8.839   0.657  -0.268  1.00  0.00     0.231 C 
ENDBRANCH  47  48
ENDBRANCH  46  47
ENDBRANCH  42  46
ENDBRANCH   1  38
BRANCH   9  50
HETATM   50  O6  UNL     1      -2.113  -2.025  -1.486  1.00  0.00    -0.389 OA
ATOM     51  H6  UNL     1      -2.213  -1.991  -2.430  1.00  0.00     0.210 HD
ENDBRANCH   9  50
TORSDOF 12
