REMARK  15 active torsions:
REMARK  status: ('A' for Active; 'I' for Inactive)
REMARK    1  A    between atoms: C1_2  and  O2_4 
REMARK    2  A    between atoms: O2_4  and  C2_5 
REMARK    3  A    between atoms: C2_5  and  O3_6 
REMARK    4  A    between atoms: C2_5  and  C3_8 
REMARK    5  A    between atoms: C3_8  and  O4_9 
REMARK    6  A    between atoms: C3_8  and  O5_11 
REMARK    7  A    between atoms: C3_8  and  C4_13 
REMARK       I    between atoms: C4_13  and  N2_15 
REMARK    8  A    between atoms: N2_15  and  S1_17 
REMARK    9  A    between atoms: S1_17  and  N3_20 
REMARK   10  A    between atoms: N3_20  and  C5_22 
REMARK   11  A    between atoms: C8_29  and  S2_30 
REMARK   12  A    between atoms: S2_30  and  N6_33 
REMARK   13  A    between atoms: N6_33  and  C9_35 
REMARK   14  A    between atoms: C12_39  and  O12_40 
REMARK   15  A    between atoms: C13_42  and  O13_43 
ROOT
HETATM    1  C5  UNL     1      -0.200  -0.756   0.465  1.00  0.00     0.141 A 
HETATM    2  N4  UNL     1       0.719  -0.672   1.477  1.00  0.00    -0.337 N 
ATOM      3  H4  UNL     1       1.468   0.015   1.390  1.00  0.00     0.168 HD
HETATM    4  C6  UNL     1       0.692  -1.437   2.572  1.00  0.00     0.181 A 
HETATM    5  N5  UNL     1      -0.275  -2.354   2.729  1.00  0.00    -0.360 N 
ATOM      6  H5  UNL     1      -0.310  -2.947   3.558  1.00  0.00     0.166 HD
HETATM    7  C7  UNL     1      -1.192  -2.464   1.761  1.00  0.00     0.118 A 
HETATM    8  C8  UNL     1      -1.191  -1.674   0.599  1.00  0.00     0.139 A 
ENDROOT
BRANCH   1   9
HETATM    9  N3  UNL     1      -0.051   0.004  -0.570  1.00  0.00    -0.251 N 
ATOM     10  H3  UNL     1      -0.745  -0.072  -1.313  1.00  0.00     0.182 HD
BRANCH   9  11
HETATM   11  S1  UNL     1       1.207   1.116  -0.788  1.00  0.00     0.327 S 
HETATM   12  O7  UNL     1       1.272   1.473  -2.250  1.00  0.00    -0.182 OA
HETATM   13  O8  UNL     1       0.917   2.338   0.019  1.00  0.00    -0.182 OA
BRANCH  11  14
HETATM   14  N2  UNL     1       2.700   0.436  -0.260  1.00  0.00    -0.232 N 
HETATM   15  C4  UNL     1       3.135  -0.800  -0.809  1.00  0.00     0.300 C 
HETATM   16  O6  UNL     1       2.416  -1.381  -1.673  1.00  0.00    -0.266 OA
ATOM     17  H2  UNL     1       3.266   0.916   0.440  1.00  0.00     0.183 HD
BRANCH  15  18
HETATM   18  C3  UNL     1       4.421  -1.364  -0.344  1.00  0.00     0.296 C 
BRANCH  18  19
HETATM   19  C2  UNL     1       5.587  -0.527  -0.832  1.00  0.00     0.341 C 
BRANCH  19  20
HETATM   20  O2  UNL     1       5.540   0.746  -0.236  1.00  0.00    -0.269 OA
BRANCH  20  21
HETATM   21  C1  UNL     1       6.605   1.168   0.547  1.00  0.00     0.375 C 
HETATM   22  N1  UNL     1       6.590   2.447   1.164  1.00  0.00    -0.032 NA
HETATM   23  O1  UNL     1       7.585   0.384   0.696  1.00  0.00    -0.242 OA
ENDBRANCH  20  21
ENDBRANCH  19  20
BRANCH  19  24
HETATM   24  O3  UNL     1       5.536  -0.354  -2.206  1.00  0.00    -0.366 OA
ATOM     25  H3  UNL     1       5.568  -1.214  -2.609  1.00  0.00     0.212 HD
ENDBRANCH  19  24
ENDBRANCH  18  19
BRANCH  18  26
HETATM   26  O4  UNL     1       4.511  -2.642  -0.957  1.00  0.00    -0.354 OA
ATOM     27  H4  UNL     1       3.780  -3.167  -0.651  1.00  0.00     0.213 HD
ENDBRANCH  18  26
BRANCH  18  28
HETATM   28  O5  UNL     1       4.477  -1.582   1.020  1.00  0.00    -0.354 OA
ATOM     29  H5  UNL     1       3.746  -2.107   1.326  1.00  0.00     0.213 HD
ENDBRANCH  18  28
ENDBRANCH  15  18
ENDBRANCH  11  14
ENDBRANCH   9  11
ENDBRANCH   1   9
BRANCH   8  30
HETATM   30  S2  UNL     1      -2.475  -1.876  -0.551  1.00  0.00     0.264 S 
HETATM   31  O9  UNL     1      -1.781  -2.142  -1.907  1.00  0.00    -0.200 OA
HETATM   32  O10 UNL     1      -3.128  -3.250  -0.280  1.00  0.00    -0.200 OA
BRANCH  30  33
HETATM   33  N6  UNL     1      -3.674  -0.763  -0.647  1.00  0.00    -0.306 N 
ATOM     34  H6  UNL     1      -4.609  -1.110  -0.434  1.00  0.00     0.173 HD
BRANCH  33  35
HETATM   35  C9  UNL     1      -3.603   0.569  -0.973  1.00  0.00     0.148 C 
HETATM   36  C10 UNL     1      -4.484   1.003  -2.132  1.00  0.00     0.196 C 
HETATM   37  O11 UNL     1      -5.779   1.258  -1.797  1.00  0.00    -0.386 OA
HETATM   38  C11 UNL     1      -5.924   2.241  -0.820  1.00  0.00     0.201 C 
HETATM   39  C12 UNL     1      -5.414   1.580   0.468  1.00  0.00     0.172 C 
HETATM   40  C13 UNL     1      -3.939   1.404   0.279  1.00  0.00     0.174 C 
BRANCH  39  41
HETATM   41  O12 UNL     1      -6.046   0.367   0.581  1.00  0.00    -0.391 OA
ATOM     42  H12 UNL     1      -5.730  -0.042   1.378  1.00  0.00     0.210 HD
ENDBRANCH  39  41
BRANCH  40  43
HETATM   43  O13 UNL     1      -3.430   0.806   1.414  1.00  0.00    -0.391 OA
ATOM     44  H13 UNL     1      -3.637   1.320   2.185  1.00  0.00     0.210 HD
ENDBRANCH  40  43
ENDBRANCH  33  35
ENDBRANCH  30  33
ENDBRANCH   8  30
TORSDOF 15
