REMARK  14 active torsions:
REMARK  status: ('A' for Active; 'I' for Inactive)
REMARK    1  A    between atoms: O1_2  and  C2_3 
REMARK    2  A    between atoms: C2_3  and  C3_5 
REMARK    3  A    between atoms: C4_7  and  N1_8 
REMARK    4  A    between atoms: C6_12  and  C7_13 
REMARK       I    between atoms: C7_13  and  N3_15 
REMARK    5  A    between atoms: C10_21  and  O5_22 
REMARK    6  A    between atoms: C11_24  and  O6_25 
REMARK    7  A    between atoms: C12_27  and  O7_28 
REMARK    8  A    between atoms: C12_27  and  C13_30 
REMARK    9  A    between atoms: C13_30  and  O8_31 
REMARK   10  A    between atoms: C13_30  and  C14_33 
REMARK   11  A    between atoms: C14_33  and  N6_34 
REMARK   12  A    between atoms: C15_37  and  C16_38 
REMARK   13  A    between atoms: C16_38  and  N9_40 
REMARK   14  A    between atoms: N9_40  and  N10_42 
ROOT
HETATM    1  C3  UNL     1      -0.025  -1.291  -0.675  1.00  0.00     0.263 C 
HETATM    2  O3  UNL     1       1.304  -1.086  -0.481  1.00  0.00    -0.345 OA
HETATM    3  C4  UNL     1       1.652   0.044   0.216  1.00  0.00     0.260 C 
HETATM    4  C10 UNL     1       1.129  -0.140   1.633  1.00  0.00     0.199 C 
HETATM    5  C11 UNL     1      -0.375  -0.142   1.541  1.00  0.00     0.191 C 
HETATM    6  C12 UNL     1      -0.918  -1.054   0.483  1.00  0.00     0.148 C 
ENDROOT
BRANCH   6   7
HETATM    7  O7  UNL     1      -1.139  -2.303   1.110  1.00  0.00    -0.381 OA
ATOM      8  H7  UNL     1      -1.712  -2.151   1.853  1.00  0.00     0.211 HD
ENDBRANCH   6   7
BRANCH   6   9
HETATM    9  C13 UNL     1      -2.261  -0.562  -0.014  1.00  0.00     0.178 C 
BRANCH   9  10
HETATM   10  O8  UNL     1      -2.081   0.659  -0.633  1.00  0.00    -0.391 OA
ATOM     11  H8  UNL     1      -2.924   0.968  -0.945  1.00  0.00     0.210 HD
ENDBRANCH   9  10
BRANCH   9  12
HETATM   12  C14 UNL     1      -3.284  -0.495   1.099  1.00  0.00     0.186 C 
BRANCH  12  13
HETATM   13  N6  UNL     1      -4.550  -0.017   0.562  1.00  0.00    -0.263 N 
HETATM   14  N7  UNL     1      -4.959   1.237   0.472  1.00  0.00    -0.278 N 
HETATM   15  C15 UNL     1      -6.184   1.276  -0.079  1.00  0.00     0.165 A 
ATOM     16  H7  UNL     1      -4.425   2.052   0.775  1.00  0.00     0.189 HD
HETATM   17  N11 UNL     1      -6.563   0.016  -0.344  1.00  0.00    -0.314 N 
HETATM   18  C17 UNL     1      -5.550  -0.762   0.055  1.00  0.00     0.194 A 
ATOM     19  H11 UNL     1      -7.442  -0.286  -0.763  1.00  0.00     0.170 HD
HETATM   20  S1  UNL     1      -5.582  -2.409  -0.082  1.00  0.00    -0.039 SA
BRANCH  15  21
HETATM   21  C16 UNL     1      -6.989   2.462  -0.354  1.00  0.00     0.176 C 
HETATM   22  N8  UNL     1      -8.274   2.344  -0.944  1.00  0.00    -0.077 NA
BRANCH  21  23
HETATM   23  N9  UNL     1      -6.578   3.655  -0.079  1.00  0.00    -0.291 N 
ATOM     24  H9  UNL     1      -7.198   4.434  -0.301  1.00  0.00     0.187 HD
BRANCH  23  25
HETATM   25  N10 UNL     1      -5.353   3.950   0.496  1.00  0.00    -0.344 N 
ATOM     26 2H10 UNL     1      -4.746   3.159   0.711  1.00  0.00     0.176 HD
ATOM     27 1H10 UNL     1      -5.028   4.892   0.713  1.00  0.00     0.176 HD
ENDBRANCH  23  25
ENDBRANCH  21  23
ENDBRANCH  15  21
ENDBRANCH  12  13
ENDBRANCH   9  12
ENDBRANCH   6   9
BRANCH   1  28
HETATM   28  C2  UNL     1      -0.186  -2.687  -1.215  1.00  0.00     0.291 C 
HETATM   29  O2  UNL     1      -1.304  -3.176  -1.499  1.00  0.00    -0.262 OA
BRANCH  28  30
HETATM   30  O1  UNL     1       0.918  -3.521  -1.431  1.00  0.00    -0.324 OA
HETATM   31  C1  UNL     1       0.738  -4.835  -1.942  1.00  0.00     0.213 C 
ENDBRANCH  28  30
ENDBRANCH   1  28
BRANCH   5  32
HETATM   32  O6  UNL     1      -0.779   1.181   1.370  1.00  0.00    -0.390 OA
ATOM     33  H6  UNL     1      -1.727   1.180   1.312  1.00  0.00     0.210 HD
ENDBRANCH   5  32
BRANCH   4  34
HETATM   34  O5  UNL     1       1.534  -1.383   2.065  1.00  0.00    -0.388 OA
ATOM     35  H5  UNL     1       1.207  -1.498   2.950  1.00  0.00     0.210 HD
ENDBRANCH   4  34
BRANCH   3  36
HETATM   36  N1  UNL     1       3.088   0.137   0.243  1.00  0.00    -0.321 N 
HETATM   37  C5  UNL     1       3.866   0.376   1.303  1.00  0.00     0.185 A 
HETATM   38  N2  UNL     1       5.159   0.383   0.899  1.00  0.00    -0.347 N 
HETATM   39  C6  UNL     1       5.214   0.149  -0.421  1.00  0.00     0.117 A 
ATOM     40  H2  UNL     1       5.965   0.541   1.504  1.00  0.00     0.167 HD
HETATM   41  C9  UNL     1       3.890  -0.005  -0.818  1.00  0.00     0.129 A 
BRANCH  39  42
HETATM   42  C7  UNL     1       6.374   0.063  -1.295  1.00  0.00     0.275 C 
HETATM   43  O4  UNL     1       6.250  -0.167  -2.522  1.00  0.00    -0.266 OA
HETATM   44  N3  UNL     1       7.687   0.235  -0.786  1.00  0.00    -0.298 N 
HETATM   45  C8  UNL     1       8.197   1.394  -0.569  1.00  0.00     0.203 C 
ATOM     46  H3  UNL     1       8.247  -0.593  -0.585  1.00  0.00     0.171 HD
HETATM   47  N4  UNL     1       7.498   2.603  -0.816  1.00  0.00    -0.066 NA
HETATM   48  N5  UNL     1       9.518   1.472  -0.058  1.00  0.00    -0.066 NA
ENDBRANCH  39  42
ENDBRANCH   3  36
TORSDOF 14
