REMARK  12 active torsions:
REMARK  status: ('A' for Active; 'I' for Inactive)
REMARK    1  A    between atoms: N1_1  and  C1_4 
REMARK    2  A    between atoms: C2_7  and  N3_8 
REMARK    3  A    between atoms: C9_24  and  N9_25 
REMARK    4  A    between atoms: N10_28  and  C10_29 
REMARK    5  A    between atoms: C11_31  and  C12_32 
REMARK    6  A    between atoms: C11_31  and  C13_35 
REMARK    7  A    between atoms: C12_32  and  O2_33 
REMARK    8  A    between atoms: C13_35  and  O3_36 
REMARK    9  A    between atoms: O3_36  and  S1_37 
REMARK   10  A    between atoms: S1_37  and  N11_38 
REMARK   11  A    between atoms: C14_43  and  C15_44 
REMARK   12  A    between atoms: C15_44  and  O6_45 
ROOT
HETATM    1  C1  UNL     1       2.849   2.187  -1.832  1.00  0.00     0.146 A 
HETATM    2  N2  UNL     1       3.552   1.602  -0.857  1.00  0.00    -0.175 N 
ATOM      3  H2  UNL     1       4.518   1.891  -0.703  1.00  0.00     0.186 HD
HETATM    4  C2  UNL     1       3.028   0.650  -0.077  1.00  0.00     0.684 A 
HETATM    5  N7  UNL     1       1.771   0.243  -0.242  1.00  0.00    -0.173 N 
ATOM      6  H7  UNL     1       1.387  -0.484   0.362  1.00  0.00     0.186 HD
HETATM    7  C7  UNL     1       1.007   0.792  -1.207  1.00  0.00     0.173 A 
HETATM    8  C8  UNL     1       1.546   1.793  -2.032  1.00  0.00     0.138 A 
HETATM    9  N8  UNL     1       0.623   2.200  -2.917  1.00  0.00    -0.184 N 
ATOM     10  H8  UNL     1       0.735   2.913  -3.638  1.00  0.00     0.184 HD
HETATM   11  C9  UNL     1      -0.472   1.481  -2.661  1.00  0.00     0.683 A 
HETATM   12  N10 UNL     1      -0.249   0.616  -1.618  1.00  0.00    -0.129 N 
ENDROOT
BRANCH  12  13
HETATM   13  C10 UNL     1      -1.245  -0.276  -1.137  1.00  0.00     0.341 C 
HETATM   14  O1  UNL     1      -2.168   0.376  -0.302  1.00  0.00    -0.339 OA
HETATM   15  C11 UNL     1      -3.133  -0.464   0.187  1.00  0.00     0.130 C 
HETATM   16  C14 UNL     1      -2.565  -1.479   1.161  1.00  0.00     0.147 C 
HETATM   17  N12 UNL     1      -1.256  -1.945   0.682  1.00  0.00    -0.347 N 
HETATM   18  C16 UNL     1      -0.808  -1.568  -0.614  1.00  0.00     0.268 C 
ATOM     19  H12 UNL     1      -0.673  -2.535   1.275  1.00  0.00     0.163 HD
HETATM   20  O7  UNL     1      -0.079  -2.325  -1.252  1.00  0.00    -0.269 OA
BRANCH  15  21
HETATM   21  C12 UNL     1      -3.921  -1.193  -0.903  1.00  0.00     0.206 C 
BRANCH  21  22
HETATM   22  O2  UNL     1      -4.565  -0.301  -1.723  1.00  0.00    -0.398 OA
ATOM     23  H2  UNL     1      -5.054  -0.754  -2.400  1.00  0.00     0.209 HD
ENDBRANCH  21  22
ENDBRANCH  15  21
BRANCH  15  24
HETATM   24  C13 UNL     1      -4.165   0.336   0.945  1.00  0.00     0.234 C 
BRANCH  24  25
HETATM   25  O3  UNL     1      -4.764   1.258   0.124  1.00  0.00    -0.257 OA
BRANCH  25  26
HETATM   26  S1  UNL     1      -5.924   2.141   0.965  1.00  0.00     0.355 S 
HETATM   27  O4  UNL     1      -5.529   2.341   2.408  1.00  0.00    -0.176 OA
HETATM   28  O5  UNL     1      -6.088   3.462   0.272  1.00  0.00    -0.176 OA
BRANCH  26  29
HETATM   29  N11 UNL     1      -7.469   1.336   0.881  1.00  0.00    -0.306 N 
ATOM     30 2H11 UNL     1      -7.630   0.457   0.389  1.00  0.00     0.171 HD
ATOM     31 1H11 UNL     1      -8.172   1.871   1.391  1.00  0.00     0.171 HD
ENDBRANCH  26  29
ENDBRANCH  25  26
ENDBRANCH  24  25
ENDBRANCH  15  24
BRANCH  16  32
HETATM   32  C15 UNL     1      -3.458  -2.660   1.342  1.00  0.00     0.192 C 
BRANCH  32  33
HETATM   33  O6  UNL     1      -2.864  -3.513   2.298  1.00  0.00    -0.399 OA
ATOM     34  H6  UNL     1      -3.433  -4.265   2.413  1.00  0.00     0.209 HD
ENDBRANCH  32  33
ENDBRANCH  16  32
ENDBRANCH  12  13
BRANCH  11  35
HETATM   35  N9  UNL     1      -1.577   1.592  -3.306  1.00  0.00    -0.234 N 
ATOM     36  H92 UNL     1      -1.743   2.234  -4.081  1.00  0.00     0.174 HD
ATOM     37  H91 UNL     1      -2.414   1.043  -3.110  1.00  0.00     0.174 HD
ENDBRANCH  11  35
BRANCH   4  38
HETATM   38  N3  UNL     1       3.838   0.094   0.923  1.00  0.00    -0.200 N 
HETATM   39  C3  UNL     1       4.537   1.016   1.790  1.00  0.00     0.162 C 
HETATM   40  C4  UNL     1       5.911   1.345   1.283  1.00  0.00     0.143 C 
HETATM   41  N4  UNL     1       6.556   0.269   0.585  1.00  0.00    -0.363 N 
HETATM   42  C5  UNL     1       6.394  -1.126   0.621  1.00  0.00     0.185 C 
ATOM     43  H4  UNL     1       7.276   0.579  -0.068  1.00  0.00     0.162 HD
HETATM   44  N5  UNL     1       7.558  -1.936   0.463  1.00  0.00    -0.064 NA
HETATM   45  N6  UNL     1       5.285  -1.791   0.782  1.00  0.00    -0.348 N 
HETATM   46  C6  UNL     1       3.911  -1.334   0.969  1.00  0.00     0.267 C 
ATOM     47  H6  UNL     1       5.396  -2.805   0.776  1.00  0.00     0.163 HD
ENDBRANCH   4  38
BRANCH   1  48
HETATM   48  N1  UNL     1       3.412   3.105  -2.556  1.00  0.00    -0.383 N 
ATOM     49  H12 UNL     1       4.378   3.397  -2.408  1.00  0.00     0.157 HD
ATOM     50  H11 UNL     1       2.876   3.551  -3.300  1.00  0.00     0.157 HD
ENDBRANCH   1  48
TORSDOF 12
