REMARK  12 active torsions:
REMARK  status: ('A' for Active; 'I' for Inactive)
REMARK    1  A    between atoms: N2_9  and  C7_10 
REMARK    2  A    between atoms: C7_10  and  O2_11 
REMARK    3  A    between atoms: O2_11  and  C8_12 
REMARK    4  A    between atoms: C8_12  and  C9_14 
REMARK    5  A    between atoms: C9_14  and  O4_15 
REMARK    6  A    between atoms: C9_14  and  C10_17 
REMARK    7  A    between atoms: C10_17  and  O5_18 
REMARK    8  A    between atoms: N3_20  and  C11_21 
REMARK    9  A    between atoms: N5_25  and  N6_27 
REMARK   10  A    between atoms: C14_32  and  N9_33 
REMARK   11  A    between atoms: C15_37  and  O6_38 
REMARK   12  A    between atoms: C16_40  and  O7_41 
ROOT
HETATM    1  C1  UNL     1      -4.347  -1.743   1.202  1.00  0.00     0.161 C 
HETATM    2  N1  UNL     1      -3.143  -2.367   0.706  1.00  0.00    -0.300 N 
HETATM    3  C2  UNL     1      -3.172  -3.629   0.277  1.00  0.00     0.276 A 
HETATM    4  O1  UNL     1      -4.263  -4.256   0.315  1.00  0.00    -0.265 OA
HETATM    5  C3  UNL     1      -2.040  -4.279  -0.210  1.00  0.00     0.108 A 
HETATM    6  C4  UNL     1      -0.852  -3.573  -0.243  1.00  0.00     0.032 A 
HETATM    7  C5  UNL     1      -0.812  -2.260   0.201  1.00  0.00     0.110 A 
HETATM    8  C6  UNL     1      -1.952  -1.702   0.658  1.00  0.00     0.159 A 
HETATM    9  N2  UNL     1      -1.267  -0.582   0.885  1.00  0.00    -0.245 N 
HETATM   10  N3  UNL     1      -0.173  -1.116   0.447  1.00  0.00    -0.256 N 
HETATM   11  C17 UNL     1       0.377  -4.222  -0.753  1.00  0.00     0.277 C 
HETATM   12  N10 UNL     1      -0.052  -5.183  -1.769  1.00  0.00    -0.056 N 
ATOM     13 1H10 UNL     1       0.742  -5.583  -2.269  1.00  0.00     0.279 HD
ATOM     14 2H10 UNL     1      -0.512  -4.722  -2.554  1.00  0.00     0.279 HD
HETATM   15  C18 UNL     1      -0.899  -6.221  -1.177  1.00  0.00     0.355 C 
HETATM   16  N11 UNL     1      -2.105  -5.616  -0.657  1.00  0.00    -0.362 N 
ATOM     17  H11 UNL     1      -2.978  -6.141  -0.614  1.00  0.00     0.161 HD
ENDROOT
BRANCH  10  18
HETATM   18  C11 UNL     1       1.207  -0.720   0.261  1.00  0.00     0.239 C 
HETATM   19  N4  UNL     1       1.707   0.074   1.372  1.00  0.00    -0.352 N 
HETATM   20  C12 UNL     1       2.932   0.788   1.077  1.00  0.00     0.127 C 
ATOM     21  H4  UNL     1       1.238   0.124   2.276  1.00  0.00     0.163 HD
HETATM   22  N5  UNL     1       3.286   1.807   1.776  1.00  0.00    -0.285 N 
HETATM   23  C14 UNL     1       3.692   0.234  -0.070  1.00  0.00     0.282 C 
ATOM     24  H5  UNL     1       2.678   2.095   2.543  1.00  0.00     0.188 HD
HETATM   25  C15 UNL     1       2.848   0.132  -1.328  1.00  0.00     0.188 C 
HETATM   26  C16 UNL     1       1.384   0.147  -0.967  1.00  0.00     0.193 C 
BRANCH  22  27
HETATM   27  N6  UNL     1       4.427   2.530   1.557  1.00  0.00    -0.275 N 
HETATM   28  C13 UNL     1       4.483   3.727   1.096  1.00  0.00     0.215 C 
HETATM   29  N7  UNL     1       3.351   4.502   0.735  1.00  0.00    -0.065 NA
HETATM   30  N8  UNL     1       5.769   4.316   0.937  1.00  0.00    -0.065 NA
ATOM     31  H6  UNL     1       5.313   2.077   1.780  1.00  0.00     0.189 HD
ENDBRANCH  22  27
BRANCH  23  32
HETATM   32  N9  UNL     1       4.955   0.858  -0.306  1.00  0.00    -0.066 N 
ATOM     33  H93 UNL     1       4.838   1.866  -0.413  1.00  0.00     0.275 HD
ATOM     34  H92 UNL     1       5.524   0.836   0.540  1.00  0.00     0.275 HD
ATOM     35  H91 UNL     1       5.478   0.477  -1.095  1.00  0.00     0.275 HD
ENDBRANCH  23  32
BRANCH  25  36
HETATM   36  O6  UNL     1       3.170   1.157  -2.225  1.00  0.00    -0.390 OA
ATOM     37  H6  UNL     1       2.642   1.093  -3.012  1.00  0.00     0.210 HD
ENDBRANCH  25  36
BRANCH  26  38
HETATM   38  O7  UNL     1       0.556  -0.192  -1.997  1.00  0.00    -0.389 OA
ATOM     39  H7  UNL     1       0.667   0.352  -2.768  1.00  0.00     0.210 HD
ENDBRANCH  26  38
ENDBRANCH  10  18
BRANCH   9  40
HETATM   40  C7  UNL     1      -1.653   0.715   1.422  1.00  0.00     0.329 C 
BRANCH  40  41
HETATM   41  O2  UNL     1      -2.065   1.549   0.341  1.00  0.00    -0.298 OA
BRANCH  41  42
HETATM   42  C8  UNL     1      -2.491   2.842   0.520  1.00  0.00     0.291 C 
HETATM   43  O3  UNL     1      -2.509   3.286   1.705  1.00  0.00    -0.262 OA
BRANCH  42  44
HETATM   44  C9  UNL     1      -2.928   3.755  -0.546  1.00  0.00     0.241 C 
BRANCH  44  45
HETATM   45  O4  UNL     1      -2.881   3.202  -1.803  1.00  0.00    -0.383 OA
ATOM     46  H4  UNL     1      -3.163   3.792  -2.492  1.00  0.00     0.210 HD
ENDBRANCH  44  45
BRANCH  44  47
HETATM   47  C10 UNL     1      -4.345   4.230  -0.199  1.00  0.00     0.206 C 
BRANCH  47  48
HETATM   48  O5  UNL     1      -4.327   4.779   1.083  1.00  0.00    -0.398 OA
ATOM     49  H5  UNL     1      -5.204   5.073   1.298  1.00  0.00     0.209 HD
ENDBRANCH  47  48
ENDBRANCH  44  47
ENDBRANCH  42  44
ENDBRANCH  41  42
ENDBRANCH  40  41
ENDBRANCH   9  40
TORSDOF 12
