REMARK  12 active torsions:
REMARK  status: ('A' for Active; 'I' for Inactive)
REMARK    1  A    between atoms: N1_1  and  C1_4 
REMARK    2  A    between atoms: C2_7  and  S1_8 
REMARK    3  A    between atoms: S1_8  and  N3_9 
REMARK    4  A    between atoms: N5_19  and  C5_20 
REMARK    5  A    between atoms: C6_22  and  C7_23 
REMARK    6  A    between atoms: C7_23  and  S2_24 
REMARK    7  A    between atoms: S2_24  and  C8_25 
REMARK    8  A    between atoms: C9_27  and  O6_28 
REMARK    9  A    between atoms: C10_30  and  N6_31 
REMARK   10  A    between atoms: C11_35  and  O7_36 
REMARK   11  A    between atoms: C12_38  and  O8_39 
REMARK   12  A    between atoms: C12_38  and  O9_41 
ROOT
HETATM    1  C5  UNL     1      -0.366   0.143  -0.460  1.00  0.00     0.299 C 
HETATM    2  O4  UNL     1      -0.077   0.764   0.725  1.00  0.00    -0.352 OA
HETATM    3  C6  UNL     1       1.010   0.132   1.304  1.00  0.00     0.168 C 
HETATM    4  C11 UNL     1       0.961  -1.312   0.889  1.00  0.00     0.214 C 
HETATM    5  C12 UNL     1       0.195  -1.257  -0.408  1.00  0.00     0.234 C 
ENDROOT
BRANCH   1   6
HETATM    6  N5  UNL     1      -1.746   0.095  -0.817  1.00  0.00    -0.249 N 
HETATM    7  C4  UNL     1      -2.183   0.076  -2.089  1.00  0.00     0.331 A 
HETATM    8  N4  UNL     1      -3.525   0.029  -2.128  1.00  0.00    -0.302 N 
HETATM    9  O3  UNL     1      -1.494   0.096  -3.152  1.00  0.00    -0.246 OA
HETATM   10  C3  UNL     1      -3.980   0.018  -0.863  1.00  0.00     0.122 A 
ATOM     11  H4  UNL     1      -4.099   0.006  -2.971  1.00  0.00     0.171 HD
HETATM   12  C2  UNL     1      -5.223  -0.022  -0.273  1.00  0.00     0.194 A 
HETATM   13  C13 UNL     1      -2.856   0.059  -0.063  1.00  0.00     0.159 A 
HETATM   14  N2  UNL     1      -5.305  -0.020   1.073  1.00  0.00    -0.177 N 
HETATM   15  C1  UNL     1      -4.198   0.021   1.833  1.00  0.00     0.678 A 
ATOM     16  H2  UNL     1      -6.221  -0.050   1.521  1.00  0.00     0.185 HD
HETATM   17  N7  UNL     1      -2.986   0.060   1.258  1.00  0.00    -0.174 N 
ATOM     18  H7  UNL     1      -2.152   0.091   1.845  1.00  0.00     0.186 HD
BRANCH  12  19
HETATM   19  S1  UNL     1      -6.629  -0.072  -1.296  1.00  0.00     0.275 S 
HETATM   20  O1  UNL     1      -6.406  -0.817  -2.562  1.00  0.00    -0.199 OA
HETATM   21  O2  UNL     1      -7.779  -0.737  -0.583  1.00  0.00    -0.199 OA
BRANCH  19  22
HETATM   22  N3  UNL     1      -7.155   1.525  -1.683  1.00  0.00    -0.323 N 
ATOM     23  H32 UNL     1      -6.694   2.372  -1.350  1.00  0.00     0.169 HD
ATOM     24  H31 UNL     1      -7.979   1.496  -2.283  1.00  0.00     0.169 HD
ENDBRANCH  19  22
ENDBRANCH  12  19
BRANCH  15  25
HETATM   25  N1  UNL     1      -4.276   0.024   3.119  1.00  0.00    -0.234 N 
ATOM     26  H12 UNL     1      -5.197  -0.006   3.556  1.00  0.00     0.174 HD
ATOM     27  H11 UNL     1      -3.435   0.055   3.696  1.00  0.00     0.174 HD
ENDBRANCH  15  25
ENDBRANCH   1   6
BRANCH   5  28
HETATM   28  O8  UNL     1       1.068  -1.506  -1.478  1.00  0.00    -0.360 OA
ATOM     29  H8  UNL     1       1.421  -2.387  -1.445  1.00  0.00     0.213 HD
ENDBRANCH   5  28
BRANCH   5  30
HETATM   30  O9  UNL     1      -0.791  -2.224  -0.362  1.00  0.00    -0.360 OA
ATOM     31  H9  UNL     1      -0.438  -3.105  -0.329  1.00  0.00     0.213 HD
ENDBRANCH   5  30
BRANCH   3  32
HETATM   32  C7  UNL     1       2.262   0.828   0.880  1.00  0.00     0.111 C 
BRANCH  32  33
HETATM   33  S2  UNL     1       3.718   0.036   1.614  1.00  0.00    -0.132 SA
BRANCH  33  34
HETATM   34  C8  UNL     1       5.244   0.842   1.130  1.00  0.00     0.221 C 
HETATM   35  O5  UNL     1       6.338   0.206   1.712  1.00  0.00    -0.341 OA
HETATM   36  C9  UNL     1       6.412  -0.643   0.623  1.00  0.00     0.292 C 
HETATM   37  C10 UNL     1       5.766   0.407  -0.222  1.00  0.00     0.276 C 
BRANCH  36  38
HETATM   38  O6  UNL     1       5.627  -1.790   0.714  1.00  0.00    -0.369 OA
ATOM     39  H6  UNL     1       5.678  -2.373  -0.034  1.00  0.00     0.212 HD
ENDBRANCH  36  38
BRANCH  37  40
HETATM   40  N6  UNL     1       6.651   1.334  -0.862  1.00  0.00    -0.067 N 
ATOM     41  H63 UNL     1       6.207   2.249  -0.935  1.00  0.00     0.275 HD
ATOM     42  H62 UNL     1       7.429   1.561  -0.242  1.00  0.00     0.275 HD
ATOM     43  H61 UNL     1       7.003   1.041  -1.773  1.00  0.00     0.275 HD
ENDBRANCH  37  40
ENDBRANCH  33  34
ENDBRANCH  32  33
ENDBRANCH   3  32
BRANCH   4  44
HETATM   44  O7  UNL     1       2.210  -1.888   0.757  1.00  0.00    -0.387 OA
ATOM     45  H7  UNL     1       2.179  -2.801   0.495  1.00  0.00     0.210 HD
ENDBRANCH   4  44
TORSDOF 12
