REMARK  12 active torsions:
REMARK  status: ('A' for Active; 'I' for Inactive)
REMARK    1  A    between atoms: C5_10  and  C6_11 
REMARK    2  A    between atoms: C6_11  and  N3_12 
REMARK    3  A    between atoms: N4_14  and  C8_15 
REMARK    4  A    between atoms: C10_19  and  C11_20 
REMARK    5  A    between atoms: C11_20  and  O3_21 
REMARK    6  A    between atoms: C11_20  and  C12_23 
REMARK    7  A    between atoms: C12_23  and  O4_24 
REMARK    8  A    between atoms: C14_27  and  O5_28 
REMARK    9  A    between atoms: C14_27  and  C15_30 
REMARK   10  A    between atoms: C16_33  and  O8_34 
REMARK   11  A    between atoms: C17_36  and  O9_37 
REMARK   12  A    between atoms: C17_36  and  O10_39 
ROOT
HETATM    1  C8  UNL     1      -0.515   2.283   0.316  1.00  0.00     0.311 C 
HETATM    2  O1  UNL     1      -1.049   1.617   1.410  1.00  0.00    -0.326 OA
HETATM    3  C9  UNL     1      -2.300   1.175   1.087  1.00  0.00     0.307 C 
HETATM    4  O2  UNL     1      -2.380  -0.198   1.389  1.00  0.00    -0.350 OA
HETATM    5  C10 UNL     1      -3.708  -0.542   1.281  1.00  0.00     0.159 C 
HETATM    6  C13 UNL     1      -4.243  -0.370  -0.105  1.00  0.00     0.087 C 
HETATM    7  C14 UNL     1      -3.195   0.177  -1.053  1.00  0.00     0.189 C 
HETATM    8  C16 UNL     1      -2.474   1.302  -0.411  1.00  0.00     0.209 C 
HETATM    9  C17 UNL     1      -0.999   1.379  -0.829  1.00  0.00     0.247 C 
ENDROOT
BRANCH   1  10
HETATM   10  N4  UNL     1       0.907   2.357   0.352  1.00  0.00    -0.237 N 
HETATM   11  C7  UNL     1       1.742   1.999  -0.622  1.00  0.00     0.219 A 
HETATM   12  N3  UNL     1       3.031   2.214  -0.222  1.00  0.00    -0.265 N 
HETATM   13  N6  UNL     1       2.915   2.703   1.000  1.00  0.00    -0.005 NA
HETATM   14  N5  UNL     1       1.645   2.793   1.356  1.00  0.00    -0.003 NA
BRANCH  12  15
HETATM   15  C6  UNL     1       4.253   1.974  -0.945  1.00  0.00     0.223 C 
BRANCH  15  16
HETATM   16  C5  UNL     1       4.724   0.593  -0.667  1.00  0.00     0.102 A 
HETATM   17  N2  UNL     1       4.357  -0.448  -1.409  1.00  0.00    -0.331 N 
HETATM   18  C4  UNL     1       4.758  -1.718  -1.196  1.00  0.00     0.101 A 
ATOM     19  H2  UNL     1       3.729  -0.274  -2.193  1.00  0.00     0.168 HD
HETATM   20  C3  UNL     1       5.608  -1.952  -0.131  1.00  0.00     0.072 A 
HETATM   21  N1  UNL     1       4.359  -2.681  -1.962  1.00  0.00    -0.385 N 
HETATM   22  C2  UNL     1       5.987  -0.876   0.636  1.00  0.00     0.010 A 
HETATM   23  C1  UNL     1       6.899  -1.073   1.791  1.00  0.00     0.068 C 
HETATM   24  N7  UNL     1       5.561   0.362   0.382  1.00  0.00    -0.348 N 
ATOM     25  H7  UNL     1       5.862   1.136   0.974  1.00  0.00     0.167 HD
ATOM     26  H12 UNL     1       4.662  -3.641  -1.801  1.00  0.00     0.157 HD
ATOM     27  H11 UNL     1       3.732  -2.508  -2.748  1.00  0.00     0.157 HD
ENDBRANCH  15  16
ENDBRANCH  12  15
ENDBRANCH   1  10
BRANCH   9  28
HETATM   28  O9  UNL     1      -0.845   1.968  -2.055  1.00  0.00    -0.359 OA
ATOM     29  H9  UNL     1      -1.144   1.409  -2.763  1.00  0.00     0.213 HD
ENDBRANCH   9  28
BRANCH   9  30
HETATM   30  O10 UNL     1      -0.390   0.163  -0.678  1.00  0.00    -0.359 OA
ATOM     31  H10 UNL     1      -0.689  -0.396  -1.386  1.00  0.00     0.213 HD
ENDBRANCH   9  30
BRANCH   8  32
HETATM   32  O8  UNL     1      -3.076   2.540  -0.640  1.00  0.00    -0.377 OA
ATOM     33  H8  UNL     1      -3.185   2.620  -1.580  1.00  0.00     0.211 HD
ENDBRANCH   8  32
BRANCH   7  34
HETATM   34  O5  UNL     1      -2.366  -0.822  -1.559  1.00  0.00    -0.376 OA
ATOM     35  H5  UNL     1      -1.709  -0.479  -2.153  1.00  0.00     0.211 HD
ENDBRANCH   7  34
BRANCH   7  36
HETATM   36  C15 UNL     1      -3.964   0.744  -2.220  1.00  0.00     0.212 C 
HETATM   37  O6  UNL     1      -3.808   0.322  -3.389  1.00  0.00    -0.646 OA
HETATM   38  O7  UNL     1      -4.874   1.767  -1.994  1.00  0.00    -0.646 OA
ENDBRANCH   7  36
BRANCH   5  39
HETATM   39  C11 UNL     1      -4.006  -1.927   1.771  1.00  0.00     0.170 C 
BRANCH  39  40
HETATM   40  O3  UNL     1      -3.658  -2.051   3.133  1.00  0.00    -0.391 OA
ATOM     41  H3  UNL     1      -3.847  -2.929   3.444  1.00  0.00     0.210 HD
ENDBRANCH  39  40
BRANCH  39  42
HETATM   42  C12 UNL     1      -3.225  -2.985   1.032  1.00  0.00     0.198 C 
BRANCH  42  43
HETATM   43  O4  UNL     1      -3.572  -4.242   1.526  1.00  0.00    -0.398 OA
ATOM     44  H4  UNL     1      -3.080  -4.908   1.061  1.00  0.00     0.209 HD
ENDBRANCH  42  43
ENDBRANCH  39  42
ENDBRANCH   5  39
TORSDOF 12
