REMARK  13 active torsions:
REMARK  status: ('A' for Active; 'I' for Inactive)
REMARK    1  A    between atoms: N1_1  and  C1_4 
REMARK    2  A    between atoms: N4_13  and  C5_14 
REMARK    3  A    between atoms: C6_15  and  O2_16 
REMARK    4  A    between atoms: C8_19  and  O3_20 
REMARK    5  A    between atoms: C8_19  and  C9_22 
REMARK    6  A    between atoms: C9_22  and  O4_23 
REMARK    7  A    between atoms: C9_22  and  C10_25 
REMARK    8  A    between atoms: C10_25  and  O5_26 
REMARK    9  A    between atoms: O5_26  and  N5_27 
REMARK   10  A    between atoms: C12_30  and  C13_31 
REMARK   11  A    between atoms: C14_34  and  O9_35 
REMARK   12  A    between atoms: C15_37  and  O10_38 
REMARK   13  A    between atoms: C16_40  and  O11_41 
ROOT
HETATM    1  C5  UNL     1      -2.408  -0.040   0.132  1.00  0.00     0.152 C 
HETATM    2  C6  UNL     1      -1.990  -0.318  -1.323  1.00  0.00     0.147 C 
HETATM    3  C7  UNL     1      -0.531  -0.090  -1.367  1.00  0.00     0.077 C 
HETATM    4  C8  UNL     1       0.118  -1.223  -0.622  1.00  0.00     0.116 C 
HETATM    5  C15 UNL     1      -0.429  -1.483   0.755  1.00  0.00     0.186 C 
HETATM    6  C16 UNL     1      -1.617  -0.728   1.162  1.00  0.00     0.175 C 
ENDROOT
BRANCH   4   7
HETATM    7  O3  UNL     1      -0.162  -2.433  -1.325  1.00  0.00    -0.384 OA
ATOM      8  H3  UNL     1       0.248  -3.149  -0.854  1.00  0.00     0.210 HD
ENDBRANCH   4   7
BRANCH   4   9
HETATM    9  C9  UNL     1       1.546  -1.024  -0.733  1.00  0.00     0.180 C 
BRANCH   9  10
HETATM   10  O4  UNL     1       1.879   0.405  -0.781  1.00  0.00    -0.390 OA
ATOM     11  H4  UNL     1       2.817   0.536  -0.854  1.00  0.00     0.210 HD
ENDBRANCH   9  10
BRANCH   9  12
HETATM   12  C10 UNL     1       2.412  -1.355   0.524  1.00  0.00     0.229 C 
BRANCH  12  13
HETATM   13  O5  UNL     1       3.682  -1.283  -0.059  1.00  0.00    -0.296 OA
BRANCH  13  14
HETATM   14  N5  UNL     1       4.344  -0.227  -0.083  1.00  0.00    -0.141 NA
HETATM   15  C11 UNL     1       4.979  -0.312  -1.472  1.00  0.00     0.292 C 
HETATM   16  O6  UNL     1       5.576   0.893  -1.486  1.00  0.00    -0.355 OA
HETATM   17  C12 UNL     1       6.252   1.015  -0.240  1.00  0.00     0.268 C 
HETATM   18  C14 UNL     1       5.406   0.137   0.702  1.00  0.00     0.260 C 
BRANCH  17  19
HETATM   19  C13 UNL     1       6.221   2.450   0.128  1.00  0.00     0.207 C 
HETATM   20  O7  UNL     1       5.168   3.063   0.245  1.00  0.00    -0.646 OA
HETATM   21  O8  UNL     1       7.457   3.112   0.333  1.00  0.00    -0.646 OA
ENDBRANCH  17  19
BRANCH  18  22
HETATM   22  O9  UNL     1       6.181  -0.961   1.088  1.00  0.00    -0.376 OA
ATOM     23  H9  UNL     1       6.917  -0.709   1.632  1.00  0.00     0.211 HD
ENDBRANCH  18  22
ENDBRANCH  13  14
ENDBRANCH  12  13
ENDBRANCH   9  12
ENDBRANCH   4   9
BRANCH   5  24
HETATM   24  O10 UNL     1      -0.742  -2.869   0.870  1.00  0.00    -0.390 OA
ATOM     25  H10 UNL     1      -1.087  -3.033   1.740  1.00  0.00     0.210 HD
ENDBRANCH   5  24
BRANCH   2  26
HETATM   26  O2  UNL     1      -2.356  -1.620  -1.645  1.00  0.00    -0.393 OA
ATOM     27  H2  UNL     1      -2.098  -1.792  -2.543  1.00  0.00     0.210 HD
ENDBRANCH   2  26
BRANCH   6  28
HETATM   28  O11 UNL     1      -1.272   0.207   2.180  1.00  0.00    -0.391 OA
ATOM     29  H11 UNL     1      -0.761  -0.238   2.846  1.00  0.00     0.210 HD
ENDBRANCH   6  28
BRANCH   1  30
HETATM   30  N4  UNL     1      -3.834  -0.347   0.109  1.00  0.00    -0.317 N 
HETATM   31  C4  UNL     1      -4.386  -1.557   0.028  1.00  0.00     0.185 A 
HETATM   32  N3  UNL     1      -5.747  -1.412  -0.014  1.00  0.00    -0.345 N 
HETATM   33  C3  UNL     1      -6.031  -0.108   0.043  1.00  0.00     0.147 A 
ATOM     34  H3  UNL     1      -6.427  -2.170  -0.078  1.00  0.00     0.167 HD
HETATM   35  C2  UNL     1      -7.166   0.662   0.062  1.00  0.00     0.290 A 
HETATM   36  C17 UNL     1      -4.813   0.554   0.116  1.00  0.00     0.157 A 
HETATM   37  N2  UNL     1      -7.059   1.987   0.152  1.00  0.00    -0.154 N 
HETATM   38  O1  UNL     1      -8.274   0.085  -0.016  1.00  0.00    -0.265 OA
HETATM   39  C1  UNL     1      -5.877   2.639   0.222  1.00  0.00     0.680 A 
ATOM     40  H2  UNL     1      -7.916   2.540   0.169  1.00  0.00     0.187 HD
HETATM   41  N6  UNL     1      -4.778   1.866   0.194  1.00  0.00    -0.174 N 
ATOM     42  H6  UNL     1      -3.867   2.322   0.236  1.00  0.00     0.186 HD
BRANCH  39  43
HETATM   43  N1  UNL     1      -5.770   3.877   0.379  1.00  0.00    -0.234 N 
ATOM     44  H12 UNL     1      -6.604   4.464   0.400  1.00  0.00     0.174 HD
ATOM     45  H11 UNL     1      -4.878   4.369   0.432  1.00  0.00     0.174 HD
ENDBRANCH  39  43
ENDBRANCH   1  30
TORSDOF 13
