REMARK  4 active torsions:
REMARK  status: ('A' for Active; 'I' for Inactive)
REMARK    1  A    between atoms: C1_2  and  C2_3 
REMARK       I    between atoms: C1_2  and  N2_11 
REMARK    2  A    between atoms: N3_14  and  C7_15 
REMARK    3  A    between atoms: C7_15  and  C8_16 
REMARK    4  A    between atoms: C11_20  and  C12_21 
ROOT
HETATM    1  O1  UNL     1       3.158   2.340   0.722  1.00  0.00    -0.266 OA
HETATM    2  C1  UNL     1       3.103   1.096   0.506  1.00  0.00     0.273 C 
HETATM    3  N2  UNL     1       1.839   0.502   0.510  1.00  0.00    -0.340 N 
HETATM    4  C5  UNL     1       0.659   1.363   0.763  1.00  0.00     0.146 C 
HETATM    5  C6  UNL     1      -0.317   0.959  -0.355  1.00  0.00     0.147 C 
HETATM    6  N3  UNL     1      -0.752  -0.349  -0.103  1.00  0.00    -0.366 N 
HETATM    7  C13 UNL     1       0.182  -1.300   0.341  1.00  0.00     0.083 C 
HETATM    8  C14 UNL     1       1.634  -0.883   0.283  1.00  0.00     0.170 C 
ENDROOT
BRANCH   2   9
HETATM    9  C2  UNL     1       4.384   0.388   0.269  1.00  0.00     0.131 A 
HETATM   10  N1  UNL     1       4.387  -0.925   0.037  1.00  0.00    -0.319 N 
HETATM   11  S1  UNL     1       5.989  -1.329  -0.176  1.00  0.00     0.000 SA
ATOM     12  H1  UNL     1       3.581  -1.549  -0.002  1.00  0.00     0.174 HD
HETATM   13  C3  UNL     1       6.681   0.209   0.035  1.00  0.00     0.115 A 
HETATM   14 CL1  UNL     1       8.390   0.692  -0.031  1.00  0.00    -0.073 Cl
HETATM   15  C4  UNL     1       5.599   1.004   0.271  1.00  0.00     0.096 A 
HETATM   16 CL2  UNL     1       5.837   2.757   0.560  1.00  0.00    -0.079 Cl
ENDBRANCH   2   9
BRANCH   6  17
HETATM   17  C7  UNL     1      -1.959  -0.814  -0.639  1.00  0.00     0.104 C 
BRANCH  17  18
HETATM   18  C8  UNL     1      -3.130  -0.171  -0.003  1.00  0.00     0.019 A 
HETATM   19  C9  UNL     1      -3.192   0.706   1.047  1.00  0.00     0.155 A 
HETATM   20  O2  UNL     1      -4.438   1.024   1.342  1.00  0.00    -0.333 OA
HETATM   21  C10 UNL     1      -5.198   0.385   0.523  1.00  0.00     0.158 A 
HETATM   22  C11 UNL     1      -4.467  -0.382  -0.348  1.00  0.00     0.083 A 
BRANCH  22  23
HETATM   23  C12 UNL     1      -4.888  -1.273  -1.446  1.00  0.00     0.420 C 
HETATM   24  F1  UNL     1      -4.478  -2.576  -1.255  1.00  0.00    -0.166 F 
HETATM   25  F2  UNL     1      -4.453  -0.755  -2.648  1.00  0.00    -0.166 F 
HETATM   26  F3  UNL     1      -6.271  -1.272  -1.488  1.00  0.00    -0.166 F 
ENDBRANCH  22  23
ENDBRANCH  17  18
ENDBRANCH   6  17
TORSDOF 4
