REMARK  8 active torsions:
REMARK  status: ('A' for Active; 'I' for Inactive)
REMARK    1  A    between atoms: C2_2  and  C4_4 
REMARK    2  A    between atoms: C4_4  and  C5_5 
REMARK    3  A    between atoms: C5_5  and  C6_6 
REMARK    4  A    between atoms: C6_6  and  O1_7 
REMARK    5  A    between atoms: C9_14  and  O4_16 
REMARK    6  A    between atoms: O4_16  and  C11_17 
REMARK    7  A    between atoms: C11_17  and  C12_19 
REMARK    8  A    between atoms: C12_19  and  C13_21 
ROOT
HETATM    1  C6  UNL     1       0.122  -1.239  -0.236  1.00  0.00     0.204 C 
HETATM    2  O2  UNL     1       0.599  -2.555   0.095  1.00  0.00    -0.279 OA
HETATM    3  C7  UNL     1      -0.383  -3.189   0.818  1.00  0.00     0.279 C 
HETATM    4  O3  UNL     1      -0.217  -4.219   1.514  1.00  0.00    -0.264 OA
HETATM    5  C8  UNL     1      -1.670  -2.425   0.621  1.00  0.00     0.197 C 
HETATM    6 BR1  UNL     1      -2.525  -2.859  -1.003  1.00  0.00    -0.077 Br
HETATM    7  C9  UNL     1      -1.016  -1.002   0.629  1.00  0.00     0.145 C 
HETATM    8  C10 UNL     1      -0.667  -0.859   2.117  1.00  0.00     0.054 C 
ENDROOT
BRANCH   7   9
HETATM    9  O4  UNL     1      -2.025  -0.122   0.274  1.00  0.00    -0.302 OA
BRANCH   9  10
HETATM   10  C11 UNL     1      -2.011   1.208   0.053  1.00  0.00     0.287 C 
HETATM   11  O5  UNL     1      -0.917   1.829   0.178  1.00  0.00    -0.263 OA
BRANCH  10  12
HETATM   12  C12 UNL     1      -3.159   2.056  -0.328  1.00  0.00     0.288 C 
HETATM   13 CL1  UNL     1      -2.611   3.735  -0.518  1.00  0.00    -0.105 Cl
BRANCH  12  14
HETATM   14  C13 UNL     1      -3.953   1.588  -1.496  1.00  0.00     0.413 C 
HETATM   15  F1  UNL     1      -4.479   0.347  -1.221  1.00  0.00    -0.169 F 
HETATM   16  F2  UNL     1      -3.238   1.582  -2.665  1.00  0.00    -0.169 F 
HETATM   17  F3  UNL     1      -5.058   2.447  -1.596  1.00  0.00    -0.169 F 
ENDBRANCH  12  14
ENDBRANCH  10  12
ENDBRANCH   9  10
ENDBRANCH   7   9
BRANCH   1  18
HETATM   18  C5  UNL     1       1.274  -0.340  -0.391  1.00  0.00     0.076 C 
BRANCH  18  19
HETATM   19  C4  UNL     1       2.046   0.023   0.854  1.00  0.00     0.038 C 
BRANCH  19  20
HETATM   20  C2  UNL     1       3.205   0.929   0.500  1.00  0.00    -0.093 C 
HETATM   21  C1  UNL     1       3.326   2.151   1.000  1.00  0.00     0.014 C 
HETATM   22  C3  UNL     1       4.252   0.431  -0.446  1.00  0.00     0.042 C 
ENDBRANCH  19  20
ENDBRANCH  18  19
ENDBRANCH   1  18
BRANCH   1  23
HETATM   23  O1  UNL     1      -0.412  -1.430  -1.556  1.00  0.00    -0.362 OA
ATOM     24  H1  UNL     1      -1.157  -2.011  -1.456  1.00  0.00     0.213 HD
ENDBRANCH   1  23
TORSDOF 8
