REMARK  7 active torsions:
REMARK  status: ('A' for Active; 'I' for Inactive)
REMARK    1  A    between atoms: C2_2  and  C4_4 
REMARK    2  A    between atoms: C4_4  and  N1_5 
REMARK    3  A    between atoms: N1_5  and  C5_7 
REMARK    4  A    between atoms: C6_10  and  C7_11 
REMARK    5  A    between atoms: C8_15  and  C9_16 
REMARK    6  A    between atoms: C9_16  and  C10_17 
REMARK    7  A    between atoms: C11_21  and  N3_22 
ROOT
HETATM    1  C5  UNL     1       1.470  -0.656   0.450  1.00  0.00     0.680 A 
HETATM    2  N2  UNL     1       1.607   0.523   1.046  1.00  0.00    -0.186 N 
ATOM      3  H2  UNL     1       2.538   0.798   1.361  1.00  0.00     0.184 HD
HETATM    4  C6  UNL     1       0.562   1.398   1.264  1.00  0.00     0.146 A 
HETATM    5  C8  UNL     1      -0.686   0.994   0.823  1.00  0.00     0.041 A 
HETATM    6  C11 UNL     1      -0.854  -0.262   0.191  1.00  0.00     0.131 A 
HETATM    7  N4  UNL     1       0.264  -1.033   0.036  1.00  0.00    -0.176 N 
ATOM      8  H4  UNL     1       0.169  -1.941  -0.419  1.00  0.00     0.186 HD
ENDROOT
BRANCH   1   9
HETATM    9  N1  UNL     1       2.471  -1.429   0.266  1.00  0.00    -0.226 N 
ATOM     10  H1  UNL     1       2.278  -2.316  -0.199  1.00  0.00     0.177 HD
BRANCH   9  11
HETATM   11  C4  UNL     1       3.831  -1.191   0.638  1.00  0.00     0.142 C 
BRANCH  11  12
HETATM   12  C2  UNL     1       4.619  -0.786  -0.582  1.00  0.00    -0.004 C 
HETATM   13  C1  UNL     1       4.553  -1.893  -1.603  1.00  0.00     0.011 C 
HETATM   14  C3  UNL     1       4.112   0.490  -1.166  1.00  0.00     0.011 C 
ENDBRANCH  11  12
ENDBRANCH   9  11
ENDBRANCH   1   9
BRANCH   4  15
HETATM   15  C7  UNL     1       0.856   2.657   1.964  1.00  0.00     0.434 C 
HETATM   16  F1  UNL     1       0.097   2.923   3.071  1.00  0.00    -0.165 F 
HETATM   17  F2  UNL     1       1.359   3.674   1.243  1.00  0.00    -0.165 F 
HETATM   18  F3  UNL     1       2.103   2.272   2.699  1.00  0.00    -0.165 F 
ENDBRANCH   4  15
BRANCH   6  19
HETATM   19  N3  UNL     1      -2.086  -0.841  -0.196  1.00  0.00    -0.362 N 
HETATM   20  C12 UNL     1      -2.671  -0.917  -1.493  1.00  0.00     0.150 C 
HETATM   21  C13 UNL     1      -4.148  -0.612  -1.364  1.00  0.00     0.187 C 
HETATM   22  O1  UNL     1      -4.709  -1.633  -0.620  1.00  0.00    -0.388 OA
HETATM   23  C14 UNL     1      -4.268  -1.666   0.675  1.00  0.00     0.187 C 
HETATM   24  C15 UNL     1      -2.815  -1.516   0.891  1.00  0.00     0.150 C 
ENDBRANCH   6  19
BRANCH   5  25
HETATM   25  C9  UNL     1      -1.885   1.779   0.982  1.00  0.00     0.049 C 
BRANCH  25  26
HETATM   26  C10 UNL     1      -2.281   2.963   0.221  1.00  0.00     0.208 C 
HETATM   27 CL1  UNL     1      -2.325   2.782  -1.565  1.00  0.00    -0.079 Cl
HETATM   28 CL2  UNL     1      -4.136   3.169   0.657  1.00  0.00    -0.079 Cl
HETATM   29 CL3  UNL     1      -1.718   4.568   0.566  1.00  0.00    -0.079 Cl
ENDBRANCH  25  26
ENDBRANCH   5  25
TORSDOF 7
