REMARK  5 active torsions:
REMARK  status: ('A' for Active; 'I' for Inactive)
REMARK    1  A    between atoms: C2_2  and  C3_5 
REMARK    2  A    between atoms: C3_5  and  C4_6 
REMARK    3  A    between atoms: C3_5  and  C5_8 
REMARK    4  A    between atoms: C6_11  and  S1_12 
REMARK    5  A    between atoms: S1_12  and  C7_13 
ROOT
HETATM    1  C7  UNL     1       3.993   0.295  -1.192  1.00  0.00     0.087 C 
HETATM    2  C8  UNL     1       5.007  -0.148  -0.464  1.00  0.00     0.131 C 
HETATM    3  C9  UNL     1       6.190   0.627  -0.125  1.00  0.00     0.111 C 
HETATM    4  N2  UNL     1       7.162   1.253   0.091  1.00  0.00    -0.191 NA
HETATM    5  C10 UNL     1       4.979  -1.485   0.065  1.00  0.00     0.111 C 
HETATM    6  N3  UNL     1       4.959  -2.565   0.442  1.00  0.00    -0.191 NA
ENDROOT
BRANCH   1   7
HETATM    7  S1  UNL     1       2.615  -0.647  -1.580  1.00  0.00    -0.064 SA
BRANCH   7   8
HETATM    8  C6  UNL     1       1.273  -0.915  -0.488  1.00  0.00     0.151 A 
HETATM    9  N1  UNL     1       0.085  -0.278  -0.537  1.00  0.00    -0.338 N 
HETATM   10  C5  UNL     1      -0.951  -0.520   0.288  1.00  0.00     0.045 A 
ATOM     11  H1  UNL     1      -0.037   0.440  -1.251  1.00  0.00     0.168 HD
HETATM   12  C12 UNL     1      -0.810  -1.521   1.293  1.00  0.00     0.102 A 
HETATM   13  C11 UNL     1       0.381  -2.161   1.342  1.00  0.00     0.266 A 
HETATM   14 BR1  UNL     1      -2.271  -2.005   2.422  1.00  0.00    -0.043 Br
HETATM   15  N4  UNL     1       1.385  -1.880   0.497  1.00  0.00    -0.302 N 
HETATM   16  O1  UNL     1       0.502  -3.057   2.223  1.00  0.00    -0.267 OA
ATOM     17  H4  UNL     1       2.261  -2.396   0.584  1.00  0.00     0.171 HD
BRANCH  10  18
HETATM   18  C3  UNL     1      -2.206   0.225   0.376  1.00  0.00     0.122 C 
BRANCH  18  19
HETATM   19  C2  UNL     1      -2.934   0.374  -0.942  1.00  0.00     0.250 C 
HETATM   20  C1  UNL     1      -4.252   1.138  -0.686  1.00  0.00     0.091 C 
HETATM   21  F1  UNL     1      -2.166   0.922  -1.895  1.00  0.00    -0.206 F 
HETATM   22  F2  UNL     1      -3.284  -0.953  -1.295  1.00  0.00    -0.206 F 
ENDBRANCH  18  19
BRANCH  18  23
HETATM   23  C4  UNL     1      -1.928   1.724   0.805  1.00  0.00     0.131 C 
HETATM   24 CL1  UNL     1      -1.064   1.770   2.331  1.00  0.00    -0.130 Cl
ENDBRANCH  18  23
ENDBRANCH  10  18
ENDBRANCH   7   8
ENDBRANCH   1   7
TORSDOF 5
