REMARK  7 active torsions:
REMARK  status: ('A' for Active; 'I' for Inactive)
REMARK    1  A    between atoms: N1_1  and  C1_5 
REMARK    2  A    between atoms: C6_10  and  N2_11 
REMARK    3  A    between atoms: C8_13  and  C9_14 
REMARK    4  A    between atoms: C11_16  and  N3_17 
REMARK    5  A    between atoms: C14_20  and  C15_21 
REMARK    6  A    between atoms: C17_26  and  C18_27 
REMARK    7  A    between atoms: C18_27  and  C19_28 
ROOT
HETATM    1  N2  UNL     1       2.835  -0.656  -0.527  1.00  0.00    -0.280 N 
HETATM    2  C7  UNL     1       1.761   0.048  -0.068  1.00  0.00     0.139 A 
HETATM    3  C8  UNL     1       0.789  -0.831   0.356  1.00  0.00     0.050 A 
HETATM    4  N4  UNL     1       1.302  -2.054   0.142  1.00  0.00    -0.288 N 
ATOM      5  H4  UNL     1       0.837  -2.938   0.348  1.00  0.00     0.188 HD
HETATM    6  N5  UNL     1       2.494  -1.922  -0.373  1.00  0.00    -0.240 N 
ATOM      7  H5  UNL     1       3.093  -2.707  -0.627  1.00  0.00     0.208 HD
ENDROOT
BRANCH   3   8
HETATM    8  C9  UNL     1      -0.544  -0.554   0.929  1.00  0.00     0.063 A 
HETATM    9  C10 UNL     1      -0.854   0.698   1.614  1.00  0.00     0.039 A 
HETATM   10  C11 UNL     1      -1.401   0.568   0.243  1.00  0.00     0.094 A 
BRANCH  10  11
HETATM   11  N3  UNL     1      -2.714   0.189  -0.048  1.00  0.00    -0.383 N 
HETATM   12  C12 UNL     1      -2.766  -0.884  -0.949  1.00  0.00     0.060 C 
HETATM   13  C13 UNL     1      -4.062  -1.638  -0.989  1.00  0.00     0.057 C 
HETATM   14  C14 UNL     1      -5.103  -1.191  -0.033  1.00  0.00     0.100 C 
HETATM   15  C16 UNL     1      -5.154   0.290  -0.001  1.00  0.00     0.039 C 
HETATM   16  C17 UNL     1      -3.819   0.988   0.162  1.00  0.00     0.089 C 
BRANCH  14  17
HETATM   17  C15 UNL     1      -5.064  -1.852   1.323  1.00  0.00     0.391 C 
HETATM   18  F1  UNL     1      -6.107  -1.302   2.053  1.00  0.00    -0.171 F 
HETATM   19  F2  UNL     1      -5.319  -3.203   1.187  1.00  0.00    -0.171 F 
HETATM   20  F3  UNL     1      -3.894  -1.705   1.999  1.00  0.00    -0.171 F 
ENDBRANCH  14  17
BRANCH  16  21
HETATM   21  C18 UNL     1      -3.940   2.291  -0.560  1.00  0.00     0.096 C 
BRANCH  21  22
HETATM   22  C19 UNL     1      -2.879   3.311  -0.296  1.00  0.00     0.355 C 
HETATM   23  F4  UNL     1      -2.885   3.637   1.067  1.00  0.00    -0.214 F 
HETATM   24  F5  UNL     1      -3.201   4.493  -0.965  1.00  0.00    -0.214 F 
ENDBRANCH  21  22
ENDBRANCH  16  21
ENDBRANCH  10  11
ENDBRANCH   3   8
BRANCH   1  25
HETATM   25  C6  UNL     1       4.067  -0.113  -1.058  1.00  0.00     0.139 C 
HETATM   26  C1  UNL     1       5.241  -1.049  -0.913  1.00  0.00     0.208 C 
HETATM   27  C2  UNL     1       5.757  -1.096   0.505  1.00  0.00     0.035 C 
HETATM   28  C3  UNL     1       6.151   0.316   0.933  1.00  0.00     0.002 C 
HETATM   29  C4  UNL     1       4.873   1.124   0.964  1.00  0.00     0.002 C 
HETATM   30  C5  UNL     1       4.372   1.248  -0.456  1.00  0.00     0.029 C 
BRANCH  26  31
HETATM   31  N1  UNL     1       4.897  -2.376  -1.325  1.00  0.00    -0.073 N 
ATOM     32  H13 UNL     1       5.671  -3.031  -1.214  1.00  0.00     0.274 HD
ATOM     33  H12 UNL     1       4.240  -2.824  -0.686  1.00  0.00     0.274 HD
ATOM     34  H11 UNL     1       4.548  -2.344  -2.283  1.00  0.00     0.274 HD
ENDBRANCH  26  31
ENDBRANCH   1  25
TORSDOF 7
