REMARK  6 active torsions:
REMARK  status: ('A' for Active; 'I' for Inactive)
REMARK    1  A    between atoms: C6_6  and  N1_7 
REMARK    2  A    between atoms: C7_10  and  O3_11 
REMARK    3  A    between atoms: O3_11  and  C8_12 
REMARK    4  A    between atoms: C11_16  and  C12_17 
REMARK    5  A    between atoms: C12_17  and  C13_18 
REMARK    6  A    between atoms: C13_18  and  N2_19 
ROOT
HETATM    1  C13 UNL     1      -4.256   2.592   1.423  1.00  0.00     0.293 C 
HETATM    2  C14 UNL     1      -4.281   3.430   0.199  1.00  0.00     0.092 C 
HETATM    3  N3  UNL     1      -4.300   4.077  -0.759  1.00  0.00    -0.195 NA
ENDROOT
BRANCH   1   4
HETATM    4  C12 UNL     1      -3.996   1.195   0.980  1.00  0.00     0.087 C 
BRANCH   4   5
HETATM    5  C11 UNL     1      -2.644   0.937   0.453  1.00  0.00    -0.045 A 
HETATM    6  C10 UNL     1      -1.665   1.915   0.521  1.00  0.00     0.029 A 
HETATM    7  C9  UNL     1      -0.390   1.708   0.050  1.00  0.00     0.045 A 
HETATM    8  C8  UNL     1      -0.112   0.455  -0.509  1.00  0.00     0.101 A 
HETATM    9 BR1  UNL     1       0.939   3.084   0.159  1.00  0.00    -0.048 Br
HETATM   10  C16 UNL     1      -1.050  -0.534  -0.595  1.00  0.00    -0.004 A 
HETATM   11  C15 UNL     1      -2.335  -0.292  -0.108  1.00  0.00    -0.018 A 
HETATM   12  C17 UNL     1      -0.907  -1.857  -1.196  1.00  0.00     0.004 C 
HETATM   13  C21 UNL     1      -3.396  -1.318  -0.180  1.00  0.00     0.207 C 
HETATM   14  O4  UNL     1      -3.199  -2.270  -1.167  1.00  0.00    -0.386 OA
HETATM   15  C20 UNL     1      -2.191  -1.998  -2.060  1.00  0.00     0.181 C 
HETATM   16  C18 UNL     1      -1.049  -2.915  -0.126  1.00  0.00     0.022 C 
HETATM   17  C19 UNL     1       0.275  -2.138  -2.025  1.00  0.00     0.022 C 
BRANCH   8  18
HETATM   18  O3  UNL     1       1.123   0.244  -0.977  1.00  0.00    -0.306 OA
BRANCH  18  19
HETATM   19  C7  UNL     1       2.379   0.236  -0.499  1.00  0.00     0.110 A 
HETATM   20  C6  UNL     1       2.839  -0.498   0.552  1.00  0.00     0.142 A 
HETATM   21  C4  UNL     1       4.182  -0.421   0.966  1.00  0.00    -0.026 A 
HETATM   22  C3  UNL     1       5.053   0.409   0.302  1.00  0.00     0.016 A 
HETATM   23  C5  UNL     1       4.687  -1.222   2.116  1.00  0.00     0.050 C 
HETATM   24  C2  UNL     1       4.635   1.170  -0.764  1.00  0.00    -0.059 A 
HETATM   25  C1  UNL     1       5.604   2.047  -1.446  1.00  0.00     0.048 C 
HETATM   26  C22 UNL     1       3.337   1.075  -1.139  1.00  0.00     0.046 A 
BRANCH  20  27
HETATM   27  N1  UNL     1       2.034  -1.392   1.342  1.00  0.00    -0.112 N 
HETATM   28  O1  UNL     1       2.277  -2.601   1.172  1.00  0.00    -0.532 OA
HETATM   29  O2  UNL     1       1.095  -1.018   2.231  1.00  0.00    -0.532 OA
ENDBRANCH  20  27
ENDBRANCH  18  19
ENDBRANCH   8  18
ENDBRANCH   4   5
ENDBRANCH   1   4
BRANCH   1  30
HETATM   30  N2  UNL     1      -5.645   2.611   1.924  1.00  0.00    -0.062 N 
ATOM     31  H23 UNL     1      -6.326   2.266   1.247  1.00  0.00     0.275 HD
ATOM     32  H22 UNL     1      -5.825   1.915   2.648  1.00  0.00     0.275 HD
ATOM     33  H21 UNL     1      -5.823   3.568   2.228  1.00  0.00     0.275 HD
ENDBRANCH   1  30
TORSDOF 6
