REMARK  6 active torsions:
REMARK  status: ('A' for Active; 'I' for Inactive)
REMARK    1  A    between atoms: O1_2  and  C2_3 
REMARK    2  A    between atoms: C6_8  and  C7_9 
REMARK    3  A    between atoms: C11_13  and  O2_14 
REMARK    4  A    between atoms: O2_14  and  C12_15 
REMARK    5  A    between atoms: C12_15  and  C13_16 
REMARK    6  A    between atoms: C13_16  and  C14_17 
ROOT
HETATM    1  C14 UNL     1       1.736  -0.570   1.462  1.00  0.00     0.039 C 
HETATM    2  C15 UNL     1       2.142  -1.160   2.815  1.00  0.00     0.028 C 
HETATM    3  C16 UNL     1       1.980   0.883   1.510  1.00  0.00    -0.013 C 
HETATM    4  C17 UNL     1       3.185   1.350   1.232  1.00  0.00    -0.018 C 
HETATM    5  C18 UNL     1       4.350   0.526   0.864  1.00  0.00     0.011 C 
HETATM    6  C19 UNL     1       5.282   1.356  -0.033  1.00  0.00     0.022 C 
HETATM    7  C20 UNL     1       5.199   0.120   2.047  1.00  0.00     0.022 C 
HETATM    8  C21 UNL     1       3.883  -0.618   0.028  1.00  0.00     0.208 C 
HETATM    9  C22 UNL     1       3.767  -0.125  -1.368  1.00  0.00     0.093 C 
HETATM   10  N1  UNL     1       3.666   0.273  -2.446  1.00  0.00    -0.195 NA
HETATM   11  C23 UNL     1       4.881  -1.700   0.092  1.00  0.00     0.093 C 
HETATM   12  N2  UNL     1       5.672  -2.550   0.125  1.00  0.00    -0.195 NA
HETATM   13  C24 UNL     1       2.568  -1.174   0.415  1.00  0.00     0.176 C 
HETATM   14  O3  UNL     1       2.223  -2.187  -0.211  1.00  0.00    -0.294 OA
ENDROOT
BRANCH   1  15
HETATM   15  C13 UNL     1       0.270  -0.893   1.295  1.00  0.00     0.048 C 
BRANCH  15  16
HETATM   16  C12 UNL     1      -0.285  -0.365  -0.018  1.00  0.00     0.177 C 
BRANCH  16  17
HETATM   17  O2  UNL     1      -1.614  -0.720  -0.047  1.00  0.00    -0.348 OA
BRANCH  17  18
HETATM   18  C11 UNL     1      -2.608  -0.514  -0.943  1.00  0.00     0.109 A 
HETATM   19  C2  UNL     1      -2.636  -1.414  -2.023  1.00  0.00     0.103 A 
HETATM   20  C3  UNL     1      -3.622  -1.259  -2.958  1.00  0.00     0.058 A 
HETATM   21  C4  UNL     1      -4.551  -0.247  -2.830  1.00  0.00     0.014 A 
HETATM   22 BR1  UNL     1      -5.903  -0.086  -4.174  1.00  0.00    -0.051 Br
HETATM   23  C5  UNL     1      -4.491   0.614  -1.757  1.00  0.00     0.030 A 
HETATM   24  C6  UNL     1      -3.502   0.502  -0.767  1.00  0.00    -0.013 A 
BRANCH  19  25
HETATM   25  O1  UNL     1      -1.672  -2.427  -2.114  1.00  0.00    -0.353 OA
HETATM   26  C1  UNL     1      -1.766  -3.290  -3.228  1.00  0.00     0.210 C 
ENDBRANCH  19  25
BRANCH  24  27
HETATM   27  C7  UNL     1      -3.573   1.456   0.326  1.00  0.00    -0.021 C 
HETATM   28  C8  UNL     1      -4.771   2.398   0.103  1.00  0.00     0.019 C 
HETATM   29  C9  UNL     1      -3.907   0.734   1.642  1.00  0.00     0.019 C 
HETATM   30  C10 UNL     1      -2.423   2.331   0.605  1.00  0.00     0.019 C 
ENDBRANCH  24  27
ENDBRANCH  17  18
ENDBRANCH  16  17
ENDBRANCH  15  16
ENDBRANCH   1  15
TORSDOF 6
