REMARK  6 active torsions:
REMARK  status: ('A' for Active; 'I' for Inactive)
REMARK    1  A    between atoms: C2_2  and  O1_3 
REMARK    2  A    between atoms: O1_3  and  C3_4 
REMARK    3  A    between atoms: C3_4  and  C4_6 
REMARK    4  A    between atoms: C8_11  and  C9_12 
REMARK    5  A    between atoms: N3_20  and  C12_21 
REMARK    6  A    between atoms: C19_28  and  C20_29 
ROOT
HETATM    1  C4  UNL     1      -2.094  -0.253   0.441  1.00  0.00     0.183 C 
HETATM    2  C5  UNL     1      -1.968  -0.861   1.739  1.00  0.00     0.152 C 
HETATM    3  O3  UNL     1      -2.392  -0.463   2.809  1.00  0.00    -0.296 OA
HETATM    4  C6  UNL     1      -1.196  -2.139   1.575  1.00  0.00     0.103 C 
HETATM    5  C7  UNL     1      -2.056  -3.177   0.998  1.00  0.00     0.024 C 
HETATM    6  C8  UNL     1       0.123  -1.777   0.910  1.00  0.00     0.035 C 
HETATM    7  N3  UNL     1       0.381  -0.543   0.399  1.00  0.00    -0.367 N 
HETATM    8  C19 UNL     1      -0.742   0.084  -0.216  1.00  0.00     0.146 C 
ENDROOT
BRANCH   6   9
HETATM    9  C9  UNL     1       1.070  -2.735   1.500  1.00  0.00     0.061 A 
HETATM   10  C10 UNL     1       1.756  -3.794   0.884  1.00  0.00     0.125 A 
HETATM   11  N1  UNL     1       2.645  -4.358   1.725  1.00  0.00    -0.309 N 
HETATM   12  N2  UNL     1       2.540  -3.694   2.844  1.00  0.00    -0.276 N 
ATOM     13  H1  UNL     1       3.269  -5.140   1.528  1.00  0.00     0.186 HD
HETATM   14  C11 UNL     1       1.631  -2.730   2.768  1.00  0.00     0.216 A 
ATOM     15  H2  UNL     1       3.092  -3.893   3.679  1.00  0.00     0.189 HD
HETATM   16  F1  UNL     1       1.279  -1.930   3.773  1.00  0.00    -0.184 F 
ENDBRANCH   6   9
BRANCH   7  17
HETATM   17  C12 UNL     1       1.368   0.353   0.857  1.00  0.00     0.085 C 
HETATM   18  C13 UNL     1       1.579   1.603  -0.007  1.00  0.00     0.026 C 
HETATM   19  C14 UNL     1       2.357   1.347  -1.261  1.00  0.00     0.006 C 
HETATM   20  C15 UNL     1       3.773   0.948  -0.915  1.00  0.00    -0.019 C 
HETATM   21  C16 UNL     1       4.593   2.023  -0.328  1.00  0.00     0.010 C 
HETATM   22  C17 UNL     1       3.627  -0.301  -0.080  1.00  0.00     0.006 C 
HETATM   23  C18 UNL     1       2.754   0.003   1.149  1.00  0.00     0.026 C 
ENDBRANCH   7  17
BRANCH   8  24
HETATM   24  C20 UNL     1      -1.046  -0.220  -1.661  1.00  0.00     0.012 A 
HETATM   25  S1  UNL     1      -1.270  -1.749  -2.438  1.00  0.00    -0.104 SA
HETATM   26  C21 UNL     1      -1.445  -1.255  -4.048  1.00  0.00     0.051 A 
HETATM   27  C22 UNL     1      -1.332   0.086  -3.946  1.00  0.00     0.015 A 
HETATM   28  C23 UNL     1      -1.126   0.638  -2.728  1.00  0.00    -0.046 A 
HETATM   29  C24 UNL     1      -1.120   2.172  -2.638  1.00  0.00     0.049 C 
ENDBRANCH   8  24
BRANCH   1  30
HETATM   30  C3  UNL     1      -2.889   0.989   0.500  1.00  0.00     0.272 C 
HETATM   31  O2  UNL     1      -2.197   2.027   0.844  1.00  0.00    -0.264 OA
BRANCH  30  32
HETATM   32  O1  UNL     1      -4.202   1.197   0.243  1.00  0.00    -0.321 OA
BRANCH  32  33
HETATM   33  C2  UNL     1      -4.757   2.498   0.281  1.00  0.00     0.174 C 
HETATM   34  C1  UNL     1      -4.530   3.270   1.532  1.00  0.00     0.034 C 
ENDBRANCH  32  33
ENDBRANCH  30  32
ENDBRANCH   1  30
TORSDOF 6
