REMARK  9 active torsions:
REMARK  status: ('A' for Active; 'I' for Inactive)
REMARK    1  A    between atoms: C3_3  and  C4_4 
REMARK    2  A    between atoms: C4_4  and  O2_6 
REMARK    3  A    between atoms: O2_6  and  C5_7 
REMARK    4  A    between atoms: C9_11  and  O3_12 
REMARK    5  A    between atoms: O3_12  and  C10_13 
REMARK    6  A    between atoms: C10_13  and  C11_15 
REMARK    7  A    between atoms: C11_15  and  S1_16 
REMARK    8  A    between atoms: S1_16  and  C12_17 
REMARK    9  A    between atoms: C16_24  and  C17_25 
ROOT
HETATM    1  C1  UNL     1      11.307   1.065  -0.754  1.00  0.00     0.112 C 
HETATM    2  C2  UNL     1       9.899   0.711  -0.533  1.00  0.00    -0.100 C 
HETATM    3  C3  UNL     1       8.749   0.401  -0.350  1.00  0.00     0.002 C 
ENDROOT
BRANCH   3   4
HETATM    4  C4  UNL     1       7.372   0.009  -0.142  1.00  0.00     0.339 C 
HETATM    5  O1  UNL     1       7.081  -1.214   0.097  1.00  0.00    -0.249 OA
BRANCH   4   6
HETATM    6  O2  UNL     1       6.312   0.868  -0.180  1.00  0.00    -0.300 OA
BRANCH   6   7
HETATM    7  C5  UNL     1       4.968   0.612  -0.007  1.00  0.00     0.068 C 
HETATM    8  C6  UNL     1       4.239   1.956  -0.142  1.00  0.00     0.047 C 
HETATM    9  C7  UNL     1       4.563   0.012   1.305  1.00  0.00     0.041 C 
HETATM   10  C8  UNL     1       3.082   0.196   1.476  1.00  0.00     0.035 C 
HETATM   11  C9  UNL     1       2.293  -0.366   0.354  1.00  0.00     0.132 C 
HETATM   12  C23 UNL     1       2.928  -0.484  -0.980  1.00  0.00     0.035 C 
HETATM   13  C24 UNL     1       4.393  -0.271  -1.081  1.00  0.00     0.041 C 
BRANCH  11  14
HETATM   14  O3  UNL     1       1.771  -1.675   0.664  1.00  0.00    -0.315 OA
BRANCH  14  15
HETATM   15  C10 UNL     1       0.414  -1.932   0.798  1.00  0.00     0.269 C 
HETATM   16  O4  UNL     1      -0.365  -0.969   0.649  1.00  0.00    -0.264 OA
BRANCH  15  17
HETATM   17  C11 UNL     1      -0.081  -3.295   1.105  1.00  0.00     0.193 C 
BRANCH  17  18
HETATM   18  S1  UNL     1      -1.284  -3.799  -0.144  1.00  0.00    -0.084 SA
BRANCH  18  19
HETATM   19  C12 UNL     1      -2.761  -2.811  -0.010  1.00  0.00     0.145 A 
HETATM   20  N1  UNL     1      -3.820  -3.098   0.772  1.00  0.00    -0.335 N 
HETATM   21  C13 UNL     1      -4.703  -2.105   0.583  1.00  0.00     0.062 A 
ATOM     22  H1  UNL     1      -3.929  -3.907   1.384  1.00  0.00     0.168 HD
HETATM   23  C14 UNL     1      -5.972  -1.856   1.116  1.00  0.00     0.056 A 
HETATM   24  C22 UNL     1      -4.207  -1.187  -0.317  1.00  0.00     0.061 A 
HETATM   25  C15 UNL     1      -6.680  -0.736   0.744  1.00  0.00     0.043 A 
HETATM   26 CL1  UNL     1      -8.272  -0.467   1.442  1.00  0.00    -0.084 Cl
HETATM   27  C16 UNL     1      -6.129   0.157  -0.170  1.00  0.00    -0.026 A 
HETATM   28  C21 UNL     1      -4.896  -0.059  -0.704  1.00  0.00     0.041 A 
HETATM   29  N2  UNL     1      -2.979  -1.666  -0.671  1.00  0.00    -0.335 N 
ATOM     30  H2  UNL     1      -2.335  -1.226  -1.329  1.00  0.00     0.168 HD
BRANCH  27  31
HETATM   31  C17 UNL     1      -6.907   1.361  -0.574  1.00  0.00    -0.022 C 
HETATM   32  C18 UNL     1      -7.253   2.247   0.581  1.00  0.00     0.019 C 
HETATM   33  C19 UNL     1      -6.032   2.207  -1.521  1.00  0.00     0.019 C 
HETATM   34  C20 UNL     1      -8.092   0.928  -1.401  1.00  0.00     0.019 C 
ENDBRANCH  27  31
ENDBRANCH  18  19
ENDBRANCH  17  18
ENDBRANCH  15  17
ENDBRANCH  14  15
ENDBRANCH  11  14
ENDBRANCH   6   7
ENDBRANCH   4   6
ENDBRANCH   3   4
TORSDOF 9
