REMARK  4 active torsions:
REMARK  status: ('A' for Active; 'I' for Inactive)
REMARK       I    between atoms: C1_2  and  N1_3 
REMARK    1  A    between atoms: C1_2  and  C9_23 
REMARK    2  A    between atoms: N1_3  and  C2_5 
REMARK    3  A    between atoms: C4_12  and  C5_13 
REMARK    4  A    between atoms: N6_29  and  O3_30 
ROOT
HETATM    1  C2  UNL     1       0.010   1.270  -0.108  1.00  0.00     0.128 A 
HETATM    2  N2  UNL     1      -0.613   2.210  -0.796  1.00  0.00    -0.286 N 
ATOM      3  H2  UNL     1      -1.552   2.571  -0.628  1.00  0.00     0.178 HD
HETATM    4  S1  UNL     1       0.444   2.689  -1.996  1.00  0.00     0.160 S 
HETATM    5  O2  UNL     1       0.571   4.238  -2.792  1.00  0.00    -0.229 OA
HETATM    6  C3  UNL     1       1.733   1.639  -1.593  1.00  0.00     0.107 A 
HETATM    7  S2  UNL     1       3.309   1.087  -1.931  1.00  0.00    -0.074 SA
HETATM    8  C4  UNL     1       3.414  -0.068  -0.675  1.00  0.00     0.052 A 
HETATM    9  C7  UNL     1       2.214   0.019  -0.037  1.00  0.00     0.040 A 
HETATM   10  C8  UNL     1       1.292   0.928  -0.508  1.00  0.00     0.038 A 
ENDROOT
BRANCH   1  11
HETATM   11  N1  UNL     1      -0.652   0.731   0.916  1.00  0.00    -0.306 N 
HETATM   12  C1  UNL     1      -1.953   1.112   1.284  1.00  0.00     0.276 C 
HETATM   13  O1  UNL     1      -2.112   2.172   1.963  1.00  0.00    -0.266 OA
ATOM     14  H1  UNL     1      -0.189   0.003   1.461  1.00  0.00     0.170 HD
BRANCH  12  15
HETATM   15  C9  UNL     1      -3.124   0.320   0.906  1.00  0.00     0.130 A 
HETATM   16  C10 UNL     1      -4.385   0.724   1.285  1.00  0.00     0.039 A 
HETATM   17  C11 UNL     1      -5.515  -0.011   0.938  1.00  0.00     0.023 A 
HETATM   18  C12 UNL     1      -5.341  -1.164   0.200  1.00  0.00     0.029 A 
HETATM   19 BR1  UNL     1      -6.893  -2.192  -0.287  1.00  0.00    -0.050 Br
HETATM   20  C13 UNL     1      -4.086  -1.548  -0.165  1.00  0.00     0.142 A 
HETATM   21  N6  UNL     1      -2.999  -0.808   0.189  1.00  0.00    -0.229 N 
BRANCH  21  22
HETATM   22  O3  UNL     1      -1.771  -1.268  -0.221  1.00  0.00    -0.283 OA
ATOM     23  H3  UNL     1      -1.683  -2.066  -0.728  1.00  0.00     0.245 HD
ENDBRANCH  21  22
ENDBRANCH  12  15
ENDBRANCH   1  11
BRANCH   8  24
HETATM   24  C5  UNL     1       4.536  -0.959  -0.348  1.00  0.00     0.138 A 
HETATM   25  N3  UNL     1       5.684  -0.977  -1.032  1.00  0.00    -0.335 N 
HETATM   26  C6  UNL     1       6.505  -1.891  -0.493  1.00  0.00     0.199 A 
ATOM     27  H3  UNL     1       5.902  -0.389  -1.837  1.00  0.00     0.168 HD
HETATM   28  N4  UNL     1       5.861  -2.449   0.541  1.00  0.00    -0.295 N 
HETATM   29  N5  UNL     1       4.650  -1.865   0.618  1.00  0.00    -0.283 N 
ATOM     30  H4  UNL     1       6.221  -3.180   1.155  1.00  0.00     0.187 HD
ATOM     31  H5  UNL     1       3.933  -2.084   1.309  1.00  0.00     0.188 HD
ENDBRANCH   8  24
TORSDOF 4
