REMARK  3 active torsions:
REMARK  status: ('A' for Active; 'I' for Inactive)
REMARK    1  A    between atoms: C6_7  and  N2_8 
REMARK    2  A    between atoms: C18_29  and  N8_30 
REMARK    3  A    between atoms: N8_30  and  C19_32 
ROOT
HETATM    1  C1  UNL     1       4.759  -2.121  -0.938  1.00  0.00     0.052 C 
HETATM    2  C2  UNL     1       3.320  -1.913  -0.583  1.00  0.00    -0.014 A 
HETATM    3  C3  UNL     1       2.360  -2.637  -1.256  1.00  0.00     0.054 A 
HETATM    4  C4  UNL     1       2.788  -3.566  -2.278  1.00  0.00     0.100 C 
HETATM    5  N1  UNL     1       3.117  -4.323  -3.090  1.00  0.00    -0.191 NA
HETATM    6  C5  UNL     1       1.033  -2.453  -0.936  1.00  0.00     0.052 A 
HETATM    7  C6  UNL     1       0.609  -1.571   0.036  1.00  0.00     0.037 A 
HETATM    8  C17 UNL     1       1.574  -0.851   0.704  1.00  0.00     0.059 A 
HETATM    9  C18 UNL     1       2.930  -1.013   0.404  1.00  0.00     0.043 A 
ENDROOT
BRANCH   9  10
HETATM   10  N8  UNL     1       3.925  -0.301   1.069  1.00  0.00    -0.339 N 
ATOM     11  H8  UNL     1       4.300  -0.758   1.900  1.00  0.00     0.167 HD
BRANCH  10  12
HETATM   12  C19 UNL     1       4.437   0.827   0.802  1.00  0.00     0.145 A 
HETATM   13  N9  UNL     1       5.409   1.246   1.673  1.00  0.00    -0.350 N 
HETATM   14  C20 UNL     1       6.010   2.427   1.475  1.00  0.00     0.090 A 
ATOM     15  H9  UNL     1       5.673   0.662   2.467  1.00  0.00     0.166 HD
HETATM   16  C21 UNL     1       5.658   3.229   0.397  1.00  0.00     0.020 A 
HETATM   17  C22 UNL     1       4.682   2.801  -0.474  1.00  0.00     0.047 A 
HETATM   18  C23 UNL     1       4.057   1.579  -0.271  1.00  0.00     0.160 A 
HETATM   19  F1  UNL     1       3.087   1.145  -1.129  1.00  0.00    -0.202 F 
ENDBRANCH  10  12
ENDBRANCH   9  10
BRANCH   7  20
HETATM   20  N2  UNL     1      -0.780  -1.449   0.296  1.00  0.00    -0.340 N 
HETATM   21  C7  UNL     1      -1.513  -0.481  -0.021  1.00  0.00     0.136 A 
HETATM   22  N3  UNL     1      -0.969   0.586  -0.684  1.00  0.00    -0.337 N 
HETATM   23  C14 UNL     1      -2.841  -0.457   0.274  1.00  0.00     0.108 A 
HETATM   24  C8  UNL     1      -1.713   1.645  -1.045  1.00  0.00     0.182 A 
ATOM     25  H3  UNL     1       0.026   0.577  -0.910  1.00  0.00     0.168 HD
HETATM   26  N4  UNL     1      -3.027   1.713  -0.775  1.00  0.00    -0.348 N 
HETATM   27  C9  UNL     1      -3.574   0.658  -0.117  1.00  0.00     0.093 A 
ATOM     28  H4  UNL     1      -3.588   2.519  -1.051  1.00  0.00     0.167 HD
HETATM   29  C10 UNL     1      -4.911   0.747   0.148  1.00  0.00     0.092 A 
HETATM   30  C11 UNL     1      -5.495  -0.305   0.813  1.00  0.00     0.078 A 
HETATM   31  N7  UNL     1      -5.831   1.700  -0.119  1.00  0.00    -0.344 N 
HETATM   32  C12 UNL     1      -4.735  -1.389   1.182  1.00  0.00     0.122 A 
HETATM   33  N6  UNL     1      -6.793   0.022   0.949  1.00  0.00    -0.349 N 
HETATM   34  N5  UNL     1      -3.400  -1.506   0.932  1.00  0.00    -0.354 N 
HETATM   35  C13 UNL     1      -2.651  -2.655   1.336  1.00  0.00     0.156 C 
HETATM   36  C15 UNL     1      -6.992   1.247   0.378  1.00  0.00     0.183 A 
ATOM     37  H6  UNL     1      -7.507  -0.548   1.402  1.00  0.00     0.166 HD
HETATM   38  C16 UNL     1      -5.596   2.971  -0.813  1.00  0.00     0.157 C 
ATOM     39  H2  UNL     1      -1.226  -2.223   0.788  1.00  0.00     0.167 HD
ENDBRANCH   7  20
TORSDOF 3
