REMARK  7 active torsions:
REMARK  status: ('A' for Active; 'I' for Inactive)
REMARK    1  A    between atoms: C1_2  and  C2_3 
REMARK       I    between atoms: C1_2  and  N3_23 
REMARK    2  A    between atoms: C2_3  and  N1_4 
REMARK    3  A    between atoms: N1_4  and  C3_6 
REMARK    4  A    between atoms: C3_6  and  C4_7 
REMARK    5  A    between atoms: C4_7  and  O2_8 
REMARK    6  A    between atoms: N2_12  and  C7_13 
REMARK    7  A    between atoms: C7_13  and  C8_14 
ROOT
HETATM    1  C3  UNL     1      -0.030   1.025  -0.604  1.00  0.00     0.054 C 
HETATM    2  C5  UNL     1       0.220  -0.244  -1.389  1.00  0.00     0.063 C 
HETATM    3  C6  UNL     1       1.086  -1.239  -0.709  1.00  0.00     0.275 C 
HETATM    4  N2  UNL     1       2.339  -0.710  -0.201  1.00  0.00     0.092 N 
HETATM    5  C14 UNL     1       2.408   0.674  -0.653  1.00  0.00     0.275 C 
HETATM    6  C15 UNL     1       1.310   1.413   0.050  1.00  0.00     0.063 C 
ENDROOT
BRANCH   1   7
HETATM    7  N1  UNL     1      -1.032   0.873   0.376  1.00  0.00    -0.383 N 
ATOM      8  H1  UNL     1      -0.839   1.022   1.366  1.00  0.00     0.160 HD
BRANCH   7   9
HETATM    9  C2  UNL     1      -2.305   0.507  -0.077  1.00  0.00     0.158 C 
BRANCH   9  10
HETATM   10  C1  UNL     1      -3.271   0.308   1.086  1.00  0.00     0.258 C 
HETATM   11  O1  UNL     1      -2.817   0.493   2.224  1.00  0.00    -0.267 OA
HETATM   12  N3  UNL     1      -4.582  -0.066   0.757  1.00  0.00    -0.348 N 
HETATM   13  C16 UNL     1      -5.632  -0.301   1.726  1.00  0.00     0.126 C 
HETATM   14  C19 UNL     1      -5.108  -0.282  -0.563  1.00  0.00     0.126 C 
HETATM   15  C17 UNL     1      -6.838  -0.754   0.932  1.00  0.00     0.021 C 
HETATM   16  C18 UNL     1      -6.617  -0.194  -0.459  1.00  0.00     0.021 C 
ENDBRANCH   9  10
ENDBRANCH   7   9
ENDBRANCH   1   7
BRANCH   1  17
HETATM   17  C4  UNL     1      -0.261   2.104  -1.641  1.00  0.00     0.195 C 
BRANCH  17  18
HETATM   18  O2  UNL     1      -1.377   1.923  -2.408  1.00  0.00    -0.398 OA
ATOM     19  H2  UNL     1      -1.522   2.600  -3.059  1.00  0.00     0.209 HD
ENDBRANCH  17  18
ENDBRANCH   1  17
BRANCH   4  20
HETATM   20  C7  UNL     1       3.462  -1.490  -0.630  1.00  0.00     0.311 C 
BRANCH  20  21
HETATM   21  C8  UNL     1       4.763  -1.087  -0.104  1.00  0.00    -0.030 A 
HETATM   22  C9  UNL     1       4.856  -0.418   1.098  1.00  0.00     0.010 A 
HETATM   23  C10 UNL     1       6.076  -0.046   1.593  1.00  0.00     0.024 A 
HETATM   24  C11 UNL     1       7.227  -0.347   0.877  1.00  0.00     0.034 A 
HETATM   25 CL1  UNL     1       8.779   0.144   1.539  1.00  0.00    -0.084 Cl
HETATM   26  C12 UNL     1       7.150  -1.014  -0.326  1.00  0.00     0.024 A 
HETATM   27  C13 UNL     1       5.925  -1.391  -0.829  1.00  0.00     0.010 A 
ENDBRANCH  20  21
ENDBRANCH   4  20
TORSDOF 7
