REMARK  8 active torsions:
REMARK  status: ('A' for Active; 'I' for Inactive)
REMARK    1  A    between atoms: C6_7  and  C7_8 
REMARK    2  A    between atoms: C8_9  and  C9_10 
REMARK    3  A    between atoms: N2_11  and  O1_13 
REMARK    4  A    between atoms: N3_15  and  C10_16 
REMARK    5  A    between atoms: C10_16  and  C11_17 
REMARK    6  A    between atoms: N4_20  and  C13_21 
REMARK    7  A    between atoms: C13_21  and  C14_22 
REMARK    8  A    between atoms: C14_22  and  O2_23 
ROOT
HETATM    1  N1  UNL     1       4.313  -3.456   2.052  1.00  0.00    -0.191 NA
HETATM    2  C1  UNL     1       3.914  -2.520   1.500  1.00  0.00     0.099 C 
HETATM    3  C2  UNL     1       3.411  -1.361   0.822  1.00  0.00     0.045 A 
HETATM    4  C3  UNL     1       4.320  -0.413   0.417  1.00  0.00     0.023 A 
HETATM    5  C4  UNL     1       3.863   0.710  -0.237  1.00  0.00     0.002 A 
HETATM    6  C5  UNL     1       2.511   0.861  -0.474  1.00  0.00     0.014 A 
HETATM    7  C6  UNL     1       1.583  -0.049  -0.092  1.00  0.00    -0.005 A 
HETATM    8  C15 UNL     1       2.053  -1.171   0.565  1.00  0.00     0.036 A 
ENDROOT
BRANCH   7   9
HETATM    9  C7  UNL     1       0.146   0.122  -0.199  1.00  0.00     0.074 A 
HETATM   10  C8  UNL     1      -0.833  -0.897  -0.285  1.00  0.00     0.081 A 
HETATM   11  N3  UNL     1      -2.057  -0.369  -0.158  1.00  0.00    -0.339 N 
HETATM   12  C12 UNL     1      -1.855   0.969  -0.005  1.00  0.00     0.186 A 
HETATM   13  N4  UNL     1      -0.541   1.268  -0.029  1.00  0.00    -0.338 N 
BRANCH  10  14
HETATM   14  C9  UNL     1      -0.571  -2.269  -0.647  1.00  0.00     0.145 C 
HETATM   15  N2  UNL     1      -1.450  -3.169  -0.694  1.00  0.00    -0.278 N 
ATOM     16  H2  UNL     1      -2.414  -2.929  -0.464  1.00  0.00     0.193 HD
BRANCH  15  17
HETATM   17  O1  UNL     1      -1.157  -4.452  -1.042  1.00  0.00    -0.290 OA
ATOM     18  H1  UNL     1      -1.820  -5.131  -1.077  1.00  0.00     0.244 HD
ENDBRANCH  15  17
ENDBRANCH  10  14
BRANCH  11  19
HETATM   19  C10 UNL     1      -3.390  -0.919  -0.067  1.00  0.00     0.141 C 
BRANCH  19  20
HETATM   20  C11 UNL     1      -3.888  -0.961   1.340  1.00  0.00     0.105 C 
HETATM   21 BR1  UNL     1      -2.822  -1.965   2.553  1.00  0.00    -0.095 Br
ENDBRANCH  19  20
ENDBRANCH  11  19
BRANCH  13  22
HETATM   22  C13 UNL     1      -0.100   2.644   0.082  1.00  0.00     0.156 C 
BRANCH  22  23
HETATM   23  C14 UNL     1      -0.163   3.407  -1.217  1.00  0.00     0.184 C 
BRANCH  23  24
HETATM   24  O2  UNL     1       0.284   4.706  -0.982  1.00  0.00    -0.399 OA
ATOM     25  H2  UNL     1       0.244   5.187  -1.800  1.00  0.00     0.209 HD
ENDBRANCH  23  24
ENDBRANCH  22  23
ENDBRANCH  13  22
ENDBRANCH   7   9
TORSDOF 8
