REMARK  5 active torsions:
REMARK  status: ('A' for Active; 'I' for Inactive)
REMARK    1  A    between atoms: O1_2  and  C2_3 
REMARK    2  A    between atoms: C5_6  and  O2_7 
REMARK    3  A    between atoms: C9_11  and  O3_12 
REMARK    4  A    between atoms: C11_16  and  C12_17 
REMARK    5  A    between atoms: C12_17  and  C14_19 
ROOT
HETATM    1  C2  UNL     1       2.837   0.727  -1.169  1.00  0.00     0.112 A 
HETATM    2  C3  UNL     1       3.757   0.511  -0.161  1.00  0.00     0.009 A 
HETATM    3  C4  UNL     1       5.137   0.995  -0.329  1.00  0.00     0.054 C 
HETATM    4  C5  UNL     1       3.408  -0.147   0.996  1.00  0.00     0.093 A 
HETATM    5  C7  UNL     1       2.105  -0.596   1.145  1.00  0.00     0.078 A 
HETATM    6  C8  UNL     1       1.177  -0.363   0.105  1.00  0.00     0.088 A 
HETATM    7  C9  UNL     1       1.528   0.278  -1.027  1.00  0.00     0.128 A 
HETATM    8  N1  UNL     1      -0.240  -0.718   0.105  1.00  0.00    -0.342 N 
HETATM    9  C10 UNL     1      -0.997   0.120  -0.839  1.00  0.00     0.149 C 
HETATM   10  C11 UNL     1      -2.501   0.223  -0.247  1.00  0.00     0.037 C 
HETATM   11  C15 UNL     1      -2.851  -1.225  -0.029  1.00  0.00    -0.051 C 
HETATM   12  C16 UNL     1      -3.631  -1.524  -0.976  1.00  0.00     0.086 C 
HETATM   13  C17 UNL     1      -4.440  -1.614  -2.058  1.00  0.00     0.017 C 
HETATM   14  C18 UNL     1      -3.715  -0.189  -2.577  1.00  0.00     0.015 C 
HETATM   15  C19 UNL     1      -3.520   0.573  -1.252  1.00  0.00     0.075 C 
HETATM   16  C20 UNL     1      -4.624  -0.123  -0.562  1.00  0.00     0.140 C 
HETATM   17  O5  UNL     1      -5.655  -0.025   0.007  1.00  0.00    -0.297 OA
HETATM   18  C21 UNL     1      -2.073  -2.051   0.918  1.00  0.00     0.034 C 
HETATM   19  C22 UNL     1      -0.785  -1.749   0.939  1.00  0.00     0.035 C 
HETATM   20  C23 UNL     1      -0.143  -2.612   1.935  1.00  0.00     0.034 C 
HETATM   21  C24 UNL     1       1.007  -2.443   2.576  1.00  0.00     0.058 C 
HETATM   22  C25 UNL     1       1.913  -1.305   2.406  1.00  0.00     0.187 C 
HETATM   23  O6  UNL     1       2.550  -0.925   3.381  1.00  0.00    -0.287 OA
ENDROOT
BRANCH  10  24
HETATM   24  C12 UNL     1      -2.478   0.973   0.985  1.00  0.00    -0.031 C 
HETATM   25  C13 UNL     1      -3.679   1.252   1.803  1.00  0.00     0.048 C 
BRANCH  24  26
HETATM   26  C14 UNL     1      -1.613   2.220   0.916  1.00  0.00     0.262 C 
HETATM   27  O4  UNL     1      -2.170   3.267   0.784  1.00  0.00    -0.302 OA
ENDBRANCH  24  26
ENDBRANCH  10  24
BRANCH   7  28
HETATM   28  O3  UNL     1       0.630   0.486  -2.025  1.00  0.00    -0.356 OA
ATOM     29  H3  UNL     1      -0.264   0.179  -1.928  1.00  0.00     0.218 HD
ENDBRANCH   7  28
BRANCH   4  30
HETATM   30  O2  UNL     1       4.309  -0.379   2.023  1.00  0.00    -0.354 OA
HETATM   31  C6  UNL     1       5.139  -1.542   2.039  1.00  0.00     0.210 C 
ENDBRANCH   4  30
BRANCH   1  32
HETATM   32  O1  UNL     1       3.158   1.383  -2.342  1.00  0.00    -0.352 OA
HETATM   33  C1  UNL     1       3.050   2.771  -2.536  1.00  0.00     0.210 C 
ENDBRANCH   1  32
TORSDOF 5
