REMARK  9 active torsions:
REMARK  status: ('A' for Active; 'I' for Inactive)
REMARK    1  A    between atoms: C2_2  and  O2_4 
REMARK    2  A    between atoms: O2_4  and  C3_5 
REMARK    3  A    between atoms: N1_8  and  C6_9 
REMARK    4  A    between atoms: C6_9  and  C7_10 
REMARK    5  A    between atoms: C7_10  and  C8_11 
REMARK    6  A    between atoms: C12_15  and  O3_16 
REMARK    7  A    between atoms: O3_16  and  C13_17 
REMARK    8  A    between atoms: C13_17  and  C14_19 
REMARK    9  A    between atoms: C14_19  and  N2_20 
ROOT
HETATM    1  C8  UNL     1       0.271  -0.825   0.113  1.00  0.00    -0.008 C 
HETATM    2  C9  UNL     1      -0.738   0.232   0.478  1.00  0.00     0.010 C 
HETATM    3  C10 UNL     1      -1.949  -0.533   0.974  1.00  0.00    -0.003 C 
HETATM    4  C11 UNL     1      -2.999   0.496   1.340  1.00  0.00     0.038 C 
HETATM    5  C12 UNL     1      -4.174   0.249   0.444  1.00  0.00     0.133 C 
HETATM    6  C15 UNL     1      -3.580  -0.525  -0.690  1.00  0.00     0.042 C 
HETATM    7  C16 UNL     1      -2.528  -1.448  -0.044  1.00  0.00    -0.034 C 
HETATM    8  C17 UNL     1      -3.341  -2.488   0.720  1.00  0.00     0.016 C 
HETATM    9  C18 UNL     1      -1.641  -1.994  -1.061  1.00  0.00     0.003 C 
HETATM   10  C19 UNL     1      -1.469  -3.510  -1.075  1.00  0.00    -0.009 C 
HETATM   11  C20 UNL     1      -0.666  -4.015   0.068  1.00  0.00     0.005 C 
HETATM   12  C21 UNL     1       0.797  -3.662  -0.245  1.00  0.00     0.005 C 
HETATM   13  C22 UNL     1       0.629  -2.759  -1.435  1.00  0.00    -0.009 C 
HETATM   14  C23 UNL     1      -0.419  -3.583  -2.209  1.00  0.00     0.010 C 
HETATM   15  C24 UNL     1      -0.231  -1.538  -1.105  1.00  0.00    -0.001 C 
ENDROOT
BRANCH   1  16
HETATM   16  C7  UNL     1       1.572  -0.145  -0.231  1.00  0.00     0.035 C 
BRANCH  16  17
HETATM   17  C6  UNL     1       2.164   0.665   0.873  1.00  0.00     0.273 C 
BRANCH  17  18
HETATM   18  N1  UNL     1       3.421   1.285   0.482  1.00  0.00     0.091 N 
HETATM   19  C5  UNL     1       3.228   2.314  -0.518  1.00  0.00     0.275 C 
HETATM   20  C4  UNL     1       4.361   3.319  -0.321  1.00  0.00     0.064 C 
HETATM   21  C3  UNL     1       5.108   2.787   0.892  1.00  0.00     0.161 C 
HETATM   22  C25 UNL     1       3.966   2.039   1.596  1.00  0.00     0.304 C 
BRANCH  21  23
HETATM   23  O2  UNL     1       6.044   1.788   0.522  1.00  0.00    -0.315 OA
BRANCH  23  24
HETATM   24  C2  UNL     1       7.369   1.821   0.932  1.00  0.00     0.255 C 
HETATM   25  C1  UNL     1       8.296   0.728   0.497  1.00  0.00     0.126 C 
HETATM   26  O1  UNL     1       7.721   2.777   1.651  1.00  0.00    -0.266 OA
ENDBRANCH  23  24
ENDBRANCH  21  23
ENDBRANCH  17  18
ENDBRANCH  16  17
ENDBRANCH   1  16
BRANCH   5  27
HETATM   27  O3  UNL     1      -4.783   1.444  -0.025  1.00  0.00    -0.315 OA
BRANCH  27  28
HETATM   28  C13 UNL     1      -6.102   1.760   0.255  1.00  0.00     0.284 C 
HETATM   29  O4  UNL     1      -6.760   0.944   0.950  1.00  0.00    -0.263 OA
BRANCH  28  30
HETATM   30  C14 UNL     1      -6.791   2.991  -0.207  1.00  0.00     0.340 C 
BRANCH  30  31
HETATM   31  N2  UNL     1      -5.955   3.854  -0.983  1.00  0.00    -0.070 N 
ATOM     32  H23 UNL     1      -5.103   4.087  -0.473  1.00  0.00     0.274 HD
ATOM     33  H22 UNL     1      -5.548   3.350  -1.771  1.00  0.00     0.274 HD
ATOM     34  H21 UNL     1      -6.428   4.700  -1.300  1.00  0.00     0.274 HD
ENDBRANCH  30  31
ENDBRANCH  28  30
ENDBRANCH  27  28
ENDBRANCH   5  27
TORSDOF 9
