REMARK  7 active torsions:
REMARK  status: ('A' for Active; 'I' for Inactive)
REMARK    1  A    between atoms: C2_2  and  O2_4 
REMARK    2  A    between atoms: O2_4  and  C3_5 
REMARK    3  A    between atoms: C5_7  and  C6_8 
REMARK    4  A    between atoms: C6_8  and  C7_9 
REMARK    5  A    between atoms: C7_9  and  C8_10 
REMARK    6  A    between atoms: C8_10  and  N1_11 
REMARK    7  A    between atoms: C16_20  and  O4_21 
ROOT
HETATM    1  C3  UNL     1      -2.452   0.299   0.224  1.00  0.00     0.177 C 
HETATM    2  C4  UNL     1      -1.674  -0.724  -0.510  1.00  0.00    -0.040 C 
HETATM    3  C5  UNL     1      -0.521  -0.611  -1.167  1.00  0.00    -0.072 C 
HETATM    4  C15 UNL     1      -0.131  -1.964  -1.744  1.00  0.00     0.067 C 
HETATM    5  C16 UNL     1      -1.551  -2.547  -1.945  1.00  0.00     0.131 C 
HETATM    6  C17 UNL     1      -2.083  -2.143  -0.639  1.00  0.00     0.057 C 
HETATM    7  C18 UNL     1      -3.453  -2.500  -0.269  1.00  0.00     0.067 C 
HETATM    8  C19 UNL     1      -4.542  -2.281  -1.255  1.00  0.00     0.013 C 
HETATM    9  C20 UNL     1      -5.593  -1.294  -0.743  1.00  0.00     0.006 C 
HETATM   10  C21 UNL     1      -4.896   0.006  -0.349  1.00  0.00    -0.000 C 
HETATM   11  C22 UNL     1      -4.466   0.705  -1.597  1.00  0.00     0.011 C 
HETATM   12  C23 UNL     1      -3.811  -0.226   0.655  1.00  0.00     0.051 C 
HETATM   13  C24 UNL     1      -4.233   0.473   1.955  1.00  0.00     0.027 C 
HETATM   14  C25 UNL     1      -3.771  -1.678   0.924  1.00  0.00     0.143 C 
HETATM   15  O5  UNL     1      -3.976  -2.136   2.001  1.00  0.00    -0.297 OA
ENDROOT
BRANCH   3  16
HETATM   16  C6  UNL     1       0.357   0.578  -1.379  1.00  0.00     0.036 C 
BRANCH  16  17
HETATM   17  C7  UNL     1       1.719   0.307  -0.746  1.00  0.00     0.034 C 
BRANCH  17  18
HETATM   18  C8  UNL     1       2.643   1.483  -0.929  1.00  0.00     0.273 C 
BRANCH  18  19
HETATM   19  N1  UNL     1       3.937   1.276  -0.354  1.00  0.00     0.093 N 
HETATM   20  C9  UNL     1       4.708   0.265  -1.041  1.00  0.00     0.303 C 
HETATM   21  C10 UNL     1       6.064   0.159  -0.423  1.00  0.00     0.146 C 
HETATM   22  C11 UNL     1       6.450  -1.297  -0.159  1.00  0.00     0.041 C 
HETATM   23  O3  UNL     1       6.250   0.942   0.695  1.00  0.00    -0.378 OA
HETATM   24  C12 UNL     1       5.256   0.848   1.636  1.00  0.00     0.146 C 
HETATM   25  C13 UNL     1       5.504   1.938   2.681  1.00  0.00     0.041 C 
HETATM   26  C14 UNL     1       3.890   1.091   1.065  1.00  0.00     0.303 C 
ENDBRANCH  18  19
ENDBRANCH  17  18
ENDBRANCH  16  17
ENDBRANCH   3  16
BRANCH   1  27
HETATM   27  O2  UNL     1      -1.766   0.571   1.442  1.00  0.00    -0.310 OA
BRANCH  27  28
HETATM   28  C2  UNL     1      -1.339   1.806   1.852  1.00  0.00     0.255 C 
HETATM   29  C1  UNL     1      -0.622   2.087   3.116  1.00  0.00     0.126 C 
HETATM   30  O1  UNL     1      -1.563   2.807   1.105  1.00  0.00    -0.266 OA
ENDBRANCH  27  28
ENDBRANCH   1  27
BRANCH   5  31
HETATM   31  O4  UNL     1      -2.001  -1.901  -3.067  1.00  0.00    -0.395 OA
ATOM     32  H4  UNL     1      -2.872  -2.259  -3.190  1.00  0.00     0.210 HD
ENDBRANCH   5  31
TORSDOF 7
