REMARK  11 active torsions:
REMARK  status: ('A' for Active; 'I' for Inactive)
REMARK    1  A    between atoms: C2_2  and  C3_3 
REMARK    2  A    between atoms: C3_3  and  N1_4 
REMARK    3  A    between atoms: C3_3  and  C14_20 
REMARK    4  A    between atoms: C3_3  and  C17_24 
REMARK    5  A    between atoms: N1_4  and  S1_6 
REMARK    6  A    between atoms: S1_6  and  C4_9 
REMARK    7  A    between atoms: C6_11  and  C7_12 
REMARK    8  A    between atoms: C17_24  and  O3_25 
REMARK    9  A    between atoms: C17_24  and  C18_27 
REMARK   10  A    between atoms: C18_27  and  N3_28 
REMARK   11  A    between atoms: N3_28  and  C19_31 
ROOT
HETATM    1  C14 UNL     1       0.371  -2.196  -1.147  1.00  0.00     0.120 C 
HETATM    2  C15 UNL     1      -0.508  -3.382  -0.804  1.00  0.00     0.028 C 
HETATM    3  C16 UNL     1       1.515  -2.723  -1.898  1.00  0.00     0.066 C 
HETATM    4  N2  UNL     1       2.385  -3.180  -2.499  1.00  0.00    -0.197 NA
ENDROOT
BRANCH   1   5
HETATM    5  C3  UNL     1       0.675  -1.396   0.065  1.00  0.00     0.083 C 
BRANCH   5   6
HETATM    6  C2  UNL     1       1.403  -2.194   1.093  1.00  0.00     0.031 C 
HETATM    7  C1  UNL     1       1.909  -1.404   2.279  1.00  0.00     0.007 C 
ENDBRANCH   5   6
BRANCH   5   8
HETATM    8  N1  UNL     1      -0.468  -0.707   0.467  1.00  0.00    -0.301 N 
ATOM      9  H1  UNL     1      -0.619   0.129  -0.097  1.00  0.00     0.173 HD
BRANCH   8  10
HETATM   10  S1  UNL     1      -1.608  -0.879   1.580  1.00  0.00     0.261 S 
HETATM   11  O1  UNL     1      -1.510  -2.083   2.501  1.00  0.00    -0.200 OA
HETATM   12  O2  UNL     1      -1.767   0.348   2.526  1.00  0.00    -0.200 OA
BRANCH  10  13
HETATM   13  C4  UNL     1      -3.210  -1.028   0.893  1.00  0.00     0.101 A 
HETATM   14  C5  UNL     1      -3.748   0.169   0.371  1.00  0.00     0.035 A 
HETATM   15  C6  UNL     1      -4.951   0.196  -0.245  1.00  0.00    -0.049 A 
HETATM   16  C11 UNL     1      -5.672  -0.983  -0.368  1.00  0.00     0.010 A 
HETATM   17  C12 UNL     1      -5.178  -2.170   0.132  1.00  0.00     0.026 A 
HETATM   18  C13 UNL     1      -3.938  -2.161   0.764  1.00  0.00     0.057 A 
HETATM   19 CL1  UNL     1      -3.415  -3.646   1.505  1.00  0.00    -0.083 Cl
BRANCH  15  20
HETATM   20  C7  UNL     1      -5.488   1.502  -0.734  1.00  0.00    -0.024 C 
HETATM   21  C8  UNL     1      -6.737   1.293  -1.537  1.00  0.00     0.019 C 
HETATM   22  C9  UNL     1      -4.500   2.305  -1.518  1.00  0.00     0.019 C 
HETATM   23  C10 UNL     1      -5.861   2.302   0.531  1.00  0.00     0.019 C 
ENDBRANCH  15  20
ENDBRANCH  10  13
ENDBRANCH   8  10
ENDBRANCH   5   8
BRANCH   5  24
HETATM   24  C17 UNL     1       1.584  -0.237  -0.409  1.00  0.00     0.173 C 
BRANCH  24  25
HETATM   25  O3  UNL     1       1.019   0.374  -1.497  1.00  0.00    -0.391 OA
ATOM     26  H3  UNL     1       1.577   1.086  -1.788  1.00  0.00     0.210 HD
ENDBRANCH  24  25
BRANCH  24  27
HETATM   27  C18 UNL     1       3.015  -0.401  -0.475  1.00  0.00     0.266 C 
BRANCH  27  28
HETATM   28  N3  UNL     1       3.558   1.005  -0.526  1.00  0.00    -0.068 N 
ATOM     29  H32 UNL     1       3.206   1.519  -1.333  1.00  0.00     0.277 HD
ATOM     30  H31 UNL     1       3.165   1.592   0.210  1.00  0.00     0.277 HD
BRANCH  28  31
HETATM   31  C19 UNL     1       5.007   0.987  -0.486  1.00  0.00     0.190 C 
HETATM   32  C20 UNL     1       5.473   2.313  -1.043  1.00  0.00     0.059 C 
HETATM   33  C21 UNL     1       6.519   2.991  -0.188  1.00  0.00     0.169 C 
HETATM   34  O4  UNL     1       7.432   2.034   0.307  1.00  0.00    -0.391 OA
HETATM   35  C22 UNL     1       6.758   1.366   1.306  1.00  0.00     0.169 C 
HETATM   36  C23 UNL     1       5.369   0.941   0.986  1.00  0.00     0.059 C 
ENDBRANCH  28  31
ENDBRANCH  27  28
ENDBRANCH  24  27
ENDBRANCH   5  24
ENDBRANCH   1   5
TORSDOF 11
