REMARK  12 active torsions:
REMARK  status: ('A' for Active; 'I' for Inactive)
REMARK    1  A    between atoms: C2_2  and  N1_3 
REMARK    2  A    between atoms: N1_3  and  C3_5 
REMARK    3  A    between atoms: C3_5  and  C5_7 
REMARK       I    between atoms: C5_7  and  N2_9 
REMARK    4  A    between atoms: N2_9  and  C6_11 
REMARK    5  A    between atoms: C6_11  and  C7_12 
REMARK    6  A    between atoms: C6_11  and  C17_29 
REMARK    7  A    between atoms: C7_12  and  O3_14 
REMARK    8  A    between atoms: O3_14  and  C8_15 
REMARK    9  A    between atoms: C8_15  and  C9_16 
REMARK   10  A    between atoms: C9_16  and  N3_18 
REMARK   11  A    between atoms: N3_18  and  C10_20 
REMARK   12  A    between atoms: C15_26  and  O4_27 
ROOT
HETATM    1  C7  UNL     1      -0.294  -0.297   0.067  1.00  0.00     0.282 C 
HETATM    2  O2  UNL     1      -0.133   0.710  -0.668  1.00  0.00    -0.263 OA
ENDROOT
BRANCH   1   3
HETATM    3  C6  UNL     1      -1.520  -1.084   0.148  1.00  0.00     0.191 C 
BRANCH   3   4
HETATM    4  N2  UNL     1      -2.565  -0.532  -0.730  1.00  0.00    -0.345 N 
HETATM    5  C5  UNL     1      -3.829  -0.116  -0.263  1.00  0.00     0.240 C 
HETATM    6  O1  UNL     1      -4.108  -0.210   0.956  1.00  0.00    -0.271 OA
ATOM      7  H2  UNL     1      -2.365  -0.446  -1.726  1.00  0.00     0.163 HD
BRANCH   5   8
HETATM    8  C3  UNL     1      -4.836   0.432  -1.185  1.00  0.00     0.165 C 
HETATM    9  C4  UNL     1      -4.996  -0.372  -2.440  1.00  0.00     0.042 C 
BRANCH   8  10
HETATM   10  N1  UNL     1      -6.059   0.803  -0.552  1.00  0.00    -0.410 N 
ATOM     11  H1  UNL     1      -6.314   0.466   0.376  1.00  0.00     0.154 HD
BRANCH  10  12
HETATM   12  C2  UNL     1      -6.902   1.675  -1.300  1.00  0.00     0.110 C 
HETATM   13  C1  UNL     1      -6.298   3.070  -1.446  1.00  0.00     0.026 C 
ENDBRANCH  10  12
ENDBRANCH   8  10
ENDBRANCH   5   8
ENDBRANCH   3   4
BRANCH   3  14
HETATM   14  C17 UNL     1      -1.341  -2.540  -0.189  1.00  0.00    -0.022 C 
HETATM   15  C18 UNL     1      -0.919  -2.782  -1.612  1.00  0.00     0.017 C 
HETATM   16  C19 UNL     1      -2.760  -3.143  -0.096  1.00  0.00     0.017 C 
HETATM   17  C20 UNL     1      -0.514  -3.248   0.825  1.00  0.00     0.017 C 
ENDBRANCH   3  14
ENDBRANCH   1   3
BRANCH   1  18
HETATM   18  O3  UNL     1       0.800  -0.662   0.849  1.00  0.00    -0.313 OA
BRANCH  18  19
HETATM   19  C8  UNL     1       2.020   0.137   0.746  1.00  0.00     0.248 C 
BRANCH  19  20
HETATM   20  C9  UNL     1       3.050  -0.394   1.644  1.00  0.00     0.102 C 
HETATM   21  S1  UNL     1       2.597  -1.692   2.644  1.00  0.00    -0.063 SA
BRANCH  20  22
HETATM   22  N3  UNL     1       4.373   0.000   1.825  1.00  0.00    -0.347 N 
ATOM     23  H3  UNL     1       4.905  -0.533   2.514  1.00  0.00     0.167 HD
BRANCH  22  24
HETATM   24  C10 UNL     1       5.072   1.038   1.181  1.00  0.00     0.068 A 
HETATM   25  C11 UNL     1       4.567   1.986   0.338  1.00  0.00     0.051 A 
HETATM   26  C12 UNL     1       5.353   3.001  -0.233  1.00  0.00     0.013 A 
HETATM   27 BR1  UNL     1       4.546   4.275  -1.395  1.00  0.00    -0.051 Br
HETATM   28  C13 UNL     1       6.674   3.041   0.066  1.00  0.00     0.022 A 
HETATM   29  C14 UNL     1       7.212   2.115   0.902  1.00  0.00     0.040 A 
HETATM   30  C15 UNL     1       6.459   1.120   1.466  1.00  0.00     0.095 A 
BRANCH  30  31
HETATM   31  O4  UNL     1       7.006   0.183   2.311  1.00  0.00    -0.354 OA
HETATM   32  C16 UNL     1       8.378   0.228   2.622  1.00  0.00     0.210 C 
ENDBRANCH  30  31
ENDBRANCH  22  24
ENDBRANCH  20  22
ENDBRANCH  19  20
ENDBRANCH  18  19
ENDBRANCH   1  18
TORSDOF 12
