REMARK  14 active torsions:
REMARK  status: ('A' for Active; 'I' for Inactive)
REMARK    1  A    between atoms: O1_2  and  C2_3 
REMARK    2  A    between atoms: C2_3  and  O2_4 
REMARK    3  A    between atoms: C4_7  and  C5_8 
REMARK    4  A    between atoms: C12_16  and  C13_17 
REMARK    5  A    between atoms: C13_17  and  C14_18 
REMARK    6  A    between atoms: C13_17  and  N4_26 
REMARK    7  A    between atoms: C14_18  and  C15_19 
REMARK    8  A    between atoms: C15_19  and  C16_20 
REMARK    9  A    between atoms: C16_20  and  N1_21 
REMARK   10  A    between atoms: N4_26  and  C18_27 
REMARK   11  A    between atoms: C18_27  and  O3_28 
REMARK   12  A    between atoms: C18_27  and  O4_30 
REMARK   13  A    between atoms: O4_30  and  C19_31 
REMARK   14  A    between atoms: C19_31  and  C20_32 
ROOT
HETATM    1  C13 UNL     1       0.902   0.149  -0.964  1.00  0.00     0.117 C 
ENDROOT
BRANCH   1   2
HETATM    2  C12 UNL     1      -0.454   0.672  -1.095  1.00  0.00     0.013 C 
HETATM    3  C3  UNL     1      -1.681  -0.124  -0.843  1.00  0.00     0.025 C 
HETATM    4  C2  UNL     1      -1.902  -1.433  -1.359  1.00  0.00     0.186 C 
HETATM    5  C4  UNL     1      -2.483   0.321   0.302  1.00  0.00     0.094 C 
HETATM    6  S1  UNL     1      -2.570   2.121  -0.280  1.00  0.00    -0.144 SA
HETATM    7  C9  UNL     1      -0.695   2.052  -0.566  1.00  0.00     0.032 C 
HETATM    8  C10 UNL     1      -0.240   2.446   0.771  1.00  0.00     0.032 C 
HETATM    9  C11 UNL     1      -0.532   3.171  -1.573  1.00  0.00     0.032 C 
BRANCH   4  10
HETATM   10  O1  UNL     1      -2.289  -2.594  -0.719  1.00  0.00    -0.335 OA
HETATM   11  C1  UNL     1      -2.500  -3.846  -1.345  1.00  0.00     0.212 C 
ENDBRANCH   4  10
BRANCH   4  12
HETATM   12  O2  UNL     1      -1.740  -1.670  -2.635  1.00  0.00    -0.341 OA
ATOM     13  H2  UNL     1      -1.474  -0.871  -3.075  1.00  0.00     0.220 HD
ENDBRANCH   4  12
BRANCH   5  14
HETATM   14  C5  UNL     1      -3.898   0.032   0.479  1.00  0.00    -0.035 C 
HETATM   15  C6  UNL     1      -4.804   0.515  -0.637  1.00  0.00     0.016 C 
HETATM   16  C7  UNL     1      -4.369  -1.270   1.018  1.00  0.00     0.016 C 
HETATM   17  C8  UNL     1      -4.361   1.014   1.644  1.00  0.00     0.016 C 
ENDBRANCH   5  14
ENDBRANCH   1   2
BRANCH   1  18
HETATM   18  C14 UNL     1       2.096   0.942  -1.390  1.00  0.00     0.024 C 
BRANCH  18  19
HETATM   19  C15 UNL     1       2.703   2.117  -0.866  1.00  0.00     0.075 C 
BRANCH  19  20
HETATM   20  C16 UNL     1       3.347   2.000   0.508  1.00  0.00     0.067 C 
BRANCH  20  21
HETATM   21  N1  UNL     1       3.923   3.191   0.907  1.00  0.00    -0.346 N 
HETATM   22  C17 UNL     1       3.828   4.414   0.902  1.00  0.00     0.200 C 
HETATM   23  N2  UNL     1       4.839   5.227   1.551  1.00  0.00    -0.067 NA
HETATM   24  N3  UNL     1       2.802   5.243   0.314  1.00  0.00    -0.067 NA
ATOM     25  H1  UNL     1       4.777   2.958   1.413  1.00  0.00     0.167 HD
ENDBRANCH  20  21
ENDBRANCH  19  20
ENDBRANCH  18  19
ENDBRANCH   1  18
BRANCH   1  26
HETATM   26  N4  UNL     1       1.234  -1.207  -0.796  1.00  0.00    -0.359 NA
BRANCH  26  27
HETATM   27  C18 UNL     1       1.552  -2.505  -0.635  1.00  0.00     0.341 C 
BRANCH  27  28
HETATM   28  O3  UNL     1       2.679  -3.081  -0.980  1.00  0.00    -0.315 OA
ATOM     29  H3  UNL     1       2.903  -3.997  -0.866  1.00  0.00     0.222 HD
ENDBRANCH  27  28
BRANCH  27  30
HETATM   30  O4  UNL     1       0.729  -3.484  -0.049  1.00  0.00    -0.301 OA
BRANCH  30  31
HETATM   31  C19 UNL     1       1.019  -4.812   0.164  1.00  0.00     0.219 C 
BRANCH  31  32
HETATM   32  C20 UNL     1       2.145  -5.089   1.071  1.00  0.00    -0.028 A 
HETATM   33  C21 UNL     1       2.986  -4.363   1.761  1.00  0.00     0.051 A 
HETATM   34  C22 UNL     1       3.624  -5.564   2.260  1.00  0.00     0.117 A 
HETATM   35  F1  UNL     1       4.652  -5.913   3.084  1.00  0.00    -0.206 F 
HETATM   36  C23 UNL     1       2.777  -6.283   1.566  1.00  0.00     0.051 A 
ENDBRANCH  31  32
ENDBRANCH  30  31
ENDBRANCH  27  30
ENDBRANCH  26  27
ENDBRANCH   1  26
TORSDOF 14
