REMARK  10 active torsions:
REMARK  status: ('A' for Active; 'I' for Inactive)
REMARK    1  A    between atoms: C1_4  and  C2_5 
REMARK    2  A    between atoms: C2_5  and  C3_6 
REMARK    3  A    between atoms: C3_6  and  C4_7 
REMARK    4  A    between atoms: C4_7  and  C5_8 
REMARK    5  A    between atoms: C5_8  and  C6_9 
REMARK    6  A    between atoms: C6_9  and  C7_10 
REMARK    7  A    between atoms: C7_10  and  C8_11 
REMARK    8  A    between atoms: C8_11  and  C9_12 
REMARK    9  A    between atoms: C9_12  and  C10_13 
REMARK   10  A    between atoms: C10_13  and  N2_14 
ROOT
HETATM    1  C8  UNL     1       0.104   0.527  -0.334  1.00  0.00     0.002 C 
ENDROOT
BRANCH   1   2
HETATM    2  C7  UNL     1       1.185  -0.466  -0.060  1.00  0.00     0.000 C 
BRANCH   2   3
HETATM    3  C6  UNL     1       2.582   0.113  -0.039  1.00  0.00     0.000 C 
BRANCH   3   4
HETATM    4  C5  UNL     1       3.516  -1.055   0.241  1.00  0.00     0.000 C 
BRANCH   4   5
HETATM    5  C4  UNL     1       4.941  -0.625   0.319  1.00  0.00     0.000 C 
BRANCH   5   6
HETATM    6  C3  UNL     1       5.423   0.023  -0.949  1.00  0.00     0.005 C 
BRANCH   6   7
HETATM    7  C2  UNL     1       6.883   0.392  -0.703  1.00  0.00     0.044 C 
BRANCH   7   8
HETATM    8  C1  UNL     1       7.030   1.318   0.436  1.00  0.00     0.052 C 
HETATM    9  N1  UNL     1       7.645   1.032   1.528  1.00  0.00    -0.411 N 
ATOM     10  H12 UNL     1       8.052   0.099   1.595  1.00  0.00     0.155 HD
ATOM     11  H11 UNL     1       7.747   1.672   2.316  1.00  0.00     0.155 HD
ENDBRANCH   7   8
ENDBRANCH   6   7
ENDBRANCH   5   6
ENDBRANCH   4   5
ENDBRANCH   3   4
ENDBRANCH   2   3
ENDBRANCH   1   2
BRANCH   1  12
HETATM   12  C9  UNL     1      -1.215  -0.228  -0.293  1.00  0.00     0.021 C 
BRANCH  12  13
HETATM   13  C10 UNL     1      -2.409   0.629  -0.564  1.00  0.00     0.139 C 
BRANCH  13  14
HETATM   14  N2  UNL     1      -3.583  -0.155  -0.490  1.00  0.00    -0.319 N 
HETATM   15  N3  UNL     1      -4.652   0.179  -1.266  1.00  0.00    -0.138 NA
HETATM   16  C11 UNL     1      -5.890   0.328  -0.481  1.00  0.00     0.106 C 
HETATM   17  C12 UNL     1      -5.524   1.248   0.686  1.00  0.00     0.026 C 
HETATM   18  C16 UNL     1      -6.273  -1.045   0.087  1.00  0.00     0.103 C 
HETATM   19  C13 UNL     1      -4.560   0.564   1.618  1.00  0.00     0.036 C 
HETATM   20  C14 UNL     1      -3.910  -0.593   0.826  1.00  0.00     0.168 C 
HETATM   21  C15 UNL     1      -5.022  -1.581   0.674  1.00  0.00     0.152 C 
HETATM   22  O1  UNL     1      -4.858  -2.722   1.021  1.00  0.00    -0.296 OA
ENDBRANCH  13  14
ENDBRANCH  12  13
ENDBRANCH   1  12
TORSDOF 10
