REMARK  11 active torsions:
REMARK  status: ('A' for Active; 'I' for Inactive)
REMARK    1  A    between atoms: C3_3  and  C4_4 
REMARK    2  A    between atoms: C4_4  and  C5_5 
REMARK    3  A    between atoms: C5_5  and  C6_6 
REMARK    4  A    between atoms: C6_6  and  C7_7 
REMARK    5  A    between atoms: C7_7  and  C8_8 
REMARK    6  A    between atoms: C8_8  and  C9_9 
REMARK    7  A    between atoms: C9_9  and  C10_10 
REMARK    8  A    between atoms: C10_10  and  C11_11 
REMARK    9  A    between atoms: C11_11  and  C12_12 
REMARK   10  A    between atoms: C16_18  and  C17_19 
REMARK   11  A    between atoms: N2_20  and  O1_22 
ROOT
HETATM    1  C1  UNL     1       7.724   2.370  -2.023  1.00  0.00     0.012 C 
HETATM    2  C2  UNL     1       7.293   1.445  -1.371  1.00  0.00    -0.117 C 
HETATM    3  C3  UNL     1       6.778   0.312  -0.603  1.00  0.00     0.093 C 
ENDROOT
BRANCH   3   4
HETATM    4  C4  UNL     1       5.264   0.465  -0.506  1.00  0.00     0.012 C 
BRANCH   4   5
HETATM    5  C5  UNL     1       4.653  -0.674   0.278  1.00  0.00     0.001 C 
BRANCH   5   6
HETATM    6  C6  UNL     1       3.155  -0.443   0.325  1.00  0.00     0.000 C 
BRANCH   6   7
HETATM    7  C7  UNL     1       2.448  -1.519   1.082  1.00  0.00     0.000 C 
BRANCH   7   8
HETATM    8  C8  UNL     1       0.962  -1.301   1.143  1.00  0.00     0.000 C 
BRANCH   8   9
HETATM    9  C9  UNL     1       0.351  -1.267  -0.219  1.00  0.00     0.000 C 
BRANCH   9  10
HETATM   10  C10 UNL     1      -1.149  -1.063  -0.216  1.00  0.00     0.000 C 
BRANCH  10  11
HETATM   11  C11 UNL     1      -1.463   0.231   0.441  1.00  0.00     0.007 C 
BRANCH  11  12
HETATM   12  C12 UNL     1      -2.938   0.572   0.506  1.00  0.00     0.014 C 
HETATM   13  C13 UNL     1      -3.688  -0.450   1.267  1.00  0.00     0.012 C 
HETATM   14  C14 UNL     1      -4.983  -0.892   0.630  1.00  0.00     0.044 C 
HETATM   15  C15 UNL     1      -4.695  -1.186  -0.802  1.00  0.00     0.056 C 
HETATM   16  N1  UNL     1      -4.277  -0.034  -1.487  1.00  0.00    -0.393 N 
HETATM   17  C16 UNL     1      -3.499   0.926  -0.832  1.00  0.00     0.125 C 
ATOM     18  H1  UNL     1      -4.541   0.103  -2.463  1.00  0.00     0.159 HD
BRANCH  17  19
HETATM   19  C17 UNL     1      -4.257   2.212  -0.792  1.00  0.00     0.112 C 
HETATM   20  N2  UNL     1      -5.531   2.246  -1.017  1.00  0.00    -0.282 N 
ATOM     21  H2  UNL     1      -6.006   1.367  -1.223  1.00  0.00     0.192 HD
BRANCH  20  22
HETATM   22  O1  UNL     1      -6.270   3.379  -0.995  1.00  0.00    -0.290 OA
ATOM     23  H1  UNL     1      -7.205   3.404  -1.160  1.00  0.00     0.244 HD
ENDBRANCH  20  22
ENDBRANCH  17  19
ENDBRANCH  11  12
ENDBRANCH  10  11
ENDBRANCH   9  10
ENDBRANCH   8   9
ENDBRANCH   7   8
ENDBRANCH   6   7
ENDBRANCH   5   6
ENDBRANCH   4   5
ENDBRANCH   3   4
TORSDOF 11
