REMARK  6 active torsions:
REMARK  status: ('A' for Active; 'I' for Inactive)
REMARK    1  A    between atoms: N1_1  and  C1_4 
REMARK    2  A    between atoms: N2_13  and  C8_14 
REMARK    3  A    between atoms: C8_14  and  C9_15 
REMARK    4  A    between atoms: C9_15  and  C10_16 
REMARK    5  A    between atoms: C13_19  and  C14_20 
REMARK    6  A    between atoms: C14_20  and  C15_21 
ROOT
HETATM    1  C10 UNL     1       0.823   0.296  -0.117  1.00  0.00    -0.013 C 
HETATM    2  C11 UNL     1       0.334   1.450   0.710  1.00  0.00     0.005 C 
HETATM    3  C12 UNL     1      -1.146   1.539   0.828  1.00  0.00     0.005 C 
HETATM    4  C13 UNL     1      -1.869   0.570  -0.117  1.00  0.00    -0.014 C 
HETATM    5  C20 UNL     1      -1.231   0.790  -1.472  1.00  0.00     0.005 C 
HETATM    6  C21 UNL     1       0.152   0.197  -1.459  1.00  0.00     0.005 C 
ENDROOT
BRANCH   1   7
HETATM    7  C9  UNL     1       2.300   0.413  -0.348  1.00  0.00     0.025 C 
BRANCH   7   8
HETATM    8  C8  UNL     1       3.094   0.416   0.926  1.00  0.00     0.132 C 
BRANCH   8   9
HETATM    9  N2  UNL     1       4.539   0.536   0.568  1.00  0.00    -0.326 N 
HETATM   10  C1  UNL     1       5.052   1.765   0.466  1.00  0.00     0.145 A 
HETATM   11  S1  UNL     1       6.678   1.484   0.057  1.00  0.00    -0.052 SA
HETATM   12  C2  UNL     1       6.635  -0.232   0.033  1.00  0.00     0.035 A 
HETATM   13  C3  UNL     1       7.580  -1.240  -0.222  1.00  0.00     0.024 A 
HETATM   14  C7  UNL     1       5.328  -0.484   0.352  1.00  0.00     0.056 A 
HETATM   15  C4  UNL     1       7.231  -2.571  -0.162  1.00  0.00     0.044 A 
HETATM   16  C5  UNL     1       5.924  -2.828   0.157  1.00  0.00     0.118 A 
HETATM   17  F1  UNL     1       5.554  -4.134   0.223  1.00  0.00    -0.206 F 
HETATM   18  C6  UNL     1       5.007  -1.860   0.404  1.00  0.00     0.073 A 
BRANCH  10  19
HETATM   19  N1  UNL     1       4.474   2.917   0.632  1.00  0.00    -0.379 N 
ATOM     20  H12 UNL     1       4.866   3.856   0.554  1.00  0.00     0.158 HD
ATOM     21  H11 UNL     1       3.498   3.086   0.877  1.00  0.00     0.158 HD
ENDBRANCH  10  19
ENDBRANCH   8   9
ENDBRANCH   7   8
ENDBRANCH   1   7
BRANCH   4  22
HETATM   22  C14 UNL     1      -3.309   0.958  -0.105  1.00  0.00     0.011 C 
BRANCH  22  23
HETATM   23  C15 UNL     1      -4.209   0.141  -0.965  1.00  0.00     0.011 C 
HETATM   24  C16 UNL     1      -4.261  -1.305  -0.641  1.00  0.00     0.008 C 
HETATM   25  C17 UNL     1      -5.352  -1.687   0.323  1.00  0.00     0.028 C 
HETATM   26  C18 UNL     1      -6.655  -0.983   0.024  1.00  0.00     0.232 C 
HETATM   27  N3  UNL     1      -6.378   0.457   0.142  1.00  0.00    -0.075 N 
HETATM   28  C19 UNL     1      -5.566   0.807  -0.993  1.00  0.00     0.237 C 
ATOM     29  H32 UNL     1      -7.220   1.026   0.228  1.00  0.00     0.277 HD
ATOM     30  H31 UNL     1      -5.959   0.717   1.035  1.00  0.00     0.277 HD
ENDBRANCH  22  23
ENDBRANCH   4  22
TORSDOF 6
