REMARK  5 active torsions:
REMARK  status: ('A' for Active; 'I' for Inactive)
REMARK    1  A    between atoms: N1_2  and  C2_3 
REMARK    2  A    between atoms: N1_2  and  C7_8 
REMARK    3  A    between atoms: C10_11  and  N2_12 
REMARK    4  A    between atoms: N2_12  and  C11_14 
REMARK    5  A    between atoms: C14_20  and  N4_21 
ROOT
HETATM    1  N2  UNL     1      -2.823   0.330  -0.371  1.00  0.00    -0.371 N 
ATOM      2  H2  UNL     1      -2.568   1.159  -0.908  1.00  0.00     0.161 HD
ENDROOT
BRANCH   1   3
HETATM    3  C10 UNL     1      -1.718  -0.457   0.081  1.00  0.00     0.083 C 
HETATM    4  C9  UNL     1      -0.801  -0.889  -1.025  1.00  0.00     0.027 C 
HETATM    5  C8  UNL     1       0.385  -0.052  -1.276  1.00  0.00     0.027 C 
HETATM    6  C7  UNL     1       1.044   0.581  -0.095  1.00  0.00     0.079 C 
HETATM    7  C16 UNL     1       0.084   1.080   0.950  1.00  0.00     0.027 C 
HETATM    8  C15 UNL     1      -1.052   0.194   1.254  1.00  0.00     0.027 C 
BRANCH   6   9
HETATM    9  N1  UNL     1       2.159  -0.130   0.441  1.00  0.00    -0.408 N 
HETATM   10  C1  UNL     1       1.951  -1.411   0.966  1.00  0.00     0.144 C 
BRANCH   9  11
HETATM   11  C2  UNL     1       3.441   0.277   0.045  1.00  0.00     0.079 C 
HETATM   12  C3  UNL     1       4.484   0.336   1.120  1.00  0.00     0.025 C 
HETATM   13  C4  UNL     1       5.758   0.543   0.324  1.00  0.00     0.002 C 
HETATM   14  C5  UNL     1       5.483   0.092  -1.082  1.00  0.00     0.002 C 
HETATM   15  C6  UNL     1       4.102  -0.576  -1.008  1.00  0.00     0.025 C 
ENDBRANCH   9  11
ENDBRANCH   6   9
ENDBRANCH   1   3
BRANCH   1  16
HETATM   16  C11 UNL     1      -4.061   0.163  -0.212  1.00  0.00     0.120 A 
HETATM   17  C12 UNL     1      -4.635  -0.885   0.478  1.00  0.00     0.091 A 
HETATM   18  C13 UNL     1      -6.004  -0.961   0.585  1.00  0.00     0.122 A 
HETATM   19 CL1  UNL     1      -6.707  -2.300   1.464  1.00  0.00    -0.064 Cl
HETATM   20  N3  UNL     1      -6.786  -0.008   0.015  1.00  0.00    -0.181 N 
HETATM   21  C14 UNL     1      -6.195   1.013  -0.657  1.00  0.00     0.678 A 
ATOM     22  H3  UNL     1      -7.802  -0.059   0.091  1.00  0.00     0.185 HD
HETATM   23  N5  UNL     1      -4.863   1.119  -0.783  1.00  0.00    -0.177 N 
ATOM     24  H5  UNL     1      -4.453   1.899  -1.296  1.00  0.00     0.185 HD
BRANCH  21  25
HETATM   25  N4  UNL     1      -7.011   1.889  -1.175  1.00  0.00    -0.234 N 
ATOM     26  H42 UNL     1      -8.023   1.808  -1.079  1.00  0.00     0.174 HD
ATOM     27  H41 UNL     1      -6.567   2.656  -1.680  1.00  0.00     0.174 HD
ENDBRANCH  21  25
ENDBRANCH   1  16
TORSDOF 5
