REMARK  4 active torsions:
REMARK  status: ('A' for Active; 'I' for Inactive)
REMARK    1  A    between atoms: C2_2  and  N1_5 
REMARK    2  A    between atoms: C6_11  and  C7_12 
REMARK    3  A    between atoms: C8_15  and  N3_16 
REMARK    4  A    between atoms: N3_16  and  C9_18 
ROOT
HETATM    1  N1  UNL     1       2.958   0.043   0.490  1.00  0.00    -0.204 N 
ATOM      2  H1  UNL     1       3.893   0.411   0.662  1.00  0.00     0.179 HD
HETATM    3  C4  UNL     1       2.037   0.915   0.487  1.00  0.00     0.681 A 
HETATM    4  N2  UNL     1       2.449   2.199   0.715  1.00  0.00    -0.201 N 
ATOM      5  H2  UNL     1       3.441   2.380   0.868  1.00  0.00     0.183 HD
HETATM    6  C5  UNL     1       1.589   3.227   0.744  1.00  0.00     0.128 A 
HETATM    7  C6  UNL     1       0.252   2.967   0.537  1.00  0.00     0.100 A 
HETATM    8  C8  UNL     1      -0.206   1.663   0.301  1.00  0.00     0.135 A 
HETATM    9  N4  UNL     1       0.717   0.690   0.287  1.00  0.00    -0.176 N 
ATOM     10  H4  UNL     1       0.409  -0.267   0.117  1.00  0.00     0.186 HD
ENDROOT
BRANCH   8  11
HETATM   11  N3  UNL     1      -1.414   1.493   0.125  1.00  0.00    -0.370 N 
ATOM     12  H3  UNL     1      -1.918   2.378   0.181  1.00  0.00     0.161 HD
BRANCH  11  13
HETATM   13  C9  UNL     1      -2.292   0.434  -0.130  1.00  0.00     0.083 C 
HETATM   14  C10 UNL     1      -2.122  -0.247  -1.482  1.00  0.00     0.025 C 
HETATM   15  C11 UNL     1      -3.132  -1.362  -1.655  1.00  0.00     0.002 C 
HETATM   16  C12 UNL     1      -3.077  -2.370  -0.557  1.00  0.00     0.000 C 
HETATM   17  C13 UNL     1      -2.116  -1.997   0.527  1.00  0.00     0.002 C 
HETATM   18  C14 UNL     1      -2.254  -0.565   1.002  1.00  0.00     0.025 C 
ENDBRANCH  11  13
ENDBRANCH   8  11
BRANCH   7  19
HETATM   19  C7  UNL     1      -0.693   4.045   0.563  1.00  0.00     0.214 C 
HETATM   20  O1  UNL     1      -1.908   3.837   0.391  1.00  0.00    -0.644 OA
HETATM   21  O2  UNL     1      -0.278   5.359   0.783  1.00  0.00    -0.644 OA
ENDBRANCH   7  19
BRANCH   1  22
HETATM   22  C2  UNL     1       2.900  -1.359   0.293  1.00  0.00     0.117 C 
HETATM   23  C1  UNL     1       2.415  -1.658  -1.105  1.00  0.00     0.056 C 
HETATM   24  C3  UNL     1       4.290  -2.000   0.399  1.00  0.00     0.056 C 
HETATM   25 CL1  UNL     1       1.865  -2.087   1.544  1.00  0.00    -0.096 Cl
ENDBRANCH   1  22
TORSDOF 4
