REMARK  11 active torsions:
REMARK  status: ('A' for Active; 'I' for Inactive)
REMARK       I    between atoms: N1_2  and  C2_4 
REMARK    1  A    between atoms: C2_4  and  C3_6 
REMARK    2  A    between atoms: C4_7  and  C5_8 
REMARK    3  A    between atoms: C5_8  and  N3_12 
REMARK    4  A    between atoms: C7_15  and  C8_16 
REMARK       I    between atoms: C8_16  and  N4_18 
REMARK    5  A    between atoms: N4_18  and  C9_20 
REMARK    6  A    between atoms: C9_20  and  C10_21 
REMARK    7  A    between atoms: C9_20  and  C12_24 
REMARK       I    between atoms: C12_24  and  N5_26 
REMARK    8  A    between atoms: N5_26  and  C13_28 
REMARK    9  A    between atoms: C13_28  and  C15_30 
REMARK   10  A    between atoms: C17_35  and  C18_36 
REMARK   11  A    between atoms: N8_37  and  O6_39 
ROOT
HETATM    1  C3  UNL     1      -3.585  -0.448   0.575  1.00  0.00     0.076 A 
HETATM    2  C4  UNL     1      -2.339  -0.220   0.034  1.00  0.00     0.059 A 
HETATM    3  C7  UNL     1      -1.436  -1.159   0.569  1.00  0.00     0.118 A 
HETATM    4  N7  UNL     1      -2.144  -1.945   1.423  1.00  0.00    -0.344 N 
HETATM    5  C16 UNL     1      -1.708  -3.082   2.201  1.00  0.00     0.157 C 
HETATM    6  C17 UNL     1      -3.444  -1.521   1.437  1.00  0.00     0.069 A 
ENDROOT
BRANCH   3   7
HETATM    7  C8  UNL     1      -0.027  -1.290   0.257  1.00  0.00     0.270 C 
HETATM    8  O2  UNL     1       0.709  -1.826   1.176  1.00  0.00    -0.266 OA
HETATM    9  N4  UNL     1       0.644  -0.917  -0.906  1.00  0.00    -0.336 N 
ATOM     10  H4  UNL     1       0.127  -0.492  -1.676  1.00  0.00     0.164 HD
BRANCH   9  11
HETATM   11  C9  UNL     1       2.100  -1.133  -1.031  1.00  0.00     0.246 C 
BRANCH  11  12
HETATM   12  C10 UNL     1       2.412  -1.838  -2.279  1.00  0.00     0.154 C 
HETATM   13  C11 UNL     1       3.819  -2.153  -2.627  1.00  0.00     0.093 C 
HETATM   14  O3  UNL     1       1.535  -2.167  -3.036  1.00  0.00    -0.296 OA
ENDBRANCH  11  12
BRANCH  11  15
HETATM   15  C12 UNL     1       2.805   0.166  -0.906  1.00  0.00     0.248 C 
HETATM   16  O4  UNL     1       2.201   1.204  -1.276  1.00  0.00    -0.271 OA
HETATM   17  N5  UNL     1       4.107   0.283  -0.393  1.00  0.00    -0.346 N 
ATOM     18  H5  UNL     1       4.568  -0.579  -0.103  1.00  0.00     0.163 HD
BRANCH  17  19
HETATM   19  C13 UNL     1       4.854   1.506  -0.237  1.00  0.00     0.169 C 
HETATM   20  C14 UNL     1       4.935   1.886   1.253  1.00  0.00     0.042 C 
BRANCH  19  21
HETATM   21  C15 UNL     1       6.222   1.433  -0.747  1.00  0.00     0.253 C 
HETATM   22  N6  UNL     1       7.040   2.589  -0.641  1.00  0.00    -0.060 NA
HETATM   23  O5  UNL     1       6.734   0.413  -1.278  1.00  0.00    -0.275 OA
ENDBRANCH  19  21
ENDBRANCH  17  19
ENDBRANCH  11  15
ENDBRANCH   9  11
ENDBRANCH   3   7
BRANCH   2  24
HETATM   24  C5  UNL     1      -2.015   0.787  -0.957  1.00  0.00     0.125 C 
HETATM   25  N2  UNL     1      -2.488   0.705  -2.140  1.00  0.00    -0.284 N 
HETATM   26 CL1  UNL     1      -3.519  -0.559  -2.679  1.00  0.00     0.012 Cl
ATOM     27  H2  UNL     1      -2.238   1.435  -2.807  1.00  0.00     0.182 HD
BRANCH  24  28
HETATM   28  N3  UNL     1      -1.182   1.870  -0.605  1.00  0.00    -0.379 N 
HETATM   29  C6  UNL     1      -1.027   3.011  -1.505  1.00  0.00     0.147 C 
ATOM     30  H3  UNL     1      -0.684   1.856   0.285  1.00  0.00     0.160 HD
ENDBRANCH  24  28
ENDBRANCH   2  24
BRANCH   1  31
HETATM   31  C2  UNL     1      -4.822   0.302   0.378  1.00  0.00     0.254 C 
HETATM   32  N1  UNL     1      -4.933   1.647  -0.008  1.00  0.00    -0.361 N 
HETATM   33  C1  UNL     1      -6.233   2.252  -0.164  1.00  0.00     0.149 C 
ATOM     34  H1  UNL     1      -4.092   2.198  -0.179  1.00  0.00     0.162 HD
HETATM   35  O1  UNL     1      -5.940  -0.299   0.575  1.00  0.00    -0.268 OA
ENDBRANCH   1  31
BRANCH   6  36
HETATM   36  C18 UNL     1      -4.495  -2.066   2.284  1.00  0.00     0.144 C 
HETATM   37  N8  UNL     1      -4.280  -3.109   3.047  1.00  0.00    -0.278 N 
ATOM     38  H8  UNL     1      -3.360  -3.549   3.045  1.00  0.00     0.193 HD
BRANCH  37  39
HETATM   39  O6  UNL     1      -5.263  -3.619   3.845  1.00  0.00    -0.290 OA
ATOM     40  H6  UNL     1      -5.107  -4.375   4.398  1.00  0.00     0.244 HD
ENDBRANCH  37  39
ENDBRANCH   6  36
TORSDOF 11
