REMARK  11 active torsions:
REMARK  status: ('A' for Active; 'I' for Inactive)
REMARK    1  A    between atoms: C2_2  and  N1_3 
REMARK    2  A    between atoms: C2_2  and  C3_7 
REMARK       I    between atoms: C3_7  and  N2_9 
REMARK    3  A    between atoms: N2_9  and  C4_11 
REMARK    4  A    between atoms: C4_11  and  C5_12 
REMARK       I    between atoms: C5_12  and  N3_14 
REMARK    5  A    between atoms: N3_14  and  C6_16 
REMARK    6  A    between atoms: C6_16  and  C7_17 
REMARK    7  A    between atoms: C6_16  and  C8_22 
REMARK    8  A    between atoms: C7_17  and  N4_18 
REMARK    9  A    between atoms: C8_22  and  C9_23 
REMARK   10  A    between atoms: C8_22  and  N5_25 
REMARK       I    between atoms: N5_25  and  C10_27 
REMARK   11  A    between atoms: C10_27  and  C11_29 
ROOT
HETATM    1  C8  UNL     1       0.566  -0.532   0.589  1.00  0.00     0.170 C 
ENDROOT
BRANCH   1   2
HETATM    2  C6  UNL     1       1.420   0.710   0.506  1.00  0.00     0.139 C 
BRANCH   2   3
HETATM    3  N3  UNL     1       2.744   0.303   1.003  1.00  0.00    -0.351 N 
HETATM    4  C5  UNL     1       3.880   0.311   0.157  1.00  0.00     0.235 C 
HETATM    5  O2  UNL     1       3.751   0.673  -1.038  1.00  0.00    -0.272 OA
ATOM      6  H3  UNL     1       2.846   0.010   1.975  1.00  0.00     0.163 HD
BRANCH   4   7
HETATM    7  C4  UNL     1       5.231  -0.097   0.644  1.00  0.00     0.225 C 
BRANCH   7   8
HETATM    8  N2  UNL     1       6.212   0.001  -0.408  1.00  0.00    -0.351 N 
HETATM    9  C3  UNL     1       7.560  -0.337  -0.161  1.00  0.00     0.248 C 
HETATM   10  O1  UNL     1       7.907  -0.721   0.971  1.00  0.00    -0.271 OA
ATOM     11  H2  UNL     1       5.930   0.316  -1.336  1.00  0.00     0.163 HD
BRANCH   9  12
HETATM   12  C2  UNL     1       8.569  -0.241  -1.228  1.00  0.00     0.270 C 
HETATM   13  C1  UNL     1       9.158  -1.624  -1.423  1.00  0.00     0.050 C 
BRANCH  12  14
HETATM   14  N1  UNL     1       7.993   0.196  -2.468  1.00  0.00    -0.067 N 
ATOM     15  H13 UNL     1       8.658   0.161  -3.240  1.00  0.00     0.275 HD
ATOM     16  H12 UNL     1       7.313  -0.469  -2.837  1.00  0.00     0.275 HD
ATOM     17  H11 UNL     1       7.597   1.127  -2.337  1.00  0.00     0.275 HD
ENDBRANCH  12  14
ENDBRANCH   9  12
ENDBRANCH   7   8
ENDBRANCH   4   7
ENDBRANCH   2   3
BRANCH   2  18
HETATM   18  C7  UNL     1       0.953   1.793   1.410  1.00  0.00     0.257 C 
BRANCH  18  19
HETATM   19  N4  UNL     1      -0.324   2.355   1.115  1.00  0.00    -0.077 N 
ATOM     20  H43 UNL     1      -0.342   2.681   0.149  1.00  0.00     0.274 HD
ATOM     21  H42 UNL     1      -1.025   1.615   1.073  1.00  0.00     0.274 HD
ATOM     22  H41 UNL     1      -0.645   3.098   1.736  1.00  0.00     0.274 HD
ENDBRANCH  18  19
ENDBRANCH   2  18
ENDBRANCH   1   2
BRANCH   1  23
HETATM   23  C9  UNL     1       1.137  -1.626  -0.253  1.00  0.00     0.258 C 
HETATM   24  O3  UNL     1       0.485  -2.168  -1.126  1.00  0.00    -0.305 OA
ENDBRANCH   1  23
BRANCH   1  25
HETATM   25  N5  UNL     1      -0.788  -0.228   0.247  1.00  0.00    -0.348 N 
HETATM   26  C10 UNL     1      -1.865  -0.440   1.136  1.00  0.00     0.225 C 
HETATM   27  O4  UNL     1      -1.589  -0.924   2.279  1.00  0.00    -0.273 OA
ATOM     28  H5  UNL     1      -0.985   0.158  -0.677  1.00  0.00     0.163 HD
BRANCH  26  29
HETATM   29  C11 UNL     1      -3.289  -0.111   0.763  1.00  0.00     0.112 C 
HETATM   30  C12 UNL     1      -4.143  -0.401   1.929  1.00  0.00     0.017 C 
HETATM   31  C13 UNL     1      -4.929   0.847   2.366  1.00  0.00     0.001 C 
HETATM   32  C14 UNL     1      -6.145   1.025   1.447  1.00  0.00     0.000 C 
HETATM   33  C15 UNL     1      -5.905   1.925   0.314  1.00  0.00     0.000 C 
HETATM   34  C16 UNL     1      -5.577   1.348  -1.012  1.00  0.00     0.005 C 
HETATM   35  C17 UNL     1      -5.918  -0.062  -1.260  1.00  0.00     0.069 C 
HETATM   36  C18 UNL     1      -4.886  -1.083  -1.001  1.00  0.00     0.207 C 
HETATM   37  F1  UNL     1      -5.413  -2.209  -0.344  1.00  0.00    -0.216 F 
HETATM   38  N6  UNL     1      -4.453  -1.716  -2.275  1.00  0.00    -0.298 N 
HETATM   39  C20 UNL     1      -3.562  -0.690  -0.520  1.00  0.00     0.207 C 
HETATM   40  C19 UNL     1      -3.264  -2.403  -1.913  1.00  0.00     0.363 C 
ATOM     41  H6  UNL     1      -4.902  -1.668  -3.190  1.00  0.00     0.168 HD
HETATM   42  O5  UNL     1      -2.644  -3.285  -2.586  1.00  0.00    -0.238 OA
HETATM   43  O6  UNL     1      -2.855  -1.943  -0.644  1.00  0.00    -0.292 OA
ENDBRANCH  26  29
ENDBRANCH   1  25
TORSDOF 11
