REMARK  14 active torsions:
REMARK  status: ('A' for Active; 'I' for Inactive)
REMARK    1  A    between atoms: C2_2  and  C3_4 
REMARK    2  A    between atoms: C3_4  and  C5_6 
REMARK    3  A    between atoms: C5_6  and  C6_8 
REMARK    4  A    between atoms: C6_8  and  O2_9 
REMARK    5  A    between atoms: C6_8  and  N1_11 
REMARK    6  A    between atoms: C9_14  and  N2_15 
REMARK    7  A    between atoms: C9_14  and  C19_39 
REMARK       I    between atoms: N2_15  and  C10_17 
REMARK    8  A    between atoms: C10_17  and  C11_19 
REMARK    9  A    between atoms: C11_19  and  N3_20 
REMARK   10  A    between atoms: C11_19  and  C12_24 
REMARK   11  A    between atoms: C12_24  and  N4_25 
REMARK   12  A    between atoms: C12_24  and  C13_29 
REMARK   13  A    between atoms: C13_29  and  C14_30 
REMARK       I    between atoms: C14_30  and  N5_32 
REMARK   14  A    between atoms: N5_32  and  C15_34 
ROOT
HETATM    1  N2  UNL     1       0.301  -1.579  -0.551  1.00  0.00    -0.339 N 
ATOM      2  H2  UNL     1      -0.130  -1.603   0.373  1.00  0.00     0.163 HD
HETATM    3  C10 UNL     1      -0.502  -1.139  -1.608  1.00  0.00     0.251 C 
HETATM    4  O3  UNL     1      -0.001  -1.099  -2.784  1.00  0.00    -0.271 OA
ENDROOT
BRANCH   3   5
HETATM    5  C11 UNL     1      -1.922  -0.722  -1.387  1.00  0.00     0.305 C 
BRANCH   5   6
HETATM    6  N3  UNL     1      -2.534  -0.633  -2.710  1.00  0.00    -0.064 N 
ATOM      7  H33 UNL     1      -2.027  -0.022  -3.350  1.00  0.00     0.275 HD
ATOM      8  H32 UNL     1      -2.444  -1.490  -3.256  1.00  0.00     0.275 HD
ATOM      9  H31 UNL     1      -3.502  -0.349  -2.559  1.00  0.00     0.275 HD
ENDBRANCH   5   6
BRANCH   5  10
HETATM   10  C12 UNL     1      -1.918   0.648  -0.747  1.00  0.00     0.231 C 
BRANCH  10  11
HETATM   11  N4  UNL     1      -1.244   0.644   0.507  1.00  0.00    -0.072 N 
ATOM     12  H43 UNL     1      -1.634  -0.058   1.136  1.00  0.00     0.274 HD
ATOM     13  H42 UNL     1      -0.298   0.273   0.419  1.00  0.00     0.274 HD
ATOM     14  H41 UNL     1      -1.241   1.568   0.939  1.00  0.00     0.274 HD
ENDBRANCH  10  11
BRANCH  10  15
HETATM   15  C13 UNL     1      -3.242   1.329  -0.736  1.00  0.00     0.138 C 
BRANCH  15  16
HETATM   16  C14 UNL     1      -4.318   0.649  -0.017  1.00  0.00     0.220 C 
HETATM   17  O4  UNL     1      -4.084  -0.421   0.591  1.00  0.00    -0.274 OA
HETATM   18  N5  UNL     1      -5.625   1.162   0.016  1.00  0.00    -0.354 N 
ATOM     19  H5  UNL     1      -5.840   2.032  -0.472  1.00  0.00     0.162 HD
BRANCH  18  20
HETATM   20  C15 UNL     1      -6.659   0.473   0.730  1.00  0.00     0.110 C 
HETATM   21  C16 UNL     1      -7.329   1.347   1.767  1.00  0.00     0.053 C 
HETATM   22  C17 UNL     1      -8.789   1.174   1.456  1.00  0.00     0.169 C 
HETATM   23  O5  UNL     1      -8.850  -0.052   0.823  1.00  0.00    -0.389 OA
HETATM   24  C18 UNL     1      -7.829   0.070  -0.144  1.00  0.00     0.192 C 
ENDBRANCH  18  20
ENDBRANCH  15  16
ENDBRANCH  10  15
ENDBRANCH   5  10
ENDBRANCH   3   5
BRANCH   1  25
HETATM   25  C9  UNL     1       1.685  -2.004  -0.637  1.00  0.00     0.138 C 
HETATM   26  C8  UNL     1       2.116  -2.400   0.775  1.00  0.00     0.065 C 
HETATM   27  C7  UNL     1       3.592  -2.484   0.950  1.00  0.00     0.150 C 
HETATM   28  N1  UNL     1       4.237  -1.255   0.352  1.00  0.00    -0.272 N 
HETATM   29  N6  UNL     1       3.948  -1.157  -0.986  1.00  0.00    -0.134 NA
HETATM   30  C20 UNL     1       2.562  -0.918  -1.200  1.00  0.00     0.177 C 
BRANCH  28  31
HETATM   31  C6  UNL     1       4.987  -0.430   1.175  1.00  0.00     0.194 C 
BRANCH  31  32
HETATM   32  C5  UNL     1       5.754   0.755   1.110  1.00  0.00     0.177 C 
HETATM   33  F1  UNL     1       6.274   1.099   2.407  1.00  0.00    -0.201 F 
BRANCH  32  34
HETATM   34  C3  UNL     1       6.066   1.568   0.157  1.00  0.00     0.026 C 
HETATM   35  C4  UNL     1       5.663   1.428  -1.273  1.00  0.00     0.055 C 
BRANCH  34  36
HETATM   36  C2  UNL     1       6.900   2.766   0.406  1.00  0.00     0.154 C 
HETATM   37  C1  UNL     1       7.441   3.146   1.699  1.00  0.00     0.096 C 
HETATM   38  O1  UNL     1       7.158   3.522  -0.611  1.00  0.00    -0.293 OA
ENDBRANCH  34  36
ENDBRANCH  32  34
ENDBRANCH  31  32
BRANCH  31  39
HETATM   39  O2  UNL     1       4.987  -0.910   2.456  1.00  0.00    -0.343 OA
ATOM     40  H2  UNL     1       4.471  -1.707   2.500  1.00  0.00     0.219 HD
ENDBRANCH  31  39
ENDBRANCH  28  31
BRANCH  25  41
HETATM   41  C19 UNL     1       1.835  -3.222  -1.458  1.00  0.00     0.204 C 
HETATM   42  O6  UNL     1       0.792  -3.727  -1.960  1.00  0.00    -0.646 OA
HETATM   43  O7  UNL     1       3.020  -3.859  -1.725  1.00  0.00    -0.646 OA
ENDBRANCH  25  41
ENDBRANCH   1  25
TORSDOF 14
