REMARK  11 active torsions:
REMARK  status: ('A' for Active; 'I' for Inactive)
REMARK    1  A    between atoms: O1_2  and  N1_3 
REMARK    2  A    between atoms: C2_5  and  C3_6 
REMARK    3  A    between atoms: C2_5  and  C7_22 
REMARK    4  A    between atoms: C3_6  and  N2_7 
REMARK    5  A    between atoms: N2_7  and  C4_9 
REMARK    6  A    between atoms: C4_9  and  C6_11 
REMARK    7  A    between atoms: C4_9  and  S2_16 
REMARK    8  A    between atoms: C6_11  and  S1_12 
REMARK    9  A    between atoms: S2_16  and  N3_17 
REMARK   10  A    between atoms: C7_22  and  N5_26 
REMARK   11  A    between atoms: C10_29  and  C11_31 
ROOT
HETATM    1  N1  UNL     1       1.651   2.970   1.413  1.00  0.00    -0.262 N 
ATOM      2  H1  UNL     1       1.119   3.775   1.745  1.00  0.00     0.194 HD
HETATM    3  C2  UNL     1       0.952   1.998   0.983  1.00  0.00     0.112 C 
ENDROOT
BRANCH   3   4
HETATM    4  C3  UNL     1       1.495   0.722   0.452  1.00  0.00     0.120 C 
BRANCH   4   5
HETATM    5  N2  UNL     1       2.882   0.661   0.685  1.00  0.00    -0.373 N 
ATOM      6  H2  UNL     1       3.390   1.412   1.152  1.00  0.00     0.160 HD
BRANCH   5   7
HETATM    7  C4  UNL     1       3.552  -0.571   0.205  1.00  0.00     0.165 C 
HETATM    8  C5  UNL     1       3.045  -1.801   0.871  1.00  0.00     0.059 C 
BRANCH   7   9
HETATM    9  C6  UNL     1       3.381  -0.631  -1.256  1.00  0.00     0.214 C 
BRANCH   9  10
HETATM   10  S1  UNL     1       4.019  -1.951  -2.179  1.00  0.00     0.105 S 
HETATM   11  O2  UNL     1       3.588  -1.736  -3.639  1.00  0.00    -0.595 OA
HETATM   12  O3  UNL     1       3.309  -3.271  -1.828  1.00  0.00    -0.595 OA
HETATM   13  O4  UNL     1       5.638  -2.188  -2.205  1.00  0.00    -0.595 OA
ENDBRANCH   9  10
ENDBRANCH   7   9
BRANCH   7  14
HETATM   14  S2  UNL     1       5.229  -0.324   0.710  1.00  0.00     0.252 S 
HETATM   15  O5  UNL     1       5.794   0.941   0.093  1.00  0.00    -0.203 OA
HETATM   16  O6  UNL     1       5.292  -0.047   2.215  1.00  0.00    -0.203 OA
BRANCH  14  17
HETATM   17  N3  UNL     1       6.306  -1.583   0.412  1.00  0.00    -0.326 N 
ATOM     18  H32 UNL     1       5.990  -2.441  -0.039  1.00  0.00     0.168 HD
ATOM     19  H31 UNL     1       7.273  -1.441   0.703  1.00  0.00     0.168 HD
ENDBRANCH  14  17
ENDBRANCH   7  14
ENDBRANCH   5   7
ENDBRANCH   4   5
ENDBRANCH   3   4
BRANCH   3  20
HETATM   20  C7  UNL     1      -0.503   2.206   1.014  1.00  0.00     0.127 C 
HETATM   21  N4  UNL     1      -1.061   3.270   1.434  1.00  0.00    -0.384 N 
ATOM     22  H42 UNL     1      -0.456   4.019   1.770  1.00  0.00     0.157 HD
ATOM     23  H41 UNL     1      -2.071   3.414   1.456  1.00  0.00     0.157 HD
BRANCH  20  24
HETATM   24  N5  UNL     1      -1.343   1.166   0.547  1.00  0.00    -0.365 N 
HETATM   25  C8  UNL     1      -1.773   1.115  -0.817  1.00  0.00     0.128 C 
HETATM   26  C9  UNL     1      -3.288   0.919  -0.921  1.00  0.00     0.067 C 
HETATM   27  C10 UNL     1      -3.628  -0.269  -0.044  1.00  0.00     0.160 C 
HETATM   28  F1  UNL     1      -2.855  -1.330  -0.413  1.00  0.00    -0.239 F 
HETATM   29  C14 UNL     1      -3.296   0.097   1.377  1.00  0.00     0.067 C 
HETATM   30  C15 UNL     1      -1.765   0.151   1.479  1.00  0.00     0.128 C 
BRANCH  27  31
HETATM   31  C11 UNL     1      -5.099  -0.621  -0.143  1.00  0.00     0.421 C 
HETATM   32  N6  UNL     1      -5.342  -1.759   0.716  1.00  0.00    -0.041 N 
HETATM   33  C12 UNL     1      -6.639  -2.222   0.257  1.00  0.00     0.262 C 
ATOM     34  H62 UNL     1      -4.607  -2.466   0.711  1.00  0.00     0.279 HD
ATOM     35  H61 UNL     1      -5.284  -1.563   1.715  1.00  0.00     0.279 HD
HETATM   36  C13 UNL     1      -6.531  -2.061  -1.242  1.00  0.00     0.262 C 
HETATM   37  N7  UNL     1      -5.447  -1.102  -1.457  1.00  0.00    -0.041 N 
ATOM     38  H72 UNL     1      -5.679  -0.361  -2.118  1.00  0.00     0.279 HD
ATOM     39  H71 UNL     1      -4.657  -1.484  -1.978  1.00  0.00     0.279 HD
ENDBRANCH  27  31
ENDBRANCH  20  24
ENDBRANCH   3  20
BRANCH   1  40
HETATM   40  O1  UNL     1       2.993   3.094   1.495  1.00  0.00    -0.285 OA
HETATM   41  C1  UNL     1       3.602   4.273   1.000  1.00  0.00     0.237 C 
ENDBRANCH   1  40
TORSDOF 11
