REMARK  14 active torsions:
REMARK  status: ('A' for Active; 'I' for Inactive)
REMARK    1  A    between atoms: C2_2  and  C3_3 
REMARK    2  A    between atoms: C3_3  and  N1_4 
REMARK       I    between atoms: N1_4  and  C4_6 
REMARK    3  A    between atoms: C4_6  and  C5_8 
REMARK    4  A    between atoms: C8_11  and  N2_12 
REMARK    5  A    between atoms: N2_12  and  C9_14 
REMARK    6  A    between atoms: C14_22  and  N5_23 
REMARK    7  A    between atoms: N5_23  and  C15_25 
REMARK    8  A    between atoms: C15_25  and  C16_26 
REMARK    9  A    between atoms: C16_26  and  C17_27 
REMARK   10  A    between atoms: C17_27  and  N6_28 
REMARK   11  A    between atoms: C22_34  and  N7_35 
REMARK   12  A    between atoms: C25_38  and  O3_39 
REMARK   13  A    between atoms: O3_39  and  C26_40 
REMARK   14  A    between atoms: C26_40  and  C27_41 
ROOT
HETATM    1  C9  UNL     1       0.995  -2.133   1.291  1.00  0.00     0.131 A 
HETATM    2  N3  UNL     1       1.853  -3.177   1.411  1.00  0.00    -0.349 N 
ATOM      3  H3  UNL     1       2.850  -3.052   1.238  1.00  0.00     0.167 HD
HETATM    4  C10 UNL     1       1.367  -4.375   1.760  1.00  0.00     0.107 A 
HETATM    5  C11 UNL     1       0.029  -4.541   1.991  1.00  0.00     0.114 A 
HETATM    6  N4  UNL     1      -0.831  -3.516   1.876  1.00  0.00    -0.326 N 
HETATM    7  C12 UNL     1      -2.153  -3.739   2.112  1.00  0.00     0.099 A 
HETATM    8  C13 UNL     1      -3.017  -2.681   1.983  1.00  0.00     0.049 A 
HETATM    9  C14 UNL     1      -2.621  -1.433   1.635  1.00  0.00     0.058 A 
HETATM   10  C22 UNL     1      -1.237  -1.218   1.394  1.00  0.00     0.088 A 
HETATM   11  C31 UNL     1      -0.394  -2.290   1.528  1.00  0.00     0.111 A 
ENDROOT
BRANCH   1  12
HETATM   12  N2  UNL     1       1.372  -0.996   0.953  1.00  0.00    -0.370 N 
ATOM     13  H2  UNL     1       0.614  -0.315   0.905  1.00  0.00     0.161 HD
BRANCH  12  14
HETATM   14  C8  UNL     1       2.617  -0.461   0.626  1.00  0.00     0.083 C 
HETATM   15  C7  UNL     1       3.368  -1.062  -0.533  1.00  0.00     0.026 C 
HETATM   16  C6  UNL     1       4.299   0.078  -1.032  1.00  0.00     0.016 C 
HETATM   17  C5  UNL     1       5.304   0.244   0.103  1.00  0.00     0.078 C 
HETATM   18  C33 UNL     1       4.588   0.764   1.310  1.00  0.00     0.016 C 
HETATM   19  C32 UNL     1       3.623  -0.332   1.778  1.00  0.00     0.026 C 
BRANCH  17  20
HETATM   20  C4  UNL     1       6.428   1.080  -0.325  1.00  0.00     0.221 C 
HETATM   21  N1  UNL     1       7.216   0.698  -1.437  1.00  0.00    -0.361 N 
ATOM     22  H1  UNL     1       6.997  -0.162  -1.939  1.00  0.00     0.162 HD
HETATM   23  O1  UNL     1       6.678   2.147   0.318  1.00  0.00    -0.273 OA
BRANCH  21  24
HETATM   24  C3  UNL     1       8.339   1.523  -1.872  1.00  0.00     0.122 C 
BRANCH  24  25
HETATM   25  C2  UNL     1       9.010   0.891  -3.081  1.00  0.00     0.015 C 
HETATM   26  C1  UNL     1       9.527  -0.495  -2.754  1.00  0.00     0.006 C 
ENDBRANCH  24  25
ENDBRANCH  21  24
ENDBRANCH  17  20
ENDBRANCH  12  14
ENDBRANCH   1  12
BRANCH  10  27
HETATM   27  N7  UNL     1      -0.918   0.125   1.047  1.00  0.00    -0.377 N 
HETATM   28  C23 UNL     1      -0.616   1.039   2.107  1.00  0.00     0.125 C 
HETATM   29  C24 UNL     1      -0.041   2.350   1.764  1.00  0.00     0.051 C 
HETATM   30  C25 UNL     1      -0.383   2.890   0.425  1.00  0.00     0.124 C 
HETATM   31  C29 UNL     1      -0.388   1.869  -0.660  1.00  0.00     0.051 C 
HETATM   32  C30 UNL     1      -1.008   0.576  -0.310  1.00  0.00     0.125 C 
BRANCH  30  33
HETATM   33  O3  UNL     1      -1.664   3.436   0.499  1.00  0.00    -0.386 OA
BRANCH  33  34
HETATM   34  C26 UNL     1      -1.665   4.802   0.245  1.00  0.00     0.167 C 
BRANCH  34  35
HETATM   35  C27 UNL     1      -3.050   5.393   0.324  1.00  0.00     0.022 C 
HETATM   36  C28 UNL     1      -2.975   6.876   0.041  1.00  0.00     0.007 C 
ENDBRANCH  34  35
ENDBRANCH  33  34
ENDBRANCH  30  33
ENDBRANCH  10  27
BRANCH   9  37
HETATM   37  N5  UNL     1      -3.374  -0.412   1.493  1.00  0.00    -0.388 N 
ATOM     38  H5  UNL     1      -2.909   0.456   1.227  1.00  0.00     0.159 HD
BRANCH  37  39
HETATM   39  C15 UNL     1      -4.795  -0.340   1.663  1.00  0.00     0.121 C 
BRANCH  39  40
HETATM   40  C16 UNL     1      -5.496   0.200   0.433  1.00  0.00     0.050 C 
BRANCH  40  41
HETATM   41  C17 UNL     1      -5.260  -0.634  -0.780  1.00  0.00     0.274 C 
BRANCH  41  42
HETATM   42  N6  UNL     1      -5.689  -1.990  -0.697  1.00  0.00     0.092 N 
HETATM   43  C18 UNL     1      -7.112  -2.113  -0.642  1.00  0.00     0.298 C 
HETATM   44  C19 UNL     1      -7.665  -2.972  -1.767  1.00  0.00     0.198 C 
HETATM   45  O2  UNL     1      -7.037  -4.212  -1.802  1.00  0.00    -0.388 OA
HETATM   46  C20 UNL     1      -5.669  -4.144  -1.870  1.00  0.00     0.198 C 
HETATM   47  C21 UNL     1      -5.175  -2.703  -1.849  1.00  0.00     0.298 C 
ENDBRANCH  41  42
ENDBRANCH  40  41
ENDBRANCH  39  40
ENDBRANCH  37  39
ENDBRANCH   9  37
TORSDOF 14
