REMARK  14 active torsions:
REMARK  status: ('A' for Active; 'I' for Inactive)
REMARK    1  A    between atoms: O1_2  and  C2_3 
REMARK    2  A    between atoms: C2_3  and  C3_4 
REMARK    3  A    between atoms: C3_4  and  N1_5 
REMARK       I    between atoms: N1_5  and  C4_6 
REMARK    4  A    between atoms: N1_5  and  C23_42 
REMARK    5  A    between atoms: C4_6  and  C5_8 
REMARK    6  A    between atoms: C5_8  and  C6_9 
REMARK    7  A    between atoms: C5_8  and  C19_38 
REMARK       I    between atoms: C6_9  and  N2_11 
REMARK    8  A    between atoms: N2_11  and  C7_13 
REMARK    9  A    between atoms: C8_18  and  C9_19 
REMARK   10  A    between atoms: C9_19  and  C10_20 
REMARK   11  A    between atoms: C10_20  and  C11_21 
REMARK   12  A    between atoms: C11_21  and  C12_22 
REMARK   13  A    between atoms: C12_22  and  C13_23 
REMARK       I    between atoms: N7_29  and  C15_31 
REMARK   14  A    between atoms: C15_31  and  C16_33 
ROOT
HETATM    1  C7  UNL     1      -0.948   0.849   0.651  1.00  0.00     0.167 A 
HETATM    2  N3  UNL     1      -0.435   2.072   0.460  1.00  0.00    -0.279 N 
ATOM      3  H3  UNL     1      -0.933   2.902   0.781  1.00  0.00     0.189 HD
HETATM    4  N4  UNL     1       0.685   2.175  -0.129  1.00  0.00    -0.296 N 
ATOM      5  H4  UNL     1       1.092   3.097  -0.285  1.00  0.00     0.187 HD
HETATM    6  C8  UNL     1       1.327   1.095  -0.542  1.00  0.00     0.069 A 
HETATM    7  S2  UNL     1       0.254  -0.139  -0.054  1.00  0.00    -0.038 SA
ENDROOT
BRANCH   1   8
HETATM    8  N2  UNL     1      -2.084   0.544   1.230  1.00  0.00    -0.305 N 
HETATM    9  C6  UNL     1      -2.463  -0.793   1.343  1.00  0.00     0.237 C 
HETATM   10  O3  UNL     1      -1.899  -1.493   2.206  1.00  0.00    -0.272 OA
ATOM     11  H2  UNL     1      -2.687   1.281   1.596  1.00  0.00     0.171 HD
BRANCH   9  12
HETATM   12  C5  UNL     1      -3.520  -1.448   0.483  1.00  0.00     0.177 C 
BRANCH  12  13
HETATM   13  C4  UNL     1      -4.793  -0.708   0.605  1.00  0.00     0.234 C 
HETATM   14  N1  UNL     1      -5.665  -0.352  -0.438  1.00  0.00    -0.345 N 
HETATM   15  O2  UNL     1      -5.131  -0.365   1.789  1.00  0.00    -0.272 OA
BRANCH  14  16
HETATM   16  C3  UNL     1      -5.313  -0.609  -1.820  1.00  0.00     0.152 C 
BRANCH  16  17
HETATM   17  C2  UNL     1      -4.667   0.568  -2.510  1.00  0.00     0.187 C 
BRANCH  17  18
HETATM   18  O1  UNL     1      -3.494   1.007  -1.941  1.00  0.00    -0.394 OA
HETATM   19  C1  UNL     1      -2.940   2.087  -2.612  1.00  0.00     0.201 C 
ENDBRANCH  17  18
ENDBRANCH  16  17
ENDBRANCH  14  16
BRANCH  14  20
HETATM   20  C23 UNL     1      -6.946   0.287  -0.194  1.00  0.00     0.087 C 
HETATM   21  C24 UNL     1      -7.901  -0.493   0.631  1.00  0.00     0.025 C 
HETATM   22  C25 UNL     1      -8.774   0.539   1.324  1.00  0.00     0.002 C 
HETATM   23  C26 UNL     1      -8.370   1.880   0.735  1.00  0.00     0.002 C 
HETATM   24  C27 UNL     1      -6.878   1.625   0.449  1.00  0.00     0.025 C 
ENDBRANCH  14  20
ENDBRANCH  12  13
BRANCH  12  25
HETATM   25  C19 UNL     1      -3.665  -2.900   0.950  1.00  0.00    -0.031 C 
HETATM   26  C20 UNL     1      -4.739  -3.613   0.134  1.00  0.00     0.016 C 
HETATM   27  C21 UNL     1      -2.372  -3.659   0.627  1.00  0.00     0.016 C 
HETATM   28  C22 UNL     1      -3.909  -3.045   2.421  1.00  0.00     0.016 C 
ENDBRANCH  12  25
ENDBRANCH   9  12
ENDBRANCH   1   8
BRANCH   6  29
HETATM   29  C9  UNL     1       2.647   1.009  -1.254  1.00  0.00     0.066 C 
BRANCH  29  30
HETATM   30  C10 UNL     1       3.785   0.911  -0.260  1.00  0.00     0.007 C 
BRANCH  30  31
HETATM   31  C11 UNL     1       3.683  -0.288   0.619  1.00  0.00     0.007 C 
BRANCH  31  32
HETATM   32  C12 UNL     1       4.822  -0.336   1.602  1.00  0.00     0.066 C 
BRANCH  32  33
HETATM   33  C13 UNL     1       6.100  -0.396   0.810  1.00  0.00     0.069 A 
HETATM   34  N5  UNL     1       6.753  -1.459   0.368  1.00  0.00    -0.296 N 
HETATM   35  N6  UNL     1       7.831  -1.332  -0.283  1.00  0.00    -0.279 N 
ATOM     36  H5  UNL     1       6.383  -2.391   0.554  1.00  0.00     0.187 HD
HETATM   37  C14 UNL     1       8.300  -0.105  -0.517  1.00  0.00     0.167 A 
ATOM     38  H6  UNL     1       8.332  -2.153  -0.623  1.00  0.00     0.189 HD
HETATM   39  N7  UNL     1       9.393   0.227  -1.169  1.00  0.00    -0.306 N 
HETATM   40  S1  UNL     1       7.119   0.870   0.244  1.00  0.00    -0.038 SA
HETATM   41  C15 UNL     1       9.703   1.629  -1.299  1.00  0.00     0.227 C 
ATOM     42  H7  UNL     1      10.003  -0.486  -1.570  1.00  0.00     0.171 HD
HETATM   43  O4  UNL     1       8.839   2.337  -1.876  1.00  0.00    -0.273 OA
BRANCH  41  44
HETATM   44  C16 UNL     1      10.976   2.110  -0.759  1.00  0.00     0.070 C 
HETATM   45  C17 UNL     1      12.162   1.408  -1.407  1.00  0.00     0.019 C 
HETATM   46  C18 UNL     1      11.037   1.867   0.723  1.00  0.00     0.019 C 
ENDBRANCH  41  44
ENDBRANCH  32  33
ENDBRANCH  31  32
ENDBRANCH  30  31
ENDBRANCH  29  30
ENDBRANCH   6  29
TORSDOF 14
