REMARK  11 active torsions:
REMARK  status: ('A' for Active; 'I' for Inactive)
REMARK    1  A    between atoms: C2_2  and  O1_3 
REMARK    2  A    between atoms: O1_3  and  C3_4 
REMARK    3  A    between atoms: C4_6  and  O3_7 
REMARK    4  A    between atoms: O3_7  and  C5_8 
REMARK    5  A    between atoms: C8_11  and  C10_13 
REMARK    6  A    between atoms: C12_16  and  C13_17 
REMARK    7  A    between atoms: C13_17  and  O5_18 
REMARK    8  A    between atoms: C14_20  and  O6_21 
REMARK    9  A    between atoms: C15_23  and  O7_24 
REMARK   10  A    between atoms: C16_26  and  O8_27 
REMARK   11  A    between atoms: C17_29  and  O9_30 
ROOT
HETATM    1  O3  UNL     1       0.550  -1.263  -0.231  1.00  0.00    -0.351 OA
ENDROOT
BRANCH   1   2
HETATM    2  C4  UNL     1       1.841  -0.789  -0.163  1.00  0.00     0.294 C 
HETATM    3  O2  UNL     1       2.495  -0.786  -1.380  1.00  0.00    -0.326 OA
HETATM    4  C3  UNL     1       3.828  -0.484  -1.302  1.00  0.00     0.299 C 
HETATM    5  C17 UNL     1       4.294  -0.013   0.033  1.00  0.00     0.205 C 
HETATM    6  C16 UNL     1       3.995  -1.089   1.055  1.00  0.00     0.185 C 
HETATM    7  C15 UNL     1       2.589  -1.604   0.890  1.00  0.00     0.204 C 
BRANCH   4   8
HETATM    8  O1  UNL     1       4.168   0.459  -2.301  1.00  0.00    -0.330 OA
BRANCH   8   9
HETATM    9  C2  UNL     1       3.601   1.710  -2.387  1.00  0.00     0.128 C 
HETATM   10  C1  UNL     1       2.994   2.050  -3.511  1.00  0.00     0.037 C 
ENDBRANCH   8   9
ENDBRANCH   4   8
BRANCH   5  11
HETATM   11  O9  UNL     1       5.695   0.135  -0.043  1.00  0.00    -0.388 OA
ATOM     12  H9  UNL     1       5.992   0.435   0.808  1.00  0.00     0.210 HD
ENDBRANCH   5  11
BRANCH   6  13
HETATM   13  O8  UNL     1       4.215  -0.555   2.334  1.00  0.00    -0.390 OA
ATOM     14  H8  UNL     1       5.102  -0.230   2.438  1.00  0.00     0.210 HD
ENDBRANCH   6  13
BRANCH   7  15
HETATM   15  O7  UNL     1       1.955  -1.447   2.119  1.00  0.00    -0.388 OA
ATOM     16  H7  UNL     1       2.420  -1.954   2.774  1.00  0.00     0.210 HD
ENDBRANCH   7  15
ENDBRANCH   1   2
BRANCH   1  17
HETATM   17  C5  UNL     1      -0.422  -0.377   0.167  1.00  0.00     0.154 C 
HETATM   18  C6  UNL     1      -1.171  -0.960   1.313  1.00  0.00     0.035 C 
HETATM   19  C7  UNL     1      -2.644  -1.094   1.010  1.00  0.00     0.015 C 
HETATM   20  C8  UNL     1      -3.150   0.271   0.603  1.00  0.00    -0.008 C 
HETATM   21  C9  UNL     1      -4.660   0.234   0.628  1.00  0.00     0.018 C 
HETATM   22  C12 UNL     1      -2.567   0.615  -0.715  1.00  0.00     0.051 C 
HETATM   23  C14 UNL     1      -1.274  -0.073  -1.033  1.00  0.00     0.154 C 
BRANCH  20  24
HETATM   24  C10 UNL     1      -2.718   1.303   1.654  1.00  0.00     0.154 A 
HETATM   25  C11 UNL     1      -3.184   1.120   3.066  1.00  0.00     0.201 A 
HETATM   26  O4  UNL     1      -3.719   2.084   2.246  1.00  0.00    -0.380 OA
ENDBRANCH  20  24
BRANCH  22  27
HETATM   27  C13 UNL     1      -3.502   0.385  -1.882  1.00  0.00     0.172 C 
BRANCH  27  28
HETATM   28  O5  UNL     1      -4.665   1.106  -1.837  1.00  0.00    -0.400 OA
ATOM     29  H5  UNL     1      -5.252   0.962  -2.570  1.00  0.00     0.209 HD
ENDBRANCH  27  28
ENDBRANCH  22  27
BRANCH  23  30
HETATM   30  O6  UNL     1      -1.509  -1.195  -1.826  1.00  0.00    -0.393 OA
ATOM     31  H6  UNL     1      -2.048  -1.003  -2.585  1.00  0.00     0.210 HD
ENDBRANCH  23  30
ENDBRANCH   1  17
TORSDOF 11
