REMARK  10 active torsions:
REMARK  status: ('A' for Active; 'I' for Inactive)
REMARK    1  A    between atoms: O1_1  and  C1_3 
REMARK    2  A    between atoms: C1_3  and  C2_4 
REMARK    3  A    between atoms: C3_6  and  O3_7 
REMARK    4  A    between atoms: O3_7  and  N1_8 
REMARK    5  A    between atoms: C4_10  and  C5_11 
REMARK    6  A    between atoms: C6_13  and  C7_14 
REMARK    7  A    between atoms: C13_20  and  O5_21 
REMARK    8  A    between atoms: C14_23  and  O6_24 
REMARK    9  A    between atoms: C16_27  and  O7_28 
REMARK   10  A    between atoms: C17_30  and  O8_31 
ROOT
HETATM    1  N1  UNL     1       1.259  -1.941   0.561  1.00  0.00    -0.276 N 
ATOM      2  H1  UNL     1       0.780  -2.388   1.343  1.00  0.00     0.193 HD
HETATM    3  C4  UNL     1       0.533  -1.483  -0.410  1.00  0.00     0.121 C 
ENDROOT
BRANCH   1   4
HETATM    4  O3  UNL     1       2.603  -1.867   0.608  1.00  0.00    -0.248 OA
BRANCH   4   5
HETATM    5  C3  UNL     1       3.255  -0.626   0.291  1.00  0.00     0.291 C 
HETATM    6  O2  UNL     1       4.024  -0.228   1.360  1.00  0.00    -0.349 OA
HETATM    7  C2  UNL     1       4.847   0.821   1.086  1.00  0.00     0.179 C 
HETATM    8  C17 UNL     1       5.924   0.513   0.064  1.00  0.00     0.178 C 
HETATM    9  C16 UNL     1       5.557  -0.733  -0.725  1.00  0.00     0.154 C 
HETATM   10  C15 UNL     1       4.064  -0.785  -0.975  1.00  0.00     0.097 C 
BRANCH   7  11
HETATM   11  C1  UNL     1       4.025   2.027   0.709  1.00  0.00     0.198 C 
BRANCH  11  12
HETATM   12  O1  UNL     1       4.850   3.142   0.438  1.00  0.00    -0.398 OA
ATOM     13  H1  UNL     1       4.332   3.902   0.200  1.00  0.00     0.209 HD
ENDBRANCH  11  12
ENDBRANCH   7  11
BRANCH   8  14
HETATM   14  O8  UNL     1       6.107   1.580  -0.811  1.00  0.00    -0.390 OA
ATOM     15  H8  UNL     1       6.782   1.387  -1.451  1.00  0.00     0.210 HD
ENDBRANCH   8  14
BRANCH   9  16
HETATM   16  O7  UNL     1       6.024  -1.862  -0.055  1.00  0.00    -0.393 OA
ATOM     17  H7  UNL     1       6.960  -1.829   0.102  1.00  0.00     0.210 HD
ENDBRANCH   9  16
ENDBRANCH   4   5
ENDBRANCH   1   4
BRANCH   3  18
HETATM   18  C5  UNL     1      -0.930  -1.575  -0.439  1.00  0.00     0.193 C 
HETATM   19  O4  UNL     1      -1.566  -0.380  -0.203  1.00  0.00    -0.370 OA
HETATM   20  C6  UNL     1      -2.689  -0.600   0.547  1.00  0.00     0.158 C 
HETATM   21  C13 UNL     1      -2.916  -2.068   0.679  1.00  0.00     0.179 C 
HETATM   22  C14 UNL     1      -1.473  -2.581   0.556  1.00  0.00     0.183 C 
BRANCH  20  23
HETATM   23  C7  UNL     1      -3.881   0.159   0.023  1.00  0.00     0.017 C 
HETATM   24  C8  UNL     1      -3.512   1.640   0.075  1.00  0.00     0.007 C 
HETATM   25  C9  UNL     1      -4.692   2.522  -0.177  1.00  0.00     0.000 C 
HETATM   26  C10 UNL     1      -5.781   1.716  -0.809  1.00  0.00     0.000 C 
HETATM   27  C11 UNL     1      -5.207   0.855  -1.906  1.00  0.00     0.000 C 
HETATM   28  C12 UNL     1      -4.248  -0.185  -1.378  1.00  0.00     0.007 C 
ENDBRANCH  20  23
BRANCH  21  29
HETATM   29  O5  UNL     1      -3.435  -2.448   1.897  1.00  0.00    -0.390 OA
ATOM     30  H5  UNL     1      -3.580  -3.383   1.981  1.00  0.00     0.210 HD
ENDBRANCH  21  29
BRANCH  22  31
HETATM   31  O6  UNL     1      -0.845  -2.400   1.800  1.00  0.00    -0.390 OA
ATOM     32  H6  UNL     1      -1.185  -3.031   2.424  1.00  0.00     0.210 HD
ENDBRANCH  22  31
ENDBRANCH   3  18
TORSDOF 10
