REMARK  10 active torsions:
REMARK  status: ('A' for Active; 'I' for Inactive)
REMARK    1  A    between atoms: O1_2  and  C2_3 
REMARK    2  A    between atoms: C3_5  and  C4_6 
REMARK    3  A    between atoms: C4_6  and  O3_7 
REMARK    4  A    between atoms: O3_7  and  S1_8 
REMARK    5  A    between atoms: S1_8  and  N1_9 
REMARK    6  A    between atoms: C5_14  and  O6_15 
REMARK    7  A    between atoms: O6_15  and  C6_16 
REMARK       I    between atoms: C6_16  and  N2_18 
REMARK    8  A    between atoms: N2_18  and  C7_20 
REMARK    9  A    between atoms: C11_24  and  O8_25 
REMARK   10  A    between atoms: C12_27  and  O9_28 
ROOT
HETATM    1  C2  UNL     1      -2.457  -2.084   1.073  1.00  0.00     0.290 C 
HETATM    2  O2  UNL     1      -2.271  -1.660  -0.213  1.00  0.00    -0.348 OA
HETATM    3  C3  UNL     1      -2.150  -0.281  -0.254  1.00  0.00     0.182 C 
HETATM    4  C5  UNL     1      -1.097   0.264   0.675  1.00  0.00     0.196 C 
HETATM    5  C11 UNL     1      -1.616   0.068   2.081  1.00  0.00     0.183 C 
HETATM    6  C12 UNL     1      -2.705  -0.983   2.084  1.00  0.00     0.204 C 
ENDROOT
BRANCH   4   7
HETATM    7  O6  UNL     1       0.181  -0.195   0.459  1.00  0.00    -0.293 OA
BRANCH   7   8
HETATM    8  C6  UNL     1       1.296   0.535   0.110  1.00  0.00     0.361 C 
HETATM    9  O7  UNL     1       1.105   1.765  -0.022  1.00  0.00    -0.238 OA
HETATM   10  N2  UNL     1       2.541  -0.120  -0.072  1.00  0.00    -0.329 N 
ATOM     11  H2  UNL     1       2.588  -1.130   0.060  1.00  0.00     0.165 HD
BRANCH  10  12
HETATM   12  C7  UNL     1       3.751   0.592  -0.439  1.00  0.00     0.024 C 
HETATM   13  C8  UNL     1       4.040   1.614   0.645  1.00  0.00     0.037 C 
HETATM   14  C9  UNL     1       4.942  -0.336  -0.494  1.00  0.00     0.037 C 
HETATM   15  C10 UNL     1       3.624   1.247  -1.791  1.00  0.00     0.037 C 
ENDBRANCH  10  12
ENDBRANCH   7   8
ENDBRANCH   4   7
BRANCH   3  16
HETATM   16  C4  UNL     1      -2.008   0.244  -1.665  1.00  0.00     0.226 C 
BRANCH  16  17
HETATM   17  O3  UNL     1      -1.897   1.616  -1.605  1.00  0.00    -0.257 OA
BRANCH  17  18
HETATM   18  S1  UNL     1      -1.738   2.187  -3.186  1.00  0.00     0.355 S 
HETATM   19  O4  UNL     1      -1.922   1.114  -4.192  1.00  0.00    -0.176 OA
HETATM   20  O5  UNL     1      -0.425   2.879  -3.387  1.00  0.00    -0.176 OA
BRANCH  18  21
HETATM   21  N1  UNL     1      -3.025   3.345  -3.416  1.00  0.00    -0.306 N 
ATOM     22  H12 UNL     1      -3.725   3.612  -2.724  1.00  0.00     0.171 HD
ATOM     23  H11 UNL     1      -2.929   3.690  -4.371  1.00  0.00     0.171 HD
ENDBRANCH  18  21
ENDBRANCH  17  18
ENDBRANCH  16  17
ENDBRANCH   3  16
BRANCH   5  24
HETATM   24  O8  UNL     1      -0.633  -0.342   2.968  1.00  0.00    -0.390 OA
ATOM     25  H8  UNL     1      -0.959  -0.465   3.852  1.00  0.00     0.210 HD
ENDBRANCH   5  24
BRANCH   6  26
HETATM   26  O9  UNL     1      -2.756  -1.527   3.385  1.00  0.00    -0.388 OA
ATOM     27  H9  UNL     1      -2.911  -0.837   4.019  1.00  0.00     0.210 HD
ENDBRANCH   6  26
BRANCH   1  28
HETATM   28  O1  UNL     1      -1.489  -2.956   1.527  1.00  0.00    -0.363 OA
HETATM   29  C1  UNL     1      -2.071  -4.187   1.788  1.00  0.00     0.204 C 
ENDBRANCH   1  28
TORSDOF 10
