REMARK  10 active torsions:
REMARK  status: ('A' for Active; 'I' for Inactive)
REMARK    1  A    between atoms: N1_1  and  N2_4 
REMARK    2  A    between atoms: N3_6  and  C1_8 
REMARK    3  A    between atoms: C2_9  and  O1_10 
REMARK    4  A    between atoms: C3_13  and  C4_14 
REMARK    5  A    between atoms: C4_14  and  O3_15 
REMARK    6  A    between atoms: C5_17  and  O4_18 
REMARK    7  A    between atoms: O4_18  and  C6_19 
REMARK    8  A    between atoms: C7_20  and  O5_21 
REMARK    9  A    between atoms: C8_23  and  O6_24 
REMARK   10  A    between atoms: C15_33  and  O7_34 
ROOT
HETATM    1  C1  UNL     1      -3.574   1.006   0.922  1.00  0.00     0.187 C 
HETATM    2  C2  UNL     1      -4.508   0.297   0.019  1.00  0.00     0.284 C 
HETATM    3  O2  UNL     1      -3.944  -0.306  -1.077  1.00  0.00    -0.349 OA
HETATM    4  C3  UNL     1      -2.832  -1.095  -0.788  1.00  0.00     0.179 C 
HETATM    5  C5  UNL     1      -1.750  -0.178  -0.341  1.00  0.00     0.184 C 
HETATM    6  C15 UNL     1      -2.183   0.450   0.968  1.00  0.00     0.178 C 
ENDROOT
BRANCH   5   7
HETATM    7  O4  UNL     1      -0.516  -0.678  -0.168  1.00  0.00    -0.370 OA
BRANCH   7   8
HETATM    8  C6  UNL     1       0.532  -0.155  -0.860  1.00  0.00     0.188 C 
HETATM    9  C7  UNL     1       1.111  -1.293  -1.696  1.00  0.00     0.208 C 
HETATM   10  C8  UNL     1       2.431  -1.641  -1.048  1.00  0.00     0.388 C 
HETATM   11  N4  UNL     1       2.821  -0.446  -0.377  1.00  0.00     0.127 N 
HETATM   12  C9  UNL     1       3.795  -0.661   0.641  1.00  0.00     0.276 C 
HETATM   13  C14 UNL     1       1.677   0.303   0.010  1.00  0.00     0.257 C 
HETATM   14  C10 UNL     1       3.857   0.435   1.674  1.00  0.00     0.030 C 
HETATM   15  C11 UNL     1       4.087   1.788   1.090  1.00  0.00     0.002 C 
HETATM   16  C12 UNL     1       3.520   1.957  -0.295  1.00  0.00     0.002 C 
HETATM   17  C13 UNL     1       2.013   1.772  -0.288  1.00  0.00     0.038 C 
BRANCH   9  18
HETATM   18  O5  UNL     1       0.312  -2.433  -1.650  1.00  0.00    -0.388 OA
ATOM     19  H5  UNL     1       0.672  -3.141  -2.170  1.00  0.00     0.210 HD
ENDBRANCH   9  18
BRANCH  10  20
HETATM   20  O6  UNL     1       2.306  -2.693  -0.131  1.00  0.00    -0.366 OA
ATOM     21  H6  UNL     1       3.136  -2.912   0.276  1.00  0.00     0.212 HD
ENDBRANCH  10  20
ENDBRANCH   7   8
ENDBRANCH   5   7
BRANCH   4  22
HETATM   22  C4  UNL     1      -3.241  -2.111   0.246  1.00  0.00     0.198 C 
BRANCH  22  23
HETATM   23  O3  UNL     1      -2.182  -2.953   0.601  1.00  0.00    -0.398 OA
ATOM     24  H3  UNL     1      -2.440  -3.594   1.253  1.00  0.00     0.209 HD
ENDBRANCH  22  23
ENDBRANCH   4  22
BRANCH   6  25
HETATM   25  O7  UNL     1      -1.289   1.490   1.222  1.00  0.00    -0.391 OA
ATOM     26  H7  UNL     1      -0.407   1.138   1.251  1.00  0.00     0.210 HD
ENDBRANCH   6  25
BRANCH   1  27
HETATM   27  N3  UNL     1      -3.492   2.436   0.639  1.00  0.00    -0.310 N 
HETATM   28  N2  UNL     1      -3.016   2.828  -0.423  1.00  0.00    -0.253 N 
ATOM     29  H2  UNL     1      -2.128   2.326  -0.416  1.00  0.00     0.207 HD
ATOM     30  H3  UNL     1      -3.831   3.111   1.325  1.00  0.00     0.182 HD
BRANCH  28  31
HETATM   31  N1  UNL     1      -2.914   3.432  -1.489  1.00  0.00    -0.331 N 
ATOM     32  H12 UNL     1      -3.814   3.909  -1.446  1.00  0.00     0.178 HD
ATOM     33  H11 UNL     1      -2.519   3.758  -2.371  1.00  0.00     0.178 HD
ENDBRANCH  28  31
ENDBRANCH   1  27
BRANCH   2  34
HETATM   34  O1  UNL     1      -5.429   1.232  -0.471  1.00  0.00    -0.369 OA
ATOM     35  H1  UNL     1      -6.029   0.777  -1.051  1.00  0.00     0.212 HD
ENDBRANCH   2  34
TORSDOF 10
