REMARK  8 active torsions:
REMARK  status: ('A' for Active; 'I' for Inactive)
REMARK    1  A    between atoms: O1_2  and  N1_3 
REMARK    2  A    between atoms: C4_7  and  O2_8 
REMARK    3  A    between atoms: C5_10  and  O3_12 
REMARK    4  A    between atoms: C11_18  and  O4_19 
REMARK    5  A    between atoms: C18_27  and  C19_28 
REMARK    6  A    between atoms: C19_28  and  O6_33 
REMARK    7  A    between atoms: N2_29  and  O5_31 
REMARK    8  A    between atoms: C25_39  and  O7_41 
ROOT
HETATM    1  N1  UNL     1      -4.291   0.667   0.229  1.00  0.00    -0.272 N 
ATOM      2  H1  UNL     1      -4.851   0.001  -0.304  1.00  0.00     0.193 HD
HETATM    3  C2  UNL     1      -3.080   0.839  -0.195  1.00  0.00     0.054 C 
HETATM    4  C3  UNL     1      -2.864  -0.007  -1.360  1.00  0.00     0.080 C 
HETATM    5  C4  UNL     1      -3.537  -1.359  -1.387  1.00  0.00     0.163 C 
HETATM    6  C5  UNL     1      -2.167  -2.024  -1.232  1.00  0.00     0.089 C 
HETATM    7  C6  UNL     1      -2.081  -2.656   0.113  1.00  0.00     0.049 C 
HETATM    8  C7  UNL     1      -1.557  -0.724  -1.496  1.00  0.00     0.005 C 
HETATM    9  C8  UNL     1      -1.105  -0.608  -2.962  1.00  0.00     0.020 C 
HETATM   10  C9  UNL     1      -0.617  -0.113  -0.524  1.00  0.00     0.005 C 
HETATM   11  C10 UNL     1      -0.483   1.322  -0.925  1.00  0.00     0.047 C 
HETATM   12  C11 UNL     1      -0.981   2.174   0.250  1.00  0.00     0.094 C 
HETATM   13  C12 UNL     1       0.036   2.108   1.319  1.00  0.00     0.042 C 
HETATM   14  C13 UNL     1       0.566   0.786   1.725  1.00  0.00     0.009 C 
HETATM   15  C14 UNL     1       1.444   0.105   0.718  1.00  0.00    -0.001 C 
HETATM   16  C15 UNL     1       0.665  -0.798  -0.248  1.00  0.00    -0.005 C 
HETATM   17  C16 UNL     1       1.579  -1.075  -1.380  1.00  0.00     0.007 C 
HETATM   18  C17 UNL     1       2.810  -1.770  -0.885  1.00  0.00     0.019 C 
HETATM   19  C18 UNL     1       3.532  -1.121   0.246  1.00  0.00     0.034 C 
HETATM   20  C21 UNL     1       3.936  -2.147   1.280  1.00  0.00     0.020 C 
HETATM   21  C22 UNL     1       2.517  -1.943   1.863  1.00  0.00     0.012 C 
HETATM   22  C23 UNL     1       2.625  -0.560   1.309  1.00  0.00    -0.025 C 
HETATM   23  C24 UNL     1       3.356   0.346   2.243  1.00  0.00     0.016 C 
HETATM   24  C25 UNL     1      -2.367   1.826   0.639  1.00  0.00     0.125 C 
HETATM   25  C26 UNL     1      -3.193   3.095   0.724  1.00  0.00     0.056 C 
ENDROOT
BRANCH  19  26
HETATM   26  C19 UNL     1       4.585  -0.190  -0.196  1.00  0.00     0.146 C 
HETATM   27  N2  UNL     1       5.832  -0.288  -0.026  1.00  0.00    -0.250 N 
ATOM     28  H2  UNL     1       6.380   0.478  -0.418  1.00  0.00     0.196 HD
BRANCH  27  29
HETATM   29  O5  UNL     1       6.553  -1.241   0.590  1.00  0.00    -0.288 OA
ATOM     30  H5  UNL     1       7.491  -1.315   0.718  1.00  0.00     0.244 HD
ENDBRANCH  27  29
BRANCH  26  31
HETATM   31  O6  UNL     1       4.141   0.944  -0.894  1.00  0.00    -0.342 OA
HETATM   32  C20 UNL     1       5.076   1.710  -1.641  1.00  0.00     0.211 C 
ENDBRANCH  26  31
ENDBRANCH  19  26
BRANCH  12  33
HETATM   33  O4  UNL     1      -0.908   3.482  -0.296  1.00  0.00    -0.386 OA
ATOM     34  H4  UNL     1      -1.216   4.009   0.431  1.00  0.00     0.210 HD
ENDBRANCH  12  33
BRANCH   6  35
HETATM   35  O3  UNL     1      -1.884  -2.978  -2.219  1.00  0.00    -0.387 OA
ATOM     36  H3  UNL     1      -1.034  -3.391  -2.123  1.00  0.00     0.210 HD
ENDBRANCH   6  35
BRANCH  24  37
HETATM   37  O7  UNL     1      -2.297   1.359   1.978  1.00  0.00    -0.381 OA
ATOM     38  H7  UNL     1      -1.838   1.994   2.515  1.00  0.00     0.211 HD
ENDBRANCH  24  37
BRANCH   5  39
HETATM   39  O2  UNL     1      -4.430  -1.659  -0.396  1.00  0.00    -0.392 OA
ATOM     40  H2  UNL     1      -4.853  -2.509  -0.413  1.00  0.00     0.210 HD
ENDBRANCH   5  39
BRANCH   1  41
HETATM   41  O1  UNL     1      -4.911   1.237   1.264  1.00  0.00    -0.285 OA
HETATM   42  C1  UNL     1      -6.325   1.308   1.280  1.00  0.00     0.237 C 
ENDBRANCH   1  41
TORSDOF 8
