REMARK  9 active torsions:
REMARK  status: ('A' for Active; 'I' for Inactive)
REMARK    1  A    between atoms: C2_2  and  O2_4 
REMARK    2  A    between atoms: O2_4  and  C3_5 
REMARK    3  A    between atoms: C8_10  and  O3_11 
REMARK    4  A    between atoms: O3_11  and  C9_12 
REMARK    5  A    between atoms: C10_13  and  O4_14 
REMARK    6  A    between atoms: C11_16  and  O5_17 
REMARK    7  A    between atoms: C12_19  and  O6_20 
REMARK    8  A    between atoms: C13_22  and  O7_23 
REMARK    9  A    between atoms: N1_27  and  O8_29 
ROOT
HETATM    1  C9  UNL     1      -1.930  -0.235  -0.877  1.00  0.00     0.164 C 
HETATM    2  C10 UNL     1      -2.607  -1.463  -1.516  1.00  0.00     0.179 C 
HETATM    3  C11 UNL     1      -4.054  -1.613  -1.307  1.00  0.00     0.181 C 
HETATM    4  C12 UNL     1      -4.769  -0.315  -1.172  1.00  0.00     0.185 C 
HETATM    5  C13 UNL     1      -4.224   0.510  -0.048  1.00  0.00     0.101 C 
HETATM    6  C14 UNL     1      -4.944   0.151   1.237  1.00  0.00     0.096 C 
HETATM    7  C15 UNL     1      -4.393   1.000   2.307  1.00  0.00     0.013 C 
HETATM    8  N1  UNL     1      -5.130   1.818   2.931  1.00  0.00    -0.277 N 
ATOM      9  H1  UNL     1      -4.735   2.400   3.670  1.00  0.00     0.193 HD
HETATM   10  C16 UNL     1      -2.955   0.843   2.604  1.00  0.00     0.055 C 
HETATM   11  C17 UNL     1      -2.370  -0.056   1.536  1.00  0.00     0.020 C 
HETATM   12  C18 UNL     1      -2.733   0.455   0.133  1.00  0.00     0.019 C 
HETATM   13  C19 UNL     1      -2.320   1.941   0.195  1.00  0.00     0.021 C 
ENDROOT
BRANCH   1  14
HETATM   14  O3  UNL     1      -0.800  -0.815  -0.339  1.00  0.00    -0.376 OA
BRANCH  14  15
HETATM   15  C8  UNL     1       0.392  -0.782  -0.963  1.00  0.00     0.130 C 
HETATM   16  C6  UNL     1       1.511  -0.355  -0.094  1.00  0.00    -0.013 C 
HETATM   17  C5  UNL     1       1.307   1.127   0.262  1.00  0.00     0.014 C 
HETATM   18  C7  UNL     1       1.564  -1.110   1.220  1.00  0.00     0.018 C 
HETATM   19  C25 UNL     1       2.864  -0.385  -0.780  1.00  0.00     0.006 C 
HETATM   20  C4  UNL     1       2.569   1.908   0.346  1.00  0.00     0.033 C 
HETATM   21  C3  UNL     1       3.690   1.158   0.984  1.00  0.00     0.132 C 
HETATM   22  C26 UNL     1       3.960  -0.109   0.232  1.00  0.00     0.038 C 
HETATM   23  C22 UNL     1       3.190  -1.549  -1.611  1.00  0.00    -0.043 C 
HETATM   24  C21 UNL     1       1.986  -1.938  -2.409  1.00  0.00     0.011 C 
HETATM   25  C23 UNL     1       3.725  -2.757  -0.905  1.00  0.00     0.015 C 
HETATM   26  C24 UNL     1       4.238  -1.091  -2.641  1.00  0.00     0.015 C 
HETATM   27  C20 UNL     1       0.781  -2.161  -1.521  1.00  0.00     0.033 C 
BRANCH  21  28
HETATM   28  O2  UNL     1       4.834   1.992   1.063  1.00  0.00    -0.316 OA
BRANCH  28  29
HETATM   29  C2  UNL     1       5.407   2.420   2.231  1.00  0.00     0.255 C 
HETATM   30  C1  UNL     1       6.606   3.295   2.300  1.00  0.00     0.126 C 
HETATM   31  O1  UNL     1       4.898   2.058   3.316  1.00  0.00    -0.266 OA
ENDBRANCH  28  29
ENDBRANCH  21  28
ENDBRANCH  14  15
ENDBRANCH   1  14
BRANCH   2  32
HETATM   32  O4  UNL     1      -2.414  -1.336  -2.911  1.00  0.00    -0.390 OA
ATOM     33  H4  UNL     1      -2.831  -2.093  -3.305  1.00  0.00     0.210 HD
ENDBRANCH   2  32
BRANCH   3  34
HETATM   34  O5  UNL     1      -4.338  -2.515  -0.265  1.00  0.00    -0.390 OA
ATOM     35  H5  UNL     1      -5.273  -2.612  -0.130  1.00  0.00     0.210 HD
ENDBRANCH   3  34
BRANCH   5  36
HETATM   36  O7  UNL     1      -4.699   1.817  -0.337  1.00  0.00    -0.386 OA
ATOM     37  H7  UNL     1      -4.353   2.341   0.376  1.00  0.00     0.210 HD
ENDBRANCH   5  36
BRANCH   4  38
HETATM   38  O6  UNL     1      -6.124  -0.537  -0.947  1.00  0.00    -0.390 OA
ATOM     39  H6  UNL     1      -6.580   0.292  -0.861  1.00  0.00     0.210 HD
ENDBRANCH   4  38
BRANCH   8  40
HETATM   40  O8  UNL     1      -6.461   1.921   2.613  1.00  0.00    -0.290 OA
ATOM     41  H8  UNL     1      -7.014   2.535   3.081  1.00  0.00     0.244 HD
ENDBRANCH   8  40
TORSDOF 9
