REMARK  8 active torsions:
REMARK  status: ('A' for Active; 'I' for Inactive)
REMARK    1  A    between atoms: C2_2  and  C3_3 
REMARK    2  A    between atoms: C3_3  and  O1_5 
REMARK    3  A    between atoms: C3_3  and  C5_7 
REMARK    4  A    between atoms: C8_10  and  C9_11 
REMARK    5  A    between atoms: C9_11  and  O2_12 
REMARK    6  A    between atoms: C11_15  and  O3_16 
REMARK    7  A    between atoms: C12_18  and  O4_19 
REMARK    8  A    between atoms: C20_29  and  O5_31 
ROOT
HETATM    1  C5  UNL     1      -1.002   1.350  -0.178  1.00  0.00     0.025 C 
HETATM    2  C6  UNL     1      -1.277   0.250  -1.184  1.00  0.00     0.022 C 
HETATM    3  C7  UNL     1      -0.795  -1.075  -0.577  1.00  0.00     0.010 C 
HETATM    4  C8  UNL     1      -1.582  -2.258  -1.024  1.00  0.00     0.024 C 
HETATM    5  C10 UNL     1      -2.118  -3.155   0.031  1.00  0.00     0.042 C 
HETATM    6  C11 UNL     1      -1.662  -3.030   1.424  1.00  0.00     0.148 C 
HETATM    7  C12 UNL     1      -0.781  -1.827   1.740  1.00  0.00     0.156 C 
HETATM    8  C13 UNL     1      -1.223  -0.730   0.866  1.00  0.00    -0.000 C 
HETATM    9  C14 UNL     1      -2.675  -0.702   1.110  1.00  0.00     0.019 C 
HETATM   10  C15 UNL     1      -0.728   0.685   1.110  1.00  0.00     0.008 C 
HETATM   11  C16 UNL     1       0.522   0.857   1.851  1.00  0.00     0.063 C 
HETATM   12  C17 UNL     1       1.772   1.265   1.131  1.00  0.00     0.187 C 
HETATM   13  C18 UNL     1       1.998   2.673   1.019  1.00  0.00     0.101 C 
HETATM   14  N1  UNL     1       2.197   3.796   0.941  1.00  0.00    -0.194 NA
HETATM   15  C19 UNL     1       3.041   0.536   1.633  1.00  0.00     0.098 C 
HETATM   16  C20 UNL     1       4.044   0.566   0.474  1.00  0.00     0.076 C 
HETATM   17  C21 UNL     1       5.349   1.063   1.132  1.00  0.00     0.050 C 
HETATM   18  C22 UNL     1       4.280  -0.741  -0.142  1.00  0.00     0.010 C 
HETATM   19  C23 UNL     1       3.722  -1.259  -1.239  1.00  0.00    -0.005 C 
HETATM   20  C24 UNL     1       2.743  -0.727  -2.147  1.00  0.00    -0.024 C 
HETATM   21  C25 UNL     1       1.306  -0.634  -1.967  1.00  0.00     0.069 C 
HETATM   22  C26 UNL     1       0.671  -1.299  -0.741  1.00  0.00     0.104 C 
HETATM   23  C27 UNL     1       1.226  -2.660  -0.765  1.00  0.00     0.050 C 
HETATM   24  O6  UNL     1       1.331  -0.610   0.291  1.00  0.00    -0.227 OA
HETATM   25  O7  UNL     1       1.650   0.586  -0.079  1.00  0.00    -0.213 OA
ENDROOT
BRANCH  16  26
HETATM   26  O5  UNL     1       3.764   1.546  -0.464  1.00  0.00    -0.386 OA
ATOM     27  H5  UNL     1       4.386   1.565  -1.182  1.00  0.00     0.211 HD
ENDBRANCH  16  26
BRANCH   1  28
HETATM   28  C3  UNL     1      -2.011   2.478  -0.223  1.00  0.00     0.058 C 
HETATM   29  C4  UNL     1      -1.824   3.285  -1.552  1.00  0.00     0.046 C 
BRANCH  28  30
HETATM   30  C2  UNL     1      -1.766   3.566   0.778  1.00  0.00     0.033 C 
HETATM   31  C1  UNL     1      -2.832   4.636   0.509  1.00  0.00     0.008 C 
ENDBRANCH  28  30
BRANCH  28  32
HETATM   32  O1  UNL     1      -3.331   2.099  -0.341  1.00  0.00    -0.390 OA
ATOM     33  H1  UNL     1      -3.486   1.409  -0.976  1.00  0.00     0.210 HD
ENDBRANCH  28  32
ENDBRANCH   1  28
BRANCH   7  34
HETATM   34  O4  UNL     1      -1.129  -1.465   3.069  1.00  0.00    -0.392 OA
ATOM     35  H4  UNL     1      -0.580  -0.715   3.266  1.00  0.00     0.210 HD
ENDBRANCH   7  34
BRANCH   4  36
HETATM   36  C9  UNL     1      -2.604  -2.001  -2.120  1.00  0.00     0.169 C 
BRANCH  36  37
HETATM   37  O2  UNL     1      -3.205  -3.273  -2.363  1.00  0.00    -0.400 OA
ATOM     38  H2  UNL     1      -3.844  -3.112  -3.048  1.00  0.00     0.209 HD
ENDBRANCH  36  37
ENDBRANCH   4  36
BRANCH   6  39
HETATM   39  O3  UNL     1      -0.885  -4.190   1.735  1.00  0.00    -0.393 OA
ATOM     40  H3  UNL     1      -0.591  -4.109   2.635  1.00  0.00     0.210 HD
ENDBRANCH   6  39
TORSDOF 8
