REMARK  7 active torsions:
REMARK  status: ('A' for Active; 'I' for Inactive)
REMARK    1  A    between atoms: C3_4  and  O2_5 
REMARK    2  A    between atoms: O2_5  and  C4_6 
REMARK    3  A    between atoms: C16_20  and  O3_22 
REMARK    4  A    between atoms: C18_24  and  O4_25 
REMARK    5  A    between atoms: C21_29  and  O5_30 
REMARK    6  A    between atoms: C22_32  and  O6_33 
REMARK    7  A    between atoms: C23_35  and  O7_36 
ROOT
HETATM    1  C4  UNL     1       1.395   1.082  -0.631  1.00  0.00     0.125 C 
HETATM    2  C5  UNL     1       1.273   2.428  -1.309  1.00  0.00     0.034 C 
HETATM    3  C6  UNL     1       0.042   2.541  -2.159  1.00  0.00     0.024 C 
HETATM    4  C7  UNL     1      -1.061   1.605  -1.677  1.00  0.00     0.019 C 
HETATM    5  C8  UNL     1      -0.883   0.295  -2.375  1.00  0.00     0.028 C 
HETATM    6  S1  UNL     1      -2.696   2.247  -2.247  1.00  0.00    -0.087 SA
HETATM    7  S2  UNL     1      -3.960   0.658  -1.502  1.00  0.00    -0.088 SA
HETATM    8  C9  UNL     1      -3.116   0.183   0.067  1.00  0.00     0.105 C 
HETATM    9  C10 UNL     1      -2.236   1.255   0.558  1.00  0.00     0.009 C 
HETATM   10  C11 UNL     1      -1.775   0.854   1.965  1.00  0.00     0.011 C 
HETATM   11  C12 UNL     1      -2.890   0.832   2.952  1.00  0.00     0.037 C 
HETATM   12  C13 UNL     1      -3.989   0.002   2.423  1.00  0.00    -0.045 C 
HETATM   13  C14 UNL     1      -4.864  -0.762   3.062  1.00  0.00    -0.018 C 
HETATM   14  C15 UNL     1      -5.795  -1.413   2.068  1.00  0.00     0.068 C 
HETATM   15  C16 UNL     1      -4.902  -1.408   0.815  1.00  0.00     0.093 C 
HETATM   16  C17 UNL     1      -3.961  -2.559   0.979  1.00  0.00     0.050 C 
HETATM   17  C18 UNL     1      -4.252  -0.060   1.003  1.00  0.00     0.125 C 
HETATM   18  C19 UNL     1      -1.001   1.567  -0.199  1.00  0.00     0.012 C 
HETATM   19  C20 UNL     1       0.196   0.738   0.215  1.00  0.00     0.038 C 
ENDROOT
BRANCH   1  20
HETATM   20  O2  UNL     1       2.569   1.165   0.156  1.00  0.00    -0.353 OA
BRANCH  20  21
HETATM   21  C3  UNL     1       3.555   0.319  -0.248  1.00  0.00     0.291 C 
HETATM   22  O1  UNL     1       4.739   0.947  -0.617  1.00  0.00    -0.351 OA
HETATM   23  C2  UNL     1       5.529   0.063  -1.340  1.00  0.00     0.152 C 
HETATM   24  C1  UNL     1       4.981  -0.196  -2.728  1.00  0.00     0.042 C 
HETATM   25  C23 UNL     1       5.831  -1.204  -0.599  1.00  0.00     0.178 C 
HETATM   26  C22 UNL     1       4.645  -1.812   0.082  1.00  0.00     0.183 C 
HETATM   27  C21 UNL     1       3.934  -0.702   0.828  1.00  0.00     0.204 C 
BRANCH  25  28
HETATM   28  O7  UNL     1       6.345  -2.142  -1.486  1.00  0.00    -0.390 OA
ATOM     29  H7  UNL     1       6.536  -2.945  -1.016  1.00  0.00     0.210 HD
ENDBRANCH  25  28
BRANCH  26  30
HETATM   30  O6  UNL     1       3.743  -2.406  -0.791  1.00  0.00    -0.390 OA
ATOM     31  H6  UNL     1       4.189  -3.102  -1.259  1.00  0.00     0.210 HD
ENDBRANCH  26  30
BRANCH  27  32
HETATM   32  O5  UNL     1       4.892  -0.115   1.664  1.00  0.00    -0.388 OA
ATOM     33  H5  UNL     1       5.127  -0.749   2.332  1.00  0.00     0.210 HD
ENDBRANCH  27  32
ENDBRANCH  20  21
ENDBRANCH   1  20
BRANCH  17  34
HETATM   34  O4  UNL     1      -5.271   0.885   0.723  1.00  0.00    -0.381 OA
ATOM     35  H4  UNL     1      -5.994   0.730   1.319  1.00  0.00     0.211 HD
ENDBRANCH  17  34
BRANCH  15  36
HETATM   36  O3  UNL     1      -5.651  -1.501  -0.344  1.00  0.00    -0.386 OA
ATOM     37  H3  UNL     1      -5.100  -1.498  -1.118  1.00  0.00     0.210 HD
ENDBRANCH  15  36
TORSDOF 7
