REMARK  3 active torsions:
REMARK  status: ('A' for Active; 'I' for Inactive)
REMARK    1  A    between atoms: N1_1  and  C1_4 
REMARK    2  A    between atoms: C2_7  and  N3_8 
REMARK    3  A    between atoms: C5_13  and  N5_14 
ROOT
HETATM    1  N3  UNL     1       0.062   0.608  -0.481  1.00  0.00    -0.125 N 
HETATM    2  C3  UNL     1      -0.117   1.790  -1.097  1.00  0.00     0.209 A 
HETATM    3  N4  UNL     1      -1.446   2.000  -1.138  1.00  0.00    -0.345 N 
ATOM      4  H4  UNL     1      -1.903   2.816  -1.546  1.00  0.00     0.167 HD
HETATM    5  C4  UNL     1      -2.076   0.966  -0.557  1.00  0.00     0.123 A 
HETATM    6  C5  UNL     1      -3.402   0.677  -0.334  1.00  0.00     0.134 A 
HETATM    7  N6  UNL     1      -3.733  -0.482   0.297  1.00  0.00    -0.293 N 
ATOM      8  H6  UNL     1      -4.710  -0.716   0.473  1.00  0.00     0.172 HD
HETATM    9  C6  UNL     1      -2.751  -1.312   0.684  1.00  0.00     0.327 A 
HETATM   10  O1  UNL     1      -3.103  -2.376   1.265  1.00  0.00    -0.247 OA
HETATM   11  N7  UNL     1      -1.440  -1.069   0.486  1.00  0.00    -0.291 N 
ATOM     12  H7  UNL     1      -0.725  -1.727   0.797  1.00  0.00     0.172 HD
HETATM   13  C7  UNL     1      -1.113   0.077  -0.138  1.00  0.00     0.164 A 
ENDROOT
BRANCH   1  14
HETATM   14  C2  UNL     1       1.353   0.011  -0.233  1.00  0.00     0.706 A 
HETATM   15  N2  UNL     1       2.378   0.721   0.265  1.00  0.00    -0.022 N 
HETATM   16  C1  UNL     1       3.586   0.221   0.511  1.00  0.00     0.691 A 
ATOM     17  H2  UNL     1       2.220   1.708   0.468  1.00  0.00     0.203 HD
HETATM   18  N9  UNL     1       3.798  -1.081   0.245  1.00  0.00    -0.187 N 
HETATM   19  C8  UNL     1       2.793  -1.832  -0.258  1.00  0.00     0.215 A 
ATOM     20  H9  UNL     1       4.712  -1.499   0.422  1.00  0.00     0.185 HD
HETATM   21  N8  UNL     1       1.568  -1.289  -0.499  1.00  0.00    -0.186 N 
ATOM     22  H8  UNL     1       0.817  -1.866  -0.879  1.00  0.00     0.185 HD
BRANCH  16  23
HETATM   23  N1  UNL     1       4.578   0.896   0.990  1.00  0.00    -0.234 N 
ATOM     24  H12 UNL     1       4.417   1.883   1.192  1.00  0.00     0.174 HD
ATOM     25  H11 UNL     1       5.504   0.513   1.179  1.00  0.00     0.174 HD
ENDBRANCH  16  23
ENDBRANCH   1  14
BRANCH   6  26
HETATM   26  N5  UNL     1      -4.313   1.502  -0.722  1.00  0.00    -0.383 N 
ATOM     27  H52 UNL     1      -4.065   2.371  -1.195  1.00  0.00     0.157 HD
ATOM     28  H51 UNL     1      -5.296   1.288  -0.557  1.00  0.00     0.157 HD
ENDBRANCH   6  26
TORSDOF 3
