REMARK  4 active torsions:
REMARK  status: ('A' for Active; 'I' for Inactive)
REMARK    1  A    between atoms: N1_1  and  C1_4 
REMARK    2  A    between atoms: C2_9  and  S1_10 
REMARK    3  A    between atoms: S1_10  and  C3_13 
REMARK    4  A    between atoms: C7_23  and  N7_24 
ROOT
HETATM    1  C1  UNL     1      -3.175   0.840   0.048  1.00  0.00     0.158 A 
HETATM    2  N2  UNL     1      -2.349   1.053  -0.988  1.00  0.00    -0.281 N 
ATOM      3  H2  UNL     1      -2.594   1.762  -1.679  1.00  0.00     0.188 HD
HETATM    4  N3  UNL     1      -1.213   0.361  -1.140  1.00  0.00    -0.274 N 
ATOM      5  H3  UNL     1      -0.611   0.552  -1.941  1.00  0.00     0.189 HD
HETATM    6  C2  UNL     1      -0.855  -0.583  -0.251  1.00  0.00     0.226 A 
HETATM    7  N6  UNL     1      -1.680  -0.797   0.785  1.00  0.00    -0.315 N 
ATOM      8  H6  UNL     1      -1.424  -1.509   1.469  1.00  0.00     0.169 HD
HETATM    9  C7  UNL     1      -2.825  -0.122   0.968  1.00  0.00     0.146 A 
ENDROOT
BRANCH   6  10
HETATM   10  S1  UNL     1       0.623  -1.505  -0.420  1.00  0.00     0.256 S 
HETATM   11  O1  UNL     1       0.669  -2.542   0.671  1.00  0.00    -0.213 OA
HETATM   12  O2  UNL     1       0.567  -2.242  -1.738  1.00  0.00    -0.213 OA
BRANCH  10  13
HETATM   13  C3  UNL     1       2.023  -0.503  -0.416  1.00  0.00     0.151 A 
HETATM   14  C4  UNL     1       2.986  -0.676   0.549  1.00  0.00     0.130 A 
HETATM   15  N4  UNL     1       4.104   0.075   0.607  1.00  0.00    -0.371 N 
HETATM   16  C5  UNL     1       4.248   1.023  -0.338  1.00  0.00     0.104 A 
ATOM     17  H4  UNL     1       4.807  -0.068   1.332  1.00  0.00     0.164 HD
HETATM   18  C6  UNL     1       3.316   1.245  -1.332  1.00  0.00     0.106 A 
HETATM   19  N5  UNL     1       2.206   0.452  -1.336  1.00  0.00    -0.354 N 
ATOM     20  H5  UNL     1       1.498   0.590  -2.057  1.00  0.00     0.166 HD
ENDBRANCH  10  13
ENDBRANCH   6  10
BRANCH   9  21
HETATM   21  N7  UNL     1      -3.618  -0.339   1.979  1.00  0.00    -0.382 N 
ATOM     22  H72 UNL     1      -4.488   0.174   2.118  1.00  0.00     0.157 HD
ATOM     23  H71 UNL     1      -3.359  -1.052   2.661  1.00  0.00     0.157 HD
ENDBRANCH   9  21
BRANCH   1  24
HETATM   24  N1  UNL     1      -4.272   1.516   0.184  1.00  0.00    -0.381 N 
ATOM     25  H12 UNL     1      -4.531   2.229  -0.498  1.00  0.00     0.157 HD
ATOM     26  H11 UNL     1      -4.900   1.354   0.971  1.00  0.00     0.157 HD
ENDBRANCH   1  24
TORSDOF 4
