REMARK  3 active torsions:
REMARK  status: ('A' for Active; 'I' for Inactive)
REMARK    1  A    between atoms: C3_6  and  N2_7 
REMARK    2  A    between atoms: N2_7  and  C4_9 
REMARK    3  A    between atoms: C5_12  and  N4_13 
ROOT
HETATM    1  C4  UNL     1       0.564   0.255   0.299  1.00  0.00     0.699 A 
HETATM    2  N3  UNL     1      -0.703   0.525  -0.065  1.00  0.00    -0.022 N 
ATOM      3  H3  UNL     1      -0.972   1.494  -0.236  1.00  0.00     0.203 HD
HETATM    4  C5  UNL     1      -1.638  -0.454  -0.212  1.00  0.00     0.697 A 
HETATM    5  N6  UNL     1      -1.220  -1.707   0.028  1.00  0.00    -0.187 N 
ATOM      6  H6  UNL     1      -1.893  -2.467  -0.073  1.00  0.00     0.185 HD
HETATM    7  C9  UNL     1       0.037  -2.017   0.394  1.00  0.00     0.215 A 
HETATM    8  N7  UNL     1       0.947  -1.012   0.531  1.00  0.00    -0.186 N 
ATOM      9  H7  UNL     1       1.907  -1.219   0.806  1.00  0.00     0.185 HD
ENDROOT
BRANCH   1  10
HETATM   10  N2  UNL     1       1.385   1.241   0.415  1.00  0.00    -0.176 N 
ATOM     11  H2  UNL     1       1.081   2.198   0.236  1.00  0.00     0.186 HD
BRANCH  10  12
HETATM   12  C3  UNL     1       2.712   0.964   0.795  1.00  0.00     0.125 A 
HETATM   13  C2  UNL     1       3.622   0.613  -0.167  1.00  0.00     0.097 A 
HETATM   14  C1  UNL     1       4.916   0.337   0.166  1.00  0.00     0.103 A 
HETATM   15  N1  UNL     1       5.792   0.001  -0.743  1.00  0.00    -0.385 N 
HETATM   16  N9  UNL     1       5.281   0.415   1.454  1.00  0.00    -0.339 N 
ATOM     17  H12 UNL     1       5.514  -0.058  -1.723  1.00  0.00     0.157 HD
ATOM     18  H11 UNL     1       6.759  -0.205  -0.494  1.00  0.00     0.157 HD
HETATM   19  C10 UNL     1       4.377   0.763   2.404  1.00  0.00     0.183 A 
ATOM     20  H9  UNL     1       6.244   0.211   1.721  1.00  0.00     0.168 HD
HETATM   21  N8  UNL     1       3.089   1.038   2.072  1.00  0.00    -0.338 N 
ATOM     22  H8  UNL     1       2.416   1.299   2.793  1.00  0.00     0.168 HD
ENDBRANCH  10  12
ENDBRANCH   1  10
BRANCH   4  23
HETATM   23  N4  UNL     1      -2.979  -0.143  -0.600  1.00  0.00    -0.191 N 
HETATM   24  C6  UNL     1      -3.533   1.163  -0.882  1.00  0.00     0.170 C 
HETATM   25  C7  UNL     1      -4.851   0.864  -1.519  1.00  0.00     0.254 C 
HETATM   26  N5  UNL     1      -5.143  -0.525  -1.316  1.00  0.00    -0.057 N 
HETATM   27  C8  UNL     1      -3.992  -1.163  -0.763  1.00  0.00     0.374 C 
ATOM     28  H52 UNL     1      -5.978  -0.668  -0.748  1.00  0.00     0.279 HD
ATOM     29  H51 UNL     1      -5.470  -0.982  -2.167  1.00  0.00     0.279 HD
ENDBRANCH   4  23
TORSDOF 3
