REMARK  3 active torsions:
REMARK  status: ('A' for Active; 'I' for Inactive)
REMARK    1  A    between atoms: N1_1  and  C1_4 
REMARK    2  A    between atoms: C2_7  and  N3_8 
REMARK    3  A    between atoms: C4_10  and  C5_11 
ROOT
HETATM    1  N3  UNL     1      -0.331  -0.519  -0.027  1.00  0.00    -0.280 N 
HETATM    2  C3  UNL     1      -1.323   0.375   0.114  1.00  0.00     0.123 A 
HETATM    3  C4  UNL     1      -2.645   0.078  -0.061  1.00  0.00     0.113 A 
HETATM    4  C6  UNL     1      -2.938  -1.228  -0.403  1.00  0.00     0.264 A 
HETATM    5  O2  UNL     1      -4.143  -1.556  -0.578  1.00  0.00    -0.267 OA
HETATM    6  N5  UNL     1      -1.941  -2.089  -0.536  1.00  0.00    -0.296 N 
ATOM      7  H5  UNL     1      -2.166  -3.051  -0.789  1.00  0.00     0.171 HD
HETATM    8  C7  UNL     1      -0.647  -1.766  -0.356  1.00  0.00     0.203 A 
HETATM    9  N6  UNL     1       0.340  -2.786  -0.529  1.00  0.00    -0.062 NA
ENDROOT
BRANCH   1  10
HETATM   10  C2  UNL     1       1.026  -0.143   0.171  1.00  0.00     0.131 A 
HETATM   11  N2  UNL     1       1.561   0.945  -0.444  1.00  0.00    -0.176 N 
HETATM   12  C1  UNL     1       2.842   1.306  -0.262  1.00  0.00     0.677 A 
ATOM     13  H2  UNL     1       0.972   1.504  -1.062  1.00  0.00     0.186 HD
HETATM   14  N7  UNL     1       3.663   0.609   0.540  1.00  0.00    -0.202 N 
HETATM   15  C9  UNL     1       3.193  -0.482   1.180  1.00  0.00     0.110 A 
ATOM     16  H7  UNL     1       4.632   0.901   0.664  1.00  0.00     0.183 HD
HETATM   17  C8  UNL     1       1.870  -0.856   0.993  1.00  0.00     0.067 A 
BRANCH  12  18
HETATM   18  N1  UNL     1       3.318   2.341  -0.858  1.00  0.00    -0.234 N 
ATOM     19  H12 UNL     1       2.694   2.870  -1.467  1.00  0.00     0.174 HD
ATOM     20  H11 UNL     1       4.291   2.615  -0.720  1.00  0.00     0.174 HD
ENDBRANCH  12  18
ENDBRANCH   1  10
BRANCH   3  21
HETATM   21  C5  UNL     1      -3.698   1.061   0.097  1.00  0.00     0.271 C 
HETATM   22  N4  UNL     1      -3.373   2.397   0.449  1.00  0.00    -0.057 NA
HETATM   23  O1  UNL     1      -4.894   0.735  -0.076  1.00  0.00    -0.271 OA
ENDBRANCH   3  21
TORSDOF 3
