REMARK  2 active torsions:
REMARK  status: ('A' for Active; 'I' for Inactive)
REMARK    1  A    between atoms: O1_2  and  C2_3 
REMARK    2  A    between atoms: C3_4  and  N1_5 
ROOT
HETATM    1  N1  UNL     1       0.461  -0.230  -0.177  1.00  0.00    -0.257 N 
HETATM    2  C4  UNL     1      -0.311   0.877  -0.424  1.00  0.00     0.161 A 
HETATM    3  N2  UNL     1       0.190   2.132  -0.859  1.00  0.00    -0.079 NA
HETATM    4  C5  UNL     1      -1.622   0.548  -0.176  1.00  0.00     0.171 A 
HETATM    5  C6  UNL     1      -2.829   1.241  -0.249  1.00  0.00     0.280 A 
HETATM    6  O2  UNL     1      -2.788   2.443  -0.616  1.00  0.00    -0.265 OA
HETATM    7  N3  UNL     1      -3.995   0.643   0.063  1.00  0.00    -0.297 N 
ATOM      8  H3  UNL     1      -4.869   1.165   0.004  1.00  0.00     0.171 HD
HETATM    9  C7  UNL     1      -4.003  -0.644   0.452  1.00  0.00     0.194 A 
HETATM   10  S1  UNL     1      -5.434  -1.371   0.833  1.00  0.00    -0.039 SA
HETATM   11  N4  UNL     1      -2.842  -1.317   0.524  1.00  0.00    -0.265 N 
ATOM     12  H4  UNL     1      -2.847  -2.293   0.819  1.00  0.00     0.190 HD
HETATM   13  N5  UNL     1      -1.684  -0.732   0.217  1.00  0.00    -0.194 N 
HETATM   14  C8  UNL     1      -0.400  -1.177   0.206  1.00  0.00     0.354 A 
HETATM   15  O3  UNL     1      -0.108  -2.366   0.532  1.00  0.00    -0.244 OA
ENDROOT
BRANCH   1  16
HETATM   16  C3  UNL     1       1.869  -0.249  -0.331  1.00  0.00     0.127 C 
HETATM   17  C2  UNL     1       2.619  -1.295  -0.100  1.00  0.00     0.151 C 
BRANCH  17  18
HETATM   18  O1  UNL     1       4.005  -1.213  -0.281  1.00  0.00    -0.366 OA
HETATM   19  C1  UNL     1       4.667  -0.150   0.371  1.00  0.00     0.209 C 
ENDBRANCH  17  18
ENDBRANCH   1  16
TORSDOF 2
