REMARK  10 active torsions:
REMARK  status: ('A' for Active; 'I' for Inactive)
REMARK    1  A    between atoms: C2_2  and  C3_3 
REMARK    2  A    between atoms: C4_4  and  C5_5 
REMARK    3  A    between atoms: C6_6  and  C8_8 
REMARK    4  A    between atoms: C8_8  and  C9_9 
REMARK    5  A    between atoms: C9_9  and  C10_10 
REMARK    6  A    between atoms: C16_17  and  C17_18 
REMARK    7  A    between atoms: C17_18  and  C18_19 
REMARK    8  A    between atoms: C18_19  and  C19_20 
REMARK    9  A    between atoms: C21_22  and  C22_23 
REMARK   10  A    between atoms: C23_24  and  C24_25 
ROOT
HETATM    1  C1  UNL     1       0.403   0.183  -0.181  1.00  0.00     0.049 C 
HETATM    2  C2  UNL     1       0.249   0.807   1.122  1.00  0.00    -0.054 C 
HETATM    3  C16 UNL     1       1.242   1.054   1.974  1.00  0.00     0.062 C 
ENDROOT
BRANCH   2   4
HETATM    4  C3  UNL     1      -1.073   1.247   1.533  1.00  0.00     0.007 C 
HETATM    5  C4  UNL     1      -2.159   1.073   0.802  1.00  0.00     0.001 C 
BRANCH   5   6
HETATM    6  C5  UNL     1      -3.423   1.555   1.317  1.00  0.00     0.002 C 
HETATM    7  C6  UNL     1      -4.569   1.429   0.679  1.00  0.00    -0.084 C 
HETATM    8  C7  UNL     1      -5.746   2.007   1.400  1.00  0.00     0.043 C 
BRANCH   7   9
HETATM    9  C8  UNL     1      -4.602   0.803  -0.649  1.00  0.00     0.034 C 
BRANCH   9  10
HETATM   10  C9  UNL     1      -5.379  -0.465  -0.692  1.00  0.00     0.016 C 
BRANCH  10  11
HETATM   11  C10 UNL     1      -6.831  -0.320  -0.492  1.00  0.00     0.055 C 
HETATM   12  C11 UNL     1      -7.438   0.542  -1.597  1.00  0.00     0.012 C 
HETATM   13  C12 UNL     1      -8.806  -0.011  -1.926  1.00  0.00     0.001 C 
HETATM   14  C13 UNL     1      -9.567  -0.458  -0.687  1.00  0.00     0.007 C 
HETATM   15  C14 UNL     1      -8.933  -1.708  -0.096  1.00  0.00     0.079 C 
HETATM   16  C15 UNL     1      -7.514  -1.682  -0.531  1.00  0.00     0.131 C 
HETATM   17  O1  UNL     1      -6.893  -2.643  -0.899  1.00  0.00    -0.298 OA
ENDBRANCH  10  11
ENDBRANCH   9  10
ENDBRANCH   7   9
ENDBRANCH   5   6
ENDBRANCH   2   4
BRANCH   3  18
HETATM   18  C17 UNL     1       2.600   0.848   1.945  1.00  0.00    -0.127 C 
BRANCH  18  19
HETATM   19  C18 UNL     1       3.817   0.663   1.920  1.00  0.00     0.062 C 
BRANCH  19  20
HETATM   20  C19 UNL     1       4.671   0.110   0.846  1.00  0.00    -0.055 C 
HETATM   21  C20 UNL     1       4.104  -0.271  -0.443  1.00  0.00     0.049 C 
HETATM   22  C21 UNL     1       5.972   0.022   1.119  1.00  0.00     0.007 C 
BRANCH  22  23
HETATM   23  C22 UNL     1       6.918  -0.499   0.168  1.00  0.00    -0.003 C 
HETATM   24  C23 UNL     1       8.232  -0.562   0.470  1.00  0.00    -0.018 C 
BRANCH  24  25
HETATM   25  C24 UNL     1       9.162  -1.098  -0.525  1.00  0.00    -0.034 C 
HETATM   26  C25 UNL     1       9.757  -2.422  -0.097  1.00  0.00     0.018 C 
HETATM   27  C26 UNL     1      10.305  -0.092  -0.649  1.00  0.00     0.018 C 
HETATM   28  C27 UNL     1       8.463  -1.273  -1.840  1.00  0.00     0.018 C 
ENDBRANCH  24  25
ENDBRANCH  22  23
ENDBRANCH  19  20
ENDBRANCH  18  19
ENDBRANCH   3  18
TORSDOF 10
