REMARK  8 active torsions:
REMARK  status: ('A' for Active; 'I' for Inactive)
REMARK    1  A    between atoms: C4_4  and  C5_5 
REMARK    2  A    between atoms: C5_5  and  C6_6 
REMARK    3  A    between atoms: C6_6  and  C7_7 
REMARK    4  A    between atoms: C7_7  and  C9_9 
REMARK    5  A    between atoms: C10_10  and  C11_11 
REMARK    6  A    between atoms: C13_13  and  C14_14 
REMARK    7  A    between atoms: C15_15  and  C16_16 
REMARK    8  A    between atoms: C22_22  and  C23_23 
ROOT
HETATM    1  C14 UNL     1      -1.924  -0.360  -0.277  1.00  0.00    -0.003 C 
HETATM    2  C15 UNL     1      -3.202  -0.210  -0.594  1.00  0.00    -0.014 C 
ENDROOT
BRANCH   1   3
HETATM    3  C13 UNL     1      -0.914  -0.562  -1.263  1.00  0.00     0.006 C 
HETATM    4  C11 UNL     1       0.397  -0.721  -1.010  1.00  0.00    -0.062 C 
HETATM    5  C12 UNL     1       0.864  -0.690   0.379  1.00  0.00     0.048 C 
BRANCH   4   6
HETATM    6  C10 UNL     1       1.313  -0.917  -2.106  1.00  0.00     0.003 C 
HETATM    7  C9  UNL     1       2.576  -1.093  -2.198  1.00  0.00    -0.022 C 
BRANCH   7   8
HETATM    8  C7  UNL     1       3.677  -1.178  -1.250  1.00  0.00     0.004 C 
HETATM    9  C8  UNL     1       4.329  -2.562  -1.414  1.00  0.00     0.014 C 
BRANCH   8  10
HETATM   10  C6  UNL     1       4.753  -0.129  -1.521  1.00  0.00     0.012 C 
BRANCH  10  11
HETATM   11  C5  UNL     1       5.851  -0.379  -0.479  1.00  0.00     0.028 C 
BRANCH  11  12
HETATM   12  C4  UNL     1       6.954   0.617  -0.678  1.00  0.00    -0.025 C 
HETATM   13  C2  UNL     1       7.306   1.467   0.277  1.00  0.00    -0.091 C 
HETATM   14  C1  UNL     1       6.591   1.440   1.588  1.00  0.00     0.042 C 
HETATM   15  C3  UNL     1       8.403   2.426   0.019  1.00  0.00     0.042 C 
ENDBRANCH  11  12
ENDBRANCH  10  11
ENDBRANCH   8  10
ENDBRANCH   7   8
ENDBRANCH   4   6
ENDBRANCH   1   3
BRANCH   2  16
HETATM   16  C16 UNL     1      -4.307   0.001   0.337  1.00  0.00     0.018 A 
HETATM   17  C17 UNL     1      -4.716  -1.089   1.301  1.00  0.00    -0.017 A 
HETATM   18  C18 UNL     1      -3.567  -1.914   1.799  1.00  0.00     0.020 C 
HETATM   19  C19 UNL     1      -5.722  -2.045   0.693  1.00  0.00     0.020 C 
HETATM   20  C20 UNL     1      -5.304  -0.391   2.478  1.00  0.00    -0.019 A 
HETATM   21  C21 UNL     1      -5.239   0.906   2.354  1.00  0.00    -0.007 A 
HETATM   22  C22 UNL     1      -4.589   1.244   1.058  1.00  0.00     0.086 A 
HETATM   23  C24 UNL     1      -5.366   0.918  -0.156  1.00  0.00    -0.012 A 
HETATM   24  C25 UNL     1      -6.821   0.637  -0.054  1.00  0.00     0.018 C 
HETATM   25  C26 UNL     1      -5.003   1.800  -1.362  1.00  0.00     0.018 C 
BRANCH  22  26
HETATM   26  C23 UNL     1      -3.703   2.402   1.128  1.00  0.00     0.187 C 
HETATM   27  O1  UNL     1      -4.047   3.518   0.672  1.00  0.00    -0.647 OA
HETATM   28  O2  UNL     1      -2.452   2.288   1.706  1.00  0.00    -0.647 OA
ENDBRANCH  22  26
ENDBRANCH   2  16
TORSDOF 8
