REMARK  10 active torsions:
REMARK  status: ('A' for Active; 'I' for Inactive)
REMARK    1  A    between atoms: C2_2  and  C3_3 
REMARK    2  A    between atoms: C6_6  and  C7_7 
REMARK    3  A    between atoms: C8_8  and  C9_9 
REMARK    4  A    between atoms: C11_11  and  C12_12 
REMARK    5  A    between atoms: C13_13  and  C15_15 
REMARK    6  A    between atoms: C15_15  and  C16_16 
REMARK    7  A    between atoms: C16_16  and  C17_17 
REMARK    8  A    between atoms: C17_17  and  C18_18 
REMARK    9  A    between atoms: C18_18  and  C20_20 
REMARK   10  A    between atoms: C25_25  and  C27_27 
ROOT
HETATM    1  C7  UNL     1      -2.585   1.190  -0.728  1.00  0.00    -0.018 C 
HETATM    2  C8  UNL     1      -1.573   0.563  -0.236  1.00  0.00     0.003 C 
ENDROOT
BRANCH   2   3
HETATM    3  C9  UNL     1      -0.227   0.687  -0.871  1.00  0.00    -0.062 C 
HETATM    4  C10 UNL     1      -0.144   1.583  -2.027  1.00  0.00     0.048 C 
HETATM    5  C11 UNL     1       0.743  -0.003  -0.362  1.00  0.00     0.007 C 
BRANCH   5   6
HETATM    6  C12 UNL     1       2.156  -0.059  -0.778  1.00  0.00     0.007 C 
HETATM    7  C13 UNL     1       3.222  -0.140  -0.024  1.00  0.00    -0.062 C 
HETATM    8  C14 UNL     1       2.249   0.030   1.571  1.00  0.00     0.048 C 
BRANCH   7   9
HETATM    9  C15 UNL     1       4.341  -0.226   0.769  1.00  0.00     0.007 C 
BRANCH   9  10
HETATM   10  C16 UNL     1       5.642  -0.198   0.047  1.00  0.00     0.001 C 
BRANCH  10  11
HETATM   11  C17 UNL     1       6.752  -0.245   0.738  1.00  0.00     0.007 C 
BRANCH  11  12
HETATM   12  C18 UNL     1       8.051  -0.212   0.081  1.00  0.00    -0.060 C 
HETATM   13  C19 UNL     1       8.225  -0.147  -1.398  1.00  0.00     0.048 C 
BRANCH  12  14
HETATM   14  C20 UNL     1       9.155  -0.244   0.847  1.00  0.00    -0.082 C 
HETATM   15  C21 UNL     1       8.985  -0.315   2.319  1.00  0.00     0.043 C 
HETATM   16  C22 UNL     1      10.506  -0.183   0.279  1.00  0.00     0.043 C 
ENDBRANCH  12  14
ENDBRANCH  11  12
ENDBRANCH  10  11
ENDBRANCH   9  10
ENDBRANCH   7   9
ENDBRANCH   5   6
ENDBRANCH   2   3
BRANCH   1  17
HETATM   17  C6  UNL     1      -3.943   1.101  -0.109  1.00  0.00     0.031 C 
HETATM   18  C5  UNL     1      -4.725   0.249  -1.112  1.00  0.00     0.027 C 
HETATM   19  C3  UNL     1      -6.090  -0.156  -0.636  1.00  0.00    -0.005 C 
HETATM   20  C4  UNL     1      -7.071   0.706  -1.414  1.00  0.00     0.021 C 
HETATM   21  C25 UNL     1      -6.322  -0.195   0.839  1.00  0.00     0.073 C 
HETATM   22  C24 UNL     1      -5.018  -0.283   1.564  1.00  0.00    -0.009 C 
HETATM   23  C26 UNL     1      -6.972  -1.597   1.181  1.00  0.00     0.032 C 
HETATM   24  C23 UNL     1      -3.939   0.314   1.124  1.00  0.00    -0.021 C 
BRANCH  19  25
HETATM   25  C2  UNL     1      -6.261  -1.565  -1.158  1.00  0.00    -0.026 C 
HETATM   26  C1  UNL     1      -6.951  -1.836  -2.212  1.00  0.00     0.008 C 
ENDBRANCH  19  25
BRANCH  21  27
HETATM   27  C27 UNL     1      -7.137   0.772   1.435  1.00  0.00     0.186 C 
HETATM   28  O1  UNL     1      -7.437   1.651   2.235  1.00  0.00    -0.647 OA
HETATM   29  O2  UNL     1      -8.535   0.750   0.655  1.00  0.00    -0.647 OA
ENDBRANCH  21  27
ENDBRANCH   1  17
TORSDOF 10
