REMARK  3 active torsions:
REMARK  status: ('A' for Active; 'I' for Inactive)
REMARK    1  A    between atoms: C2_9  and  S1_10 
REMARK    2  A    between atoms: S1_10  and  C3_11 
REMARK    3  A    between atoms: C6_15  and  C7_16 
ROOT
HETATM    1  C7  UNL     1       1.715  -0.642   1.164  1.00  0.00    -0.067 C 
HETATM    2  C8  UNL     1       1.269   0.146   2.341  1.00  0.00     0.035 C 
HETATM    3  C9  UNL     1      -0.223   0.222   2.470  1.00  0.00     0.010 C 
HETATM    4  C10 UNL     1      -0.950   0.310   1.132  1.00  0.00    -0.004 C 
HETATM    5  C11 UNL     1      -0.439  -0.641   0.108  1.00  0.00    -0.005 C 
HETATM    6  C12 UNL     1       1.082  -0.347  -0.091  1.00  0.00     0.040 C 
HETATM    7  C13 UNL     1      -1.216  -0.643  -1.130  1.00  0.00     0.015 C 
HETATM    8  C14 UNL     1      -2.653  -1.090  -0.961  1.00  0.00    -0.038 C 
HETATM    9  C15 UNL     1      -3.143  -1.831  -2.195  1.00  0.00     0.015 C 
HETATM   10  C16 UNL     1      -2.866  -2.049   0.190  1.00  0.00     0.010 C 
HETATM   11  C17 UNL     1      -2.758  -1.375   1.537  1.00  0.00     0.008 C 
HETATM   12  C18 UNL     1      -2.411   0.079   1.416  1.00  0.00     0.021 C 
HETATM   13  C19 UNL     1      -3.336   0.844   0.497  1.00  0.00     0.195 C 
HETATM   14  N5  UNL     1      -2.716   2.114   0.226  1.00  0.00    -0.070 N 
ATOM     15  H51 UNL     1      -1.763   1.986  -0.115  1.00  0.00     0.277 HD
ATOM     16  H52 UNL     1      -2.519   2.613   1.094  1.00  0.00     0.277 HD
HETATM   17  C20 UNL     1      -3.473   2.940  -0.676  1.00  0.00     0.232 C 
HETATM   18  C21 UNL     1      -4.469   2.196  -1.509  1.00  0.00     0.028 C 
HETATM   19  C22 UNL     1      -3.746   0.926  -1.986  1.00  0.00     0.009 C 
HETATM   20  C23 UNL     1      -3.607   0.056  -0.763  1.00  0.00     0.025 C 
ENDROOT
BRANCH   1  21
HETATM   21  C6  UNL     1       3.118  -1.181   1.223  1.00  0.00    -0.009 A 
HETATM   22  C3  UNL     1       4.048  -0.929   0.250  1.00  0.00     0.059 A 
HETATM   23  S2  UNL     1       5.321  -1.973   0.626  1.00  0.00    -0.094 SA
HETATM   24  C4  UNL     1       4.720  -2.732   1.999  1.00  0.00     0.052 A 
HETATM   25  C5  UNL     1       3.468  -2.137   2.143  1.00  0.00     0.021 A 
BRANCH  22  26
HETATM   26  S1  UNL     1       3.993   0.276  -1.127  1.00  0.00    -0.043 SA
BRANCH  26  27
HETATM   27  C2  UNL     1       5.227   1.518  -0.718  1.00  0.00     0.183 A 
HETATM   28  N1  UNL     1       6.499   1.495  -1.308  1.00  0.00    -0.258 N 
HETATM   29  C1  UNL     1       6.903   0.560  -2.360  1.00  0.00     0.181 C 
HETATM   30  N2  UNL     1       7.200   2.454  -0.780  1.00  0.00    -0.224 N 
HETATM   31  N3  UNL     1       6.475   3.084   0.100  1.00  0.00    -0.226 N 
ATOM     32  H2  UNL     1       8.166   2.678  -1.018  1.00  0.00     0.210 HD
HETATM   33  N4  UNL     1       5.264   2.504   0.129  1.00  0.00    -0.263 N 
ATOM     34  H3  UNL     1       6.774   3.877   0.667  1.00  0.00     0.210 HD
ATOM     35  H4  UNL     1       4.489   2.794   0.726  1.00  0.00     0.190 HD
ENDBRANCH  26  27
ENDBRANCH  22  26
ENDBRANCH   1  21
TORSDOF 3
