REMARK  7 active torsions:
REMARK  status: ('A' for Active; 'I' for Inactive)
REMARK    1  A    between atoms: C2_2  and  O1_4 
REMARK    2  A    between atoms: O1_4  and  C4_5 
REMARK    3  A    between atoms: C8_9  and  C9_10 
REMARK    4  A    between atoms: C11_12  and  C18_22 
REMARK    5  A    between atoms: C13_14  and  C14_15 
REMARK    6  A    between atoms: C16_18  and  O3_19 
REMARK    7  A    between atoms: C18_22  and  C25_32 
ROOT
HETATM    1  C18 UNL     1       0.370  -0.057  -1.022  1.00  0.00     0.210 C 
HETATM    2  O4  UNL     1       0.797   0.621  -2.131  1.00  0.00    -0.197 OA
HETATM    3  O5  UNL     1       2.066   0.896  -1.994  1.00  0.00    -0.197 OA
HETATM    4  C19 UNL     1       2.579   0.201  -0.928  1.00  0.00     0.200 C 
HETATM    5  C20 UNL     1       3.278  -1.062  -1.338  1.00  0.00     0.071 C 
HETATM    6  C21 UNL     1       4.780  -0.962  -1.121  1.00  0.00     0.006 C 
HETATM    7  C22 UNL     1       5.132  -0.778   0.331  1.00  0.00     0.000 C 
HETATM    8  C23 UNL     1       4.101   0.124   1.008  1.00  0.00     0.006 C 
HETATM    9  C24 UNL     1       3.510   1.006  -0.073  1.00  0.00     0.071 C 
HETATM   10  O6  UNL     1       1.462  -0.118  -0.164  1.00  0.00    -0.312 OA
ENDROOT
BRANCH   1  11
HETATM   11  C11 UNL     1       0.042  -1.475  -1.408  1.00  0.00     0.053 C 
HETATM   12  C10 UNL     1      -1.252  -1.592  -2.167  1.00  0.00     0.016 C 
HETATM   13  C9  UNL     1      -2.237  -1.268  -1.029  1.00  0.00    -0.001 C 
HETATM   14  C13 UNL     1      -1.667  -2.026   0.126  1.00  0.00     0.025 C 
HETATM   15  C12 UNL     1      -0.233  -2.349  -0.205  1.00  0.00     0.020 C 
BRANCH  13  16
HETATM   16  C8  UNL     1      -2.114   0.235  -0.902  1.00  0.00     0.002 C 
HETATM   17  C7  UNL     1      -3.205   0.880  -0.100  1.00  0.00     0.006 C 
HETATM   18  C6  UNL     1      -3.192   2.342  -0.526  1.00  0.00     0.003 C 
HETATM   19  C5  UNL     1      -1.886   2.712  -1.195  1.00  0.00     0.032 C 
HETATM   20  C4  UNL     1      -0.690   2.164  -0.440  1.00  0.00     0.131 C 
HETATM   21  C25 UNL     1      -0.784   0.665  -0.382  1.00  0.00     0.085 C 
BRANCH  20  22
HETATM   22  O1  UNL     1      -0.750   2.682   0.825  1.00  0.00    -0.381 OA
BRANCH  22  23
HETATM   23  C2  UNL     1       0.273   3.379   1.332  1.00  0.00     0.113 C 
HETATM   24  C1  UNL     1       0.022   4.769   1.802  1.00  0.00     0.039 C 
HETATM   25  C3  UNL     1       0.841   2.604   2.516  1.00  0.00     0.039 C 
ENDBRANCH  22  23
ENDBRANCH  20  22
ENDBRANCH  13  16
BRANCH  14  26
HETATM   26  C14 UNL     1      -2.485  -3.247   0.408  1.00  0.00    -0.026 A 
HETATM   27  C15 UNL     1      -2.745  -4.329  -0.396  1.00  0.00     0.152 A 
HETATM   28  O2  UNL     1      -3.525  -5.187   0.261  1.00  0.00    -0.300 OA
HETATM   29  C16 UNL     1      -3.795  -4.729   1.456  1.00  0.00     0.183 A 
HETATM   30  C17 UNL     1      -3.155  -3.502   1.589  1.00  0.00     0.073 A 
BRANCH  29  31
HETATM   31  O3  UNL     1      -4.584  -5.362   2.421  1.00  0.00    -0.341 OA
ATOM     32  H3  UNL     1      -4.780  -5.029   3.289  1.00  0.00     0.220 HD
ENDBRANCH  29  31
ENDBRANCH  14  26
ENDBRANCH   1  11
TORSDOF 7
