REMARK  3 active torsions:
REMARK  status: ('A' for Active; 'I' for Inactive)
REMARK    1  A    between atoms: C4_4  and  C5_5 
REMARK    2  A    between atoms: C6_6  and  C7_7 
REMARK    3  A    between atoms: C8_8  and  C9_9 
ROOT
HETATM    1  C9  UNL     1      -0.743  -1.135   0.416  1.00  0.00     0.153 C 
HETATM    2  O1  UNL     1      -1.858  -0.943   1.233  1.00  0.00    -0.368 OA
HETATM    3  C10 UNL     1      -2.393   0.307   1.183  1.00  0.00     0.083 C 
HETATM    4  C11 UNL     1      -1.374   1.425   1.154  1.00  0.00     0.048 C 
HETATM    5  C12 UNL     1      -3.199   0.509   2.473  1.00  0.00     0.048 C 
HETATM    6  C13 UNL     1      -3.340   0.539   0.029  1.00  0.00     0.191 C 
HETATM    7  O2  UNL     1      -4.255   1.487   0.416  1.00  0.00    -0.342 OA
HETATM    8  C14 UNL     1      -5.274   1.713  -0.473  1.00  0.00     0.190 C 
HETATM    9  C15 UNL     1      -6.287   2.616   0.194  1.00  0.00     0.081 C 
HETATM   10  C16 UNL     1      -4.744   2.368  -1.730  1.00  0.00     0.081 C 
HETATM   11  O3  UNL     1      -5.888   0.493  -0.746  1.00  0.00    -0.201 OA
HETATM   12  O4  UNL     1      -5.038  -0.330  -1.321  1.00  0.00    -0.230 OA
HETATM   13  C17 UNL     1      -4.011  -0.701  -0.453  1.00  0.00     0.192 C 
HETATM   14  C18 UNL     1      -3.062  -1.575  -1.284  1.00  0.00     0.038 C 
HETATM   15  C19 UNL     1      -2.449  -2.658  -0.460  1.00  0.00     0.014 C 
HETATM   16  C20 UNL     1      -0.960  -2.478  -0.252  1.00  0.00    -0.018 C 
HETATM   17  C21 UNL     1      -0.537  -3.534   0.758  1.00  0.00     0.018 C 
HETATM   18  C22 UNL     1      -0.185  -2.673  -1.509  1.00  0.00     0.018 C 
ENDROOT
BRANCH   1  19
HETATM   19  C8  UNL     1       0.414  -1.283   1.354  1.00  0.00     0.006 C 
HETATM   20  C7  UNL     1       1.633  -0.858   1.119  1.00  0.00    -0.002 C 
BRANCH  20  21
HETATM   21  C6  UNL     1       2.082  -0.177  -0.075  1.00  0.00    -0.003 C 
HETATM   22  C5  UNL     1       3.282   0.243  -0.312  1.00  0.00    -0.016 C 
BRANCH  22  23
HETATM   23  C4  UNL     1       4.466   0.122   0.585  1.00  0.00     0.060 C 
HETATM   24  C3  UNL     1       5.042   1.450   0.902  1.00  0.00    -0.005 C 
HETATM   25  C2  UNL     1       5.912   2.019   0.096  1.00  0.00    -0.015 C 
HETATM   26  C1  UNL     1       6.520   3.364   0.377  1.00  0.00     0.052 C 
HETATM   27  C25 UNL     1       6.340   1.337  -1.135  1.00  0.00     0.141 C 
HETATM   28  O5  UNL     1       5.774   0.073  -1.382  1.00  0.00    -0.330 OA
HETATM   29  N1  UNL     1       7.182   1.899  -1.908  1.00  0.00    -0.380 N 
HETATM   30  C23 UNL     1       5.484  -0.690  -0.218  1.00  0.00     0.137 C 
HETATM   31  C24 UNL     1       4.777  -1.983  -0.579  1.00  0.00     0.041 C 
ATOM     32  H12 UNL     1       7.592   2.815  -1.729  1.00  0.00     0.158 HD
ATOM     33  H11 UNL     1       7.479   1.426  -2.762  1.00  0.00     0.158 HD
ENDBRANCH  22  23
ENDBRANCH  20  21
ENDBRANCH   1  19
TORSDOF 3
