REMARK  4 active torsions:
REMARK  status: ('A' for Active; 'I' for Inactive)
REMARK    1  A    between atoms: C11_13  and  C12_14 
REMARK    2  A    between atoms: C20_23  and  C21_24 
REMARK    3  A    between atoms: C21_24  and  C22_29 
REMARK    4  A    between atoms: N1_25  and  O4_27 
ROOT
HETATM    1  C22 UNL     1      -1.278   2.630  -0.260  1.00  0.00     0.083 C 
HETATM    2  C23 UNL     1      -2.785   2.833  -0.278  1.00  0.00     0.037 C 
HETATM    3  C24 UNL     1      -0.965   2.856  -1.727  1.00  0.00     0.037 C 
HETATM    4  C25 UNL     1      -0.727   3.845   0.362  1.00  0.00     0.074 C 
HETATM    5  N2  UNL     1      -0.290   4.846   0.834  1.00  0.00    -0.196 NA
ENDROOT
BRANCH   1   6
HETATM    6  C21 UNL     1      -0.845   1.457   0.388  1.00  0.00     0.041 C 
HETATM    7  N1  UNL     1      -0.579   1.634   1.620  1.00  0.00    -0.275 N 
ATOM      8  H1  UNL     1      -0.321   0.740   2.038  1.00  0.00     0.193 HD
BRANCH   6   9
HETATM    9  C20 UNL     1      -0.682   0.005   0.012  1.00  0.00     0.011 C 
HETATM   10  C7  UNL     1      -0.020  -0.852   1.030  1.00  0.00    -0.018 C 
HETATM   11  C6  UNL     1      -0.320  -2.303   0.539  1.00  0.00     0.011 C 
HETATM   12  C8  UNL     1      -0.511  -0.921   2.417  1.00  0.00     0.017 C 
HETATM   13  C9  UNL     1       1.478  -0.786   1.163  1.00  0.00     0.105 C 
HETATM   14  C5  UNL     1      -1.529  -2.933   1.125  1.00  0.00     0.002 C 
HETATM   15  C4  UNL     1      -2.778  -2.698   0.318  1.00  0.00     0.009 C 
HETATM   16  C2  UNL     1      -2.989  -1.277  -0.117  1.00  0.00    -0.047 C 
HETATM   17  C1  UNL     1      -3.897  -1.484  -1.399  1.00  0.00     0.015 C 
HETATM   18  C3  UNL     1      -4.059  -0.607   0.723  1.00  0.00     0.015 C 
HETATM   19  C26 UNL     1      -1.893  -0.524  -0.654  1.00  0.00     0.025 C 
HETATM   20  C10 UNL     1       2.110   0.059   2.142  1.00  0.00     0.265 C 
HETATM   21  C16 UNL     1       2.296  -0.589  -0.054  1.00  0.00     0.001 C 
HETATM   22  O1  UNL     1       2.089   0.333   3.368  1.00  0.00    -0.265 OA
HETATM   23  O2  UNL     1       3.089   0.831   1.445  1.00  0.00    -0.310 OA
HETATM   24  C11 UNL     1       3.620  -0.070   0.445  1.00  0.00     0.175 C 
HETATM   25  C17 UNL     1       2.640  -1.800  -0.835  1.00  0.00     0.019 C 
HETATM   26  C18 UNL     1       1.658   0.510  -0.820  1.00  0.00     0.014 C 
HETATM   27  C19 UNL     1       0.310   0.004  -1.186  1.00  0.00     0.017 C 
BRANCH  24  28
HETATM   28  C12 UNL     1       4.470   0.612  -0.504  1.00  0.00    -0.004 A 
HETATM   29  C13 UNL     1       5.659   0.075  -1.016  1.00  0.00     0.036 A 
HETATM   30  C14 UNL     1       6.207   1.003  -1.865  1.00  0.00     0.142 A 
HETATM   31  O3  UNL     1       5.415   2.048  -1.882  1.00  0.00    -0.334 OA
HETATM   32  C15 UNL     1       4.386   1.852  -1.094  1.00  0.00     0.151 A 
ENDBRANCH  24  28
ENDBRANCH   6   9
BRANCH   7  33
HETATM   33  O4  UNL     1      -0.523   2.552   2.521  1.00  0.00    -0.290 OA
ATOM     34  H4  UNL     1      -0.324   2.684   3.441  1.00  0.00     0.244 HD
ENDBRANCH   7  33
ENDBRANCH   1   6
TORSDOF 4
