REMARK  5 active torsions:
REMARK  status: ('A' for Active; 'I' for Inactive)
REMARK    1  A    between atoms: C2_2  and  C4_5 
REMARK    2  A    between atoms: C16_19  and  O3_20 
REMARK    3  A    between atoms: O3_20  and  C17_21 
REMARK    4  A    between atoms: C21_25  and  C22_26 
REMARK    5  A    between atoms: C22_26  and  O4_29 
ROOT
HETATM    1  C1  UNL     1      -0.292   3.871   0.667  1.00  0.00     0.026 C 
HETATM    2  C2  UNL     1      -0.812   2.790  -0.311  1.00  0.00     0.095 C 
HETATM    3  C3  UNL     1      -0.155   3.006  -1.554  1.00  0.00     0.064 C 
HETATM    4  N1  UNL     1       0.387   3.161  -2.556  1.00  0.00    -0.197 NA
ENDROOT
BRANCH   2   5
HETATM    5  C4  UNL     1      -0.647   1.502   0.387  1.00  0.00     0.033 C 
HETATM    6  C5  UNL     1      -1.507   1.586   1.650  1.00  0.00     0.009 C 
HETATM    7  C6  UNL     1      -2.914   1.135   1.429  1.00  0.00     0.013 C 
HETATM    8  C7  UNL     1      -3.144   0.078   0.428  1.00  0.00    -0.002 C 
HETATM    9  C8  UNL     1      -3.697   0.713  -0.854  1.00  0.00     0.019 C 
HETATM   10  C9  UNL     1      -4.268  -0.798   0.910  1.00  0.00     0.206 C 
HETATM   11  C14 UNL     1      -1.904  -0.684   0.140  1.00  0.00    -0.007 C 
HETATM   12  O1  UNL     1      -4.036  -1.868   1.704  1.00  0.00    -0.231 OA
HETATM   13  C10 UNL     1      -4.616  -1.873  -0.047  1.00  0.00     0.122 C 
HETATM   14  O2  UNL     1      -4.511  -2.835   0.988  1.00  0.00    -0.227 OA
HETATM   15  C11 UNL     1      -6.035  -1.901  -0.552  1.00  0.00     0.052 C 
HETATM   16  C12 UNL     1      -3.617  -2.146  -1.102  1.00  0.00     0.044 C 
HETATM   17  C13 UNL     1      -2.212  -1.756  -0.866  1.00  0.00     0.016 C 
HETATM   18  C15 UNL     1      -1.441  -1.369   1.410  1.00  0.00     0.019 C 
HETATM   19  C16 UNL     1      -0.735   0.200  -0.326  1.00  0.00     0.137 C 
BRANCH  19  20
HETATM   20  O3  UNL     1       0.357  -0.549  -0.075  1.00  0.00    -0.374 OA
BRANCH  20  21
HETATM   21  C17 UNL     1       1.309  -1.010  -0.803  1.00  0.00     0.058 C 
HETATM   22  C18 UNL     1       1.124  -1.922  -1.975  1.00  0.00     0.046 C 
HETATM   23  C19 UNL     1       2.266   0.090  -1.282  1.00  0.00     0.038 C 
HETATM   24  C20 UNL     1       3.704  -0.361  -1.291  1.00  0.00     0.010 C 
HETATM   25  C21 UNL     1       4.271  -0.568   0.083  1.00  0.00     0.019 C 
HETATM   26  C25 UNL     1       3.095  -0.927   0.978  1.00  0.00     0.010 C 
HETATM   27  C26 UNL     1       2.235  -1.851   0.133  1.00  0.00     0.038 C 
BRANCH  25  28
HETATM   28  C22 UNL     1       5.100   0.559   0.599  1.00  0.00     0.054 C 
HETATM   29  C23 UNL     1       4.385   1.864   0.709  1.00  0.00     0.045 C 
HETATM   30  C24 UNL     1       6.317   0.676  -0.301  1.00  0.00     0.045 C 
BRANCH  28  31
HETATM   31  O4  UNL     1       5.576   0.209   1.863  1.00  0.00    -0.390 OA
ATOM     32  H4  UNL     1       6.104   0.927   2.192  1.00  0.00     0.210 HD
ENDBRANCH  28  31
ENDBRANCH  25  28
ENDBRANCH  20  21
ENDBRANCH  19  20
ENDBRANCH   2   5
TORSDOF 5
