REMARK  7 active torsions:
REMARK  status: ('A' for Active; 'I' for Inactive)
REMARK    1  A    between atoms: C4_4  and  C5_5 
REMARK    2  A    between atoms: C5_5  and  C6_6 
REMARK    3  A    between atoms: C6_6  and  C7_7 
REMARK    4  A    between atoms: C9_9  and  C10_10 
REMARK    5  A    between atoms: C11_11  and  C12_12 
REMARK    6  A    between atoms: C22_22  and  O1_23 
REMARK    7  A    between atoms: C25_27  and  N1_28 
ROOT
HETATM    1  C12 UNL     1      -0.980  -0.305   0.231  1.00  0.00     0.011 C 
HETATM    2  C13 UNL     1      -0.118   0.046  -0.925  1.00  0.00     0.022 C 
HETATM    3  C14 UNL     1      -2.177   0.703   0.152  1.00  0.00     0.236 C 
HETATM    4  C15 UNL     1      -2.955   0.570  -1.083  1.00  0.00     0.051 C 
HETATM    5  C16 UNL     1      -3.702  -0.719  -1.002  1.00  0.00     0.023 C 
HETATM    6  C17 UNL     1      -4.670  -0.608   0.155  1.00  0.00     0.050 C 
HETATM    7  C18 UNL     1      -3.890  -0.409   1.431  1.00  0.00     0.224 C 
HETATM    8  C19 UNL     1      -3.407  -1.710   1.981  1.00  0.00     0.036 C 
HETATM    9  C20 UNL     1      -2.117  -2.205   1.465  1.00  0.00     0.011 C 
HETATM   10  C21 UNL     1      -1.652  -1.651   0.138  1.00  0.00     0.035 C 
HETATM   11  C22 UNL     1      -2.738  -1.843  -0.830  1.00  0.00     0.072 C 
HETATM   12  C23 UNL     1      -2.426  -2.310  -2.201  1.00  0.00     0.041 C 
HETATM   13  C24 UNL     1      -3.294  -1.478  -3.161  1.00  0.00     0.036 C 
HETATM   14  C25 UNL     1      -4.452  -1.051  -2.254  1.00  0.00     0.195 C 
HETATM   15  N2  UNL     1      -2.879   0.603   1.358  1.00  0.00     0.094 N 
HETATM   16  C26 UNL     1      -3.466   1.909   1.669  1.00  0.00     0.310 C 
ENDROOT
BRANCH   1  17
HETATM   17  C11 UNL     1      -0.381   0.049   1.523  1.00  0.00    -0.015 C 
HETATM   18  C10 UNL     1       0.863  -0.357   2.088  1.00  0.00    -0.003 C 
BRANCH  18  19
HETATM   19  C9  UNL     1       2.218  -0.070   1.841  1.00  0.00     0.002 C 
HETATM   20  C7  UNL     1       2.877   0.845   1.244  1.00  0.00    -0.084 C 
HETATM   21  C8  UNL     1       2.429   2.097   0.598  1.00  0.00     0.043 C 
BRANCH  20  22
HETATM   22  C6  UNL     1       4.409   0.719   1.232  1.00  0.00     0.037 C 
BRANCH  22  23
HETATM   23  C5  UNL     1       4.943   0.640  -0.165  1.00  0.00     0.031 C 
BRANCH  23  24
HETATM   24  C4  UNL     1       6.431   0.521  -0.039  1.00  0.00    -0.024 C 
HETATM   25  C2  UNL     1       7.289   1.363  -0.552  1.00  0.00    -0.091 C 
HETATM   26  C1  UNL     1       6.810   2.530  -1.320  1.00  0.00     0.042 C 
HETATM   27  C3  UNL     1       8.760   1.137  -0.351  1.00  0.00     0.042 C 
ENDBRANCH  23  24
ENDBRANCH  22  23
ENDBRANCH  20  22
ENDBRANCH  18  19
ENDBRANCH   1  17
BRANCH  11  28
HETATM   28  O1  UNL     1      -3.552  -2.908  -0.304  1.00  0.00    -0.389 OA
ATOM     29  H1  UNL     1      -2.938  -3.624  -0.194  1.00  0.00     0.210 HD
ENDBRANCH  11  28
BRANCH  14  30
HETATM   30  N1  UNL     1      -5.204   0.044  -2.789  1.00  0.00    -0.074 N 
ATOM     31  H13 UNL     1      -5.835   0.424  -2.083  1.00  0.00     0.274 HD
ATOM     32  H12 UNL     1      -4.602   0.854  -2.936  1.00  0.00     0.274 HD
ATOM     33  H11 UNL     1      -5.715  -0.182  -3.642  1.00  0.00     0.274 HD
ENDBRANCH  14  30
TORSDOF 7
