REMARK  8 active torsions:
REMARK  status: ('A' for Active; 'I' for Inactive)
REMARK    1  A    between atoms: C7_7  and  O1_9 
REMARK    2  A    between atoms: C14_16  and  C15_17 
REMARK    3  A    between atoms: C15_17  and  C17_19 
REMARK    4  A    between atoms: C17_19  and  C18_20 
REMARK    5  A    between atoms: C18_20  and  C19_21 
REMARK    6  A    between atoms: C19_21  and  O2_22 
REMARK    7  A    between atoms: C20_24  and  C21_25 
REMARK    8  A    between atoms: C21_25  and  N1_26 
ROOT
HETATM    1  C1  UNL     1      -1.936  -0.518   3.728  1.00  0.00     0.036 C 
HETATM    2  C2  UNL     1      -1.679  -0.022   2.348  1.00  0.00    -0.024 C 
HETATM    3  C3  UNL     1      -2.326  -0.536   1.315  1.00  0.00    -0.059 C 
HETATM    4  C4  UNL     1      -3.332  -1.631   1.540  1.00  0.00     0.039 C 
HETATM    5  C5  UNL     1      -4.641  -1.284   0.860  1.00  0.00     0.013 C 
HETATM    6  C6  UNL     1      -4.462   0.083   0.188  1.00  0.00     0.032 C 
HETATM    7  C7  UNL     1      -5.737   0.690  -0.226  1.00  0.00     0.059 C 
HETATM    8  C8  UNL     1      -6.120   1.867   0.690  1.00  0.00     0.046 C 
HETATM    9  C9  UNL     1      -5.880   1.160  -1.625  1.00  0.00     0.038 C 
HETATM   10  C10 UNL     1      -4.640   1.644  -2.293  1.00  0.00     0.004 C 
HETATM   11  C11 UNL     1      -3.392   1.443  -1.495  1.00  0.00     0.014 C 
HETATM   12  C12 UNL     1      -3.342   0.062  -0.817  1.00  0.00    -0.013 C 
HETATM   13  C13 UNL     1      -3.522  -1.000  -1.865  1.00  0.00     0.021 C 
HETATM   14  C14 UNL     1      -2.065  -0.017  -0.044  1.00  0.00    -0.061 C 
ENDROOT
BRANCH  14  15
HETATM   15  C15 UNL     1      -0.866  -0.541  -0.732  1.00  0.00     0.012 C 
HETATM   16  C16 UNL     1      -0.789  -2.025  -0.925  1.00  0.00     0.015 C 
BRANCH  15  17
HETATM   17  C17 UNL     1       0.424  -0.042  -0.121  1.00  0.00     0.015 C 
BRANCH  17  18
HETATM   18  C18 UNL     1       1.659  -0.543  -0.831  1.00  0.00     0.065 C 
BRANCH  18  19
HETATM   19  C19 UNL     1       2.827   0.048  -0.111  1.00  0.00     0.041 C 
HETATM   20  C20 UNL     1       3.753  -0.682   0.472  1.00  0.00     0.035 C 
BRANCH  19  21
HETATM   21  O2  UNL     1       2.973   1.446  -0.033  1.00  0.00    -0.365 OA
ATOM     22  H2  UNL     1       3.716   1.822   0.425  1.00  0.00     0.217 HD
ENDBRANCH  19  21
BRANCH  20  23
HETATM   23  C21 UNL     1       4.902  -0.101   1.181  1.00  0.00     0.302 C 
BRANCH  23  24
HETATM   24  N1  UNL     1       6.136  -0.542   0.567  1.00  0.00     0.091 N 
HETATM   25  C22 UNL     1       6.341  -0.017  -0.743  1.00  0.00     0.272 C 
HETATM   26  C23 UNL     1       7.327   1.129  -0.732  1.00  0.00     0.030 C 
HETATM   27  C24 UNL     1       8.694   0.516  -0.467  1.00  0.00     0.003 C 
HETATM   28  C25 UNL     1       8.585  -0.439   0.721  1.00  0.00     0.030 C 
HETATM   29  C26 UNL     1       7.251  -0.239   1.414  1.00  0.00     0.272 C 
ENDBRANCH  23  24
ENDBRANCH  20  23
ENDBRANCH  18  19
ENDBRANCH  17  18
ENDBRANCH  15  17
ENDBRANCH  14  15
BRANCH   7  30
HETATM   30  O1  UNL     1      -6.746  -0.292  -0.031  1.00  0.00    -0.390 OA
ATOM     31  H1  UNL     1      -7.569   0.100  -0.298  1.00  0.00     0.210 HD
ENDBRANCH   7  30
TORSDOF 8
