REMARK  8 active torsions:
REMARK  status: ('A' for Active; 'I' for Inactive)
REMARK    1  A    between atoms: C3_3  and  C4_4 
REMARK    2  A    between atoms: C4_4  and  C6_6 
REMARK    3  A    between atoms: C6_6  and  C7_7 
REMARK    4  A    between atoms: C7_7  and  C8_8 
REMARK    5  A    between atoms: C8_8  and  C9_10 
REMARK    6  A    between atoms: C9_10  and  C10_11 
REMARK    7  A    between atoms: C10_11  and  N1_12 
REMARK    8  A    between atoms: C24_29  and  O2_30 
ROOT
HETATM    1  C1  UNL     1       1.228  -0.202   2.404  1.00  0.00     0.015 C 
HETATM    2  C2  UNL     1       0.781  -0.115   1.172  1.00  0.00    -0.073 C 
HETATM    3  C3  UNL     1       1.708  -0.429   0.060  1.00  0.00     0.018 C 
HETATM    4  C11 UNL     1       1.111  -1.016  -1.167  1.00  0.00     0.010 C 
HETATM    5  C12 UNL     1      -0.333  -0.747  -1.416  1.00  0.00     0.007 C 
HETATM    6  C13 UNL     1      -1.116  -0.722  -0.149  1.00  0.00     0.009 C 
HETATM    7  C14 UNL     1      -2.621  -0.750  -0.325  1.00  0.00    -0.035 C 
HETATM    8  C15 UNL     1      -3.263  -1.863   0.476  1.00  0.00     0.016 C 
HETATM    9  C16 UNL     1      -2.989  -1.030  -1.777  1.00  0.00     0.010 C 
HETATM   10  C17 UNL     1      -4.459  -1.124  -1.925  1.00  0.00     0.002 C 
HETATM   11  C18 UNL     1      -5.315  -0.388  -0.979  1.00  0.00     0.009 C 
HETATM   12  C19 UNL     1      -4.674   0.733  -0.235  1.00  0.00    -0.043 C 
HETATM   13  C20 UNL     1      -4.954   1.993  -1.049  1.00  0.00     0.015 C 
HETATM   14  C21 UNL     1      -5.467   0.980   1.035  1.00  0.00     0.015 C 
HETATM   15  C22 UNL     1      -3.205   0.576   0.011  1.00  0.00     0.004 C 
HETATM   16  C23 UNL     1      -2.895   0.917   1.423  1.00  0.00     0.039 C 
HETATM   17  C24 UNL     1      -1.533   0.543   1.936  1.00  0.00     0.131 C 
HETATM   18  C25 UNL     1      -0.581   0.303   0.786  1.00  0.00     0.009 C 
HETATM   19  C26 UNL     1      -0.328   1.685   0.176  1.00  0.00     0.023 C 
ENDROOT
BRANCH   3  20
HETATM   20  C4  UNL     1       2.910  -1.232   0.506  1.00  0.00    -0.010 C 
HETATM   21  C5  UNL     1       2.562  -2.544   1.115  1.00  0.00     0.010 C 
BRANCH  20  22
HETATM   22  C6  UNL     1       3.898  -1.421  -0.615  1.00  0.00     0.012 C 
BRANCH  22  23
HETATM   23  C7  UNL     1       4.486  -0.147  -1.160  1.00  0.00     0.079 C 
BRANCH  23  24
HETATM   24  C8  UNL     1       5.255   0.635  -0.174  1.00  0.00     0.128 C 
HETATM   25  O1  UNL     1       4.723   1.386   0.613  1.00  0.00    -0.298 OA
BRANCH  24  26
HETATM   26  C9  UNL     1       6.742   0.538  -0.095  1.00  0.00     0.105 C 
BRANCH  26  27
HETATM   27  C10 UNL     1       7.388   1.770  -0.724  1.00  0.00     0.237 C 
BRANCH  27  28
HETATM   28  N1  UNL     1       6.996   2.979  -0.067  1.00  0.00    -0.079 N 
ATOM     29  H13 UNL     1       5.981   3.070  -0.036  1.00  0.00     0.274 HD
ATOM     30  H12 UNL     1       7.185   2.933   0.934  1.00  0.00     0.274 HD
ATOM     31  H11 UNL     1       7.428   3.802  -0.487  1.00  0.00     0.274 HD
ENDBRANCH  27  28
ENDBRANCH  26  27
ENDBRANCH  24  26
ENDBRANCH  23  24
ENDBRANCH  22  23
ENDBRANCH  20  22
ENDBRANCH   3  20
BRANCH  17  32
HETATM   32  O2  UNL     1      -1.645  -0.575   2.788  1.00  0.00    -0.394 OA
ATOM     33  H2  UNL     1      -0.784  -0.811   3.112  1.00  0.00     0.210 HD
ENDBRANCH  17  32
TORSDOF 8
