REMARK  9 active torsions:
REMARK  status: ('A' for Active; 'I' for Inactive)
REMARK    1  A    between atoms: O1_2  and  C2_3 
REMARK    2  A    between atoms: C2_3  and  O2_4 
REMARK    3  A    between atoms: C2_3  and  C3_6 
REMARK    4  A    between atoms: C3_6  and  C4_7 
REMARK    5  A    between atoms: C4_7  and  C6_9 
REMARK    6  A    between atoms: C14_17  and  C15_18 
REMARK    7  A    between atoms: C15_18  and  O3_19 
REMARK    8  A    between atoms: C15_18  and  C16_21 
REMARK    9  A    between atoms: C17_22  and  C18_23 
ROOT
HETATM    1  C6  UNL     1      -2.817  -0.426   0.325  1.00  0.00    -0.002 C 
HETATM    2  C7  UNL     1      -2.730  -1.770  -0.438  1.00  0.00     0.006 C 
HETATM    3  C8  UNL     1      -1.197  -1.873  -0.580  1.00  0.00     0.006 C 
HETATM    4  C9  UNL     1      -0.938  -0.524  -1.131  1.00  0.00    -0.001 C 
HETATM    5  C10 UNL     1       0.437  -0.099  -1.299  1.00  0.00    -0.001 C 
HETATM    6  C11 UNL     1       1.346  -0.996  -2.094  1.00  0.00     0.006 C 
HETATM    7  C12 UNL     1       2.586  -0.079  -2.103  1.00  0.00     0.006 C 
HETATM    8  C13 UNL     1       2.616   0.429  -0.648  1.00  0.00     0.001 A 
HETATM    9  C14 UNL     1       3.214  -0.667   0.198  1.00  0.00     0.024 A 
HETATM   10  C21 UNL     1       1.818  -0.933   0.708  1.00  0.00     0.018 A 
HETATM   11  C22 UNL     1       1.257   0.172  -0.083  1.00  0.00    -0.032 A 
HETATM   12  C23 UNL     1       0.552   1.277   0.644  1.00  0.00     0.011 C 
HETATM   13  C24 UNL     1      -0.811   0.733   1.030  1.00  0.00     0.011 C 
HETATM   14  C25 UNL     1      -1.681   0.390  -0.169  1.00  0.00    -0.036 C 
HETATM   15  C26 UNL     1      -2.052   1.685  -0.848  1.00  0.00     0.016 C 
ENDROOT
BRANCH   1  16
HETATM   16  C4  UNL     1      -4.199   0.084   0.037  1.00  0.00    -0.009 C 
HETATM   17  C5  UNL     1      -4.535   1.383   0.738  1.00  0.00     0.010 C 
BRANCH  16  18
HETATM   18  C3  UNL     1      -5.209  -0.932   0.491  1.00  0.00     0.065 C 
BRANCH  18  19
HETATM   19  C2  UNL     1      -6.626  -0.668   0.170  1.00  0.00     0.256 C 
BRANCH  19  20
HETATM   20  O1  UNL     1      -7.228   0.451   0.637  1.00  0.00    -0.366 OA
HETATM   21  C1  UNL     1      -7.866   1.117  -0.406  1.00  0.00     0.204 C 
ENDBRANCH  19  20
BRANCH  19  22
HETATM   22  O2  UNL     1      -7.439  -1.754   0.637  1.00  0.00    -0.371 OA
ATOM     23  H2  UNL     1      -7.017  -2.539   0.309  1.00  0.00     0.212 HD
ENDBRANCH  19  22
ENDBRANCH  18  19
ENDBRANCH  16  18
ENDBRANCH   1  16
BRANCH   9  24
HETATM   24  C15 UNL     1       4.219  -0.209   1.227  1.00  0.00     0.145 C 
BRANCH  24  25
HETATM   25  O3  UNL     1       3.684   0.692   2.152  1.00  0.00    -0.391 OA
ATOM     26  H3  UNL     1       4.316   0.980   2.800  1.00  0.00     0.210 HD
ENDBRANCH  24  25
BRANCH  24  27
HETATM   27  C16 UNL     1       5.416   0.360   0.550  1.00  0.00     0.001 C 
HETATM   28  C17 UNL     1       6.630   0.127   1.002  1.00  0.00    -0.024 C 
BRANCH  28  29
HETATM   29  C18 UNL     1       7.861   0.667   0.370  1.00  0.00     0.008 A 
HETATM   30  C19 UNL     1       8.048   0.592  -1.100  1.00  0.00     0.009 A 
HETATM   31  C20 UNL     1       8.913  -0.223  -0.151  1.00  0.00     0.009 A 
ENDBRANCH  28  29
ENDBRANCH  24  27
ENDBRANCH   9  24
TORSDOF 9
