REMARK  7 active torsions:
REMARK  status: ('A' for Active; 'I' for Inactive)
REMARK    1  A    between atoms: C2_2  and  C3_3 
REMARK    2  A    between atoms: C3_3  and  O1_4 
REMARK    3  A    between atoms: C3_3  and  C4_6 
REMARK    4  A    between atoms: C4_6  and  C5_7 
REMARK    5  A    between atoms: C8_10  and  C9_11 
REMARK    6  A    between atoms: C9_11  and  N1_12 
REMARK    7  A    between atoms: N1_12  and  C10_15 
ROOT
HETATM    1  C5  UNL     1       1.990   0.762   0.756  1.00  0.00    -0.012 C 
HETATM    2  C6  UNL     1       1.311   1.252  -0.494  1.00  0.00     0.005 C 
HETATM    3  C7  UNL     1      -0.200   1.137  -0.222  1.00  0.00     0.006 C 
HETATM    4  C8  UNL     1      -0.511  -0.327  -0.325  1.00  0.00     0.011 C 
HETATM    5  C20 UNL     1       0.511  -1.222   0.278  1.00  0.00     0.006 C 
HETATM    6  C21 UNL     1       1.457  -0.572   1.222  1.00  0.00     0.005 C 
ENDROOT
BRANCH   4   7
HETATM    7  C9  UNL     1      -1.920  -0.577   0.177  1.00  0.00     0.237 C 
BRANCH   7   8
HETATM    8  N1  UNL     1      -2.805   0.200  -0.670  1.00  0.00    -0.066 N 
ATOM      9  H12 UNL     1      -2.535   1.183  -0.675  1.00  0.00     0.278 HD
ATOM     10  H11 UNL     1      -2.653  -0.019  -1.655  1.00  0.00     0.278 HD
BRANCH   8  11
HETATM   11  C10 UNL     1      -4.188   0.050  -0.319  1.00  0.00     0.127 C 
HETATM   12  C11 UNL     1      -4.631  -1.394  -0.500  1.00  0.00     0.043 C 
HETATM   13  C12 UNL     1      -6.112  -1.455  -0.218  1.00  0.00    -0.012 C 
HETATM   14  C13 UNL     1      -6.876  -0.579  -1.179  1.00  0.00     0.009 C 
HETATM   15  C17 UNL     1      -6.376  -1.071   1.216  1.00  0.00     0.009 C 
HETATM   16  C14 UNL     1      -6.463   0.854  -0.945  1.00  0.00    -0.012 C 
HETATM   17  C15 UNL     1      -6.762   1.247   0.486  1.00  0.00     0.009 C 
HETATM   18  C19 UNL     1      -4.990   0.971  -1.230  1.00  0.00     0.043 C 
HETATM   19  C16 UNL     1      -5.948   0.369   1.388  1.00  0.00    -0.012 C 
HETATM   20  C18 UNL     1      -4.461   0.450   1.096  1.00  0.00     0.043 C 
ENDBRANCH   8  11
ENDBRANCH   7   8
ENDBRANCH   4   7
BRANCH   1  21
HETATM   21  C4  UNL     1       3.477   0.832   0.738  1.00  0.00     0.037 C 
BRANCH  21  22
HETATM   22  C3  UNL     1       4.165   0.062  -0.319  1.00  0.00     0.130 C 
BRANCH  22  23
HETATM   23  C2  UNL     1       5.686   0.253  -0.172  1.00  0.00     0.006 C 
HETATM   24  C1  UNL     1       6.042   1.710  -0.417  1.00  0.00     0.022 C 
HETATM   25  C22 UNL     1       6.289  -0.526  -1.267  1.00  0.00    -0.018 C 
HETATM   26  C23 UNL     1       7.510  -0.984  -1.211  1.00  0.00    -0.022 C 
HETATM   27  C24 UNL     1       8.372  -0.752  -0.043  1.00  0.00     0.105 C 
HETATM   28  C25 UNL     1       7.530  -0.788   1.168  1.00  0.00     0.131 C 
HETATM   29  O2  UNL     1       7.973  -1.264   2.188  1.00  0.00    -0.298 OA
HETATM   30  C26 UNL     1       6.159  -0.251   1.147  1.00  0.00     0.094 C 
ENDBRANCH  22  23
BRANCH  22  31
HETATM   31  O1  UNL     1       3.893   0.444  -1.613  1.00  0.00    -0.394 OA
ATOM     32  H1  UNL     1       2.955   0.326  -1.704  1.00  0.00     0.210 HD
ENDBRANCH  22  31
ENDBRANCH  21  22
ENDBRANCH   1  21
TORSDOF 7
