REMARK  3 active torsions:
REMARK  status: ('A' for Active; 'I' for Inactive)
REMARK    1  A    between atoms: C6_10  and  C7_11 
REMARK    2  A    between atoms: C7_11  and  O1_12 
REMARK    3  A    between atoms: O1_12  and  C8_13 
ROOT
HETATM    1  C1  UNL     1       5.799   2.149  -0.454  1.00  0.00     0.038 C 
HETATM    2  C2  UNL     1       4.981   1.134  -0.286  1.00  0.00     0.006 C 
HETATM    3  N1  UNL     1       3.747   1.256   0.415  1.00  0.00    -0.346 N 
ATOM      4  H1  UNL     1       3.622   2.003   1.098  1.00  0.00     0.167 HD
HETATM    5  C3  UNL     1       2.691   0.342   0.166  1.00  0.00     0.112 A 
HETATM    6  C4  UNL     1       1.498   0.437   0.825  1.00  0.00     0.079 A 
HETATM    7  C5  UNL     1       0.455  -0.454   0.587  1.00  0.00     0.051 A 
HETATM    8  N2  UNL     1      -0.794  -0.588   1.083  1.00  0.00    -0.357 N 
ATOM      9  H2  UNL     1      -1.213   0.015   1.791  1.00  0.00     0.166 HD
HETATM   10  C6  UNL     1      -1.404  -1.643   0.498  1.00  0.00     0.035 A 
HETATM   11  C16 UNL     1      -0.505  -2.188  -0.395  1.00  0.00     0.046 A 
HETATM   12  C17 UNL     1       0.664  -1.444  -0.342  1.00  0.00     0.061 A 
HETATM   13  C18 UNL     1       1.871  -1.516  -0.988  1.00  0.00     0.261 A 
HETATM   14  O2  UNL     1       2.019  -2.451  -1.840  1.00  0.00    -0.267 OA
HETATM   15  N3  UNL     1       2.880  -0.631  -0.739  1.00  0.00    -0.299 N 
HETATM   16  C19 UNL     1       4.083  -0.835  -1.494  1.00  0.00     0.144 C 
HETATM   17  C20 UNL     1       5.296  -0.229  -0.827  1.00  0.00     0.049 C 
HETATM   18  C21 UNL     1       6.466  -0.117  -1.762  1.00  0.00     0.018 C 
ENDROOT
BRANCH  10  19
HETATM   19  C7  UNL     1      -2.773  -2.084   0.817  1.00  0.00     0.232 C 
BRANCH  19  20
HETATM   20  O1  UNL     1      -3.818  -1.427   0.223  1.00  0.00    -0.344 OA
BRANCH  20  21
HETATM   21  C8  UNL     1      -4.212  -0.127   0.255  1.00  0.00     0.081 A 
HETATM   22  C9  UNL     1      -3.812   0.788  -0.695  1.00  0.00    -0.027 A 
HETATM   23  C10 UNL     1      -2.928   0.406  -1.856  1.00  0.00     0.051 C 
HETATM   24  C11 UNL     1      -4.251   2.093  -0.594  1.00  0.00     0.028 A 
HETATM   25  C12 UNL     1      -5.076   2.475   0.438  1.00  0.00     0.012 A 
HETATM   26 BR1  UNL     1      -5.636   4.295   0.504  1.00  0.00    -0.051 Br
HETATM   27  C13 UNL     1      -5.477   1.537   1.398  1.00  0.00     0.028 A 
HETATM   28  C14 UNL     1      -5.050   0.243   1.310  1.00  0.00    -0.027 A 
HETATM   29  C15 UNL     1      -5.482  -0.748   2.335  1.00  0.00     0.051 C 
ENDBRANCH  20  21
ENDBRANCH  19  20
ENDBRANCH  10  19
TORSDOF 3
