REMARK  6 active torsions:
REMARK  status: ('A' for Active; 'I' for Inactive)
REMARK    1  A    between atoms: C2_2  and  C4_4 
REMARK    2  A    between atoms: C17_17  and  O1_18 
REMARK    3  A    between atoms: C18_20  and  O2_21 
REMARK    4  A    between atoms: C21_25  and  O3_26 
REMARK    5  A    between atoms: O3_26  and  C22_27 
REMARK    6  A    between atoms: C22_27  and  C23_29 
ROOT
HETATM    1  C4  UNL     1      -2.671   1.007   0.603  1.00  0.00    -0.008 C 
HETATM    2  C5  UNL     1      -1.984   0.170   1.660  1.00  0.00     0.010 C 
HETATM    3  C6  UNL     1      -0.496   0.404   1.370  1.00  0.00    -0.000 C 
HETATM    4  C7  UNL     1       0.294   0.205   2.596  1.00  0.00     0.006 C 
HETATM    5  C8  UNL     1       1.745   0.423   2.227  1.00  0.00     0.012 C 
HETATM    6  C9  UNL     1       2.181  -0.461   1.122  1.00  0.00    -0.009 C 
HETATM    7  C10 UNL     1       2.395  -1.910   1.587  1.00  0.00     0.018 C 
HETATM    8  C11 UNL     1       3.632  -0.066   0.835  1.00  0.00     0.013 C 
HETATM    9  C12 UNL     1       3.782   1.301   0.345  1.00  0.00     0.013 C 
HETATM   10  C13 UNL     1       3.030   1.377  -0.930  1.00  0.00    -0.010 C 
HETATM   11  C14 UNL     1       3.139   2.829  -1.430  1.00  0.00     0.018 C 
HETATM   12  C15 UNL     1       3.515   0.490  -2.040  1.00  0.00     0.015 C 
HETATM   13  C16 UNL     1       2.059   0.461  -2.455  1.00  0.00     0.042 C 
HETATM   14  C17 UNL     1       1.678   0.809  -0.997  1.00  0.00     0.097 C 
HETATM   15  C18 UNL     1       1.339  -0.371  -0.146  1.00  0.00     0.107 C 
HETATM   16  C19 UNL     1      -0.146  -0.492   0.192  1.00  0.00     0.021 C 
HETATM   17  C20 UNL     1      -0.446  -1.895   0.732  1.00  0.00     0.021 C 
HETATM   18  C21 UNL     1      -1.095  -0.303  -0.940  1.00  0.00     0.143 C 
HETATM   19  C24 UNL     1      -2.182   0.722  -0.769  1.00  0.00     0.038 C 
ENDROOT
BRANCH  18  20
HETATM   20  O3  UNL     1      -1.557  -1.536  -1.413  1.00  0.00    -0.314 OA
BRANCH  20  21
HETATM   21  C22 UNL     1      -1.497  -2.124  -2.610  1.00  0.00     0.273 C 
HETATM   22  O4  UNL     1      -0.909  -1.381  -3.411  1.00  0.00    -0.264 OA
BRANCH  21  23
HETATM   23  C23 UNL     1      -2.018  -3.446  -3.010  1.00  0.00     0.225 C 
HETATM   24 CL1  UNL     1      -1.649  -3.701  -4.726  1.00  0.00    -0.120 Cl
ENDBRANCH  21  23
ENDBRANCH  20  21
ENDBRANCH  18  20
BRANCH  15  25
HETATM   25  O2  UNL     1       1.831  -1.474  -0.840  1.00  0.00    -0.385 OA
ATOM     26  H2  UNL     1       1.306  -1.418  -1.630  1.00  0.00     0.210 HD
ENDBRANCH  15  25
BRANCH   1  27
HETATM   27  C2  UNL     1      -4.166   1.025   0.757  1.00  0.00    -0.019 C 
HETATM   28  C1  UNL     1      -4.522   1.602   2.111  1.00  0.00     0.010 C 
HETATM   29  C3  UNL     1      -4.823  -0.306   0.632  1.00  0.00     0.010 C 
ENDBRANCH   1  27
BRANCH  14  30
HETATM   30  O1  UNL     1       0.798   1.907  -0.941  1.00  0.00    -0.386 OA
ATOM     31  H1  UNL     1      -0.077   1.539  -0.984  1.00  0.00     0.210 HD
ENDBRANCH  14  30
TORSDOF 6
