REMARK  5 active torsions:
REMARK  status: ('A' for Active; 'I' for Inactive)
REMARK    1  A    between atoms: C2_2  and  C4_4 
REMARK    2  A    between atoms: C20_21  and  O2_22 
REMARK    3  A    between atoms: C20_21  and  C21_24 
REMARK    4  A    between atoms: C21_24  and  C22_26 
REMARK    5  A    between atoms: C22_26  and  O4_27 
ROOT
HETATM    1  C4  UNL     1      -1.111  -1.878  -0.697  1.00  0.00    -0.006 C 
HETATM    2  C5  UNL     1      -1.077  -3.231  -0.043  1.00  0.00     0.006 C 
HETATM    3  C6  UNL     1      -0.366  -3.097   1.256  1.00  0.00     0.010 C 
HETATM    4  C7  UNL     1       0.011  -1.626   1.435  1.00  0.00    -0.040 C 
HETATM    5  C8  UNL     1      -0.448  -1.263   2.859  1.00  0.00     0.015 C 
HETATM    6  C9  UNL     1       1.490  -1.553   1.479  1.00  0.00     0.010 C 
HETATM    7  C10 UNL     1       2.086  -2.067   0.241  1.00  0.00     0.006 C 
HETATM    8  C11 UNL     1       2.823  -0.976  -0.465  1.00  0.00    -0.006 C 
HETATM    9  C12 UNL     1       3.988  -0.643   0.453  1.00  0.00     0.005 C 
HETATM   10  C13 UNL     1       4.195   0.797   0.289  1.00  0.00     0.001 C 
HETATM   11  C14 UNL     1       3.354   1.198  -0.905  1.00  0.00     0.010 C 
HETATM   12  C15 UNL     1       2.166   0.198  -0.950  1.00  0.00    -0.036 C 
HETATM   13  C16 UNL     1       1.897   0.040  -2.463  1.00  0.00     0.016 C 
HETATM   14  C17 UNL     1       1.038   0.877  -0.378  1.00  0.00     0.008 C 
HETATM   15  C18 UNL     1       0.786   2.068  -1.357  1.00  0.00     0.088 C 
HETATM   16  C19 UNL     1       0.238   3.200  -0.557  1.00  0.00     0.172 C 
HETATM   17  O1  UNL     1       0.734   4.289  -0.482  1.00  0.00    -0.294 OA
HETATM   18  C20 UNL     1      -1.032   2.813   0.158  1.00  0.00     0.211 C 
HETATM   19  C23 UNL     1      -0.852   1.494   0.901  1.00  0.00     0.224 C 
HETATM   20  F1  UNL     1      -2.035   1.187   1.448  1.00  0.00    -0.245 F 
HETATM   21  C24 UNL     1      -0.286   0.421  -0.063  1.00  0.00     0.034 C 
HETATM   22  C25 UNL     1      -0.712  -0.895   0.388  1.00  0.00     0.005 C 
ENDROOT
BRANCH  18  23
HETATM   23  O2  UNL     1      -1.975   2.583  -0.834  1.00  0.00    -0.372 OA
ATOM     24  H2  UNL     1      -2.775   2.339  -0.384  1.00  0.00     0.211 HD
ENDBRANCH  18  23
BRANCH  18  25
HETATM   25  C21 UNL     1      -1.464   3.818   1.121  1.00  0.00     0.194 C 
HETATM   26  O3  UNL     1      -0.747   4.130   2.049  1.00  0.00    -0.292 OA
BRANCH  25  27
HETATM   27  C22 UNL     1      -2.790   4.467   0.969  1.00  0.00     0.246 C 
BRANCH  27  28
HETATM   28  O4  UNL     1      -3.061   5.395   1.953  1.00  0.00    -0.393 OA
ATOM     29  H4  UNL     1      -3.910   5.810   1.856  1.00  0.00     0.209 HD
ENDBRANCH  27  28
ENDBRANCH  25  27
ENDBRANCH  18  25
BRANCH   1  30
HETATM   30  C2  UNL     1      -2.506  -1.643  -1.245  1.00  0.00    -0.018 C 
HETATM   31  C1  UNL     1      -2.799  -2.732  -2.273  1.00  0.00     0.010 C 
HETATM   32  C3  UNL     1      -3.571  -1.675  -0.164  1.00  0.00     0.010 C 
ENDBRANCH   1  30
TORSDOF 5
