REMARK  3 active torsions:
REMARK  status: ('A' for Active; 'I' for Inactive)
REMARK    1  A    between atoms: C2_2  and  S1_3 
REMARK    2  A    between atoms: S1_3  and  C3_4 
REMARK    3  A    between atoms: C3_4  and  C4_5 
ROOT
HETATM    1  C4  UNL     1      -0.544  -0.696  -0.169  1.00  0.00    -0.023 A 
HETATM    2  C5  UNL     1      -1.303  -1.896  -0.268  1.00  0.00    -0.001 A 
HETATM    3  C6  UNL     1      -2.596  -1.772  -0.733  1.00  0.00     0.015 A 
HETATM    4  C7  UNL     1      -3.380  -2.950  -0.789  1.00  0.00     0.018 A 
HETATM    5  C8  UNL     1      -2.837  -4.158  -0.382  1.00  0.00     0.088 A 
HETATM    6  N1  UNL     1      -1.570  -4.190   0.068  1.00  0.00    -0.365 N 
ATOM      7  H1  UNL     1      -1.181  -5.082   0.373  1.00  0.00     0.165 HD
HETATM    8  C9  UNL     1      -0.803  -3.104   0.132  1.00  0.00     0.045 A 
HETATM    9  C10 UNL     1       0.472  -3.194   0.649  1.00  0.00     0.060 A 
HETATM   10  C11 UNL     1       1.222  -2.070   0.756  1.00  0.00     0.046 A 
HETATM   11  N2  UNL     1       2.511  -1.901   1.134  1.00  0.00    -0.353 N 
ATOM     12  H2  UNL     1       3.138  -2.630   1.473  1.00  0.00     0.166 HD
HETATM   13  C12 UNL     1       2.817  -0.603   0.983  1.00  0.00     0.067 A 
HETATM   14  C13 UNL     1       4.092  -0.076   1.194  1.00  0.00     0.044 C 
HETATM   15 BR1  UNL     1       5.098  -0.881   2.565  1.00  0.00    -0.049 Br
HETATM   16  C14 UNL     1       4.643   0.979   0.443  1.00  0.00     0.095 C 
HETATM   17  C15 UNL     1       3.932   1.875  -0.381  1.00  0.00     0.249 C 
HETATM   18  O1  UNL     1       4.595   2.425  -1.283  1.00  0.00    -0.268 OA
HETATM   19  N3  UNL     1       2.619   2.157  -0.247  1.00  0.00    -0.290 N 
ATOM     20  H3  UNL     1       2.345   3.045  -0.667  1.00  0.00     0.172 HD
HETATM   21  C16 UNL     1       1.602   1.496   0.332  1.00  0.00     0.261 C 
HETATM   22  O2  UNL     1       0.627   1.990   0.705  1.00  0.00    -0.267 OA
HETATM   23  C17 UNL     1       1.727   0.081   0.510  1.00  0.00     0.073 A 
HETATM   24  C18 UNL     1       0.703  -0.806   0.342  1.00  0.00     0.017 A 
ENDROOT
BRANCH   1  25
HETATM   25  C3  UNL     1      -1.197   0.446  -0.831  1.00  0.00     0.114 C 
BRANCH  25  26
HETATM   26  S1  UNL     1      -2.267   1.313   0.345  1.00  0.00    -0.165 SA
BRANCH  26  27
HETATM   27  C2  UNL     1      -3.064   2.757  -0.260  1.00  0.00     0.069 C 
HETATM   28  C1  UNL     1      -2.272   4.047  -0.121  1.00  0.00     0.016 C 
ENDBRANCH  26  27
ENDBRANCH  25  26
ENDBRANCH   1  25
TORSDOF 3
