REMARK  5 active torsions:
REMARK  status: ('A' for Active; 'I' for Inactive)
REMARK    1  A    between atoms: C2_2  and  C3_3 
REMARK    2  A    between atoms: C2_2  and  N1_8 
REMARK    3  A    between atoms: C3_3  and  C4_4 
REMARK    4  A    between atoms: N1_8  and  C8_10 
REMARK    5  A    between atoms: C11_18  and  C12_19 
ROOT
HETATM    1  C8  UNL     1       0.163  -1.082   0.377  1.00  0.00     0.115 A 
HETATM    2  N2  UNL     1       0.840  -2.216   0.416  1.00  0.00    -0.338 N 
ATOM      3  H2  UNL     1       1.854  -2.142   0.498  1.00  0.00     0.168 HD
HETATM    4  C9  UNL     1       0.333  -3.442   0.359  1.00  0.00     0.182 A 
HETATM    5  N3  UNL     1      -0.998  -3.541   0.250  1.00  0.00    -0.346 N 
ATOM      6  H3  UNL     1      -1.436  -4.461   0.201  1.00  0.00     0.167 HD
HETATM    7  C10 UNL     1      -1.773  -2.414   0.204  1.00  0.00     0.089 A 
HETATM    8  S1  UNL     1      -3.461  -2.139   0.063  1.00  0.00    -0.075 SA
HETATM    9  C11 UNL     1      -3.450  -0.430   0.083  1.00  0.00    -0.007 A 
HETATM   10  C16 UNL     1      -2.117  -0.136   0.200  1.00  0.00     0.033 A 
HETATM   11  C17 UNL     1      -1.252  -1.164   0.263  1.00  0.00     0.043 A 
ENDROOT
BRANCH   1  12
HETATM   12  N1  UNL     1       0.718   0.036   0.410  1.00  0.00    -0.371 N 
ATOM     13  H1  UNL     1       0.019   0.778   0.370  1.00  0.00     0.161 HD
BRANCH  12  14
HETATM   14  C2  UNL     1       2.012   0.589   0.485  1.00  0.00     0.079 C 
HETATM   15  C1  UNL     1       1.894   1.986  -0.152  1.00  0.00     0.032 C 
BRANCH  14  16
HETATM   16  C3  UNL     1       3.097  -0.253  -0.020  1.00  0.00     0.034 C 
BRANCH  16  17
HETATM   17  C4  UNL     1       4.512   0.173   0.034  1.00  0.00    -0.042 A 
HETATM   18  C5  UNL     1       5.445  -0.954  -0.486  1.00  0.00     0.015 C 
HETATM   19  C6  UNL     1       4.977   1.491  -0.633  1.00  0.00     0.010 A 
HETATM   20  C7  UNL     1       5.083   1.251   0.806  1.00  0.00     0.010 A 
ENDBRANCH  16  17
ENDBRANCH  14  16
ENDBRANCH  12  14
ENDBRANCH   1  12
BRANCH   9  21
HETATM   21  C12 UNL     1      -4.597   0.551  -0.018  1.00  0.00    -0.018 C 
HETATM   22  C13 UNL     1      -4.331   1.557  -1.112  1.00  0.00     0.020 C 
HETATM   23  C14 UNL     1      -4.696   1.213   1.332  1.00  0.00     0.020 C 
HETATM   24  C15 UNL     1      -5.844  -0.228  -0.278  1.00  0.00     0.020 C 
ENDBRANCH   9  21
TORSDOF 5
