REMARK  4 active torsions:
REMARK  status: ('A' for Active; 'I' for Inactive)
REMARK    1  A    between atoms: C6_9  and  C7_10 
REMARK    2  A    between atoms: C7_10  and  O1_11 
REMARK    3  A    between atoms: C10_15  and  C12_17 
REMARK    4  A    between atoms: C12_17  and  C15_20 
ROOT
HETATM    1  C7  UNL     1       1.506   0.381   0.482  1.00  0.00     0.089 C 
HETATM    2  C8  UNL     1       0.687  -0.807   0.818  1.00  0.00     0.044 C 
HETATM    3  C9  UNL     1      -0.776  -0.783   0.637  1.00  0.00     0.013 C 
HETATM    4  C10 UNL     1      -1.515   0.424   0.223  1.00  0.00    -0.037 C 
HETATM    5  C11 UNL     1      -2.010   1.078   1.511  1.00  0.00     0.016 C 
HETATM    6  C18 UNL     1      -0.589   1.434  -0.387  1.00  0.00     0.013 C 
HETATM    7  C19 UNL     1       0.788   0.954  -0.716  1.00  0.00     0.044 C 
ENDROOT
BRANCH   1   8
HETATM    8  C6  UNL     1       2.934   0.158   0.151  1.00  0.00     0.023 A 
HETATM    9  C2  UNL     1       3.745   1.240  -0.227  1.00  0.00     0.033 A 
HETATM   10  C1  UNL     1       3.437   2.686  -0.357  1.00  0.00     0.070 C 
HETATM   11  N1  UNL     1       4.955   0.705  -0.455  1.00  0.00    -0.303 N 
HETATM   12  N2  UNL     1       4.948  -0.585  -0.250  1.00  0.00    -0.300 N 
ATOM     13  H1  UNL     1       5.774   1.237  -0.750  1.00  0.00     0.186 HD
HETATM   14  C3  UNL     1       6.069  -1.525  -0.394  1.00  0.00     0.177 C 
HETATM   15  C4  UNL     1       3.692  -0.980   0.136  1.00  0.00     0.035 A 
HETATM   16  C5  UNL     1       3.345  -2.387   0.464  1.00  0.00     0.070 C 
ENDBRANCH   1   8
BRANCH   1  17
HETATM   17  O1  UNL     1       1.568   1.289   1.569  1.00  0.00    -0.385 OA
ATOM     18  H1  UNL     1       0.653   1.432   1.781  1.00  0.00     0.211 HD
ENDBRANCH   1  17
BRANCH   4  19
HETATM   19  C12 UNL     1      -2.626   0.193  -0.755  1.00  0.00    -0.037 C 
HETATM   20  C13 UNL     1      -3.284   1.540  -1.142  1.00  0.00     0.016 C 
HETATM   21  C14 UNL     1      -2.019  -0.345  -2.025  1.00  0.00     0.016 C 
BRANCH  19  22
HETATM   22  C15 UNL     1      -3.780  -0.659  -0.406  1.00  0.00    -0.014 C 
HETATM   23  C16 UNL     1      -3.592  -2.074  -0.041  1.00  0.00     0.010 C 
HETATM   24  C17 UNL     1      -4.874   0.021   0.407  1.00  0.00     0.010 C 
ENDBRANCH  19  22
ENDBRANCH   4  19
TORSDOF 4
