REMARK  4 active torsions:
REMARK  status: ('A' for Active; 'I' for Inactive)
REMARK    1  A    between atoms: C2_2  and  O1_4 
REMARK    2  A    between atoms: O1_4  and  C4_5 
REMARK    3  A    between atoms: C9_10  and  C10_11 
REMARK    4  A    between atoms: C19_21  and  O2_23 
ROOT
HETATM    1  C10 UNL     1       1.989  -1.466  -1.297  1.00  0.00     0.071 C 
HETATM    2  C11 UNL     1       1.342  -2.407  -2.327  1.00  0.00     0.036 C 
HETATM    3  C12 UNL     1       2.922  -0.599  -2.090  1.00  0.00     0.036 C 
HETATM    4  C13 UNL     1       2.693  -2.337  -0.350  1.00  0.00     0.073 C 
HETATM    5  N1  UNL     1       3.264  -3.012   0.401  1.00  0.00    -0.196 NA
ENDROOT
BRANCH   1   6
HETATM    6  C9  UNL     1       0.891  -0.702  -0.635  1.00  0.00    -0.002 A 
HETATM    7  C4  UNL     1       1.164   0.241   0.358  1.00  0.00     0.077 A 
HETATM    8  C5  UNL     1       0.050   0.900   0.914  1.00  0.00     0.048 A 
HETATM    9  C6  UNL     1      -1.245   0.670   0.541  1.00  0.00    -0.015 A 
HETATM   10  C7  UNL     1      -1.508  -0.261  -0.438  1.00  0.00    -0.040 A 
HETATM   11  C19 UNL     1      -2.387   1.399   1.169  1.00  0.00     0.082 C 
HETATM   12  C8  UNL     1      -0.408  -0.917  -0.992  1.00  0.00     0.020 A 
HETATM   13  C14 UNL     1      -2.861  -0.608  -0.938  1.00  0.00    -0.020 C 
HETATM   14  C15 UNL     1      -2.933  -0.113  -2.373  1.00  0.00     0.020 C 
HETATM   15  C16 UNL     1      -3.135  -2.090  -0.858  1.00  0.00     0.020 C 
HETATM   16  C17 UNL     1      -3.926   0.102  -0.168  1.00  0.00     0.017 C 
HETATM   17  C18 UNL     1      -3.516   0.383   1.253  1.00  0.00     0.043 C 
HETATM   18  C20 UNL     1      -2.079   1.813   2.587  1.00  0.00     0.051 C 
BRANCH   7  19
HETATM   19  O1  UNL     1       2.371   0.497   0.748  1.00  0.00    -0.346 OA
BRANCH  19  20
HETATM   20  C2  UNL     1       3.569   0.751   1.134  1.00  0.00     0.120 C 
HETATM   21  C1  UNL     1       3.892   0.406   2.612  1.00  0.00     0.040 C 
HETATM   22  C3  UNL     1       4.070   2.195   0.972  1.00  0.00     0.040 C 
ENDBRANCH  19  20
ENDBRANCH   7  19
BRANCH  11  23
HETATM   23  O2  UNL     1      -2.729   2.517   0.430  1.00  0.00    -0.385 OA
ATOM     24  H2  UNL     1      -3.456   2.981   0.830  1.00  0.00     0.211 HD
ENDBRANCH  11  23
ENDBRANCH   1   6
TORSDOF 4
