REMARK  18 active torsions:
REMARK  status: ('A' for Active; 'I' for Inactive)
REMARK    1  A    between atoms: N1_1  and  C1_5 
REMARK    2  A    between atoms: C1_5  and  C2_6 
REMARK    3  A    between atoms: C1_5  and  C3_8 
REMARK    4  A    between atoms: C3_8  and  C4_9 
REMARK    5  A    between atoms: C3_8  and  C34_49 
REMARK    6  A    between atoms: C4_9  and  N2_10 
REMARK    7  A    between atoms: C8_14  and  C9_15 
REMARK       I    between atoms: C9_15  and  N3_17 
REMARK    8  A    between atoms: N3_17  and  C10_19 
REMARK    9  A    between atoms: C10_19  and  C11_20 
REMARK   10  A    between atoms: C10_19  and  C18_27 
REMARK   11  A    between atoms: C11_20  and  C12_21 
REMARK       I    between atoms: C18_27  and  N4_29 
REMARK   12  A    between atoms: N4_29  and  C19_31 
REMARK   13  A    between atoms: C19_31  and  C20_32 
REMARK   14  A    between atoms: C19_31  and  C27_39 
REMARK   15  A    between atoms: C20_32  and  C21_33 
REMARK   16  A    between atoms: C27_39  and  O4_40 
REMARK   17  A    between atoms: C27_39  and  N5_42 
REMARK   18  A    between atoms: C34_49  and  N6_50 
ROOT
HETATM    1  C10 UNL     1      -0.351   1.824  -0.684  1.00  0.00     0.177 C 
ENDROOT
BRANCH   1   2
HETATM    2  N3  UNL     1       0.827   1.316  -1.292  1.00  0.00    -0.346 N 
HETATM    3  C9  UNL     1       1.777   0.685  -0.415  1.00  0.00     0.241 C 
HETATM    4  O2  UNL     1       1.501   0.626   0.794  1.00  0.00    -0.271 OA
ATOM      5  H3  UNL     1       0.991   1.394  -2.296  1.00  0.00     0.163 HD
BRANCH   3   6
HETATM    6  C8  UNL     1       3.051   0.115  -0.886  1.00  0.00     0.175 C 
HETATM    7  N2  UNL     1       3.828  -0.390   0.203  1.00  0.00    -0.380 N 
HETATM    8  C5  UNL     1       3.243  -1.533   0.716  1.00  0.00     0.123 C 
HETATM    9  C6  UNL     1       2.328  -2.056  -0.398  1.00  0.00     0.022 C 
HETATM   10  C7  UNL     1       2.714  -1.193  -1.608  1.00  0.00     0.037 C 
BRANCH   7  11
HETATM   11  C4  UNL     1       5.107   0.047   0.405  1.00  0.00     0.068 C 
BRANCH  11  12
HETATM   12  C3  UNL     1       6.273  -0.655  -0.257  1.00  0.00     0.081 C 
BRANCH  12  13
HETATM   13  C1  UNL     1       7.565   0.054   0.180  1.00  0.00     0.254 C 
BRANCH  13  14
HETATM   14  N1  UNL     1       7.795   0.016   1.582  1.00  0.00    -0.068 N 
ATOM     15  H13 UNL     1       8.579   0.607   1.860  1.00  0.00     0.275 HD
ATOM     16  H12 UNL     1       7.060   0.492   2.106  1.00  0.00     0.275 HD
ATOM     17  H11 UNL     1       7.917  -0.951   1.881  1.00  0.00     0.275 HD
ENDBRANCH  13  14
BRANCH  13  18
HETATM   18  C2  UNL     1       7.387   1.467  -0.257  1.00  0.00     0.264 C 
HETATM   19  O1  UNL     1       7.152   1.725  -1.392  1.00  0.00    -0.305 OA
ENDBRANCH  13  18
ENDBRANCH  12  13
BRANCH  12  20
HETATM   20  C34 UNL     1       6.317  -2.127  -0.046  1.00  0.00     0.162 C 
BRANCH  20  21
HETATM   21  N6  UNL     1       7.433  -2.748  -0.758  1.00  0.00    -0.286 N 
HETATM   22  C35 UNL     1       8.647  -2.938  -0.230  1.00  0.00     0.201 A 
HETATM   23  N7  UNL     1       9.429  -3.533  -1.152  1.00  0.00    -0.346 N 
HETATM   24  C36 UNL     1       8.678  -3.706  -2.255  1.00  0.00     0.198 A 
ATOM     25  H7  UNL     1      10.406  -3.802  -1.036  1.00  0.00     0.167 HD
HETATM   26  N8  UNL     1       7.465  -3.217  -1.981  1.00  0.00    -0.293 N 
ATOM     27  H8  UNL     1       6.678  -3.210  -2.630  1.00  0.00     0.188 HD
ENDBRANCH  20  21
ENDBRANCH  12  20
ENDBRANCH  11  12
ENDBRANCH   7  11
ENDBRANCH   3   6
ENDBRANCH   1   2
BRANCH   1  28
HETATM   28  C11 UNL     1      -0.691   3.254  -0.982  1.00  0.00     0.039 C 
BRANCH  28  29
HETATM   29  C12 UNL     1       0.241   4.308  -0.594  1.00  0.00    -0.012 C 
HETATM   30  C13 UNL     1       1.621   4.264  -1.185  1.00  0.00     0.005 C 
HETATM   31  C14 UNL     1       2.018   5.739  -1.376  1.00  0.00     0.000 C 
HETATM   32  C15 UNL     1       1.648   6.488  -0.109  1.00  0.00     0.000 C 
HETATM   33  C16 UNL     1       1.483   5.575   1.078  1.00  0.00     0.000 C 
HETATM   34  C17 UNL     1       0.418   4.536   0.892  1.00  0.00     0.005 C 
ENDBRANCH  28  29
ENDBRANCH   1  28
BRANCH   1  35
HETATM   35  C18 UNL     1      -1.580   1.058  -1.101  1.00  0.00     0.244 C 
HETATM   36  O3  UNL     1      -1.711   0.799  -2.326  1.00  0.00    -0.271 OA
HETATM   37  N4  UNL     1      -2.498   0.681  -0.154  1.00  0.00    -0.325 N 
ATOM     38  H4  UNL     1      -2.238   0.914   0.804  1.00  0.00     0.169 HD
BRANCH  37  39
HETATM   39  C19 UNL     1      -3.788   0.001  -0.286  1.00  0.00     0.063 C 
BRANCH  39  40
HETATM   40  C20 UNL     1      -4.641   0.253   0.883  1.00  0.00     0.066 C 
BRANCH  40  41
HETATM   41  C21 UNL     1      -4.174  -0.175   2.217  1.00  0.00    -0.009 C 
HETATM   42  C22 UNL     1      -5.274   0.222   3.218  1.00  0.00     0.005 C 
HETATM   43  C23 UNL     1      -4.630   0.269   4.601  1.00  0.00     0.000 C 
HETATM   44  C24 UNL     1      -4.204  -1.122   4.943  1.00  0.00     0.000 C 
HETATM   45  C25 UNL     1      -3.279  -1.651   3.896  1.00  0.00     0.000 C 
HETATM   46  C26 UNL     1      -3.901  -1.610   2.483  1.00  0.00     0.005 C 
ENDBRANCH  40  41
ENDBRANCH  39  40
BRANCH  39  47
HETATM   47  C27 UNL     1      -3.719  -1.296  -0.938  1.00  0.00     0.161 C 
BRANCH  47  48
HETATM   48  O4  UNL     1      -2.527  -1.673  -1.363  1.00  0.00    -0.345 OA
ATOM     49  H4  UNL     1      -2.482  -2.521  -1.789  1.00  0.00     0.219 HD
ENDBRANCH  47  48
BRANCH  47  50
HETATM   50  N5  UNL     1      -4.704  -2.211  -1.209  1.00  0.00    -0.360 N 
HETATM   51  C28 UNL     1      -4.241  -3.213  -2.264  1.00  0.00     0.125 C 
HETATM   52  C29 UNL     1      -5.376  -3.271  -3.294  1.00  0.00     0.020 C 
HETATM   53  C30 UNL     1      -6.550  -4.084  -2.777  1.00  0.00     0.002 C 
HETATM   54  C31 UNL     1      -7.673  -3.196  -2.269  1.00  0.00     0.002 C 
HETATM   55  C32 UNL     1      -7.162  -2.001  -1.483  1.00  0.00     0.020 C 
HETATM   56  C33 UNL     1      -5.980  -2.389  -0.631  1.00  0.00     0.125 C 
ENDBRANCH  47  50
ENDBRANCH  39  47
ENDBRANCH  37  39
ENDBRANCH   1  35
TORSDOF 18
