REMARK  15 active torsions:
REMARK  status: ('A' for Active; 'I' for Inactive)
REMARK    1  A    between atoms: C1_2  and  C2_4 
REMARK    2  A    between atoms: C2_4  and  C3_5 
REMARK    3  A    between atoms: C3_5  and  C4_6 
REMARK    4  A    between atoms: C4_6  and  C5_7 
REMARK    5  A    between atoms: C4_6  and  N3_15 
REMARK    6  A    between atoms: C5_7  and  N2_8 
REMARK       I    between atoms: N2_8  and  C6_10 
REMARK    7  A    between atoms: C6_10  and  C7_12 
REMARK       I    between atoms: N3_15  and  C10_16 
REMARK    8  A    between atoms: N3_15  and  C24_32 
REMARK    9  A    between atoms: C10_16  and  C11_18 
REMARK   10  A    between atoms: C15_22  and  O4_23 
REMARK   11  A    between atoms: O4_23  and  C16_24 
REMARK   12  A    between atoms: C27_35  and  C28_36 
REMARK       I    between atoms: C28_36  and  N4_38 
REMARK   13  A    between atoms: N4_38  and  S1_40 
REMARK   14  A    between atoms: S1_40  and  C29_43 
REMARK   15  A    between atoms: C29_43  and  C30_44 
ROOT
HETATM    1  N3  UNL     1       0.872   0.561  -0.600  1.00  0.00    -0.305 N 
HETATM    2  C10 UNL     1      -0.128  -0.452  -0.750  1.00  0.00     0.229 C 
HETATM    3  O3  UNL     1       0.222  -1.690  -0.661  1.00  0.00    -0.273 OA
ENDROOT
BRANCH   1   4
HETATM    4  C4  UNL     1       0.582   1.954  -0.612  1.00  0.00     0.112 C 
BRANCH   4   5
HETATM    5  C3  UNL     1       1.003   2.687  -1.878  1.00  0.00     0.036 C 
BRANCH   5   6
HETATM    6  C2  UNL     1       2.442   2.958  -1.998  1.00  0.00     0.101 C 
BRANCH   6   7
HETATM    7  C1  UNL     1       2.698   3.680  -3.279  1.00  0.00     0.231 C 
HETATM    8  N1  UNL     1       3.997   4.131  -3.632  1.00  0.00    -0.062 NA
HETATM    9  O1  UNL     1       1.782   3.926  -4.111  1.00  0.00    -0.277 OA
ENDBRANCH   6   7
ENDBRANCH   5   6
ENDBRANCH   4   5
BRANCH   4  10
HETATM   10  C5  UNL     1       0.966   2.727   0.608  1.00  0.00     0.148 C 
BRANCH  10  11
HETATM   11  N2  UNL     1       0.417   4.026   0.750  1.00  0.00    -0.359 N 
HETATM   12  C6  UNL     1      -0.939   4.379   0.861  1.00  0.00     0.221 C 
HETATM   13  O2  UNL     1      -1.792   3.460   0.838  1.00  0.00    -0.273 OA
ATOM     14  H2  UNL     1       1.085   4.796   0.775  1.00  0.00     0.162 HD
BRANCH  12  15
HETATM   15  C7  UNL     1      -1.441   5.781   1.006  1.00  0.00     0.078 A 
HETATM   16  C8  UNL     1      -2.472   5.974   2.065  1.00  0.00     0.015 A 
HETATM   17  C9  UNL     1      -2.864   5.995   0.642  1.00  0.00     0.015 A 
ENDBRANCH  12  15
ENDBRANCH  10  11
ENDBRANCH   4  10
ENDBRANCH   1   4
BRANCH   1  18
HETATM   18  C24 UNL     1       2.197   0.001  -0.428  1.00  0.00     0.080 A 
HETATM   19  C25 UNL     1       3.093   0.157   0.577  1.00  0.00     0.039 A 
HETATM   20  C26 UNL     1       4.272  -0.505   0.478  1.00  0.00     0.027 A 
HETATM   21  C27 UNL     1       4.456  -1.279  -0.637  1.00  0.00     0.075 A 
HETATM   22  S2  UNL     1       2.996  -1.058  -1.495  1.00  0.00    -0.067 SA
BRANCH  21  23
HETATM   23  C28 UNL     1       5.625  -2.098  -0.990  1.00  0.00     0.271 C 
HETATM   24  O5  UNL     1       5.617  -2.758  -2.051  1.00  0.00    -0.266 OA
HETATM   25  N4  UNL     1       6.720  -2.101  -0.100  1.00  0.00    -0.250 N 
ATOM     26  H4  UNL     1       6.695  -1.548   0.757  1.00  0.00     0.181 HD
BRANCH  25  27
HETATM   27  S1  UNL     1       8.100  -3.056  -0.487  1.00  0.00     0.233 S 
HETATM   28  O6  UNL     1       9.184  -2.165  -1.028  1.00  0.00    -0.206 OA
HETATM   29  O7  UNL     1       7.725  -4.036  -1.540  1.00  0.00    -0.206 OA
BRANCH  27  30
HETATM   30  C29 UNL     1       8.656  -3.889   1.002  1.00  0.00     0.168 C 
BRANCH  30  31
HETATM   31  C30 UNL     1       9.860  -4.724   0.639  1.00  0.00     0.001 A 
HETATM   32  C31 UNL     1      10.445  -5.486   1.789  1.00  0.00     0.006 A 
HETATM   33  C32 UNL     1      11.219  -4.364   1.220  1.00  0.00     0.006 A 
ENDBRANCH  30  31
ENDBRANCH  27  30
ENDBRANCH  25  27
ENDBRANCH  21  23
ENDBRANCH   1  18
BRANCH   2  34
HETATM   34  C11 UNL     1      -1.557  -0.246  -1.004  1.00  0.00     0.078 C 
HETATM   35  C12 UNL     1      -1.999  -1.394  -1.920  1.00  0.00     0.014 C 
HETATM   36  C13 UNL     1      -3.328  -1.951  -1.546  1.00  0.00     0.003 C 
HETATM   37  C14 UNL     1      -4.383  -0.885  -1.559  1.00  0.00     0.032 C 
HETATM   38  C15 UNL     1      -4.703  -0.383  -0.166  1.00  0.00     0.122 C 
HETATM   39  C22 UNL     1      -3.564   0.386   0.396  1.00  0.00     0.033 C 
HETATM   40  C23 UNL     1      -2.281  -0.374   0.347  1.00  0.00     0.016 C 
BRANCH  38  41
HETATM   41  O4  UNL     1      -5.109  -1.371   0.700  1.00  0.00    -0.381 OA
BRANCH  41  42
HETATM   42  C16 UNL     1      -6.438  -1.215   1.087  1.00  0.00     0.122 C 
HETATM   43  C17 UNL     1      -6.614  -1.070   2.583  1.00  0.00     0.032 C 
HETATM   44  C18 UNL     1      -8.102  -0.784   2.812  1.00  0.00     0.002 C 
HETATM   45  C19 UNL     1      -8.995  -1.809   2.196  1.00  0.00     0.000 C 
HETATM   46  C20 UNL     1      -8.674  -2.124   0.761  1.00  0.00     0.002 C 
HETATM   47  C21 UNL     1      -7.199  -2.455   0.668  1.00  0.00     0.032 C 
ENDBRANCH  41  42
ENDBRANCH  38  41
ENDBRANCH   2  34
TORSDOF 15
