REMARK  18 active torsions:
REMARK  status: ('A' for Active; 'I' for Inactive)
REMARK    1  A    between atoms: C2_2  and  C3_3 
REMARK    2  A    between atoms: C3_3  and  C4_4 
REMARK    3  A    between atoms: C4_4  and  C5_5 
REMARK    4  A    between atoms: C5_5  and  C6_6 
REMARK    5  A    between atoms: C6_6  and  C7_7 
REMARK    6  A    between atoms: C9_12  and  C10_13 
REMARK    7  A    between atoms: C10_13  and  N2_14 
REMARK       I    between atoms: N2_14  and  C11_16 
REMARK    8  A    between atoms: C11_16  and  C12_18 
REMARK    9  A    between atoms: N3_23  and  C16_24 
REMARK   10  A    between atoms: C21_29  and  O4_30 
REMARK   11  A    between atoms: C25_37  and  C26_38 
REMARK   12  A    between atoms: C26_38  and  C27_39 
REMARK   13  A    between atoms: C27_39  and  C28_40 
REMARK   14  A    between atoms: C28_40  and  C29_41 
REMARK   15  A    between atoms: C29_41  and  C30_42 
REMARK   16  A    between atoms: C30_42  and  C31_43 
REMARK   17  A    between atoms: C31_43  and  O7_45 
REMARK   18  A    between atoms: O7_45  and  C32_46 
ROOT
HETATM    1  C7  UNL     1       0.508   2.003   0.379  1.00  0.00     0.080 C 
HETATM    2  N1  UNL     1      -0.414   1.145   1.015  1.00  0.00    -0.320 N 
ATOM      3  H1  UNL     1      -0.173   1.004   1.996  1.00  0.00     0.169 HD
HETATM    4  C8  UNL     1      -1.553   0.444   0.673  1.00  0.00     0.283 C 
HETATM    5  O1  UNL     1      -2.591   0.668   1.410  1.00  0.00    -0.265 OA
HETATM    6  C9  UNL     1      -1.828  -0.541  -0.401  1.00  0.00     0.182 C 
HETATM    7  O3  UNL     1      -2.025  -1.806  -0.095  1.00  0.00    -0.225 OA
HETATM    8  N3  UNL     1      -1.588  -2.435   0.980  1.00  0.00    -0.210 N 
HETATM    9  C21 UNL     1      -0.305  -2.427   1.548  1.00  0.00     0.242 C 
HETATM   10  N4  UNL     1       1.019  -2.547   1.143  1.00  0.00    -0.343 N 
HETATM   11  C22 UNL     1       1.957  -3.370   1.982  1.00  0.00     0.154 C 
HETATM   12  C23 UNL     1       1.717  -1.993   0.018  1.00  0.00     0.206 C 
HETATM   13  C24 UNL     1       2.483  -0.806   0.450  1.00  0.00     0.167 C 
HETATM   14  O5  UNL     1       2.531  -0.597   1.645  1.00  0.00    -0.294 OA
HETATM   15  C25 UNL     1       3.192   0.144  -0.421  1.00  0.00     0.159 C 
HETATM   16  N5  UNL     1       2.417   1.089  -1.118  1.00  0.00    -0.344 N 
ATOM     17  H5  UNL     1       2.867   1.456  -1.957  1.00  0.00     0.163 HD
HETATM   18  C34 UNL     1       1.136   1.624  -0.875  1.00  0.00     0.264 C 
HETATM   19  O8  UNL     1       0.438   1.795  -1.950  1.00  0.00    -0.266 OA
ENDROOT
BRANCH  15  20
HETATM   20  C26 UNL     1       4.283   0.879   0.345  1.00  0.00     0.060 C 
BRANCH  20  21
HETATM   21  C27 UNL     1       5.064   1.847  -0.456  1.00  0.00    -0.028 C 
BRANCH  21  22
HETATM   22  C28 UNL     1       5.841   1.449  -1.625  1.00  0.00    -0.030 C 
BRANCH  22  23
HETATM   23  C29 UNL     1       6.989   0.529  -1.534  1.00  0.00     0.037 C 
BRANCH  23  24
HETATM   24  C30 UNL     1       6.784  -0.875  -1.084  1.00  0.00     0.115 C 
BRANCH  24  25
HETATM   25  C31 UNL     1       8.092  -1.628  -1.105  1.00  0.00     0.259 C 
HETATM   26  O6  UNL     1       9.116  -1.015  -1.450  1.00  0.00    -0.265 OA
BRANCH  25  27
HETATM   27  O7  UNL     1       8.154  -2.954  -0.753  1.00  0.00    -0.322 OA
BRANCH  27  28
HETATM   28  C32 UNL     1       9.324  -3.718  -0.744  1.00  0.00     0.174 C 
HETATM   29  C33 UNL     1      10.011  -3.817  -2.071  1.00  0.00     0.034 C 
ENDBRANCH  27  28
ENDBRANCH  25  27
ENDBRANCH  24  25
ENDBRANCH  23  24
ENDBRANCH  22  23
ENDBRANCH  21  22
ENDBRANCH  20  21
ENDBRANCH  15  20
BRANCH   1  30
HETATM   30  C6  UNL     1       0.007   3.445   0.385  1.00  0.00     0.063 C 
BRANCH  30  31
HETATM   31  C5  UNL     1      -1.261   3.719  -0.291  1.00  0.00     0.006 C 
BRANCH  31  32
HETATM   32  C4  UNL     1      -1.593   5.195  -0.210  1.00  0.00     0.000 C 
BRANCH  32  33
HETATM   33  C3  UNL     1      -1.731   5.691   1.212  1.00  0.00    -0.000 C 
BRANCH  33  34
HETATM   34  C2  UNL     1      -2.073   7.167   1.221  1.00  0.00    -0.005 C 
HETATM   35  C1  UNL     1      -3.382   7.335   0.487  1.00  0.00     0.005 C 
ENDBRANCH  33  34
ENDBRANCH  32  33
ENDBRANCH  31  32
ENDBRANCH  30  31
ENDBRANCH   1  30
BRANCH   9  36
HETATM   36  O4  UNL     1      -0.396  -2.254   2.845  1.00  0.00    -0.331 OA
ATOM     37  H4  UNL     1       0.473  -2.249   3.230  1.00  0.00     0.221 HD
ENDBRANCH   9  36
BRANCH   8  38
HETATM   38  C16 UNL     1      -2.641  -3.251   1.648  1.00  0.00     0.119 C 
HETATM   39  C17 UNL     1      -3.062  -4.430   0.809  1.00  0.00     0.028 C 
HETATM   40  C18 UNL     1      -4.514  -4.695   1.086  1.00  0.00     0.002 C 
HETATM   41  C19 UNL     1      -4.980  -3.673   2.075  1.00  0.00     0.002 C 
HETATM   42  C20 UNL     1      -3.882  -2.633   2.019  1.00  0.00     0.028 C 
ENDBRANCH   8  38
BRANCH   6  43
HETATM   43  C10 UNL     1      -2.681   0.065  -1.485  1.00  0.00     0.136 C 
BRANCH  43  44
HETATM   44  N2  UNL     1      -4.065   0.119  -1.394  1.00  0.00    -0.334 N 
HETATM   45  C11 UNL     1      -4.934  -0.981  -1.400  1.00  0.00     0.229 C 
HETATM   46  O2  UNL     1      -4.458  -2.137  -1.505  1.00  0.00    -0.272 OA
ATOM     47  H2  UNL     1      -4.488   1.044  -1.316  1.00  0.00     0.168 HD
BRANCH  45  48
HETATM   48  C12 UNL     1      -6.419  -0.841  -1.287  1.00  0.00     0.030 C 
HETATM   49  C13 UNL     1      -6.719  -0.090  -0.021  1.00  0.00     0.025 C 
HETATM   50  C14 UNL     1      -7.107  -2.166  -1.322  1.00  0.00     0.025 C 
HETATM   51  C15 UNL     1      -6.899  -0.019  -2.483  1.00  0.00     0.025 C 
ENDBRANCH  45  48
ENDBRANCH  43  44
ENDBRANCH   6  43
TORSDOF 18
