REMARK  16 active torsions:
REMARK  status: ('A' for Active; 'I' for Inactive)
REMARK    1  A    between atoms: N1_2  and  C2_5 
REMARK    2  A    between atoms: C2_5  and  C3_6 
REMARK    3  A    between atoms: C3_6  and  C4_7 
REMARK    4  A    between atoms: C4_7  and  C5_8 
REMARK    5  A    between atoms: C5_8  and  C6_9 
REMARK    6  A    between atoms: C6_9  and  C7_10 
REMARK    7  A    between atoms: C7_10  and  N2_11 
REMARK    8  A    between atoms: C12_17  and  C13_18 
REMARK    9  A    between atoms: C13_18  and  C14_19 
REMARK       I    between atoms: C14_19  and  N3_21 
REMARK   10  A    between atoms: N3_21  and  C15_23 
REMARK   11  A    between atoms: C15_23  and  O2_24 
REMARK   12  A    between atoms: C15_23  and  C16_26 
REMARK   13  A    between atoms: C16_26  and  N4_27 
REMARK   14  A    between atoms: C21_32  and  N5_33 
REMARK       I    between atoms: N5_33  and  C22_35 
REMARK   15  A    between atoms: C22_35  and  C23_37 
REMARK   16  A    between atoms: C23_37  and  C24_38 
ROOT
HETATM    1  C15 UNL     1      -0.993   3.176  -1.163  1.00  0.00     0.153 C 
ENDROOT
BRANCH   1   2
HETATM    2  N3  UNL     1      -1.771   2.810  -0.088  1.00  0.00    -0.307 N 
HETATM    3  C14 UNL     1      -1.540   2.222   1.154  1.00  0.00     0.228 C 
HETATM    4  O1  UNL     1      -0.437   1.841   1.556  1.00  0.00    -0.273 OA
ATOM      5  H3  UNL     1      -2.758   3.021  -0.237  1.00  0.00     0.171 HD
BRANCH   3   6
HETATM    6  C13 UNL     1      -2.718   2.025   2.098  1.00  0.00     0.150 C 
BRANCH   6   7
HETATM    7  C12 UNL     1      -2.929   0.533   2.240  1.00  0.00    -0.000 A 
HETATM    8  S1  UNL     1      -2.528  -0.508   3.525  1.00  0.00    -0.105 SA
HETATM    9  C11 UNL     1      -3.114  -1.972   2.887  1.00  0.00     0.058 A 
HETATM   10  C10 UNL     1      -3.620  -1.614   1.663  1.00  0.00    -0.041 A 
HETATM   11  C9  UNL     1      -4.268  -2.610   0.711  1.00  0.00     0.070 C 
HETATM   12  C34 UNL     1      -3.521  -0.304   1.331  1.00  0.00    -0.010 A 
HETATM   13  C8  UNL     1      -4.977  -1.967  -0.437  1.00  0.00     0.277 C 
HETATM   14  N2  UNL     1      -5.333  -0.623  -0.120  1.00  0.00     0.092 N 
HETATM   15  C35 UNL     1      -4.076   0.121  -0.024  1.00  0.00     0.312 C 
BRANCH  14  16
HETATM   16  C7  UNL     1      -6.236   0.005  -1.032  1.00  0.00     0.273 C 
BRANCH  16  17
HETATM   17  C6  UNL     1      -7.591  -0.617  -0.956  1.00  0.00     0.030 C 
BRANCH  17  18
HETATM   18  C5  UNL     1      -8.229  -0.527   0.386  1.00  0.00     0.002 C 
BRANCH  18  19
HETATM   19  C4  UNL     1      -9.589  -1.175   0.402  1.00  0.00     0.002 C 
BRANCH  19  20
HETATM   20  C3  UNL     1     -10.483  -0.501  -0.584  1.00  0.00     0.027 C 
BRANCH  20  21
HETATM   21  C2  UNL     1     -11.893  -1.077  -0.608  1.00  0.00     0.231 C 
BRANCH  21  22
HETATM   22  N1  UNL     1     -12.541  -0.950   0.661  1.00  0.00    -0.079 N 
HETATM   23  C1  UNL     1     -13.902  -1.490   0.570  1.00  0.00     0.266 C 
ATOM     24  H12 UNL     1     -12.529   0.010   1.006  1.00  0.00     0.276 HD
ATOM     25  H11 UNL     1     -12.004  -1.382   1.413  1.00  0.00     0.276 HD
ENDBRANCH  21  22
ENDBRANCH  20  21
ENDBRANCH  19  20
ENDBRANCH  18  19
ENDBRANCH  17  18
ENDBRANCH  16  17
ENDBRANCH  14  16
ENDBRANCH   6   7
ENDBRANCH   3   6
ENDBRANCH   1   2
BRANCH   1  26
HETATM   26  O2  UNL     1      -1.710   3.920  -2.043  1.00  0.00    -0.345 OA
ATOM     27  H2  UNL     1      -1.173   4.173  -2.785  1.00  0.00     0.219 HD
ENDBRANCH   1  26
BRANCH   1  28
HETATM   28  C16 UNL     1       0.350   3.016  -1.641  1.00  0.00     0.116 C 
BRANCH  28  29
HETATM   29  N4  UNL     1       1.223   2.144  -0.991  1.00  0.00    -0.280 NA
HETATM   30  C17 UNL     1       1.072   0.735  -1.257  1.00  0.00     0.101 C 
HETATM   31  C18 UNL     1       2.446   0.123  -1.083  1.00  0.00     0.005 C 
HETATM   32  C19 UNL     1       2.683  -0.384   0.277  1.00  0.00     0.008 C 
HETATM   33  C30 UNL     1       3.307   1.264  -1.511  1.00  0.00     0.015 C 
HETATM   34  C20 UNL     1       3.986  -0.092   0.919  1.00  0.00     0.026 C 
HETATM   35  C21 UNL     1       5.088   0.431   0.096  1.00  0.00     0.084 C 
HETATM   36  C29 UNL     1       4.738   1.126  -1.188  1.00  0.00     0.032 C 
HETATM   37  C31 UNL     1       2.623   2.492  -1.084  1.00  0.00     0.014 C 
HETATM   38  C32 UNL     1       2.878   3.565  -2.156  1.00  0.00     0.032 C 
HETATM   39  C33 UNL     1       3.013   3.109   0.218  1.00  0.00     0.032 C 
BRANCH  35  40
HETATM   40  N5  UNL     1       6.093  -0.612  -0.127  1.00  0.00    -0.356 N 
HETATM   41  C22 UNL     1       7.439  -0.326   0.153  1.00  0.00     0.220 C 
HETATM   42  O3  UNL     1       7.747   0.811   0.578  1.00  0.00    -0.274 OA
ATOM     43  H5  UNL     1       5.820  -1.529  -0.479  1.00  0.00     0.162 HD
BRANCH  41  44
HETATM   44  C23 UNL     1       8.471  -1.343  -0.051  1.00  0.00     0.137 C 
BRANCH  44  45
HETATM   45  C24 UNL     1       9.868  -0.840   0.117  1.00  0.00     0.157 C 
HETATM   46  C25 UNL     1      10.203  -0.266   1.451  1.00  0.00     0.204 C 
HETATM   47  O4  UNL     1      11.603  -0.425   1.446  1.00  0.00    -0.353 OA
HETATM   48  C26 UNL     1      11.784  -1.714   0.912  1.00  0.00     0.157 C 
HETATM   49  C27 UNL     1      11.857  -2.654   2.109  1.00  0.00     0.078 C 
HETATM   50  C28 UNL     1      13.059  -1.855   0.135  1.00  0.00     0.078 C 
HETATM   51  O5  UNL     1      10.707  -1.966   0.087  1.00  0.00    -0.348 OA
ENDBRANCH  44  45
ENDBRANCH  41  44
ENDBRANCH  35  40
ENDBRANCH  28  29
ENDBRANCH   1  28
TORSDOF 16
