REMARK  18 active torsions:
REMARK  status: ('A' for Active; 'I' for Inactive)
REMARK    1  A    between atoms: C2_2  and  C4_4 
REMARK    2  A    between atoms: C4_4  and  C5_5 
REMARK    3  A    between atoms: C5_5  and  N1_6 
REMARK    4  A    between atoms: C5_5  and  C6_10 
REMARK       I    between atoms: C6_10  and  N2_12 
REMARK    5  A    between atoms: C10_16  and  C11_17 
REMARK    6  A    between atoms: C11_17  and  O2_18 
REMARK    7  A    between atoms: C11_17  and  C34_50 
REMARK    8  A    between atoms: O2_18  and  C12_19 
REMARK    9  A    between atoms: C12_19  and  C13_20 
REMARK   10  A    between atoms: C13_20  and  C14_22 
REMARK   11  A    between atoms: C14_22  and  O4_23 
REMARK   12  A    between atoms: C14_22  and  N3_25 
REMARK       I    between atoms: N3_25  and  C15_27 
REMARK   13  A    between atoms: C15_27  and  C16_29 
REMARK   14  A    between atoms: C16_29  and  N4_30 
REMARK       I    between atoms: N4_30  and  C17_31 
REMARK   15  A    between atoms: C17_31  and  C18_33 
REMARK   16  A    between atoms: C18_33  and  C19_34 
REMARK   17  A    between atoms: C18_33  and  N5_37 
REMARK   18  A    between atoms: N5_37  and  C23_39 
ROOT
HETATM    1  C14 UNL     1       0.925  -0.047  -0.289  1.00  0.00     0.192 C 
ENDROOT
BRANCH   1   2
HETATM    2  C13 UNL     1       1.463  -0.885  -1.297  1.00  0.00     0.223 C 
HETATM    3  O3  UNL     1       0.760  -1.422  -2.171  1.00  0.00    -0.286 OA
BRANCH   2   4
HETATM    4  C12 UNL     1       2.987  -1.150  -1.310  1.00  0.00     0.255 C 
BRANCH   4   5
HETATM    5  O2  UNL     1       3.594  -0.395  -0.388  1.00  0.00    -0.376 OA
BRANCH   5   6
HETATM    6  C11 UNL     1       4.847  -0.466   0.001  1.00  0.00     0.148 C 
BRANCH   6   7
HETATM    7  C10 UNL     1       5.846   0.607   0.005  1.00  0.00     0.116 C 
HETATM    8  N2  UNL     1       6.472   1.139  -1.148  1.00  0.00    -0.343 N 
HETATM    9  C6  UNL     1       7.883   1.333  -1.327  1.00  0.00     0.251 C 
HETATM   10  C7  UNL     1       5.446   1.470  -2.103  1.00  0.00     0.126 C 
HETATM   11  O1  UNL     1       8.297   1.661  -2.436  1.00  0.00    -0.271 OA
HETATM   12  C8  UNL     1       4.478   2.188  -1.163  1.00  0.00     0.022 C 
HETATM   13  C9  UNL     1       4.950   1.921   0.249  1.00  0.00     0.029 C 
BRANCH   9  14
HETATM   14  C5  UNL     1       8.752   1.124  -0.133  1.00  0.00     0.275 C 
BRANCH  14  15
HETATM   15  C4  UNL     1      10.197   0.947  -0.405  1.00  0.00     0.046 C 
BRANCH  15  16
HETATM   16  C2  UNL     1      10.575  -0.337  -1.107  1.00  0.00    -0.020 C 
HETATM   17  C1  UNL     1      10.152  -1.558  -0.325  1.00  0.00     0.009 C 
HETATM   18  C3  UNL     1      12.111  -0.370  -1.065  1.00  0.00     0.009 C 
ENDBRANCH  15  16
ENDBRANCH  14  15
BRANCH  14  19
HETATM   19  N1  UNL     1       8.660   2.437   0.575  1.00  0.00    -0.066 N 
ATOM     20  H13 UNL     1       9.250   2.504   1.404  1.00  0.00     0.275 HD
ATOM     21  H12 UNL     1       9.086   3.213   0.068  1.00  0.00     0.275 HD
ATOM     22  H11 UNL     1       7.665   2.559   0.762  1.00  0.00     0.275 HD
ENDBRANCH  14  19
ENDBRANCH   9  14
ENDBRANCH   6   7
BRANCH   6  23
HETATM   23  C34 UNL     1       4.939  -1.334   1.289  1.00  0.00     0.008 C 
HETATM   24  C35 UNL     1       6.293  -1.990   1.403  1.00  0.00     0.012 C 
HETATM   25  C36 UNL     1       4.624  -0.578   2.520  1.00  0.00     0.012 C 
ENDBRANCH   6  23
ENDBRANCH   5   6
ENDBRANCH   4   5
ENDBRANCH   2   4
ENDBRANCH   1   2
BRANCH   1  26
HETATM   26  O4  UNL     1       1.825   0.404   0.565  1.00  0.00    -0.343 OA
ATOM     27  H4  UNL     1       1.464   0.966   1.241  1.00  0.00     0.219 HD
ENDBRANCH   1  26
BRANCH   1  28
HETATM   28  N3  UNL     1      -0.362   0.386  -0.042  1.00  0.00    -0.301 N 
HETATM   29  C15 UNL     1      -1.643   0.154  -0.547  1.00  0.00     0.265 C 
HETATM   30  O5  UNL     1      -1.909  -0.622  -1.489  1.00  0.00    -0.269 OA
ATOM     31  H3  UNL     1      -0.383   1.063   0.721  1.00  0.00     0.171 HD
BRANCH  29  32
HETATM   32  C16 UNL     1      -2.754   0.932   0.154  1.00  0.00     0.177 C 
HETATM   33  C31 UNL     1      -2.287   2.148   0.848  1.00  0.00     0.056 C 
HETATM   34  C32 UNL     1      -2.079   2.804  -0.524  1.00  0.00     0.008 C 
HETATM   35  C33 UNL     1      -3.232   1.970  -0.999  1.00  0.00     0.056 C 
BRANCH  32  36
HETATM   36  N4  UNL     1      -3.879   0.235   0.585  1.00  0.00    -0.392 NA
HETATM   37  C17 UNL     1      -4.957  -0.430   1.001  1.00  0.00     0.322 C 
HETATM   38  O6  UNL     1      -5.578  -0.273   2.119  1.00  0.00    -0.255 OA
BRANCH  37  39
HETATM   39  C18 UNL     1      -5.601  -1.513   0.117  1.00  0.00     0.332 C 
BRANCH  39  40
HETATM   40  C19 UNL     1      -4.692  -2.680   0.236  1.00  0.00     0.021 C 
HETATM   41  C20 UNL     1      -4.554  -3.248   1.648  1.00  0.00     0.012 C 
HETATM   42  C21 UNL     1      -4.852  -3.758  -0.803  1.00  0.00     0.012 C 
ENDBRANCH  39  40
BRANCH  39  43
HETATM   43  N5  UNL     1      -6.918  -1.633   0.632  1.00  0.00     0.104 N 
HETATM   44  C22 UNL     1      -7.686  -2.794   0.319  1.00  0.00     0.311 C 
BRANCH  43  45
HETATM   45  C23 UNL     1      -7.664  -0.430   0.202  1.00  0.00     0.223 C 
HETATM   46  C24 UNL     1      -7.868  -0.370  -1.271  1.00  0.00     0.036 C 
HETATM   47  C25 UNL     1      -9.190   0.165  -1.703  1.00  0.00     0.002 C 
HETATM   48  C26 UNL     1      -9.436   1.603  -1.486  1.00  0.00     0.000 C 
HETATM   49  C27 UNL     1      -8.417   2.370  -0.720  1.00  0.00     0.000 C 
HETATM   50  C28 UNL     1      -8.430   2.222   0.759  1.00  0.00     0.000 C 
HETATM   51  C29 UNL     1      -9.276   1.146   1.330  1.00  0.00     0.002 C 
HETATM   52  C30 UNL     1      -8.825  -0.259   1.076  1.00  0.00     0.036 C 
ENDBRANCH  43  45
ENDBRANCH  39  43
ENDBRANCH  37  39
ENDBRANCH  32  36
ENDBRANCH  29  32
ENDBRANCH   1  28
TORSDOF 18
