REMARK  7 active torsions:
REMARK  status: ('A' for Active; 'I' for Inactive)
REMARK    1  A    between atoms: C2_2  and  N1_4 
REMARK    2  A    between atoms: N1_4  and  C4_5 
REMARK    3  A    between atoms: N1_4  and  C12_18 
REMARK    4  A    between atoms: C4_5  and  C5_6 
REMARK    5  A    between atoms: C5_6  and  N2_7 
REMARK    6  A    between atoms: C10_12  and  N3_13 
REMARK    7  A    between atoms: C12_18  and  C15_21 
ROOT
HETATM    1  N1  UNL     1       1.049  -1.554  -0.533  1.00  0.00    -0.399 N 
ENDROOT
BRANCH   1   2
HETATM    2  C2  UNL     1       0.849  -2.923  -0.584  1.00  0.00     0.071 C 
HETATM    3  C1  UNL     1       0.292  -3.428  -1.930  1.00  0.00     0.031 C 
HETATM    4  C3  UNL     1       1.902  -3.903  -0.197  1.00  0.00     0.031 C 
ENDBRANCH   1   2
BRANCH   1   5
HETATM    5  C4  UNL     1      -0.185  -0.862  -0.692  1.00  0.00     0.148 C 
BRANCH   5   6
HETATM    6  C5  UNL     1      -1.155  -0.962   0.459  1.00  0.00     0.291 C 
BRANCH   6   7
HETATM    7  N2  UNL     1      -2.362  -0.194   0.162  1.00  0.00     0.092 N 
HETATM    8  C6  UNL     1      -3.322  -0.273   1.228  1.00  0.00     0.272 C 
HETATM    9  C7  UNL     1      -4.682  -0.456   0.617  1.00  0.00     0.030 C 
HETATM   10  C8  UNL     1      -5.335   0.840   0.257  1.00  0.00     0.004 C 
HETATM   11  C9  UNL     1      -4.489   1.667  -0.699  1.00  0.00     0.034 C 
HETATM   12  C10 UNL     1      -3.218   2.101  -0.033  1.00  0.00     0.211 C 
HETATM   13  C11 UNL     1      -2.127   1.109  -0.339  1.00  0.00     0.305 C 
BRANCH  12  14
HETATM   14  N3  UNL     1      -2.822   3.374  -0.653  1.00  0.00    -0.073 N 
ATOM     15  H33 UNL     1      -2.744   3.318  -1.668  1.00  0.00     0.274 HD
ATOM     16  H32 UNL     1      -3.555   4.082  -0.618  1.00  0.00     0.274 HD
ATOM     17  H31 UNL     1      -1.957   3.669  -0.200  1.00  0.00     0.274 HD
ENDBRANCH  12  14
ENDBRANCH   6   7
ENDBRANCH   5   6
ENDBRANCH   1   5
BRANCH   1  18
HETATM   18  C12 UNL     1       2.034  -0.973   0.295  1.00  0.00     0.024 C 
HETATM   19  C13 UNL     1       3.441  -1.410  -0.085  1.00  0.00     0.038 C 
HETATM   20  C14 UNL     1       1.859  -1.436   1.724  1.00  0.00     0.038 C 
BRANCH  18  21
HETATM   21  C15 UNL     1       2.001   0.530   0.242  1.00  0.00     0.013 C 
HETATM   22  C16 UNL     1       3.011   1.210   1.139  1.00  0.00     0.007 C 
HETATM   23  C17 UNL     1       2.654   2.711   1.022  1.00  0.00     0.000 C 
HETATM   24  C18 UNL     1       3.347   3.186  -0.245  1.00  0.00     0.000 C 
HETATM   25  C19 UNL     1       3.492   1.999  -1.185  1.00  0.00     0.000 C 
HETATM   26  C20 UNL     1       2.265   1.109  -1.126  1.00  0.00     0.007 C 
ENDBRANCH  18  21
ENDBRANCH   1  18
TORSDOF 7
