REMARK  6 active torsions:
REMARK  status: ('A' for Active; 'I' for Inactive)
REMARK    1  A    between atoms: C2_2  and  C4_4 
REMARK    2  A    between atoms: C4_4  and  C5_5 
REMARK    3  A    between atoms: C5_5  and  C6_6 
REMARK    4  A    between atoms: C6_6  and  N1_8 
REMARK    5  A    between atoms: N1_8  and  C8_10 
REMARK    6  A    between atoms: C9_13  and  N3_14 
ROOT
HETATM    1  C8  UNL     1      -0.378  -0.498   0.278  1.00  0.00     0.125 A 
HETATM    2  N2  UNL     1      -1.072   0.604   0.562  1.00  0.00    -0.176 N 
ATOM      3  H2  UNL     1      -0.619   1.331   1.117  1.00  0.00     0.186 HD
HETATM    4  C9  UNL     1      -2.347   0.810   0.153  1.00  0.00     0.682 A 
HETATM    5  N4  UNL     1      -2.946  -0.156  -0.583  1.00  0.00    -0.195 N 
ATOM      6  H4  UNL     1      -3.905  -0.024  -0.904  1.00  0.00     0.184 HD
HETATM    7  C14 UNL     1      -2.289  -1.290  -0.896  1.00  0.00     0.036 A 
HETATM    8  C15 UNL     1      -1.024  -1.481  -0.484  1.00  0.00     0.009 A 
HETATM    9  C16 UNL     1      -0.137  -2.652  -0.717  1.00  0.00     0.044 C 
HETATM   10  C17 UNL     1      -0.867  -3.846  -0.138  1.00  0.00     0.005 C 
HETATM   11  C18 UNL     1      -1.964  -4.304  -1.075  1.00  0.00     0.001 C 
HETATM   12  C19 UNL     1      -3.220  -3.523  -0.914  1.00  0.00     0.006 C 
HETATM   13  C20 UNL     1      -3.155  -2.221  -1.712  1.00  0.00     0.058 C 
ENDROOT
BRANCH   1  14
HETATM   14  N1  UNL     1       0.822  -0.703   0.633  1.00  0.00    -0.371 N 
ATOM     15  H1  UNL     1       1.209  -1.599   0.338  1.00  0.00     0.161 HD
BRANCH  14  16
HETATM   16  C6  UNL     1       1.724   0.124   1.384  1.00  0.00     0.079 C 
HETATM   17  C7  UNL     1       2.659  -0.803   2.094  1.00  0.00     0.032 C 
BRANCH  16  18
HETATM   18  C5  UNL     1       2.330   1.223   0.596  1.00  0.00     0.025 C 
BRANCH  18  19
HETATM   19  C4  UNL     1       3.218   0.923  -0.524  1.00  0.00     0.006 C 
BRANCH  19  20
HETATM   20  C2  UNL     1       4.490   0.218  -0.349  1.00  0.00    -0.023 C 
HETATM   21  C1  UNL     1       5.175   0.034  -1.731  1.00  0.00     0.009 C 
HETATM   22  C3  UNL     1       5.521   0.930   0.490  1.00  0.00     0.009 C 
ENDBRANCH  19  20
ENDBRANCH  18  19
ENDBRANCH  16  18
ENDBRANCH  14  16
ENDBRANCH   1  14
BRANCH   4  23
HETATM   23  N3  UNL     1      -3.088   1.983   0.463  1.00  0.00    -0.218 N 
HETATM   24  C10 UNL     1      -3.832   2.730  -0.537  1.00  0.00     0.141 C 
HETATM   25  C11 UNL     1      -3.411   4.153  -0.189  1.00  0.00     0.022 C 
HETATM   26  C12 UNL     1      -3.126   4.122   1.317  1.00  0.00     0.022 C 
HETATM   27  C13 UNL     1      -3.294   2.668   1.719  1.00  0.00     0.141 C 
ENDBRANCH   4  23
TORSDOF 6
