REMARK  6 active torsions:
REMARK  status: ('A' for Active; 'I' for Inactive)
REMARK       I    between atoms: C1_2  and  N1_3 
REMARK    1  A    between atoms: C1_2  and  O2_19 
REMARK    2  A    between atoms: N1_3  and  C2_5 
REMARK    3  A    between atoms: C2_5  and  C3_6 
REMARK    4  A    between atoms: C3_6  and  C4_7 
REMARK    5  A    between atoms: C4_7  and  N2_8 
REMARK    6  A    between atoms: O2_19  and  C15_20 
ROOT
HETATM    1  C3  UNL     1       0.161   1.232   0.732  1.00  0.00     0.050 C 
ENDROOT
BRANCH   1   2
HETATM    2  C2  UNL     1       1.607   1.563   0.903  1.00  0.00     0.127 C 
BRANCH   2   3
HETATM    3  N1  UNL     1       2.508   0.551   0.406  1.00  0.00    -0.337 N 
HETATM    4  C1  UNL     1       3.901   0.800   0.536  1.00  0.00     0.360 C 
HETATM    5  O1  UNL     1       4.348   1.852   1.062  1.00  0.00    -0.239 OA
ATOM      6  H1  UNL     1       2.159  -0.307  -0.021  1.00  0.00     0.164 HD
BRANCH   4   7
HETATM    7  O2  UNL     1       4.872  -0.108   0.088  1.00  0.00    -0.299 OA
BRANCH   7   8
HETATM    8  C15 UNL     1       6.256   0.203   0.248  1.00  0.00     0.133 C 
HETATM    9  C16 UNL     1       7.027   0.121  -1.025  1.00  0.00     0.032 C 
HETATM   10  C17 UNL     1       7.254  -1.369  -1.202  1.00  0.00     0.002 C 
HETATM   11  C18 UNL     1       7.772  -1.707   0.206  1.00  0.00     0.002 C 
HETATM   12  C19 UNL     1       6.867  -0.863   1.118  1.00  0.00     0.032 C 
ENDBRANCH   7   8
ENDBRANCH   4   7
ENDBRANCH   2   3
ENDBRANCH   1   2
BRANCH   1  13
HETATM   13  C4  UNL     1      -0.129   1.052  -0.737  1.00  0.00     0.274 C 
BRANCH  13  14
HETATM   14  N2  UNL     1      -1.510   0.737  -0.992  1.00  0.00     0.088 N 
HETATM   15  C5  UNL     1      -2.401   1.828  -0.716  1.00  0.00     0.272 C 
HETATM   16  C6  UNL     1      -3.344   1.618   0.419  1.00  0.00     0.031 C 
HETATM   17  C7  UNL     1      -4.615   0.914   0.003  1.00  0.00     0.011 C 
HETATM   18  C8  UNL     1      -4.436  -0.548  -0.238  1.00  0.00    -0.039 C 
HETATM   19  C9  UNL     1      -5.652  -1.009  -1.060  1.00  0.00     0.009 C 
HETATM   20  C12 UNL     1      -4.652  -1.379   1.009  1.00  0.00     0.009 C 
HETATM   21  C13 UNL     1      -3.223  -0.924  -1.016  1.00  0.00     0.039 C 
HETATM   22  C10 UNL     1      -6.779  -0.866  -0.053  1.00  0.00     0.001 C 
HETATM   23  C11 UNL     1      -6.151  -1.318   1.245  1.00  0.00     0.001 C 
HETATM   24  C14 UNL     1      -1.924  -0.513  -0.413  1.00  0.00     0.273 C 
ENDBRANCH  13  14
ENDBRANCH   1  13
TORSDOF 6
