REMARK  7 active torsions:
REMARK  status: ('A' for Active; 'I' for Inactive)
REMARK    1  A    between atoms: C2_2  and  O2_4 
REMARK    2  A    between atoms: O2_4  and  C3_5 
REMARK    3  A    between atoms: C3_5  and  C4_6 
REMARK    4  A    between atoms: C4_6  and  C5_7 
REMARK    5  A    between atoms: C5_7  and  C6_8 
REMARK    6  A    between atoms: C6_8  and  C7_9 
REMARK    7  A    between atoms: C6_8  and  C8_12 
ROOT
HETATM    1  C8  UNL     1      -0.329  -0.304  -0.696  1.00  0.00     0.004 C 
HETATM    2  C9  UNL     1      -0.252   0.626   0.444  1.00  0.00     0.007 C 
HETATM    3  C10 UNL     1      -1.303   1.718   0.430  1.00  0.00     0.010 C 
HETATM    4  C11 UNL     1      -2.709   1.230   0.493  1.00  0.00    -0.043 C 
HETATM    5  C12 UNL     1      -3.466   2.177   1.442  1.00  0.00     0.015 C 
HETATM    6  C13 UNL     1      -3.446   1.247  -0.797  1.00  0.00     0.013 C 
HETATM    7  C14 UNL     1      -3.659  -0.043  -1.476  1.00  0.00    -0.013 C 
HETATM    8  C15 UNL     1      -3.884  -1.224  -0.558  1.00  0.00     0.010 C 
HETATM    9  C16 UNL     1      -2.535  -1.193   0.193  1.00  0.00    -0.009 C 
HETATM   10  C17 UNL     1      -2.701  -0.112   1.178  1.00  0.00     0.014 C 
HETATM   11  C18 UNL     1      -1.591  -1.039  -0.910  1.00  0.00    -0.005 C 
HETATM   12  C19 UNL     1      -2.333  -0.464  -2.114  1.00  0.00     0.010 C 
ENDROOT
BRANCH   1  13
HETATM   13  C6  UNL     1       0.859  -1.230  -0.679  1.00  0.00     0.091 C 
BRANCH  13  14
HETATM   14  C5  UNL     1       2.178  -0.452  -0.770  1.00  0.00     0.018 C 
BRANCH  14  15
HETATM   15  C4  UNL     1       3.294  -1.376  -1.033  1.00  0.00     0.028 C 
BRANCH  15  16
HETATM   16  C3  UNL     1       4.667  -0.844  -1.214  1.00  0.00     0.178 C 
BRANCH  16  17
HETATM   17  O2  UNL     1       5.285  -0.121  -0.251  1.00  0.00    -0.322 OA
BRANCH  17  18
HETATM   18  C2  UNL     1       5.070   1.136   0.220  1.00  0.00     0.254 C 
HETATM   19  C1  UNL     1       5.908   1.708   1.349  1.00  0.00     0.126 C 
HETATM   20  O1  UNL     1       4.167   1.830  -0.288  1.00  0.00    -0.266 OA
ENDBRANCH  17  18
ENDBRANCH  16  17
ENDBRANCH  15  16
ENDBRANCH  14  15
ENDBRANCH  13  14
BRANCH  13  21
HETATM   21  C7  UNL     1       0.876  -2.219   0.394  1.00  0.00     0.177 C 
HETATM   22  O3  UNL     1       0.637  -3.433   0.171  1.00  0.00    -0.648 OA
HETATM   23  O4  UNL     1       1.157  -1.846   1.692  1.00  0.00    -0.648 OA
ENDBRANCH  13  21
ENDBRANCH   1  13
TORSDOF 7
