REMARK  7 active torsions:
REMARK  status: ('A' for Active; 'I' for Inactive)
REMARK    1  A    between atoms: O1_2  and  C2_3 
REMARK    2  A    between atoms: C2_3  and  C3_5 
REMARK    3  A    between atoms: C3_5  and  C4_6 
REMARK    4  A    between atoms: C5_7  and  O3_8 
REMARK    5  A    between atoms: C13_17  and  C15_19 
REMARK    6  A    between atoms: C15_19  and  N1_20 
REMARK    7  A    between atoms: N1_20  and  C17_22 
ROOT
HETATM    1  C4  UNL     1       1.419  -0.548   0.238  1.00  0.00     0.034 C 
HETATM    2  C5  UNL     1       2.165  -0.003  -0.915  1.00  0.00     0.127 C 
HETATM    3  C6  UNL     1       2.463   1.427  -0.657  1.00  0.00     0.066 C 
HETATM    4  C7  UNL     1       1.400   2.046   0.126  1.00  0.00    -0.076 C 
HETATM    5  C8  UNL     1       1.599   3.360   0.397  1.00  0.00    -0.023 C 
HETATM    6  C9  UNL     1       0.526   4.014   1.195  1.00  0.00     0.027 C 
HETATM    7  C10 UNL     1      -0.766   3.746   0.465  1.00  0.00     0.004 C 
HETATM    8  C11 UNL     1      -0.998   2.281   0.176  1.00  0.00     0.010 C 
HETATM    9  C12 UNL     1       0.167   1.465   0.663  1.00  0.00     0.025 C 
HETATM   10  C13 UNL     1       0.036  -0.024   0.500  1.00  0.00    -0.004 C 
HETATM   11  C14 UNL     1      -0.285  -0.571   1.908  1.00  0.00     0.018 C 
ENDROOT
BRANCH  10  12
HETATM   12  C15 UNL     1      -0.901  -0.473  -0.541  1.00  0.00     0.282 C 
BRANCH  12  13
HETATM   13  N1  UNL     1      -2.287  -0.086  -0.466  1.00  0.00     0.088 N 
HETATM   14  C16 UNL     1      -2.918  -0.411  -1.787  1.00  0.00     0.310 C 
BRANCH  13  15
HETATM   15  C17 UNL     1      -3.114  -0.885   0.418  1.00  0.00     0.214 C 
HETATM   16  C18 UNL     1      -3.209  -2.343  -0.051  1.00  0.00     0.042 C 
HETATM   17  C19 UNL     1      -4.525  -0.304   0.315  1.00  0.00     0.042 C 
ENDBRANCH  13  15
ENDBRANCH  12  13
ENDBRANCH  10  12
BRANCH   1  18
HETATM   18  C3  UNL     1       1.541  -2.049   0.200  1.00  0.00     0.119 C 
BRANCH  18  19
HETATM   19  C2  UNL     1       3.006  -2.419   0.282  1.00  0.00     0.258 C 
HETATM   20  O2  UNL     1       3.686  -2.111   1.293  1.00  0.00    -0.265 OA
BRANCH  19  21
HETATM   21  O1  UNL     1       3.654  -3.098  -0.737  1.00  0.00    -0.326 OA
HETATM   22  C1  UNL     1       5.002  -3.463  -0.751  1.00  0.00     0.213 C 
ENDBRANCH  19  21
ENDBRANCH  18  19
ENDBRANCH   1  18
BRANCH   2  23
HETATM   23  O3  UNL     1       1.640  -0.162  -2.162  1.00  0.00    -0.395 OA
ATOM     24  H3  UNL     1       2.120   0.188  -2.903  1.00  0.00     0.210 HD
ENDBRANCH   2  23
TORSDOF 7
