REMARK  9 active torsions:
REMARK  status: ('A' for Active; 'I' for Inactive)
REMARK    1  A    between atoms: C2_2  and  O1_3 
REMARK    2  A    between atoms: O1_3  and  C3_4 
REMARK    3  A    between atoms: C3_4  and  C4_6 
REMARK    4  A    between atoms: C5_7  and  O3_8 
REMARK    5  A    between atoms: N2_15  and  O4_17 
REMARK    6  A    between atoms: N3_19  and  C9_20 
REMARK    7  A    between atoms: C9_20  and  O5_21 
REMARK    8  A    between atoms: C9_20  and  O6_23 
REMARK    9  A    between atoms: O6_23  and  C10_24 
ROOT
HETATM    1  C4  UNL     1       0.802   0.767   0.250  1.00  0.00     0.172 A 
HETATM    2  C5  UNL     1       1.100   2.160   0.342  1.00  0.00     0.139 A 
HETATM    3  C6  UNL     1       0.172   2.997   0.870  1.00  0.00     0.152 A 
HETATM    4  S1  UNL     1       0.479   4.610   0.992  1.00  0.00    -0.057 SA
HETATM    5  N1  UNL     1      -1.008   2.554   1.306  1.00  0.00    -0.176 N 
ATOM      6  H1  UNL     1      -1.687   3.206   1.700  1.00  0.00     0.185 HD
HETATM    7  C7  UNL     1      -1.293   1.264   1.225  1.00  0.00     0.714 A 
HETATM    8  N2  UNL     1      -2.418   0.781   1.630  1.00  0.00    -0.096 N 
ATOM      9  H2  UNL     1      -2.569  -0.223   1.536  1.00  0.00     0.213 HD
HETATM   10  N3  UNL     1      -0.383   0.354   0.692  1.00  0.00    -0.093 N 
ENDROOT
BRANCH  10  11
HETATM   11  C9  UNL     1      -0.788  -0.982   0.656  1.00  0.00     0.284 C 
BRANCH  11  12
HETATM   12  O5  UNL     1      -1.980  -1.276   1.122  1.00  0.00    -0.326 OA
ATOM     13  H5  UNL     1      -2.256  -2.185   1.098  1.00  0.00     0.221 HD
ENDBRANCH  11  12
BRANCH  11  14
HETATM   14  O6  UNL     1      -0.170  -2.090   0.216  1.00  0.00    -0.316 OA
BRANCH  14  15
HETATM   15  C10 UNL     1      -0.763  -3.402   0.264  1.00  0.00     0.175 C 
HETATM   16  C11 UNL     1      -2.041  -3.450  -0.533  1.00  0.00     0.034 C 
ENDBRANCH  14  15
ENDBRANCH  11  14
ENDBRANCH  10  11
BRANCH   1  17
HETATM   17  C3  UNL     1       1.828  -0.079  -0.319  1.00  0.00     0.314 C 
HETATM   18  O2  UNL     1       1.881  -1.280  -0.531  1.00  0.00    -0.257 OA
BRANCH  17  19
HETATM   19  O1  UNL     1       3.041   0.560  -0.735  1.00  0.00    -0.317 OA
BRANCH  19  20
HETATM   20  C2  UNL     1       4.085  -0.218  -1.301  1.00  0.00     0.175 C 
HETATM   21  C1  UNL     1       3.695  -0.936  -2.548  1.00  0.00     0.034 C 
ENDBRANCH  19  20
ENDBRANCH  17  19
ENDBRANCH   1  17
BRANCH   2  22
HETATM   22  O3  UNL     1       2.331   2.608  -0.115  1.00  0.00    -0.356 OA
ATOM     23  H3  UNL     1       2.529   3.535  -0.054  1.00  0.00     0.218 HD
ENDBRANCH   2  22
BRANCH   8  24
HETATM   24  O4  UNL     1      -3.411   1.524   2.172  1.00  0.00    -0.271 OA
HETATM   25  C8  UNL     1      -4.351   2.119   1.269  1.00  0.00     0.238 C 
ENDBRANCH   8  24
TORSDOF 9
