REMARK  6 active torsions:
REMARK  status: ('A' for Active; 'I' for Inactive)
REMARK    1  A    between atoms: O1_2  and  C2_3 
REMARK    2  A    between atoms: C2_3  and  C3_4 
REMARK    3  A    between atoms: C3_4  and  O3_6 
REMARK    4  A    between atoms: O3_6  and  C4_7 
REMARK    5  A    between atoms: C5_8  and  N1_9 
REMARK    6  A    between atoms: C8_18  and  N3_19 
ROOT
HETATM    1  C4  UNL     1       0.791   0.326  -0.973  1.00  0.00     0.148 A 
HETATM    2  C5  UNL     1       1.126  -0.009  -2.253  1.00  0.00     0.180 A 
HETATM    3  S1  UNL     1       2.743  -0.527  -2.105  1.00  0.00    -0.058 SA
HETATM    4  C6  UNL     1       2.953  -0.306  -0.427  1.00  0.00     0.076 A 
HETATM    5  C7  UNL     1       4.027  -0.516   0.450  1.00  0.00     0.136 A 
HETATM    6  S2  UNL     1       5.409  -1.086  -0.157  1.00  0.00    -0.058 SA
HETATM    7  N2  UNL     1       3.892  -0.242   1.766  1.00  0.00    -0.180 N 
ATOM      8  H2  UNL     1       4.649  -0.381   2.435  1.00  0.00     0.185 HD
HETATM    9  C8  UNL     1       2.685   0.227   2.127  1.00  0.00     0.677 A 
HETATM   10  N4  UNL     1       1.656   0.434   1.328  1.00  0.00    -0.188 N 
ATOM     11  H4  UNL     1       0.784   0.794   1.716  1.00  0.00     0.184 HD
HETATM   12  C9  UNL     1       1.739   0.172  -0.023  1.00  0.00     0.106 A 
ENDROOT
BRANCH   1  13
HETATM   13  O3  UNL     1      -0.525   0.813  -0.719  1.00  0.00    -0.272 OA
BRANCH  13  14
HETATM   14  C3  UNL     1      -1.540  -0.104  -0.398  1.00  0.00     0.288 C 
HETATM   15  O2  UNL     1      -1.202  -1.314  -0.359  1.00  0.00    -0.262 OA
BRANCH  14  16
HETATM   16  C2  UNL     1      -2.929   0.351  -0.123  1.00  0.00     0.278 C 
BRANCH  16  17
HETATM   17  O1  UNL     1      -3.687  -0.779   0.160  1.00  0.00    -0.386 OA
HETATM   18  C1  UNL     1      -5.017  -0.449   0.433  1.00  0.00     0.202 C 
ENDBRANCH  16  17
ENDBRANCH  14  16
ENDBRANCH  13  14
ENDBRANCH   1  13
BRANCH   2  19
HETATM   19  N1  UNL     1       0.345   0.048  -3.437  1.00  0.00    -0.105 N 
HETATM   20  O4  UNL     1      -0.819   0.452  -3.367  1.00  0.00    -0.531 OA
HETATM   21  O5  UNL     1       0.878  -0.338  -4.629  1.00  0.00    -0.531 OA
ENDBRANCH   2  19
BRANCH   9  22
HETATM   22  N3  UNL     1       2.560   0.490   3.402  1.00  0.00    -0.234 N 
ATOM     23  H32 UNL     1       3.356   0.330   4.020  1.00  0.00     0.174 HD
ATOM     24  H31 UNL     1       1.644   0.846   3.676  1.00  0.00     0.174 HD
ENDBRANCH   9  22
TORSDOF 6
