REMARK  11 active torsions:
REMARK  status: ('A' for Active; 'I' for Inactive)
REMARK    1  A    between atoms: C2_2  and  O1_5 
REMARK    2  A    between atoms: O1_5  and  C5_6 
REMARK    3  A    between atoms: C5_6  and  O3_8 
REMARK    4  A    between atoms: O3_8  and  C6_9 
REMARK    5  A    between atoms: C6_9  and  C7_10 
REMARK    6  A    between atoms: C9_12  and  O4_13 
REMARK    7  A    between atoms: C10_15  and  C11_16 
REMARK    8  A    between atoms: C11_16  and  O5_17 
REMARK    9  A    between atoms: N1_19  and  O6_21 
REMARK   10  A    between atoms: C12_23  and  O7_24 
REMARK   11  A    between atoms: O7_24  and  O8_25 
ROOT
HETATM    1  C7  UNL     1       1.178  -0.551  -0.628  1.00  0.00     0.068 A 
HETATM    2  C8  UNL     1       1.437  -1.172   0.670  1.00  0.00     0.015 A 
HETATM    3  C9  UNL     1       2.705  -1.463   0.812  1.00  0.00     0.054 A 
HETATM    4  C10 UNL     1       3.523  -1.081  -0.380  1.00  0.00     0.151 A 
HETATM    5  C12 UNL     1       2.513  -0.571  -1.338  1.00  0.00     0.188 A 
ENDROOT
BRANCH   1   6
HETATM    6  C6  UNL     1       0.788   0.917  -0.495  1.00  0.00     0.192 C 
BRANCH   6   7
HETATM    7  O3  UNL     1      -0.353   1.144   0.257  1.00  0.00    -0.297 OA
BRANCH   7   8
HETATM    8  C5  UNL     1      -1.590   0.653  -0.079  1.00  0.00     0.407 C 
HETATM    9  O2  UNL     1      -1.756  -0.032  -1.096  1.00  0.00    -0.229 OA
BRANCH   8  10
HETATM   10  O1  UNL     1      -2.728   0.885   0.684  1.00  0.00    -0.288 OA
BRANCH  10  11
HETATM   11  C2  UNL     1      -3.998   0.427   0.410  1.00  0.00     0.062 C 
HETATM   12  C1  UNL     1      -4.923   0.932   1.526  1.00  0.00     0.046 C 
HETATM   13  C3  UNL     1      -4.086  -1.097   0.478  1.00  0.00     0.046 C 
HETATM   14  C4  UNL     1      -4.594   0.858  -0.883  1.00  0.00     0.046 C 
ENDBRANCH  10  11
ENDBRANCH   8  10
ENDBRANCH   7   8
ENDBRANCH   6   7
ENDBRANCH   1   6
BRANCH   5  15
HETATM   15  O7  UNL     1       2.840   0.662  -1.862  1.00  0.00    -0.236 OA
BRANCH  15  16
HETATM   16  O8  UNL     1       2.885   0.676  -3.177  1.00  0.00    -0.250 OA
ATOM     17  H8  UNL     1       3.110   1.525  -3.538  1.00  0.00     0.253 HD
ENDBRANCH  15  16
ENDBRANCH   5  15
BRANCH   3  18
HETATM   18  O4  UNL     1       3.313  -2.069   1.934  1.00  0.00    -0.364 OA
ATOM     19  H4  UNL     1       4.233  -2.280   2.037  1.00  0.00     0.217 HD
ENDBRANCH   3  18
BRANCH   4  20
HETATM   20  C11 UNL     1       4.540  -0.136   0.065  1.00  0.00     0.148 C 
HETATM   21  N1  UNL     1       4.680   1.036  -0.376  1.00  0.00    -0.250 N 
ATOM     22  H1  UNL     1       4.038   1.358  -1.100  1.00  0.00     0.196 HD
BRANCH  20  23
HETATM   23  O5  UNL     1       5.428  -0.571   1.060  1.00  0.00    -0.347 OA
ATOM     24  H5  UNL     1       6.091   0.045   1.350  1.00  0.00     0.219 HD
ENDBRANCH  20  23
BRANCH  21  25
HETATM   25  O6  UNL     1       5.641   1.897   0.060  1.00  0.00    -0.288 OA
ATOM     26  H6  UNL     1       5.747   2.781  -0.272  1.00  0.00     0.244 HD
ENDBRANCH  21  25
ENDBRANCH   4  20
TORSDOF 11
