REMARK  6 active torsions:
REMARK  status: ('A' for Active; 'I' for Inactive)
REMARK    1  A    between atoms: C1_2  and  C2_3 
REMARK    2  A    between atoms: C1_2  and  O4_20 
REMARK    3  A    between atoms: C2_3  and  N1_4 
REMARK    4  A    between atoms: N2_6  and  C3_8 
REMARK    5  A    between atoms: C4_9  and  O2_10 
REMARK    6  A    between atoms: O4_20  and  C7_21 
ROOT
HETATM    1  N1  UNL     1       1.812   0.951   1.880  1.00  0.00    -0.326 N 
ATOM      2  H1  UNL     1       1.413   1.433   2.686  1.00  0.00     0.180 HD
HETATM    3  N2  UNL     1       2.961   0.423   1.987  1.00  0.00    -0.296 N 
ATOM      4  H2  UNL     1       3.484   0.475   2.861  1.00  0.00     0.187 HD
ENDROOT
BRANCH   3   5
HETATM    5  C3  UNL     1       3.496  -0.243   0.853  1.00  0.00     0.167 A 
HETATM    6  C4  UNL     1       4.093   0.484  -0.156  1.00  0.00     0.176 A 
HETATM    7  N3  UNL     1       4.578  -0.208  -1.198  1.00  0.00    -0.312 N 
HETATM    8  C5  UNL     1       4.513  -1.546  -1.306  1.00  0.00     0.180 A 
ATOM      9  H3  UNL     1       5.023   0.313  -1.954  1.00  0.00     0.170 HD
HETATM   10  S1  UNL     1       5.110  -2.365  -2.582  1.00  0.00    -0.040 SA
HETATM   11  N4  UNL     1       3.932  -2.276  -0.326  1.00  0.00    -0.298 N 
HETATM   12  C6  UNL     1       3.434  -1.608   0.736  1.00  0.00     0.280 A 
ATOM     13  H4  UNL     1       3.873  -3.292  -0.387  1.00  0.00     0.171 HD
HETATM   14  O3  UNL     1       2.873  -2.239   1.693  1.00  0.00    -0.265 OA
BRANCH   6  15
HETATM   15  O2  UNL     1       4.161   1.864  -0.046  1.00  0.00    -0.344 OA
ATOM     16  H2  UNL     1       4.572   2.365  -0.741  1.00  0.00     0.219 HD
ENDBRANCH   6  15
ENDBRANCH   3   5
BRANCH   1  17
HETATM   17  C2  UNL     1       1.049   0.891   0.652  1.00  0.00     0.250 C 
BRANCH  17  18
HETATM   18  C1  UNL     1      -0.394   0.659   0.919  1.00  0.00     0.278 C 
HETATM   19  O1  UNL     1      -0.743   0.551   2.123  1.00  0.00    -0.263 OA
BRANCH  18  20
HETATM   20  O4  UNL     1      -1.330   0.563  -0.100  1.00  0.00    -0.315 OA
BRANCH  20  21
HETATM   21  C7  UNL     1      -2.665   0.344   0.239  1.00  0.00     0.132 C 
HETATM   22  C8  UNL     1      -3.497   1.465  -0.349  1.00  0.00     0.032 C 
HETATM   23  C9  UNL     1      -4.815   0.842  -0.663  1.00  0.00     0.002 C 
HETATM   24  C10 UNL     1      -4.742  -0.617  -0.276  1.00  0.00     0.002 C 
HETATM   25  C11 UNL     1      -3.254  -0.898  -0.383  1.00  0.00     0.032 C 
ENDBRANCH  20  21
ENDBRANCH  18  20
ENDBRANCH  17  18
ENDBRANCH   1  17
TORSDOF 6
