REMARK  8 active torsions:
REMARK  status: ('A' for Active; 'I' for Inactive)
REMARK    1  A    between atoms: O1_2  and  C2_3 
REMARK    2  A    between atoms: C2_3  and  C3_5 
REMARK    3  A    between atoms: C4_6  and  O3_7 
REMARK    4  A    between atoms: C5_9  and  O4_10 
REMARK       I    between atoms: N1_12  and  C6_13 
REMARK    5  A    between atoms: C8_16  and  C9_17 
REMARK    6  A    between atoms: C10_18  and  C11_19 
REMARK    7  A    between atoms: C11_19  and  C12_24 
REMARK    8  A    between atoms: N2_20  and  O6_22 
ROOT
HETATM    1  C3  UNL     1      -1.956   0.317   0.111  1.00  0.00     0.104 A 
HETATM    2  C4  UNL     1      -3.048  -0.473   0.364  1.00  0.00     0.136 A 
HETATM    3  C5  UNL     1      -2.682  -1.768   0.303  1.00  0.00     0.185 A 
HETATM    4  N1  UNL     1      -1.338  -1.809   0.009  1.00  0.00    -0.259 N 
HETATM    5  C6  UNL     1      -0.682  -3.064  -0.050  1.00  0.00     0.226 C 
HETATM    6  C7  UNL     1      -1.453  -4.353   0.080  1.00  0.00     0.118 C 
HETATM    7  O5  UNL     1       0.531  -3.184  -0.209  1.00  0.00    -0.273 OA
HETATM    8  C8  UNL     1      -0.858  -0.559  -0.120  1.00  0.00     0.064 A 
ENDROOT
BRANCH   8   9
HETATM    9  C9  UNL     1       0.466  -0.044  -0.351  1.00  0.00     0.033 C 
HETATM   10  C10 UNL     1       1.447  -0.504  -1.059  1.00  0.00     0.029 C 
BRANCH  10  11
HETATM   11  C11 UNL     1       2.727   0.180  -1.149  1.00  0.00     0.035 C 
HETATM   12  N2  UNL     1       3.670  -0.303  -1.885  1.00  0.00    -0.273 N 
ATOM     13  H2  UNL     1       4.555   0.203  -1.924  1.00  0.00     0.193 HD
BRANCH  12  14
HETATM   14  O6  UNL     1       3.555  -1.445  -2.611  1.00  0.00    -0.290 OA
ATOM     15  H6  UNL     1       4.249  -1.801  -3.153  1.00  0.00     0.244 HD
ENDBRANCH  12  14
BRANCH  11  16
HETATM   16  C12 UNL     1       2.959   1.410  -0.368  1.00  0.00     0.029 C 
HETATM   17  C13 UNL     1       4.314   1.974  -0.782  1.00  0.00     0.016 C 
HETATM   18  C14 UNL     1       3.101   1.096   1.120  1.00  0.00     0.016 C 
ENDBRANCH  11  16
ENDBRANCH  10  11
ENDBRANCH   8   9
BRANCH   1  19
HETATM   19  C2  UNL     1      -1.966   1.778   0.080  1.00  0.00     0.298 C 
HETATM   20  O2  UNL     1      -0.972   2.488  -0.151  1.00  0.00    -0.259 OA
BRANCH  19  21
HETATM   21  O1  UNL     1      -3.157   2.481   0.322  1.00  0.00    -0.322 OA
HETATM   22  C1  UNL     1      -3.193   3.896   0.297  1.00  0.00     0.213 C 
ENDBRANCH  19  21
ENDBRANCH   1  19
BRANCH   2  23
HETATM   23  O3  UNL     1      -4.341   0.021   0.643  1.00  0.00    -0.356 OA
ATOM     24  H3  UNL     1      -5.097  -0.526   0.818  1.00  0.00     0.218 HD
ENDBRANCH   2  23
BRANCH   3  25
HETATM   25  O4  UNL     1      -3.539  -2.832   0.506  1.00  0.00    -0.344 OA
ATOM     26  H4  UNL     1      -3.281  -3.745   0.463  1.00  0.00     0.219 HD
ENDBRANCH   3  25
TORSDOF 8
