REMARK  5 active torsions:
REMARK  status: ('A' for Active; 'I' for Inactive)
REMARK    1  A    between atoms: O1_2  and  C2_3 
REMARK    2  A    between atoms: C2_3  and  C3_4 
REMARK    3  A    between atoms: C2_3  and  C7_11 
REMARK    4  A    between atoms: C3_4  and  S1_5 
REMARK    5  A    between atoms: S1_5  and  C4_6 
REMARK       I    between atoms: C4_6  and  N1_8 
ROOT
HETATM    1  C7  UNL     1      -1.553  -0.009   0.551  1.00  0.00     0.156 A 
HETATM    2  N2  UNL     1      -1.903   0.238  -0.722  1.00  0.00    -0.331 N 
ATOM      3  H2  UNL     1      -1.271   0.241  -1.523  1.00  0.00     0.168 HD
HETATM    4  C8  UNL     1      -3.210   0.478  -0.765  1.00  0.00     0.129 A 
HETATM    5  C9  UNL     1      -3.654   0.369   0.536  1.00  0.00     0.177 A 
HETATM    6  O3  UNL     1      -2.631   0.072   1.324  1.00  0.00    -0.276 OA
HETATM    7  N3  UNL     1      -5.030   0.573   0.831  1.00  0.00    -0.352 N 
ATOM      8  H3  UNL     1      -5.330   0.897   1.750  1.00  0.00     0.163 HD
HETATM    9  C10 UNL     1      -5.991   0.304  -0.220  1.00  0.00     0.247 C 
HETATM   10  N4  UNL     1      -5.550   0.993  -1.430  1.00  0.00    -0.359 N 
ATOM     11  H4  UNL     1      -6.181   1.576  -1.980  1.00  0.00     0.162 HD
HETATM   12  C11 UNL     1      -4.189   0.802  -1.796  1.00  0.00     0.127 C 
HETATM   13  N5  UNL     1      -3.812   0.914  -3.034  1.00  0.00    -0.384 N 
ATOM     14  H51 UNL     1      -4.497   1.141  -3.755  1.00  0.00     0.157 HD
ATOM     15  H52 UNL     1      -2.836   0.777  -3.296  1.00  0.00     0.157 HD
ENDROOT
BRANCH   1  16
HETATM   16  C2  UNL     1      -0.193  -0.317   0.988  1.00  0.00     0.205 C 
BRANCH  16  17
HETATM   17  O1  UNL     1       0.199   0.356   2.130  1.00  0.00    -0.382 OA
HETATM   18  C1  UNL     1       0.537  -0.491   3.175  1.00  0.00     0.202 C 
ENDBRANCH  16  17
BRANCH  16  19
HETATM   19  C3  UNL     1       0.782   0.042  -0.112  1.00  0.00     0.124 C 
BRANCH  19  20
HETATM   20  S1  UNL     1       2.422  -0.471   0.409  1.00  0.00    -0.066 SA
BRANCH  20  21
HETATM   21  C4  UNL     1       3.610  -0.056  -0.885  1.00  0.00     0.281 C 
HETATM   22  O2  UNL     1       3.214   0.509  -1.944  1.00  0.00    -0.260 OA
HETATM   23  N1  UNL     1       4.975  -0.368  -0.695  1.00  0.00    -0.352 N 
HETATM   24  C5  UNL     1       5.410  -1.012   0.519  1.00  0.00     0.152 C 
HETATM   25  C6  UNL     1       5.924  -0.040  -1.721  1.00  0.00     0.152 C 
ENDBRANCH  20  21
ENDBRANCH  19  20
ENDBRANCH  16  19
ENDBRANCH   1  16
TORSDOF 5
