REMARK  7 active torsions:
REMARK  status: ('A' for Active; 'I' for Inactive)
REMARK    1  A    between atoms: C2_2  and  C4_4 
REMARK    2  A    between atoms: C4_4  and  O1_5 
REMARK    3  A    between atoms: O1_5  and  C5_6 
REMARK    4  A    between atoms: C6_7  and  O2_8 
REMARK    5  A    between atoms: C7_10  and  O3_11 
REMARK    6  A    between atoms: C11_15  and  O4_16 
REMARK    7  A    between atoms: N1_23  and  O7_25 
ROOT
HETATM    1  C5  UNL     1       0.776   0.088   0.305  1.00  0.00     0.141 A 
HETATM    2  C6  UNL     1      -0.027   0.952  -0.421  1.00  0.00     0.137 A 
HETATM    3  C7  UNL     1      -1.377   0.680  -0.538  1.00  0.00     0.119 A 
HETATM    4  C9  UNL     1      -1.910  -0.444   0.066  1.00  0.00     0.064 A 
HETATM    5  C10 UNL     1      -1.127  -1.336   0.805  1.00  0.00     0.123 A 
HETATM    6  C11 UNL     1       0.237  -1.033   0.906  1.00  0.00     0.137 A 
HETATM    7  O5  UNL     1      -1.696  -2.461   1.401  1.00  0.00    -0.313 OA
HETATM    8  C12 UNL     1      -2.868  -2.914   0.815  1.00  0.00     0.302 A 
HETATM    9  O6  UNL     1      -4.131  -2.935   1.138  1.00  0.00    -0.341 OA
HETATM   10  C13 UNL     1      -3.788  -1.681   1.058  1.00  0.00     0.232 A 
HETATM   11  C14 UNL     1      -3.342  -0.805  -0.019  1.00  0.00     0.081 C 
HETATM   12  N1  UNL     1      -4.019  -0.337  -0.988  1.00  0.00    -0.270 N 
ATOM     13  H1  UNL     1      -3.529   0.263  -1.652  1.00  0.00     0.194 HD
ENDROOT
BRANCH   1  14
HETATM   14  O1  UNL     1       2.135   0.332   0.442  1.00  0.00    -0.341 OA
BRANCH  14  15
HETATM   15  C4  UNL     1       3.085  -0.187  -0.502  1.00  0.00     0.209 C 
BRANCH  15  16
HETATM   16  C2  UNL     1       4.433   0.259  -0.060  1.00  0.00    -0.069 C 
HETATM   17  C1  UNL     1       5.390  -0.607   0.246  1.00  0.00     0.016 C 
HETATM   18  C3  UNL     1       4.713   1.717   0.041  1.00  0.00     0.044 C 
ENDBRANCH  15  16
ENDBRANCH  14  15
ENDBRANCH   1  14
BRANCH   2  19
HETATM   19  O2  UNL     1       0.457   2.077  -1.037  1.00  0.00    -0.356 OA
ATOM     20  H2  UNL     1      -0.094   2.670  -1.535  1.00  0.00     0.218 HD
ENDBRANCH   2  19
BRANCH   6  21
HETATM   21  O4  UNL     1       1.008  -1.905   1.630  1.00  0.00    -0.356 OA
ATOM     22  H4  UNL     1       0.637  -2.676   2.043  1.00  0.00     0.218 HD
ENDBRANCH   6  21
BRANCH   3  23
HETATM   23  O3  UNL     1      -2.231   1.502  -1.248  1.00  0.00    -0.352 OA
HETATM   24  C8  UNL     1      -2.860   2.592  -0.557  1.00  0.00     0.210 C 
ENDBRANCH   3  23
BRANCH  12  25
HETATM   25  O7  UNL     1      -5.334  -0.566  -1.214  1.00  0.00    -0.290 OA
ATOM     26  H7  UNL     1      -5.840  -0.216  -1.938  1.00  0.00     0.244 HD
ENDBRANCH  12  25
TORSDOF 7
