REMARK  7 active torsions:
REMARK  status: ('A' for Active; 'I' for Inactive)
REMARK    1  A    between atoms: C2_2  and  N1_3 
REMARK    2  A    between atoms: C2_2  and  C3_7 
REMARK    3  A    between atoms: N2_9  and  C5_10 
REMARK    4  A    between atoms: C7_12  and  N3_13 
REMARK    5  A    between atoms: C8_18  and  N5_19 
REMARK    6  A    between atoms: N7_26  and  C13_27 
REMARK    7  A    between atoms: C15_29  and  N8_30 
ROOT
HETATM    1  C3  UNL     1      -1.357   0.189   0.629  1.00  0.00     0.134 C 
HETATM    2  C4  UNL     1      -0.203  -0.752   0.727  1.00  0.00     0.152 C 
HETATM    3  N2  UNL     1       0.583  -0.805  -0.506  1.00  0.00    -0.363 N 
HETATM    4  C11 UNL     1       0.079  -0.438  -1.784  1.00  0.00     0.144 C 
HETATM    5  C12 UNL     1      -1.387  -0.244  -1.876  1.00  0.00     0.145 C 
HETATM    6  N7  UNL     1      -2.019   0.073  -0.623  1.00  0.00    -0.357 N 
ENDROOT
BRANCH   3   7
HETATM    7  C5  UNL     1       1.921  -1.257  -0.362  1.00  0.00     0.122 A 
HETATM    8  C6  UNL     1       2.298  -2.582  -0.454  1.00  0.00     0.097 A 
HETATM    9  C7  UNL     1       3.618  -2.960  -0.303  1.00  0.00     0.118 A 
HETATM   10  N4  UNL     1       4.545  -2.022  -0.064  1.00  0.00    -0.177 N 
HETATM   11  C8  UNL     1       4.192  -0.721   0.031  1.00  0.00     0.683 A 
ATOM     12  H4  UNL     1       5.522  -2.292   0.047  1.00  0.00     0.185 HD
HETATM   13  N6  UNL     1       2.907  -0.379  -0.120  1.00  0.00    -0.177 N 
ATOM     14  H6  UNL     1       2.662   0.608  -0.047  1.00  0.00     0.186 HD
BRANCH   9  15
HETATM   15  N3  UNL     1       3.971  -4.217  -0.402  1.00  0.00    -0.385 N 
ATOM     16  H32 UNL     1       3.266  -4.931  -0.584  1.00  0.00     0.157 HD
ATOM     17  H31 UNL     1       4.946  -4.496  -0.290  1.00  0.00     0.157 HD
ENDBRANCH   9  15
BRANCH  11  18
HETATM   18  N5  UNL     1       5.141   0.293   0.308  1.00  0.00    -0.214 N 
HETATM   19  C9  UNL     1       5.805   1.279   1.140  1.00  0.00     0.161 A 
HETATM   20  C10 UNL     1       6.288   1.046  -0.278  1.00  0.00     0.161 A 
ENDBRANCH  11  18
ENDBRANCH   3   7
BRANCH   1  21
HETATM   21  C2  UNL     1      -1.149   1.580   1.060  1.00  0.00     0.203 C 
HETATM   22  C1  UNL     1      -0.110   2.398   0.414  1.00  0.00     0.042 C 
BRANCH  21  23
HETATM   23  N1  UNL     1      -0.991   1.682   2.522  1.00  0.00    -0.073 N 
ATOM     24  H13 UNL     1      -0.051   1.434   2.831  1.00  0.00     0.274 HD
ATOM     25  H12 UNL     1      -0.996   2.648   2.848  1.00  0.00     0.274 HD
ATOM     26  H11 UNL     1      -1.711   1.115   2.970  1.00  0.00     0.274 HD
ENDBRANCH  21  23
ENDBRANCH   1  21
BRANCH   6  27
HETATM   27  C13 UNL     1      -3.445   0.276  -0.645  1.00  0.00     0.108 A 
HETATM   28  C14 UNL     1      -4.197  -0.900  -0.557  1.00  0.00     0.096 A 
HETATM   29  C15 UNL     1      -5.562  -0.765  -0.561  1.00  0.00     0.103 A 
HETATM   30  N9  UNL     1      -6.103   0.455  -0.649  1.00  0.00    -0.339 N 
HETATM   31  C16 UNL     1      -5.348   1.587  -0.735  1.00  0.00     0.183 A 
ATOM     32  H9  UNL     1      -7.119   0.542  -0.652  1.00  0.00     0.168 HD
HETATM   33  N10 UNL     1      -4.019   1.473  -0.731  1.00  0.00    -0.339 N 
ATOM     34  H10 UNL     1      -3.439   2.309  -0.794  1.00  0.00     0.168 HD
BRANCH  29  35
HETATM   35  N8  UNL     1      -6.267  -1.837  -0.472  1.00  0.00    -0.385 N 
ATOM     36  H82 UNL     1      -5.854  -2.767  -0.405  1.00  0.00     0.157 HD
ATOM     37  H81 UNL     1      -7.282  -1.737  -0.475  1.00  0.00     0.157 HD
ENDBRANCH  29  35
ENDBRANCH   6  27
TORSDOF 7
