REMARK  6 active torsions:
REMARK  status: ('A' for Active; 'I' for Inactive)
REMARK    1  A    between atoms: N1_1  and  C1_5 
REMARK    2  A    between atoms: C1_5  and  C2_6 
REMARK    3  A    between atoms: C4_9  and  N2_10 
REMARK    4  A    between atoms: C7_15  and  N4_16 
REMARK    5  A    between atoms: N4_16  and  C8_17 
REMARK    6  A    between atoms: C13_24  and  N6_25 
REMARK       I    between atoms: N6_25  and  C14_27 
REMARK       I    between atoms: C14_27  and  N7_28 
REMARK       I    between atoms: C14_27  and  N8_32 
ROOT
HETATM    1  N2  UNL     1       1.880   0.882   0.170  1.00  0.00    -0.299 N 
HETATM    2  C5  UNL     1       1.346   2.117   0.225  1.00  0.00     0.188 A 
HETATM    3  N3  UNL     1       0.004   2.077   0.241  1.00  0.00    -0.345 N 
ATOM      4  H3  UNL     1      -0.626   2.878   0.279  1.00  0.00     0.167 HD
HETATM    5  C6  UNL     1      -0.350   0.786   0.197  1.00  0.00     0.137 A 
HETATM    6  C7  UNL     1      -1.594   0.138   0.189  1.00  0.00     0.218 A 
HETATM    7  N5  UNL     1      -1.564  -1.228   0.135  1.00  0.00    -0.162 N 
ATOM      8  H5  UNL     1      -2.453  -1.728   0.127  1.00  0.00     0.187 HD
HETATM    9  C13 UNL     1      -0.446  -1.941   0.092  1.00  0.00     0.685 A 
HETATM   10  N9  UNL     1       0.747  -1.293   0.101  1.00  0.00    -0.174 N 
ATOM     11  H9  UNL     1       1.609  -1.837   0.068  1.00  0.00     0.186 HD
HETATM   12  C15 UNL     1       0.819   0.055   0.153  1.00  0.00     0.158 A 
ENDROOT
BRANCH   9  13
HETATM   13  N6  UNL     1      -0.381  -3.214   0.039  1.00  0.00    -0.173 N 
HETATM   14  C14 UNL     1      -1.464  -4.142   0.012  1.00  0.00     0.494 C 
HETATM   15  N7  UNL     1      -2.234  -3.969  -1.182  1.00  0.00    -0.032 N 
HETATM   16  N8  UNL     1      -2.276  -4.102   1.215  1.00  0.00    -0.032 N 
ATOM     17  H73 UNL     1      -2.554  -3.007  -1.293  1.00  0.00     0.278 HD
ATOM     18  H72 UNL     1      -1.657  -4.033  -2.020  1.00  0.00     0.278 HD
ATOM     19  H71 UNL     1      -3.008  -4.633  -1.201  1.00  0.00     0.278 HD
ATOM     20  H83 UNL     1      -1.701  -4.237   2.047  1.00  0.00     0.278 HD
ATOM     21  H82 UNL     1      -2.612  -3.156   1.396  1.00  0.00     0.278 HD
ATOM     22  H81 UNL     1      -3.050  -4.766   1.196  1.00  0.00     0.278 HD
ATOM     23  H6  UNL     1       0.556  -3.616   0.013  1.00  0.00     0.181 HD
ENDBRANCH   9  13
BRANCH   6  24
HETATM   24  N4  UNL     1      -2.605   0.743   0.224  1.00  0.00    -0.422 NA
BRANCH  24  25
HETATM   25  C8  UNL     1      -3.763   1.405   0.264  1.00  0.00     0.165 C 
HETATM   26  C9  UNL     1      -3.768   2.863  -0.186  1.00  0.00     0.039 C 
HETATM   27  C10 UNL     1      -5.263   3.203  -0.075  1.00  0.00     0.003 C 
HETATM   28  C11 UNL     1      -5.997   1.898  -0.231  1.00  0.00     0.003 C 
HETATM   29  C12 UNL     1      -4.910   0.887  -0.599  1.00  0.00     0.039 C 
ENDBRANCH  24  25
ENDBRANCH   6  24
BRANCH   1  30
HETATM   30  C4  UNL     1       3.294   0.589   0.143  1.00  0.00     0.230 C 
HETATM   31  O1  UNL     1       3.643  -0.573   0.783  1.00  0.00    -0.366 OA
HETATM   32  C3  UNL     1       4.964  -0.789   0.404  1.00  0.00     0.176 C 
HETATM   33  C2  UNL     1       5.129  -0.297  -0.996  1.00  0.00     0.039 C 
HETATM   34  C16 UNL     1       3.843   0.442  -1.246  1.00  0.00     0.062 C 
BRANCH  33  35
HETATM   35  C1  UNL     1       6.354   0.571  -1.173  1.00  0.00     0.236 C 
BRANCH  35  36
HETATM   36  N1  UNL     1       6.331   1.744  -0.344  1.00  0.00    -0.079 N 
ATOM     37  H13 UNL     1       5.478   2.282  -0.496  1.00  0.00     0.274 HD
ATOM     38  H12 UNL     1       6.198   1.496   0.636  1.00  0.00     0.274 HD
ATOM     39  H11 UNL     1       7.158   2.330  -0.463  1.00  0.00     0.274 HD
ENDBRANCH  35  36
ENDBRANCH  33  35
ENDBRANCH   1  30
TORSDOF 6
