REMARK  5 active torsions:
REMARK  status: ('A' for Active; 'I' for Inactive)
REMARK    1  A    between atoms: C2_2  and  C4_4 
REMARK    2  A    between atoms: C4_4  and  N1_5 
REMARK    3  A    between atoms: C7_10  and  N3_11 
REMARK    4  A    between atoms: N3_11  and  C8_12 
REMARK    5  A    between atoms: C8_12  and  C9_13 
ROOT
HETATM    1  N1  UNL     1       2.767   0.718  -0.459  1.00  0.00    -0.327 N 
HETATM    2  C5  UNL     1       2.112   1.789   0.024  1.00  0.00     0.185 A 
HETATM    3  N2  UNL     1       0.789   1.672  -0.184  1.00  0.00    -0.345 N 
ATOM      4  H2  UNL     1       0.066   2.341   0.082  1.00  0.00     0.167 HD
HETATM    5  C6  UNL     1       0.608   0.494  -0.815  1.00  0.00     0.137 A 
HETATM    6  C7  UNL     1      -0.571  -0.136  -1.273  1.00  0.00     0.211 A 
HETATM    7  N7  UNL     1      -0.439  -1.360  -1.894  1.00  0.00    -0.303 N 
ATOM      8  H7  UNL     1      -1.267  -1.846  -2.239  1.00  0.00     0.171 HD
HETATM    9  C13 UNL     1       0.762  -1.910  -2.046  1.00  0.00     0.196 A 
HETATM   10  N8  UNL     1       0.840  -3.196  -2.706  1.00  0.00    -0.063 NA
HETATM   11  N9  UNL     1       1.877  -1.302  -1.606  1.00  0.00    -0.314 N 
ATOM     12  H9  UNL     1       2.780  -1.757  -1.742  1.00  0.00     0.170 HD
HETATM   13  C14 UNL     1       1.828  -0.099  -0.986  1.00  0.00     0.143 A 
ENDROOT
BRANCH   6  14
HETATM   14  N3  UNL     1      -1.630   0.420  -1.102  1.00  0.00    -0.396 NA
BRANCH  14  15
HETATM   15  C8  UNL     1      -2.801   1.015  -0.923  1.00  0.00     0.205 C 
BRANCH  15  16
HETATM   16  C9  UNL     1      -3.626   0.728   0.290  1.00  0.00     0.102 A 
HETATM   17  C10 UNL     1      -4.840   1.365   0.444  1.00  0.00     0.138 A 
HETATM   18  N4  UNL     1      -5.310   2.295  -0.547  1.00  0.00    -0.081 NA
HETATM   19  N5  UNL     1      -5.600   1.123   1.526  1.00  0.00    -0.296 N 
HETATM   20  C11 UNL     1      -5.177   0.246   2.479  1.00  0.00     0.328 A 
ATOM     21  H5  UNL     1      -6.496   1.598   1.634  1.00  0.00     0.171 HD
HETATM   22  O1  UNL     1      -5.918   0.040   3.488  1.00  0.00    -0.247 OA
HETATM   23  N6  UNL     1      -3.997  -0.383   2.344  1.00  0.00    -0.275 N 
HETATM   24  C12 UNL     1      -3.209  -0.145   1.242  1.00  0.00     0.265 A 
ATOM     25  H6  UNL     1      -3.685  -1.038   3.061  1.00  0.00     0.173 HD
HETATM   26  O2  UNL     1      -2.137  -0.783   1.223  1.00  0.00    -0.267 OA
ENDBRANCH  15  16
ENDBRANCH  14  15
ENDBRANCH   6  14
BRANCH   1  27
HETATM   27  C4  UNL     1       4.177   0.430  -0.449  1.00  0.00     0.135 C 
BRANCH  27  28
HETATM   28  C2  UNL     1       4.669  -0.300   0.752  1.00  0.00    -0.004 C 
HETATM   29  C1  UNL     1       4.438   0.430   2.041  1.00  0.00     0.011 C 
HETATM   30  C3  UNL     1       4.222  -1.743   0.816  1.00  0.00     0.011 C 
ENDBRANCH  27  28
ENDBRANCH   1  27
TORSDOF 5
