REMARK  6 active torsions:
REMARK  status: ('A' for Active; 'I' for Inactive)
REMARK    1  A    between atoms: N1_1  and  C1_4 
REMARK    2  A    between atoms: N3_7  and  C2_8 
REMARK    3  A    between atoms: C2_8  and  C3_9 
REMARK    4  A    between atoms: C6_14  and  C7_15 
REMARK    5  A    between atoms: C7_15  and  N5_16 
REMARK    6  A    between atoms: C14_26  and  N7_27 
ROOT
HETATM    1  C3  UNL     1       2.674   1.326   0.910  1.00  0.00     0.105 A 
HETATM    2  N4  UNL     1       1.567   0.727   1.369  1.00  0.00    -0.342 N 
ATOM      3  H4  UNL     1       1.668  -0.083   1.980  1.00  0.00     0.167 HD
HETATM    4  C4  UNL     1       0.329   1.149   1.058  1.00  0.00     0.065 A 
HETATM    5  C5  UNL     1      -0.802   0.524   1.536  1.00  0.00     0.042 A 
HETATM    6  C6  UNL     1      -2.027   1.033   1.159  1.00  0.00    -0.013 A 
HETATM    7  C12 UNL     1      -2.092   2.143   0.322  1.00  0.00     0.097 A 
HETATM    8  N6  UNL     1      -0.947   2.700  -0.105  1.00  0.00    -0.360 N 
ATOM      9  H6  UNL     1      -1.010   3.513  -0.718  1.00  0.00     0.165 HD
HETATM   10  C13 UNL     1       0.270   2.255   0.224  1.00  0.00     0.103 A 
HETATM   11  C14 UNL     1       1.405   2.873  -0.250  1.00  0.00     0.129 A 
HETATM   12  N8  UNL     1       2.608   2.396   0.103  1.00  0.00    -0.329 N 
ATOM     13  H8  UNL     1       3.461   2.840  -0.237  1.00  0.00     0.168 HD
ENDROOT
BRANCH   1  14
HETATM   14  C2  UNL     1       3.993   0.811   1.291  1.00  0.00     0.246 C 
BRANCH  14  15
HETATM   15  N3  UNL     1       4.484  -0.195   0.363  1.00  0.00    -0.224 N 
HETATM   16  N2  UNL     1       4.320  -1.496   0.387  1.00  0.00    -0.266 N 
HETATM   17  C1  UNL     1       4.941  -2.081  -0.667  1.00  0.00     0.158 A 
ATOM     18  H2  UNL     1       3.796  -2.000   1.102  1.00  0.00     0.190 HD
HETATM   19  C15 UNL     1       5.512  -1.039  -1.361  1.00  0.00     0.177 A 
HETATM   20  N9  UNL     1       5.206   0.083  -0.695  1.00  0.00    -0.268 N 
HETATM   21  N10 UNL     1       6.280  -1.166  -2.560  1.00  0.00    -0.077 NA
ATOM     22  H9  UNL     1       5.494   1.021  -0.972  1.00  0.00     0.190 HD
BRANCH  17  23
HETATM   23  N1  UNL     1       5.004  -3.315  -0.979  1.00  0.00    -0.382 N 
ATOM     24  H12 UNL     1       4.581  -4.087  -0.465  1.00  0.00     0.157 HD
ATOM     25  H11 UNL     1       5.471  -3.755  -1.772  1.00  0.00     0.157 HD
ENDBRANCH  17  23
ENDBRANCH  14  15
ENDBRANCH   1  14
BRANCH  11  26
HETATM   26  N7  UNL     1       1.362   3.902  -1.027  1.00  0.00    -0.384 N 
ATOM     27  H72 UNL     1       0.447   4.265  -1.295  1.00  0.00     0.157 HD
ATOM     28  H71 UNL     1       2.203   4.360  -1.378  1.00  0.00     0.157 HD
ENDBRANCH  11  26
BRANCH   6  29
HETATM   29  C7  UNL     1      -3.311   0.448   1.609  1.00  0.00     0.312 C 
BRANCH  29  30
HETATM   30  N5  UNL     1      -3.705  -0.581   0.688  1.00  0.00     0.096 N 
HETATM   31  C8  UNL     1      -3.894  -0.123  -0.652  1.00  0.00     0.299 C 
HETATM   32  C9  UNL     1      -4.675  -1.169  -1.431  1.00  0.00     0.198 C 
HETATM   33  O1  UNL     1      -4.509  -2.438  -0.933  1.00  0.00    -0.388 OA
HETATM   34  C10 UNL     1      -4.906  -2.611   0.369  1.00  0.00     0.198 C 
HETATM   35  C11 UNL     1      -4.918  -1.262   1.101  1.00  0.00     0.299 C 
ENDBRANCH  29  30
ENDBRANCH   6  29
TORSDOF 6
