REMARK  5 active torsions:
REMARK  status: ('A' for Active; 'I' for Inactive)
REMARK    1  A    between atoms: N1_1  and  C1_4 
REMARK    2  A    between atoms: N5_15  and  C5_16 
REMARK    3  A    between atoms: C5_16  and  C6_17 
REMARK    4  A    between atoms: C8_19  and  C9_20 
REMARK    5  A    between atoms: C11_23  and  N6_24 
ROOT
HETATM    1  C1  UNL     1       3.433   2.356  -0.191  1.00  0.00     0.679 A 
HETATM    2  N2  UNL     1       4.148   2.477  -1.330  1.00  0.00    -0.175 N 
ATOM      3  H2  UNL     1       4.520   3.388  -1.598  1.00  0.00     0.186 HD
HETATM    4  C2  UNL     1       4.373   1.416  -2.110  1.00  0.00     0.145 A 
HETATM    5  N3  UNL     1       5.053   1.564  -3.181  1.00  0.00    -0.383 N 
ATOM      6  H31 UNL     1       5.225   0.754  -3.777  1.00  0.00     0.157 HD
ATOM      7  H32 UNL     1       5.432   2.469  -3.462  1.00  0.00     0.157 HD
HETATM    8  C3  UNL     1       3.863   0.198  -1.732  1.00  0.00     0.123 A 
HETATM    9  N4  UNL     1       3.906  -1.039  -2.279  1.00  0.00    -0.346 N 
ATOM     10  H4  UNL     1       4.378  -1.276  -3.152  1.00  0.00     0.167 HD
HETATM   11  C4  UNL     1       3.237  -1.910  -1.505  1.00  0.00     0.185 A 
HETATM   12  N5  UNL     1       2.755  -1.241  -0.448  1.00  0.00    -0.321 N 
HETATM   13  C16 UNL     1       3.123   0.044  -0.565  1.00  0.00     0.155 A 
HETATM   14  N9  UNL     1       2.942   1.152   0.160  1.00  0.00    -0.174 N 
ATOM     15  H9  UNL     1       2.404   1.082   1.024  1.00  0.00     0.186 HD
ENDROOT
BRANCH  12  16
HETATM   16  C5  UNL     1       1.981  -1.813   0.615  1.00  0.00     0.188 C 
BRANCH  16  17
HETATM   17  C6  UNL     1       0.539  -1.791   0.380  1.00  0.00     0.030 A 
HETATM   18  C7  UNL     1      -0.023  -2.877  -0.261  1.00  0.00     0.041 A 
HETATM   19  C8  UNL     1      -1.354  -2.965  -0.532  1.00  0.00     0.007 A 
HETATM   20  C10 UNL     1      -2.182  -1.919  -0.149  1.00  0.00     0.062 A 
HETATM   21  C11 UNL     1      -1.628  -0.831   0.492  1.00  0.00     0.104 A 
HETATM   22  N8  UNL     1      -0.283  -0.796   0.739  1.00  0.00    -0.344 N 
ATOM     23  H8  UNL     1       0.108   0.017   1.214  1.00  0.00     0.167 HD
BRANCH  19  24
HETATM   24  C9  UNL     1      -1.936  -4.120  -1.211  1.00  0.00     0.270 C 
HETATM   25  O1  UNL     1      -3.168  -4.174  -1.448  1.00  0.00    -0.301 OA
ENDBRANCH  19  24
BRANCH  21  26
HETATM   26  N6  UNL     1      -2.471   0.241   0.885  1.00  0.00    -0.364 N 
HETATM   27  C12 UNL     1      -3.890   0.177   0.613  1.00  0.00     0.152 C 
HETATM   28  C13 UNL     1      -4.553   1.166   1.579  1.00  0.00     0.252 C 
HETATM   29  N7  UNL     1      -4.154   2.512   1.170  1.00  0.00    -0.072 N 
HETATM   30  C14 UNL     1      -2.739   2.607   0.997  1.00  0.00     0.252 C 
ATOM     31  H72 UNL     1      -4.654   2.812   0.333  1.00  0.00     0.277 HD
ATOM     32  H71 UNL     1      -4.499   3.218   1.820  1.00  0.00     0.277 HD
HETATM   33  C15 UNL     1      -1.977   1.424   1.561  1.00  0.00     0.152 C 
ENDBRANCH  21  26
ENDBRANCH  16  17
ENDBRANCH  12  16
BRANCH   1  34
HETATM   34  N1  UNL     1       3.204   3.372   0.578  1.00  0.00    -0.234 N 
ATOM     35  H12 UNL     1       3.576   4.284   0.312  1.00  0.00     0.174 HD
ATOM     36  H11 UNL     1       2.664   3.281   1.438  1.00  0.00     0.174 HD
ENDBRANCH   1  34
TORSDOF 5
