REMARK  10 active torsions:
REMARK  status: ('A' for Active; 'I' for Inactive)
REMARK    1  A    between atoms: N1_1  and  C1_5 
REMARK    2  A    between atoms: C3_7  and  O1_8 
REMARK    3  A    between atoms: N2_11  and  C5_12 
REMARK    4  A    between atoms: C5_12  and  C6_13 
REMARK    5  A    between atoms: C6_13  and  C7_14 
REMARK    6  A    between atoms: C7_14  and  C8_15 
REMARK    7  A    between atoms: C8_15  and  C9_16 
REMARK    8  A    between atoms: C9_16  and  C10_17 
REMARK    9  A    between atoms: C10_17  and  N3_18 
REMARK   10  A    between atoms: N3_18  and  C11_20 
ROOT
HETATM    1  C6  UNL     1      -0.760   1.157  -0.847  1.00  0.00     0.044 C 
ENDROOT
BRANCH   1   2
HETATM    2  C5  UNL     1      -1.675   0.792   0.288  1.00  0.00     0.058 C 
BRANCH   2   3
HETATM    3  N2  UNL     1      -2.903   0.226  -0.093  1.00  0.00    -0.389 N 
HETATM    4  C4  UNL     1      -2.881  -1.067  -0.681  1.00  0.00     0.153 C 
HETATM    5  C3  UNL     1      -4.097  -1.800  -0.096  1.00  0.00     0.138 C 
HETATM    6  C2  UNL     1      -5.282  -0.938   0.063  1.00  0.00     0.067 C 
HETATM    7  C1  UNL     1      -5.250   0.396  -0.588  1.00  0.00     0.203 C 
HETATM    8  C17 UNL     1      -3.921   1.087  -0.579  1.00  0.00     0.154 C 
BRANCH   5   9
HETATM    9  O1  UNL     1      -3.653  -2.274   1.163  1.00  0.00    -0.394 OA
ATOM     10  H1  UNL     1      -2.889  -2.830   1.061  1.00  0.00     0.210 HD
ENDBRANCH   5   9
BRANCH   7  11
HETATM   11  N1  UNL     1      -6.188   1.257   0.126  1.00  0.00    -0.073 N 
ATOM     12  H13 UNL     1      -7.127   0.863   0.179  1.00  0.00     0.274 HD
ATOM     13  H12 UNL     1      -6.004   1.300   1.128  1.00  0.00     0.274 HD
ATOM     14  H11 UNL     1      -6.166   2.173  -0.321  1.00  0.00     0.274 HD
ENDBRANCH   7  11
ENDBRANCH   2   3
ENDBRANCH   1   2
BRANCH   1  15
HETATM   15  C7  UNL     1       0.528   1.759  -0.350  1.00  0.00     0.005 C 
BRANCH  15  16
HETATM   16  C8  UNL     1       1.267   0.816   0.549  1.00  0.00     0.002 C 
BRANCH  16  17
HETATM   17  C9  UNL     1       1.631  -0.471  -0.142  1.00  0.00     0.020 C 
BRANCH  17  18
HETATM   18  C10 UNL     1       2.398  -1.392   0.803  1.00  0.00     0.119 C 
BRANCH  18  19
HETATM   19  N3  UNL     1       3.622  -0.798   1.270  1.00  0.00    -0.390 N 
ATOM     20  H3  UNL     1       3.699  -0.556   2.258  1.00  0.00     0.159 HD
BRANCH  19  21
HETATM   21  C11 UNL     1       4.725  -0.534   0.423  1.00  0.00     0.029 A 
HETATM   22  C12 UNL     1       4.858  -1.020  -0.858  1.00  0.00     0.029 A 
HETATM   23  C13 UNL     1       5.956  -0.712  -1.646  1.00  0.00     0.004 A 
HETATM   24  C14 UNL     1       6.971   0.097  -1.184  1.00  0.00     0.024 A 
HETATM   25  C15 UNL     1       6.854   0.591   0.098  1.00  0.00     0.036 A 
HETATM   26 CL1  UNL     1       8.142   1.624   0.694  1.00  0.00    -0.084 Cl
HETATM   27  C16 UNL     1       5.764   0.286   0.880  1.00  0.00     0.052 A 
ENDBRANCH  19  21
ENDBRANCH  18  19
ENDBRANCH  17  18
ENDBRANCH  16  17
ENDBRANCH  15  16
ENDBRANCH   1  15
TORSDOF 10
