REMARK  9 active torsions:
REMARK  status: ('A' for Active; 'I' for Inactive)
REMARK    1  A    between atoms: C6_7  and  N2_8 
REMARK    2  A    between atoms: N2_8  and  C7_10 
REMARK    3  A    between atoms: C7_10  and  C8_11 
REMARK    4  A    between atoms: C8_11  and  N3_12 
REMARK    5  A    between atoms: N3_12  and  C9_14 
REMARK    6  A    between atoms: C9_14  and  C10_15 
REMARK    7  A    between atoms: C10_15  and  O1_16 
REMARK    8  A    between atoms: C10_15  and  C11_18 
REMARK    9  A    between atoms: C11_18  and  C12_19 
ROOT
HETATM    1  N1  UNL     1      -5.954   3.541  -1.935  1.00  0.00    -0.191 NA
HETATM    2  C1  UNL     1      -5.885   2.515  -1.404  1.00  0.00     0.099 C 
HETATM    3  C2  UNL     1      -5.813   1.240  -0.722  1.00  0.00     0.046 A 
HETATM    4  C3  UNL     1      -6.990   0.542  -0.542  1.00  0.00     0.023 A 
HETATM    5  C4  UNL     1      -6.958  -0.676   0.106  1.00  0.00     0.004 A 
HETATM    6  C5  UNL     1      -5.749  -1.172   0.562  1.00  0.00     0.029 A 
HETATM    7  C6  UNL     1      -4.562  -0.500   0.397  1.00  0.00     0.029 A 
HETATM    8  C18 UNL     1      -4.628   0.715  -0.255  1.00  0.00     0.051 A 
ENDROOT
BRANCH   7   9
HETATM    9  N2  UNL     1      -3.356  -1.060   0.896  1.00  0.00    -0.388 N 
ATOM     10  H2  UNL     1      -3.402  -1.941   1.409  1.00  0.00     0.159 HD
BRANCH   9  11
HETATM   11  C7  UNL     1      -2.062  -0.434   0.708  1.00  0.00     0.139 C 
BRANCH  11  12
HETATM   12  C8  UNL     1      -1.021  -1.251   1.392  1.00  0.00     0.133 C 
BRANCH  12  13
HETATM   13  N3  UNL     1       0.315  -0.779   1.298  1.00  0.00    -0.417 N 
ATOM     14  H3  UNL     1       0.816  -0.415   2.108  1.00  0.00     0.153 HD
BRANCH  13  15
HETATM   15  C9  UNL     1       0.917  -0.843   0.003  1.00  0.00     0.145 C 
BRANCH  15  16
HETATM   16  C10 UNL     1       2.331  -0.310   0.124  1.00  0.00     0.139 C 
BRANCH  16  17
HETATM   17  O1  UNL     1       2.258   1.000   0.562  1.00  0.00    -0.394 OA
ATOM     18  H1  UNL     1       3.144   1.334   0.638  1.00  0.00     0.210 HD
ENDBRANCH  16  17
BRANCH  16  19
HETATM   19  C11 UNL     1       3.129  -0.454  -1.136  1.00  0.00     0.072 C 
BRANCH  19  20
HETATM   20  C12 UNL     1       4.487   0.115  -0.850  1.00  0.00    -0.056 A 
HETATM   21  C13 UNL     1       4.734   1.463  -1.095  1.00  0.00     0.009 A 
HETATM   22  C14 UNL     1       5.955   2.029  -0.849  1.00  0.00     0.024 A 
HETATM   23  C15 UNL     1       6.996   1.243  -0.336  1.00  0.00     0.034 A 
HETATM   24 CL1  UNL     1       8.522   2.011  -0.043  1.00  0.00    -0.084 Cl
HETATM   25  C16 UNL     1       6.745  -0.098  -0.093  1.00  0.00     0.024 A 
HETATM   26  C17 UNL     1       5.515  -0.665  -0.342  1.00  0.00     0.009 A 
ENDBRANCH  19  20
ENDBRANCH  16  19
ENDBRANCH  15  16
ENDBRANCH  13  15
ENDBRANCH  12  13
ENDBRANCH  11  12
ENDBRANCH   9  11
ENDBRANCH   7   9
TORSDOF 9
