REMARK  7 active torsions:
REMARK  status: ('A' for Active; 'I' for Inactive)
REMARK    1  A    between atoms: C6_10  and  C7_11 
REMARK    2  A    between atoms: C7_11  and  N3_12 
REMARK    3  A    between atoms: N3_12  and  C8_14 
REMARK    4  A    between atoms: C9_15  and  C10_16 
REMARK    5  A    between atoms: C10_16  and  C11_17 
REMARK    6  A    between atoms: C11_17  and  C12_18 
REMARK    7  A    between atoms: C12_18  and  C13_19 
ROOT
HETATM    1  N1  UNL     1      -7.162   2.560   1.601  1.00  0.00    -0.064 NA
HETATM    2  C1  UNL     1      -6.688   1.331   1.050  1.00  0.00     0.189 A 
HETATM    3  N2  UNL     1      -7.457   0.428   0.619  1.00  0.00    -0.360 N 
ATOM      4  H2  UNL     1      -8.457   0.619   0.675  1.00  0.00     0.162 HD
HETATM    5  C2  UNL     1      -7.080  -0.833   0.061  1.00  0.00     0.166 A 
HETATM    6  C3  UNL     1      -5.627  -1.013  -0.155  1.00  0.00     0.025 A 
HETATM    7  C4  UNL     1      -5.121  -2.128  -0.827  1.00  0.00     0.127 A 
HETATM    8  F1  UNL     1      -5.983  -3.061  -1.263  1.00  0.00    -0.205 F 
HETATM    9  C5  UNL     1      -3.737  -2.228  -1.016  1.00  0.00     0.051 A 
HETATM   10  C6  UNL     1      -2.849  -1.278  -0.570  1.00  0.00    -0.035 A 
HETATM   11  C19 UNL     1      -3.390  -0.191   0.094  1.00  0.00     0.039 A 
HETATM   12  C20 UNL     1      -4.766  -0.064   0.295  1.00  0.00     0.046 A 
HETATM   13  N4  UNL     1      -5.261   1.130   0.907  1.00  0.00    -0.330 N 
ATOM     14  H4  UNL     1      -4.609   1.839   1.243  1.00  0.00     0.168 HD
ENDROOT
BRANCH  10  15
HETATM   15  C7  UNL     1      -1.404  -1.265  -0.852  1.00  0.00     0.157 C 
BRANCH  15  16
HETATM   16  N3  UNL     1      -0.580  -0.625   0.152  1.00  0.00    -0.395 N 
ATOM     17  H3  UNL     1      -0.453  -0.995   1.094  1.00  0.00     0.159 HD
BRANCH  16  18
HETATM   18  C8  UNL     1       0.030   0.564  -0.306  1.00  0.00     0.079 C 
HETATM   19  C9  UNL     1       0.986   0.620  -1.389  1.00  0.00    -0.010 C 
BRANCH  19  20
HETATM   20  C10 UNL     1       2.293  -0.008  -1.416  1.00  0.00     0.029 C 
BRANCH  20  21
HETATM   21  C11 UNL     1       3.272   0.476  -0.348  1.00  0.00     0.008 C 
BRANCH  21  22
HETATM   22  C12 UNL     1       4.563  -0.271  -0.681  1.00  0.00     0.039 C 
BRANCH  22  23
HETATM   23  C13 UNL     1       5.695   0.005   0.180  1.00  0.00    -0.058 A 
HETATM   24  C14 UNL     1       5.948  -0.781   1.290  1.00  0.00     0.007 A 
HETATM   25  C15 UNL     1       7.064  -0.514   2.072  1.00  0.00     0.001 A 
HETATM   26  C16 UNL     1       7.923   0.501   1.787  1.00  0.00     0.000 A 
HETATM   27  C17 UNL     1       7.675   1.295   0.679  1.00  0.00     0.001 A 
HETATM   28  C18 UNL     1       6.583   1.049  -0.106  1.00  0.00     0.007 A 
ENDBRANCH  22  23
ENDBRANCH  21  22
ENDBRANCH  20  21
ENDBRANCH  19  20
ENDBRANCH  16  18
ENDBRANCH  15  16
ENDBRANCH  10  15
TORSDOF 7
