REMARK  8 active torsions:
REMARK  status: ('A' for Active; 'I' for Inactive)
REMARK    1  A    between atoms: C3_3  and  C4_4 
REMARK    2  A    between atoms: C4_4  and  C5_5 
REMARK    3  A    between atoms: C5_5  and  C6_6 
REMARK    4  A    between atoms: C6_6  and  N1_7 
REMARK    5  A    between atoms: N1_7  and  C7_10 
REMARK    6  A    between atoms: C7_10  and  C8_11 
REMARK    7  A    between atoms: C8_11  and  S1_12 
REMARK    8  A    between atoms: S1_12  and  C9_13 
ROOT
HETATM    1  C1  UNL     1       8.354   0.566   1.124  1.00  0.00     0.012 C 
HETATM    2  C2  UNL     1       7.217   0.172   1.129  1.00  0.00    -0.117 C 
HETATM    3  C3  UNL     1       5.851  -0.330   1.149  1.00  0.00     0.093 C 
ENDROOT
BRANCH   3   4
HETATM    4  C4  UNL     1       5.106   0.214  -0.070  1.00  0.00     0.014 C 
BRANCH   4   5
HETATM    5  C5  UNL     1       3.703  -0.346   0.021  1.00  0.00     0.028 C 
BRANCH   5   6
HETATM    6  C6  UNL     1       2.804   0.082  -1.106  1.00  0.00     0.232 C 
BRANCH   6   7
HETATM    7  N1  UNL     1       1.513  -0.542  -0.890  1.00  0.00    -0.074 N 
ATOM      8  H12 UNL     1       0.932  -0.477  -1.726  1.00  0.00     0.277 HD
ATOM      9  H11 UNL     1       1.603  -1.556  -0.829  1.00  0.00     0.277 HD
BRANCH   7  10
HETATM   10  C7  UNL     1       0.819  -0.013   0.266  1.00  0.00     0.242 C 
BRANCH  10  11
HETATM   11  C8  UNL     1       0.343   1.397   0.068  1.00  0.00     0.110 C 
BRANCH  11  12
HETATM   12  S1  UNL     1      -0.875   1.474  -1.268  1.00  0.00    -0.092 SA
BRANCH  12  13
HETATM   13  C9  UNL     1      -2.394   0.719  -0.705  1.00  0.00     0.146 A 
HETATM   14  N2  UNL     1      -3.419   0.488  -1.586  1.00  0.00    -0.336 N 
HETATM   15  C10 UNL     1      -4.564  -0.097  -1.207  1.00  0.00     0.048 A 
ATOM     16  H2  UNL     1      -3.307   0.770  -2.560  1.00  0.00     0.168 HD
HETATM   17  C11 UNL     1      -5.630  -0.356  -2.041  1.00  0.00     0.032 A 
HETATM   18  C15 UNL     1      -4.676  -0.464   0.126  1.00  0.00     0.036 A 
HETATM   19  C12 UNL     1      -6.783  -0.961  -1.589  1.00  0.00     0.026 A 
HETATM   20  C13 UNL     1      -6.896  -1.327  -0.262  1.00  0.00     0.035 A 
HETATM   21 CL1  UNL     1      -8.352  -2.091   0.300  1.00  0.00    -0.084 Cl
HETATM   22  C14 UNL     1      -5.842  -1.077   0.588  1.00  0.00     0.041 A 
HETATM   23  C16 UNL     1      -3.643  -0.228   1.004  1.00  0.00     0.113 A 
HETATM   24  N3  UNL     1      -3.742  -0.568   2.235  1.00  0.00    -0.385 N 
HETATM   25  N4  UNL     1      -2.505   0.366   0.579  1.00  0.00    -0.323 N 
ATOM     26  H32 UNL     1      -4.600  -1.016   2.556  1.00  0.00     0.157 HD
ATOM     27  H31 UNL     1      -2.976  -0.393   2.886  1.00  0.00     0.157 HD
ATOM     28  H4  UNL     1      -1.740   0.542   1.231  1.00  0.00     0.169 HD
ENDBRANCH  12  13
ENDBRANCH  11  12
ENDBRANCH  10  11
ENDBRANCH   7  10
ENDBRANCH   6   7
ENDBRANCH   5   6
ENDBRANCH   4   5
ENDBRANCH   3   4
TORSDOF 8
