REMARK  9 active torsions:
REMARK  status: ('A' for Active; 'I' for Inactive)
REMARK    1  A    between atoms: N1_1  and  C1_4 
REMARK    2  A    between atoms: C4_14  and  N5_15 
REMARK    3  A    between atoms: N6_18  and  C5_19 
REMARK    4  A    between atoms: C5_19  and  C6_20 
REMARK    5  A    between atoms: C6_20  and  C7_21 
REMARK    6  A    between atoms: C7_21  and  C8_22 
REMARK    7  A    between atoms: C8_22  and  C9_23 
REMARK    8  A    between atoms: C9_23  and  C10_24 
REMARK    9  A    between atoms: C10_24  and  C11_25 
ROOT
HETATM    1  C1  UNL     1      -4.267  -1.964   0.051  1.00  0.00     0.679 A 
HETATM    2  N2  UNL     1      -5.399  -1.348  -0.334  1.00  0.00    -0.175 N 
ATOM      3  H2  UNL     1      -6.244  -1.880  -0.544  1.00  0.00     0.186 HD
HETATM    4  C2  UNL     1      -5.379  -0.009  -0.433  1.00  0.00     0.145 A 
HETATM    5  N3  UNL     1      -6.453   0.586  -0.800  1.00  0.00    -0.383 N 
ATOM      6  H31 UNL     1      -6.438   1.603  -0.875  1.00  0.00     0.157 HD
ATOM      7  H32 UNL     1      -7.296   0.050  -1.008  1.00  0.00     0.157 HD
HETATM    8  C3  UNL     1      -4.242   0.714  -0.152  1.00  0.00     0.125 A 
HETATM    9  N4  UNL     1      -3.923   2.021  -0.160  1.00  0.00    -0.317 N 
ATOM     10  H4  UNL     1      -4.563   2.775  -0.410  1.00  0.00     0.169 HD
HETATM   11  C4  UNL     1      -2.644   2.193   0.208  1.00  0.00     0.254 A 
HETATM   12  N6  UNL     1      -2.105   0.997   0.462  1.00  0.00    -0.297 N 
HETATM   13  C12 UNL     1      -3.085   0.074   0.243  1.00  0.00     0.157 A 
HETATM   14  N7  UNL     1      -3.152  -1.267   0.329  1.00  0.00    -0.174 N 
ATOM     15  H7  UNL     1      -2.318  -1.778   0.619  1.00  0.00     0.186 HD
ENDROOT
BRANCH  12  16
HETATM   16  C5  UNL     1      -0.757   0.671   0.888  1.00  0.00     0.134 C 
BRANCH  16  17
HETATM   17  C6  UNL     1       0.169   0.436  -0.306  1.00  0.00     0.020 C 
BRANCH  17  18
HETATM   18  C7  UNL     1       1.532   0.108   0.257  1.00  0.00     0.002 C 
BRANCH  18  19
HETATM   19  C8  UNL     1       2.556  -0.150  -0.806  1.00  0.00     0.000 C 
BRANCH  19  20
HETATM   20  C9  UNL     1       3.867  -0.464  -0.114  1.00  0.00     0.001 C 
BRANCH  20  21
HETATM   21  C10 UNL     1       4.948  -0.736  -1.132  1.00  0.00     0.011 C 
BRANCH  21  22
HETATM   22  C11 UNL     1       6.243  -1.047  -0.451  1.00  0.00     0.086 C 
HETATM   23  S1  UNL     1       6.789   0.323   0.584  1.00  0.00    -0.098 SA
ENDBRANCH  21  22
ENDBRANCH  20  21
ENDBRANCH  19  20
ENDBRANCH  18  19
ENDBRANCH  17  18
ENDBRANCH  16  17
ENDBRANCH  12  16
BRANCH  11  24
HETATM   24  N5  UNL     1      -1.996   3.454   0.302  1.00  0.00    -0.079 N 
HETATM   25  O1  UNL     1      -0.808   3.592   0.645  1.00  0.00    -0.529 OA
HETATM   26  O2  UNL     1      -2.673   4.618   0.008  1.00  0.00    -0.529 OA
ENDBRANCH  11  24
BRANCH   1  27
HETATM   27  N1  UNL     1      -4.302  -3.250   0.142  1.00  0.00    -0.234 N 
ATOM     28  H12 UNL     1      -5.148  -3.779  -0.069  1.00  0.00     0.174 HD
ATOM     29  H11 UNL     1      -3.444  -3.717   0.434  1.00  0.00     0.174 HD
ENDBRANCH   1  27
TORSDOF 9
