REMARK  7 active torsions:
REMARK  status: ('A' for Active; 'I' for Inactive)
REMARK    1  A    between atoms: N1_1  and  N2_4 
REMARK    2  A    between atoms: N2_4  and  C1_5 
REMARK    3  A    between atoms: C1_5  and  C2_6 
REMARK    4  A    between atoms: C2_6  and  N3_7 
REMARK    5  A    between atoms: N3_7  and  C3_9 
REMARK    6  A    between atoms: C5_11  and  N4_12 
REMARK    7  A    between atoms: N4_12  and  N5_14 
ROOT
HETATM    1  C3  UNL     1       1.213   0.676   0.123  1.00  0.00     0.103 A 
HETATM    2  C4  UNL     1       1.444   1.991  -0.186  1.00  0.00     0.081 A 
HETATM    3  C5  UNL     1       0.394   2.861  -0.513  1.00  0.00     0.088 A 
HETATM    4  C6  UNL     1      -0.854   2.280  -0.493  1.00  0.00     0.105 A 
HETATM    5  N6  UNL     1      -2.050   2.800  -0.747  1.00  0.00    -0.296 N 
ATOM      6  H6  UNL     1      -2.217   3.771  -1.010  1.00  0.00     0.187 HD
HETATM    7  N7  UNL     1      -3.001   1.875  -0.610  1.00  0.00    -0.297 N 
ATOM      8  H7  UNL     1      -4.001   2.022  -0.749  1.00  0.00     0.187 HD
HETATM    9  C7  UNL     1      -2.417   0.716  -0.258  1.00  0.00     0.087 A 
HETATM   10  C8  UNL     1      -3.121  -0.524  -0.017  1.00  0.00    -0.003 A 
HETATM   11  C9  UNL     1      -2.638  -1.694  -0.545  1.00  0.00     0.014 A 
HETATM   12  C10 UNL     1      -3.264  -2.912  -0.351  1.00  0.00     0.004 A 
HETATM   13  C11 UNL     1      -4.423  -2.896   0.416  1.00  0.00     0.042 A 
HETATM   14  C12 UNL     1      -4.950  -1.753   0.968  1.00  0.00     0.117 A 
HETATM   15  F1  UNL     1      -6.074  -1.837   1.693  1.00  0.00    -0.206 F 
HETATM   16  C13 UNL     1      -4.269  -0.566   0.732  1.00  0.00     0.056 A 
HETATM   17  C14 UNL     1      -1.052   0.945  -0.177  1.00  0.00     0.093 A 
HETATM   18  N8  UNL     1      -0.016   0.143   0.132  1.00  0.00    -0.339 N 
ATOM     19  H8  UNL     1      -0.162  -0.839   0.366  1.00  0.00     0.167 HD
ENDROOT
BRANCH   1  20
HETATM   20  N3  UNL     1       2.344  -0.159   0.449  1.00  0.00    -0.375 N 
ATOM     21  H3  UNL     1       3.284   0.236   0.445  1.00  0.00     0.161 HD
BRANCH  20  22
HETATM   22  C2  UNL     1       2.153  -1.544   0.779  1.00  0.00     0.139 C 
BRANCH  22  23
HETATM   23  C1  UNL     1       3.490  -2.177   1.076  1.00  0.00     0.153 C 
BRANCH  23  24
HETATM   24  N2  UNL     1       4.386  -2.100  -0.054  1.00  0.00    -0.147 NA
BRANCH  24  25
HETATM   25  N1  UNL     1       5.619  -2.675   0.195  1.00  0.00    -0.348 N 
ATOM     26  H12 UNL     1       5.855  -3.105   1.089  1.00  0.00     0.172 HD
ATOM     27  H11 UNL     1       6.252  -2.621  -0.603  1.00  0.00     0.172 HD
ENDBRANCH  24  25
ENDBRANCH  23  24
ENDBRANCH  22  23
ENDBRANCH  20  22
ENDBRANCH   1  20
BRANCH   3  28
HETATM   28  N4  UNL     1       0.691   4.186  -0.817  1.00  0.00    -0.239 N 
ATOM     29  H4  UNL     1       1.682   4.424  -0.776  1.00  0.00     0.193 HD
BRANCH  28  30
HETATM   30  N5  UNL     1      -0.138   5.222  -1.163  1.00  0.00    -0.038 N 
HETATM   31  O1  UNL     1      -0.361   5.408  -2.392  1.00  0.00    -0.516 OA
HETATM   32  O2  UNL     1      -0.737   6.080  -0.287  1.00  0.00    -0.516 OA
ENDBRANCH  28  30
ENDBRANCH   3  28
TORSDOF 7
