REMARK  10 active torsions:
REMARK  status: ('A' for Active; 'I' for Inactive)
REMARK    1  A    between atoms: N1_1  and  C1_4 
REMARK    2  A    between atoms: C3_11  and  C4_12 
REMARK    3  A    between atoms: C4_12  and  C5_13 
REMARK    4  A    between atoms: C5_13  and  C6_14 
REMARK    5  A    between atoms: C6_14  and  C7_15 
REMARK    6  A    between atoms: C7_15  and  C8_16 
REMARK    7  A    between atoms: C8_16  and  C9_17 
REMARK    8  A    between atoms: C9_17  and  S1_18 
REMARK    9  A    between atoms: S1_18  and  C10_19 
REMARK   10  A    between atoms: C11_22  and  O1_23 
ROOT
HETATM    1  C5  UNL     1      -1.402   0.722   2.580  1.00  0.00    -0.023 C 
ENDROOT
BRANCH   1   2
HETATM    2  C4  UNL     1      -2.228   1.544   1.706  1.00  0.00     0.045 C 
BRANCH   2   3
HETATM    3  C3  UNL     1      -2.942   1.014   0.567  1.00  0.00     0.122 A 
HETATM    4  N4  UNL     1      -2.544   1.094  -0.721  1.00  0.00    -0.316 N 
HETATM    5  C2  UNL     1      -3.227   0.593  -1.760  1.00  0.00     0.208 A 
ATOM      6  H4  UNL     1      -1.663   1.569  -0.917  1.00  0.00     0.170 HD
HETATM    7  N2  UNL     1      -4.405  -0.042  -1.509  1.00  0.00    -0.164 N 
HETATM    8  N3  UNL     1      -2.777   0.695  -3.103  1.00  0.00    -0.063 NA
HETATM    9  C1  UNL     1      -4.817  -0.131  -0.243  1.00  0.00     0.679 A 
ATOM     10  H2  UNL     1      -4.958  -0.439  -2.269  1.00  0.00     0.187 HD
HETATM   11  N7  UNL     1      -4.114   0.379   0.780  1.00  0.00    -0.177 N 
ATOM     12  H7  UNL     1      -4.470   0.286   1.731  1.00  0.00     0.185 HD
BRANCH   9  13
HETATM   13  N1  UNL     1      -5.940  -0.728   0.064  1.00  0.00    -0.234 N 
ATOM     14  H12 UNL     1      -6.474  -1.116  -0.714  1.00  0.00     0.174 HD
ATOM     15  H11 UNL     1      -6.255  -0.796   1.032  1.00  0.00     0.174 HD
ENDBRANCH   9  13
ENDBRANCH   2   3
ENDBRANCH   1   2
BRANCH   1  16
HETATM   16  C6  UNL     1      -0.245  -0.060   2.116  1.00  0.00     0.027 C 
BRANCH  16  17
HETATM   17  C7  UNL     1      -0.556  -1.197   1.237  1.00  0.00     0.004 C 
BRANCH  17  18
HETATM   18  C8  UNL     1       0.698  -1.968   0.814  1.00  0.00     0.011 C 
BRANCH  18  19
HETATM   19  C9  UNL     1       1.656  -1.100   0.069  1.00  0.00     0.082 C 
BRANCH  19  20
HETATM   20  S1  UNL     1       3.131  -2.038  -0.423  1.00  0.00    -0.094 SA
BRANCH  20  21
HETATM   21  C10 UNL     1       4.220  -0.933  -1.303  1.00  0.00     0.147 A 
HETATM   22  N5  UNL     1       5.173  -0.193  -0.712  1.00  0.00    -0.315 N 
HETATM   23  C11 UNL     1       5.820   0.531  -1.647  1.00  0.00     0.181 A 
ATOM     24  H5  UNL     1       5.375  -0.181   0.288  1.00  0.00     0.170 HD
HETATM   25  C12 UNL     1       5.252   0.234  -2.860  1.00  0.00     0.156 A 
HETATM   26 CL1  UNL     1       5.733   0.912  -4.390  1.00  0.00    -0.060 Cl
HETATM   27  N6  UNL     1       4.281  -0.658  -2.634  1.00  0.00    -0.324 N 
ATOM     28  H6  UNL     1       3.680  -1.068  -3.349  1.00  0.00     0.169 HD
BRANCH  23  29
HETATM   29  O1  UNL     1       6.862   1.411  -1.421  1.00  0.00    -0.344 OA
ATOM     30  H1  UNL     1       7.318   1.921  -2.080  1.00  0.00     0.219 HD
ENDBRANCH  23  29
ENDBRANCH  20  21
ENDBRANCH  19  20
ENDBRANCH  18  19
ENDBRANCH  17  18
ENDBRANCH  16  17
ENDBRANCH   1  16
TORSDOF 10
