REMARK  15 active torsions:
REMARK  status: ('A' for Active; 'I' for Inactive)
REMARK    1  A    between atoms: C2_2  and  N1_3 
REMARK    2  A    between atoms: C2_2  and  C3_7 
REMARK    3  A    between atoms: C3_7  and  C4_8 
REMARK       I    between atoms: C4_8  and  N2_10 
REMARK    4  A    between atoms: N2_10  and  C5_12 
REMARK    5  A    between atoms: C5_12  and  C6_13 
REMARK    6  A    between atoms: C8_19  and  C9_20 
REMARK    7  A    between atoms: C9_20  and  N6_34 
REMARK    8  A    between atoms: N5_21  and  C10_23 
REMARK    9  A    between atoms: C13_26  and  P1_27 
REMARK   10  A    between atoms: P1_27  and  O2_28 
REMARK   11  A    between atoms: P1_27  and  O3_30 
REMARK       I    between atoms: N6_34  and  C16_36 
REMARK       I    between atoms: C16_36  and  N7_38 
REMARK   12  A    between atoms: N7_38  and  C17_40 
REMARK   13  A    between atoms: C17_40  and  C18_41 
REMARK   14  A    between atoms: C18_41  and  C19_42 
REMARK   15  A    between atoms: C19_42  and  O5_43 
ROOT
HETATM    1  C9  UNL     1      -1.064  -0.626   0.724  1.00  0.00     0.138 C 
HETATM    2  N5  UNL     1      -1.049  -1.925   0.920  1.00  0.00    -0.340 N 
ATOM      3  H5  UNL     1      -0.189  -2.417   1.162  1.00  0.00     0.167 HD
ENDROOT
BRANCH   1   4
HETATM    4  C8  UNL     1       0.200   0.074   0.867  1.00  0.00     0.095 A 
HETATM    5  C7  UNL     1       0.599   0.491   2.100  1.00  0.00     0.140 A 
HETATM    6  N4  UNL     1       1.777   1.135   2.226  1.00  0.00    -0.308 N 
HETATM    7  N3  UNL     1       2.507   1.341   1.158  1.00  0.00    -0.288 N 
ATOM      8  H4  UNL     1       2.095   1.457   3.140  1.00  0.00     0.186 HD
HETATM    9  C6  UNL     1       2.140   0.944  -0.053  1.00  0.00     0.114 A 
ATOM     10  H3  UNL     1       3.397   1.828   1.262  1.00  0.00     0.188 HD
HETATM   11  N8  UNL     1       0.965   0.297  -0.206  1.00  0.00    -0.339 N 
ATOM     12  H8  UNL     1       0.665  -0.018  -1.129  1.00  0.00     0.167 HD
BRANCH   9  13
HETATM   13  C5  UNL     1       2.935   1.170  -1.274  1.00  0.00     0.200 C 
BRANCH  13  14
HETATM   14  N2  UNL     1       3.994   0.174  -1.350  1.00  0.00    -0.354 N 
HETATM   15  C4  UNL     1       5.166   0.268  -0.562  1.00  0.00     0.219 C 
HETATM   16  O1  UNL     1       5.360   1.212   0.243  1.00  0.00    -0.274 OA
ATOM     17  H2  UNL     1       3.888  -0.614  -1.989  1.00  0.00     0.162 HD
BRANCH  15  18
HETATM   18  C3  UNL     1       6.202  -0.780  -0.690  1.00  0.00     0.135 C 
BRANCH  18  19
HETATM   19  C2  UNL     1       7.380  -0.482   0.235  1.00  0.00     0.188 C 
HETATM   20  C1  UNL     1       6.946  -0.430   1.657  1.00  0.00     0.040 C 
BRANCH  19  21
HETATM   21  N1  UNL     1       8.002   0.751  -0.207  1.00  0.00    -0.075 N 
ATOM     22  H13 UNL     1       7.390   1.550  -0.041  1.00  0.00     0.274 HD
ATOM     23  H12 UNL     1       8.778   1.008   0.403  1.00  0.00     0.274 HD
ATOM     24  H11 UNL     1       8.300   0.715  -1.182  1.00  0.00     0.274 HD
ENDBRANCH  19  21
ENDBRANCH  18  19
ENDBRANCH  15  18
ENDBRANCH  13  14
ENDBRANCH   9  13
ENDBRANCH   1   4
BRANCH   1  25
HETATM   25  N6  UNL     1      -2.255   0.034   0.395  1.00  0.00    -0.293 N 
HETATM   26  C16 UNL     1      -2.318   1.420   0.184  1.00  0.00     0.321 C 
HETATM   27  O4  UNL     1      -1.299   2.121   0.288  1.00  0.00    -0.247 OA
HETATM   28  N7  UNL     1      -3.548   2.061  -0.155  1.00  0.00    -0.343 N 
ATOM     29  H7  UNL     1      -4.385   1.483  -0.231  1.00  0.00     0.164 HD
ATOM     30  H6  UNL     1      -3.110  -0.514   0.305  1.00  0.00     0.172 HD
BRANCH  28  31
HETATM   31  C17 UNL     1      -3.675   3.466  -0.394  1.00  0.00     0.126 C 
BRANCH  31  32
HETATM   32  C18 UNL     1      -2.841   3.919  -1.559  1.00  0.00     0.046 C 
BRANCH  32  33
HETATM   33  C19 UNL     1      -3.046   5.423  -1.733  1.00  0.00     0.165 C 
BRANCH  33  34
HETATM   34  O5  UNL     1      -4.380   5.720  -1.978  1.00  0.00    -0.401 OA
ATOM     35  H5  UNL     1      -4.507   6.655  -2.086  1.00  0.00     0.209 HD
ENDBRANCH  33  34
ENDBRANCH  32  33
ENDBRANCH  31  32
ENDBRANCH  28  31
ENDBRANCH   1  25
BRANCH   2  36
HETATM   36  C10 UNL     1      -2.288  -2.618   0.780  1.00  0.00     0.033 A 
HETATM   37  C11 UNL     1      -2.651  -3.168  -0.438  1.00  0.00     0.030 A 
HETATM   38  C12 UNL     1      -3.844  -3.836  -0.582  1.00  0.00     0.019 A 
HETATM   39  C13 UNL     1      -4.705  -3.971   0.483  1.00  0.00     0.022 A 
HETATM   40  C14 UNL     1      -4.348  -3.422   1.706  1.00  0.00     0.019 A 
HETATM   41  C15 UNL     1      -3.157  -2.752   1.863  1.00  0.00     0.030 A 
BRANCH  39  42
HETATM   42  P1  UNL     1      -6.282  -4.856   0.282  1.00  0.00     0.200 P 
BRANCH  42  43
HETATM   43  O2  UNL     1      -6.176  -6.358   1.140  1.00  0.00    -0.346 OA
ATOM     44  H2  UNL     1      -6.999  -6.820   1.035  1.00  0.00     0.217 HD
ENDBRANCH  42  43
BRANCH  42  45
HETATM   45  O3  UNL     1      -6.542  -5.148  -1.406  1.00  0.00    -0.346 OA
ATOM     46  H3  UNL     1      -7.365  -5.610  -1.511  1.00  0.00     0.217 HD
ENDBRANCH  42  45
ENDBRANCH  39  42
ENDBRANCH   2  36
TORSDOF 15
