REMARK  16 active torsions:
REMARK  status: ('A' for Active; 'I' for Inactive)
REMARK    1  A    between atoms: N1_2  and  C2_5 
REMARK    2  A    between atoms: C2_5  and  C4_7 
REMARK       I    between atoms: C4_7  and  N2_9 
REMARK    3  A    between atoms: C7_12  and  C8_13 
REMARK       I    between atoms: C8_13  and  N3_15 
REMARK    4  A    between atoms: N3_15  and  C9_16 
REMARK    5  A    between atoms: C9_16  and  C10_17 
REMARK    6  A    between atoms: C9_16  and  C31_49 
REMARK    7  A    between atoms: C10_17  and  O3_18 
REMARK    8  A    between atoms: C10_17  and  N4_20 
REMARK    9  A    between atoms: N5_23  and  C13_24 
REMARK   10  A    between atoms: C13_24  and  O4_25 
REMARK   11  A    between atoms: C13_24  and  N6_27 
REMARK   12  A    between atoms: N6_27  and  C14_29 
REMARK   13  A    between atoms: C14_29  and  C15_30 
REMARK   14  A    between atoms: C14_29  and  C25_43 
REMARK   15  A    between atoms: C15_30  and  O5_31 
REMARK   16  A    between atoms: C15_30  and  N7_33 
ROOT
HETATM    1  N4  UNL     1      -1.214  -0.735   0.248  1.00  0.00    -0.336 N 
HETATM    2  C11 UNL     1      -0.124  -1.558  -0.085  1.00  0.00     0.086 C 
HETATM    3  C12 UNL     1       1.259  -1.141   0.261  1.00  0.00     0.171 C 
HETATM    4  N5  UNL     1       1.424  -0.137   1.271  1.00  0.00    -0.341 N 
HETATM    5  C29 UNL     1       0.196   0.116   2.079  1.00  0.00     0.147 C 
HETATM    6  C30 UNL     1      -0.932   0.426   1.156  1.00  0.00     0.150 C 
ENDROOT
BRANCH   1   7
HETATM    7  C10 UNL     1      -2.541  -0.826  -0.145  1.00  0.00     0.180 C 
BRANCH   7   8
HETATM    8  C9  UNL     1      -3.405  -1.620  -0.996  1.00  0.00     0.142 C 
BRANCH   8   9
HETATM    9  N3  UNL     1      -4.716  -1.709  -0.504  1.00  0.00    -0.370 NA
HETATM   10  C8  UNL     1      -5.971  -1.801  -0.012  1.00  0.00     0.296 C 
HETATM   11  O2  UNL     1      -6.337  -2.137   1.180  1.00  0.00    -0.257 OA
BRANCH  10  12
HETATM   12  C7  UNL     1      -7.202  -1.494  -0.877  1.00  0.00     0.096 C 
HETATM   13  C6  UNL     1      -8.394  -2.111  -0.213  1.00  0.00     0.035 C 
HETATM   14  C5  UNL     1      -9.717  -1.630  -0.668  1.00  0.00     0.127 C 
HETATM   15  N2  UNL     1      -9.727  -0.189  -0.907  1.00  0.00    -0.350 N 
HETATM   16  C4  UNL     1     -10.821   0.530  -0.432  1.00  0.00     0.250 C 
HETATM   17  C35 UNL     1      -8.636   0.362  -1.639  1.00  0.00     0.127 C 
HETATM   18  O1  UNL     1     -11.810  -0.062   0.162  1.00  0.00    -0.271 OA
HETATM   19  C34 UNL     1      -7.328  -0.013  -1.017  1.00  0.00     0.035 C 
BRANCH  16  20
HETATM   20  C2  UNL     1     -10.964   1.987  -0.556  1.00  0.00     0.272 C 
HETATM   21  C3  UNL     1     -10.384   2.617   0.730  1.00  0.00     0.050 C 
BRANCH  20  22
HETATM   22  N1  UNL     1     -12.390   2.349  -0.606  1.00  0.00    -0.067 N 
HETATM   23  C1  UNL     1     -12.529   3.778  -0.682  1.00  0.00     0.267 C 
ATOM     24  H12 UNL     1     -12.913   1.954   0.176  1.00  0.00     0.277 HD
ATOM     25  H11 UNL     1     -12.879   1.876  -1.366  1.00  0.00     0.277 HD
ENDBRANCH  20  22
ENDBRANCH  16  20
ENDBRANCH  10  12
ENDBRANCH   8   9
BRANCH   8  26
HETATM   26  C31 UNL     1      -2.865  -2.892  -1.526  1.00  0.00     0.046 C 
HETATM   27  C32 UNL     1      -2.819  -3.997  -0.504  1.00  0.00     0.017 C 
HETATM   28  C33 UNL     1      -3.867  -3.341  -2.624  1.00  0.00     0.017 C 
ENDBRANCH   8  26
ENDBRANCH   7   8
BRANCH   7  29
HETATM   29  O3  UNL     1      -3.288   0.142   0.462  1.00  0.00    -0.344 OA
ATOM     30  H3  UNL     1      -2.722   0.662   1.020  1.00  0.00     0.219 HD
ENDBRANCH   7  29
ENDBRANCH   1   7
BRANCH   4  31
HETATM   31  C13 UNL     1       2.568   0.562   1.621  1.00  0.00     0.220 C 
BRANCH  31  32
HETATM   32  O4  UNL     1       2.358   1.557   2.441  1.00  0.00    -0.332 OA
ATOM     33  H4  UNL     1       3.142   2.036   2.681  1.00  0.00     0.220 HD
ENDBRANCH  31  32
BRANCH  31  34
HETATM   34  N6  UNL     1       3.863   0.331   1.216  1.00  0.00    -0.321 N 
ATOM     35  H6  UNL     1       3.995  -0.458   0.584  1.00  0.00     0.169 HD
BRANCH  34  36
HETATM   36  C14 UNL     1       5.071   1.065   1.571  1.00  0.00     0.071 C 
BRANCH  36  37
HETATM   37  C15 UNL     1       5.720   1.518   0.346  1.00  0.00     0.162 C 
BRANCH  37  38
HETATM   38  O5  UNL     1       4.854   2.171  -0.481  1.00  0.00    -0.345 OA
ATOM     39  H5  UNL     1       5.277   2.466  -1.279  1.00  0.00     0.219 HD
ENDBRANCH  37  38
BRANCH  37  40
HETATM   40  N7  UNL     1       6.977   1.481  -0.243  1.00  0.00    -0.360 N 
HETATM   41  C16 UNL     1       7.173   2.359  -1.423  1.00  0.00     0.125 C 
HETATM   42  C17 UNL     1       7.898   1.713  -2.501  1.00  0.00     0.025 C 
HETATM   43  C18 UNL     1       8.861   0.628  -2.252  1.00  0.00    -0.007 C 
HETATM   44  C19 UNL     1      10.290   1.161  -2.486  1.00  0.00     0.005 C 
HETATM   45  C23 UNL     1       8.752  -0.104  -0.992  1.00  0.00     0.008 C 
HETATM   46  C20 UNL     1      11.126  -0.081  -2.707  1.00  0.00     0.000 C 
HETATM   47  C21 UNL     1      11.128  -0.894  -1.446  1.00  0.00     0.000 C 
HETATM   48  C22 UNL     1      10.092  -0.556  -0.440  1.00  0.00     0.006 C 
HETATM   49  C24 UNL     1       8.037   0.628   0.134  1.00  0.00     0.130 C 
ENDBRANCH  37  40
ENDBRANCH  36  37
BRANCH  36  50
HETATM   50  C25 UNL     1       5.757   0.728   2.803  1.00  0.00    -0.004 C 
HETATM   51  C26 UNL     1       6.956   1.646   3.017  1.00  0.00     0.021 C 
HETATM   52  C27 UNL     1       6.050  -0.726   3.072  1.00  0.00     0.021 C 
HETATM   53  C28 UNL     1       4.842   1.109   4.025  1.00  0.00     0.021 C 
ENDBRANCH  36  50
ENDBRANCH  34  36
ENDBRANCH  31  34
ENDBRANCH   4  31
TORSDOF 16
