REMARK  8 active torsions:
REMARK  status: ('A' for Active; 'I' for Inactive)
REMARK    1  A    between atoms: C2_2  and  C3_3 
REMARK    2  A    between atoms: C2_2  and  O4_36 
REMARK    3  A    between atoms: C4_4  and  C5_5 
REMARK    4  A    between atoms: C5_5  and  C6_6 
REMARK    5  A    between atoms: C13_14  and  C14_15 
REMARK    6  A    between atoms: O4_36  and  C27_37 
REMARK    7  A    between atoms: N4_40  and  C30_41 
REMARK    8  A    between atoms: C30_41  and  C31_42 
ROOT
HETATM    1  C6  UNL     1      -2.501  -0.351   0.618  1.00  0.00    -0.027 C 
HETATM    2  C7  UNL     1      -2.372  -0.948   2.002  1.00  0.00     0.016 C 
HETATM    3  C8  UNL     1      -3.059   0.991   0.510  1.00  0.00     0.061 C 
HETATM    4  C9  UNL     1      -2.267   1.920   1.456  1.00  0.00     0.018 C 
HETATM    5  C10 UNL     1      -4.479   1.205   0.826  1.00  0.00     0.142 C 
HETATM    6  O1  UNL     1      -4.716   1.092   2.047  1.00  0.00    -0.297 OA
HETATM    7  C11 UNL     1      -5.595   1.522  -0.054  1.00  0.00     0.051 C 
HETATM    8  C12 UNL     1      -5.328   2.681  -0.973  1.00  0.00     0.026 C 
HETATM    9  C13 UNL     1      -6.802   1.976   0.817  1.00  0.00     0.189 C 
HETATM   10  N2  UNL     1      -7.124   0.838   1.702  1.00  0.00    -0.346 N 
ATOM     11  H2  UNL     1      -7.292   0.990   2.696  1.00  0.00     0.163 HD
HETATM   12  C15 UNL     1      -7.196  -0.458   1.160  1.00  0.00     0.229 C 
HETATM   13  O3  UNL     1      -7.788  -1.349   1.824  1.00  0.00    -0.273 OA
HETATM   14  C16 UNL     1      -6.615  -0.793  -0.124  1.00  0.00     0.075 C 
HETATM   15  C17 UNL     1      -7.766  -1.412  -0.982  1.00  0.00     0.252 C 
HETATM   16  N3  UNL     1      -7.045  -2.035  -2.040  1.00  0.00    -0.069 N 
ATOM     17  H31 UNL     1      -7.088  -1.496  -2.905  1.00  0.00     0.277 HD
ATOM     18  H32 UNL     1      -7.505  -2.882  -2.373  1.00  0.00     0.277 HD
HETATM   19  C18 UNL     1      -5.681  -2.282  -1.615  1.00  0.00     0.195 C 
HETATM   20  C19 UNL     1      -4.773  -1.233  -2.209  1.00  0.00     0.017 C 
HETATM   21  C20 UNL     1      -3.408  -1.177  -1.601  1.00  0.00     0.012 C 
HETATM   22  C21 UNL     1      -3.305  -1.442  -0.158  1.00  0.00    -0.001 C 
HETATM   23  C22 UNL     1      -4.458  -2.014   0.561  1.00  0.00    -0.006 C 
HETATM   24  C23 UNL     1      -4.209  -3.528   0.847  1.00  0.00     0.011 C 
HETATM   25  C24 UNL     1      -5.757  -2.002  -0.153  1.00  0.00     0.040 C 
HETATM   26  C25 UNL     1      -5.452   0.134  -2.175  1.00  0.00     0.013 C 
HETATM   27  C26 UNL     1      -6.166   0.387  -0.880  1.00  0.00     0.024 C 
ENDROOT
BRANCH   1  28
HETATM   28  C5  UNL     1      -1.145  -0.425  -0.052  1.00  0.00     0.037 C 
BRANCH  28  29
HETATM   29  C4  UNL     1      -0.003   0.195   0.574  1.00  0.00    -0.027 C 
HETATM   30  C3  UNL     1       1.051  -0.533   0.938  1.00  0.00     0.000 C 
BRANCH  30  31
HETATM   31  C2  UNL     1       2.287  -0.046   1.587  1.00  0.00     0.140 C 
HETATM   32  C1  UNL     1       2.055  -0.229   3.077  1.00  0.00     0.044 C 
BRANCH  31  33
HETATM   33  O4  UNL     1       3.396  -0.532   1.081  1.00  0.00    -0.375 OA
BRANCH  33  34
HETATM   34  C27 UNL     1       4.463   0.147   0.596  1.00  0.00     0.150 C 
HETATM   35  C28 UNL     1       5.699  -0.106   1.436  1.00  0.00     0.064 C 
HETATM   36  C29 UNL     1       6.649  -1.079   0.841  1.00  0.00     0.275 C 
HETATM   37  N4  UNL     1       7.912  -0.384   0.567  1.00  0.00     0.090 N 
HETATM   38  C34 UNL     1       8.083  -0.140  -0.823  1.00  0.00     0.300 C 
HETATM   39  C35 UNL     1       6.901  -0.198  -1.717  1.00  0.00     0.266 C 
HETATM   40  N5  UNL     1       5.820   0.723  -1.431  1.00  0.00    -0.071 N 
HETATM   41  C36 UNL     1       5.363   1.114  -2.805  1.00  0.00     0.272 C 
HETATM   42  C37 UNL     1       6.222   1.945  -0.840  1.00  0.00     0.272 C 
HETATM   43  C38 UNL     1       4.675   0.060  -0.867  1.00  0.00     0.268 C 
BRANCH  37  44
HETATM   44  C30 UNL     1       9.015  -1.164   1.076  1.00  0.00     0.277 C 
BRANCH  44  45
HETATM   45  C31 UNL     1      10.339  -0.567   1.204  1.00  0.00     0.014 A 
HETATM   46  C32 UNL     1      11.109  -0.027   0.046  1.00  0.00     0.007 A 
HETATM   47  C33 UNL     1      10.579   0.900   1.119  1.00  0.00     0.007 A 
ENDBRANCH  44  45
ENDBRANCH  37  44
ENDBRANCH  33  34
ENDBRANCH  31  33
ENDBRANCH  30  31
ENDBRANCH  28  29
ENDBRANCH   1  28
BRANCH   9  48
HETATM   48  C14 UNL     1      -7.969   2.383   0.057  1.00  0.00     0.255 C 
HETATM   49  N1  UNL     1      -8.015   3.439  -0.874  1.00  0.00    -0.060 NA
HETATM   50  O2  UNL     1      -9.093   1.769   0.198  1.00  0.00    -0.275 OA
ENDBRANCH   9  48
TORSDOF 8
