REMARK  11 active torsions:
REMARK  status: ('A' for Active; 'I' for Inactive)
REMARK    1  A    between atoms: C2_2  and  O1_4 
REMARK    2  A    between atoms: C2_2  and  C4_6 
REMARK    3  A    between atoms: C4_6  and  C5_7 
REMARK    4  A    between atoms: C5_7  and  N1_8 
REMARK       I    between atoms: N1_8  and  C6_10 
REMARK       I    between atoms: C6_10  and  N2_12 
REMARK    5  A    between atoms: N3_15  and  C9_16 
REMARK    6  A    between atoms: C9_16  and  O3_17 
REMARK    7  A    between atoms: C10_19  and  N4_20 
REMARK    8  A    between atoms: C17_29  and  C18_30 
REMARK    9  A    between atoms: C24_36  and  C25_37 
REMARK       I    between atoms: C25_37  and  N6_39 
REMARK   10  A    between atoms: N6_39  and  C26_41 
REMARK   11  A    between atoms: C26_41  and  C27_42 
ROOT
HETATM    1  N4  UNL     1       0.760   0.282  -2.146  1.00  0.00    -0.320 N 
HETATM    2  C11 UNL     1       0.019   1.260  -1.321  1.00  0.00     0.162 C 
HETATM    3  C12 UNL     1      -1.382   0.703  -1.274  1.00  0.00     0.295 C 
HETATM    4  N5  UNL     1      -1.452  -0.503  -0.455  1.00  0.00     0.121 N 
HETATM    5  C13 UNL     1      -0.620  -1.545  -0.958  1.00  0.00     0.316 C 
HETATM    6  C14 UNL     1       0.033  -2.252   0.241  1.00  0.00     0.053 C 
HETATM    7  C15 UNL     1      -0.868  -3.437   0.633  1.00  0.00     0.086 C 
HETATM    8  C16 UNL     1      -2.185  -2.815   0.926  1.00  0.00     0.154 C 
HETATM    9  O4  UNL     1      -2.457  -2.827   2.110  1.00  0.00    -0.293 OA
HETATM   10  C17 UNL     1      -3.147  -2.215  -0.024  1.00  0.00     0.012 C 
HETATM   11  C24 UNL     1      -2.890  -0.830  -0.446  1.00  0.00     0.348 C 
HETATM   12  C33 UNL     1       0.521  -1.085  -1.788  1.00  0.00     0.257 C 
HETATM   13  O6  UNL     1       1.345  -1.929  -2.216  1.00  0.00    -0.271 OA
ENDROOT
BRANCH   1  14
HETATM   14  C10 UNL     1       1.578   0.701  -3.222  1.00  0.00     0.149 C 
HETATM   15  C9  UNL     1       2.989   0.957  -3.083  1.00  0.00     0.154 C 
BRANCH  15  16
HETATM   16  N3  UNL     1       3.877   0.892  -2.020  1.00  0.00    -0.358 N 
HETATM   17  C8  UNL     1       5.334   1.246  -2.280  1.00  0.00     0.145 C 
HETATM   18  C7  UNL     1       6.136  -0.022  -2.091  1.00  0.00     0.147 C 
HETATM   19  N2  UNL     1       5.881  -0.586  -0.802  1.00  0.00    -0.331 N 
HETATM   20  C6  UNL     1       6.823  -0.985   0.165  1.00  0.00     0.318 C 
HETATM   21  C35 UNL     1       4.470  -0.779  -0.453  1.00  0.00     0.147 C 
HETATM   22  N1  UNL     1       8.208  -0.872  -0.072  1.00  0.00    -0.343 N 
HETATM   23  O2  UNL     1       6.393  -1.461   1.282  1.00  0.00    -0.247 OA
ATOM     24  H1  UNL     1       8.534  -0.498  -0.963  1.00  0.00     0.164 HD
HETATM   25  C34 UNL     1       3.698   0.542  -0.640  1.00  0.00     0.145 C 
BRANCH  22  26
HETATM   26  C5  UNL     1       9.183  -1.279   0.931  1.00  0.00     0.127 C 
BRANCH  26  27
HETATM   27  C4  UNL     1       9.086  -0.516   2.208  1.00  0.00     0.056 C 
BRANCH  27  28
HETATM   28  C2  UNL     1       9.299   0.975   1.994  1.00  0.00     0.052 C 
HETATM   29  C1  UNL     1      10.664   1.245   1.404  1.00  0.00     0.045 C 
HETATM   30  C3  UNL     1       9.288   1.645   3.363  1.00  0.00     0.045 C 
BRANCH  28  31
HETATM   31  O1  UNL     1       8.332   1.551   1.206  1.00  0.00    -0.391 OA
ATOM     32  H1  UNL     1       7.474   1.381   1.577  1.00  0.00     0.210 HD
ENDBRANCH  28  31
ENDBRANCH  27  28
ENDBRANCH  26  27
ENDBRANCH  22  26
ENDBRANCH  15  16
BRANCH  15  33
HETATM   33  O3  UNL     1       3.602   1.345  -4.211  1.00  0.00    -0.345 OA
ATOM     34  H3  UNL     1       2.994   1.390  -4.939  1.00  0.00     0.219 HD
ENDBRANCH  15  33
ENDBRANCH   1  14
BRANCH  11  35
HETATM   35  C25 UNL     1      -3.524   0.251   0.333  1.00  0.00     0.255 C 
HETATM   36  O5  UNL     1      -2.887   0.768   1.297  1.00  0.00    -0.271 OA
HETATM   37  N6  UNL     1      -4.819   0.745   0.047  1.00  0.00    -0.359 N 
ATOM     38  H6  UNL     1      -5.345   0.339  -0.727  1.00  0.00     0.162 HD
BRANCH  37  39
HETATM   39  C26 UNL     1      -5.417   1.809   0.821  1.00  0.00     0.127 C 
BRANCH  39  40
HETATM   40  C27 UNL     1      -6.794   2.151   0.319  1.00  0.00     0.003 C 
HETATM   41  C28 UNL     1      -7.379   3.270   1.160  1.00  0.00     0.006 C 
HETATM   42  C29 UNL     1      -6.653   4.580   0.954  1.00  0.00     0.000 C 
HETATM   43  C30 UNL     1      -6.224   4.788  -0.462  1.00  0.00     0.000 C 
HETATM   44  C31 UNL     1      -6.999   3.930  -1.441  1.00  0.00     0.000 C 
HETATM   45  C32 UNL     1      -6.854   2.456  -1.139  1.00  0.00     0.006 C 
ENDBRANCH  39  40
ENDBRANCH  37  39
ENDBRANCH  11  35
BRANCH  10  46
HETATM   46  C18 UNL     1      -4.565  -2.519   0.290  1.00  0.00     0.021 C 
HETATM   47  C19 UNL     1      -5.049  -2.234   1.665  1.00  0.00     0.009 C 
HETATM   48  C20 UNL     1      -6.560  -2.143   1.641  1.00  0.00     0.001 C 
HETATM   49  C21 UNL     1      -7.127  -3.318   0.905  1.00  0.00     0.000 C 
HETATM   50  C22 UNL     1      -6.095  -4.419   0.852  1.00  0.00     0.001 C 
HETATM   51  C23 UNL     1      -4.879  -4.013   0.047  1.00  0.00     0.009 C 
ENDBRANCH  10  46
TORSDOF 11
