REMARK  9 active torsions:
REMARK  status: ('A' for Active; 'I' for Inactive)
REMARK    1  A    between atoms: C2_2  and  N1_4 
REMARK       I    between atoms: N1_4  and  C4_5 
REMARK    2  A    between atoms: N1_4  and  C23_35 
REMARK    3  A    between atoms: C4_5  and  C5_7 
REMARK    4  A    between atoms: C7_9  and  N2_10 
REMARK       I    between atoms: N2_10  and  C8_12 
REMARK    5  A    between atoms: C8_12  and  C9_14 
REMARK       I    between atoms: N3_19  and  C14_20 
REMARK       I    between atoms: C14_20  and  N4_22 
REMARK    6  A    between atoms: N4_22  and  C15_24 
REMARK    7  A    between atoms: N5_26  and  C17_27 
REMARK    8  A    between atoms: C23_35  and  C25_37 
REMARK       I    between atoms: C25_37  and  N6_39 
REMARK    9  A    between atoms: N6_39  and  C26_41 
ROOT
HETATM    1  C5  UNL     1       0.566   2.069   0.061  1.00  0.00     0.183 C 
HETATM    2  C6  UNL     1       1.580   3.155  -0.429  1.00  0.00     0.060 C 
HETATM    3  C7  UNL     1       2.548   3.524   0.650  1.00  0.00     0.088 C 
HETATM    4  C12 UNL     1       2.663   2.412   1.680  1.00  0.00     0.045 C 
HETATM    5  C13 UNL     1       2.621   1.065   0.977  1.00  0.00     0.130 C 
HETATM    6  N3  UNL     1       1.368   0.900   0.210  1.00  0.00    -0.321 N 
HETATM    7  C14 UNL     1       1.122  -0.408  -0.235  1.00  0.00     0.319 C 
HETATM    8  O3  UNL     1       0.074  -0.701  -0.835  1.00  0.00    -0.247 OA
HETATM    9  N4  UNL     1       2.048  -1.465  -0.031  1.00  0.00    -0.328 N 
ATOM     10  H4  UNL     1       2.917  -1.255   0.461  1.00  0.00     0.165 HD
ENDROOT
BRANCH   1  11
HETATM   11  C4  UNL     1      -0.452   2.040  -0.973  1.00  0.00     0.244 C 
HETATM   12  N1  UNL     1      -1.814   2.360  -0.820  1.00  0.00    -0.333 N 
HETATM   13  O1  UNL     1      -0.089   1.687  -2.157  1.00  0.00    -0.271 OA
BRANCH  12  14
HETATM   14  C2  UNL     1      -2.334   2.722   0.490  1.00  0.00     0.080 C 
HETATM   15  C1  UNL     1      -1.785   4.050   0.995  1.00  0.00     0.032 C 
HETATM   16  C3  UNL     1      -2.167   1.694   1.551  1.00  0.00     0.032 C 
ENDBRANCH  12  14
BRANCH  12  17
HETATM   17  C23 UNL     1      -2.728   2.400  -1.979  1.00  0.00     0.175 C 
HETATM   18  C24 UNL     1      -3.273   3.768  -2.237  1.00  0.00     0.042 C 
BRANCH  17  19
HETATM   19  C25 UNL     1      -3.730   1.332  -1.980  1.00  0.00     0.240 C 
HETATM   20  O6  UNL     1      -4.843   1.531  -2.618  1.00  0.00    -0.271 OA
HETATM   21  N6  UNL     1      -3.641   0.070  -1.359  1.00  0.00    -0.354 N 
ATOM     22  H6  UNL     1      -2.785  -0.149  -0.850  1.00  0.00     0.162 HD
BRANCH  21  23
HETATM   23  C26 UNL     1      -4.673  -0.929  -1.393  1.00  0.00     0.092 C 
HETATM   24  C27 UNL     1      -4.291  -2.185  -2.149  1.00  0.00     0.009 C 
HETATM   25  C28 UNL     1      -3.199  -2.968  -1.498  1.00  0.00     0.011 C 
HETATM   26  C32 UNL     1      -5.575  -3.025  -2.192  1.00  0.00     0.011 C 
HETATM   27  C29 UNL     1      -3.661  -3.343  -0.105  1.00  0.00    -0.013 C 
HETATM   28  C30 UNL     1      -4.897  -4.181  -0.154  1.00  0.00     0.009 C 
HETATM   29  C35 UNL     1      -3.889  -2.066   0.680  1.00  0.00     0.011 C 
HETATM   30  C31 UNL     1      -6.012  -3.372  -0.784  1.00  0.00    -0.013 C 
HETATM   31  C33 UNL     1      -6.240  -2.154   0.075  1.00  0.00     0.011 C 
HETATM   32  C34 UNL     1      -5.010  -1.288   0.030  1.00  0.00     0.009 C 
ENDBRANCH  21  23
ENDBRANCH  17  19
ENDBRANCH  12  17
ENDBRANCH   1  11
BRANCH   3  33
HETATM   33  N2  UNL     1       2.186   4.741   1.326  1.00  0.00    -0.356 N 
HETATM   34  C8  UNL     1       3.052   5.845   1.316  1.00  0.00     0.222 C 
HETATM   35  O2  UNL     1       4.162   5.776   0.714  1.00  0.00    -0.273 OA
ATOM     36  H2  UNL     1       1.294   4.802   1.816  1.00  0.00     0.162 HD
BRANCH  34  37
HETATM   37  C9  UNL     1       2.705   7.114   1.996  1.00  0.00     0.078 A 
HETATM   38  C10 UNL     1       3.026   8.351   1.129  1.00  0.00     0.015 A 
HETATM   39  C11 UNL     1       3.787   8.035   2.351  1.00  0.00     0.015 A 
ENDBRANCH  34  37
ENDBRANCH   3  33
BRANCH   9  40
HETATM   40  C15 UNL     1       1.831  -2.811  -0.477  1.00  0.00     0.196 C 
HETATM   41  C16 UNL     1       1.946  -3.797   0.668  1.00  0.00     0.161 C 
HETATM   42  N5  UNL     1       3.260  -4.141   0.167  1.00  0.00    -0.343 N 
HETATM   43  C22 UNL     1       3.046  -3.430  -1.064  1.00  0.00     0.244 C 
HETATM   44  O5  UNL     1       3.634  -3.359  -2.169  1.00  0.00    -0.271 OA
BRANCH  42  45
HETATM   45  C17 UNL     1       4.405  -4.900   0.659  1.00  0.00     0.091 C 
HETATM   46  C18 UNL     1       4.924  -5.887  -0.333  1.00  0.00     0.051 C 
HETATM   47  C19 UNL     1       6.260  -6.397   0.134  1.00  0.00     0.169 C 
HETATM   48  O4  UNL     1       7.167  -5.354   0.181  1.00  0.00    -0.391 OA
HETATM   49  C20 UNL     1       6.806  -4.520   1.241  1.00  0.00     0.169 C 
HETATM   50  C21 UNL     1       5.508  -3.850   0.868  1.00  0.00     0.051 C 
ENDBRANCH  42  45
ENDBRANCH   9  40
TORSDOF 9
