REMARK  7 active torsions:
REMARK  status: ('A' for Active; 'I' for Inactive)
REMARK    1  A    between atoms: N1_9  and  C9_10 
REMARK    2  A    between atoms: C9_10  and  C10_11 
REMARK    3  A    between atoms: C10_11  and  C11_12 
REMARK    4  A    between atoms: C11_12  and  C12_13 
REMARK    5  A    between atoms: C12_13  and  C13_14 
REMARK    6  A    between atoms: C13_14  and  C14_15 
REMARK    7  A    between atoms: C14_15  and  N2_16 
ROOT
HETATM    1  C10 UNL     1      -0.460  -0.101   1.167  1.00  0.00     0.020 C 
ENDROOT
BRANCH   1   2
HETATM    2  C9  UNL     1      -0.939   0.904   0.181  1.00  0.00     0.128 C 
BRANCH   2   3
HETATM    3  N1  UNL     1      -2.065   0.449  -0.603  1.00  0.00    -0.356 N 
HETATM    4  C4  UNL     1      -3.358   0.647  -0.208  1.00  0.00     0.044 A 
HETATM    5  C3  UNL     1      -3.914   1.251   0.897  1.00  0.00     0.030 A 
HETATM    6  C5  UNL     1      -4.152   0.090  -1.189  1.00  0.00    -0.008 A 
HETATM    7  C2  UNL     1      -5.279   1.308   1.041  1.00  0.00     0.002 A 
HETATM    8  C1  UNL     1      -6.097   0.755   0.068  1.00  0.00     0.001 A 
HETATM    9  C6  UNL     1      -5.522   0.159  -1.024  1.00  0.00     0.014 A 
HETATM   10  C7  UNL     1      -3.327  -0.437  -2.164  1.00  0.00     0.031 A 
HETATM   11  C8  UNL     1      -2.042  -0.202  -1.779  1.00  0.00     0.092 A 
ENDBRANCH   2   3
ENDBRANCH   1   2
BRANCH   1  12
HETATM   12  C11 UNL     1       0.014  -1.394   0.617  1.00  0.00     0.002 C 
BRANCH  12  13
HETATM   13  C12 UNL     1       1.167  -1.313  -0.319  1.00  0.00     0.002 C 
BRANCH  13  14
HETATM   14  C13 UNL     1       2.403  -0.706   0.311  1.00  0.00     0.020 C 
BRANCH  14  15
HETATM   15  C14 UNL     1       3.490  -0.692  -0.769  1.00  0.00     0.129 C 
BRANCH  15  16
HETATM   16  N2  UNL     1       4.720  -0.114  -0.227  1.00  0.00    -0.352 N 
HETATM   17  C15 UNL     1       5.126   1.155  -0.210  1.00  0.00     0.108 A 
HETATM   18  C16 UNL     1       6.367   1.248   0.411  1.00  0.00     0.106 A 
HETATM   19  N3  UNL     1       6.682  -0.027   0.763  1.00  0.00    -0.361 N 
HETATM   20  C17 UNL     1       5.680  -0.834   0.373  1.00  0.00     0.182 A 
ATOM     21  H3  UNL     1       7.533  -0.321   1.241  1.00  0.00     0.166 HD
ENDBRANCH  15  16
ENDBRANCH  14  15
ENDBRANCH  13  14
ENDBRANCH  12  13
ENDBRANCH   1  12
TORSDOF 7
