REMARK  7 active torsions:
REMARK  status: ('A' for Active; 'I' for Inactive)
REMARK    1  A    between atoms: C4_4  and  C5_5 
REMARK    2  A    between atoms: N1_8  and  C8_9 
REMARK    3  A    between atoms: C8_9  and  C9_10 
REMARK    4  A    between atoms: C9_10  and  C10_11 
REMARK    5  A    between atoms: C10_11  and  C11_12 
REMARK    6  A    between atoms: C11_12  and  C12_13 
REMARK    7  A    between atoms: C12_13  and  N2_14 
ROOT
HETATM    1  C5  UNL     1       3.137   0.479  -0.021  1.00  0.00    -0.009 A 
HETATM    2  C6  UNL     1       2.908   1.820   0.066  1.00  0.00     0.031 A 
HETATM    3  C7  UNL     1       1.545   1.984  -0.044  1.00  0.00     0.091 A 
HETATM    4  N1  UNL     1       0.983   0.780  -0.192  1.00  0.00    -0.366 N 
HETATM    5  C16 UNL     1       1.928  -0.150  -0.181  1.00  0.00     0.102 A 
ENDROOT
BRANCH   4   6
HETATM    6  C8  UNL     1      -0.470   0.591  -0.338  1.00  0.00     0.128 C 
BRANCH   6   7
HETATM    7  C9  UNL     1      -1.044   0.419   1.034  1.00  0.00     0.020 C 
BRANCH   7   8
HETATM    8  C10 UNL     1      -2.542   0.215   1.023  1.00  0.00     0.003 C 
BRANCH   8   9
HETATM    9  C11 UNL     1      -3.286   1.347   0.419  1.00  0.00     0.020 C 
BRANCH   9  10
HETATM   10  C12 UNL     1      -4.765   1.087   0.461  1.00  0.00     0.129 C 
BRANCH  10  11
HETATM   11  N2  UNL     1      -5.170  -0.096  -0.256  1.00  0.00    -0.352 N 
HETATM   12  C13 UNL     1      -5.285  -1.341   0.244  1.00  0.00     0.108 A 
HETATM   13  C14 UNL     1      -5.698  -2.177  -0.768  1.00  0.00     0.106 A 
HETATM   14  N3  UNL     1      -5.834  -1.443  -1.883  1.00  0.00    -0.361 N 
HETATM   15  C15 UNL     1      -5.513  -0.182  -1.570  1.00  0.00     0.182 A 
ATOM     16  H3  UNL     1      -6.127  -1.783  -2.799  1.00  0.00     0.166 HD
ENDBRANCH  10  11
ENDBRANCH   9  10
ENDBRANCH   8   9
ENDBRANCH   7   8
ENDBRANCH   6   7
ENDBRANCH   4   6
BRANCH   1  17
HETATM   17  C4  UNL     1       4.423  -0.241   0.039  1.00  0.00    -0.025 A 
HETATM   18  C3  UNL     1       5.471   0.230   0.800  1.00  0.00     0.012 A 
HETATM   19  C2  UNL     1       6.667  -0.454   0.848  1.00  0.00     0.001 A 
HETATM   20  C1  UNL     1       6.866  -1.632   0.140  1.00  0.00     0.000 A 
HETATM   21  C18 UNL     1       5.820  -2.106  -0.623  1.00  0.00     0.001 A 
HETATM   22  C17 UNL     1       4.612  -1.411  -0.668  1.00  0.00     0.012 A 
ENDBRANCH   1  17
TORSDOF 7
