REMARK  7 active torsions:
REMARK  status: ('A' for Active; 'I' for Inactive)
REMARK    1  A    between atoms: N2_10  and  C8_11 
REMARK    2  A    between atoms: C8_11  and  C9_12 
REMARK    3  A    between atoms: C9_12  and  C10_13 
REMARK    4  A    between atoms: C10_13  and  C11_14 
REMARK    5  A    between atoms: C11_14  and  C12_15 
REMARK    6  A    between atoms: C12_15  and  C13_16 
REMARK    7  A    between atoms: C13_16  and  N3_17 
ROOT
HETATM    1  C8  UNL     1       1.618   0.139   1.064  1.00  0.00     0.149 C 
ENDROOT
BRANCH   1   2
HETATM    2  N2  UNL     1       2.470  -0.643   0.166  1.00  0.00    -0.292 N 
HETATM    3  C4  UNL     1       3.776  -0.457  -0.085  1.00  0.00     0.062 A 
HETATM    4  C3  UNL     1       4.710   0.471   0.375  1.00  0.00     0.032 A 
HETATM    5  C5  UNL     1       4.214  -1.405  -0.984  1.00  0.00     0.009 A 
HETATM    6  C2  UNL     1       6.014   0.428  -0.063  1.00  0.00     0.002 A 
HETATM    7  C1  UNL     1       6.455  -0.517  -0.960  1.00  0.00     0.001 A 
HETATM    8  C6  UNL     1       5.543  -1.441  -1.423  1.00  0.00     0.015 A 
HETATM    9  C7  UNL     1       3.110  -2.183  -1.272  1.00  0.00     0.121 A 
HETATM   10  N1  UNL     1       2.094  -1.691  -0.563  1.00  0.00    -0.308 N 
ATOM     11  H1  UNL     1       1.147  -2.070  -0.577  1.00  0.00     0.186 HD
ENDBRANCH   1   2
BRANCH   1  12
HETATM   12  C9  UNL     1       1.034   1.263   0.246  1.00  0.00     0.022 C 
BRANCH  12  13
HETATM   13  C10 UNL     1       0.129   2.155   0.991  1.00  0.00     0.002 C 
BRANCH  13  14
HETATM   14  C11 UNL     1      -1.075   1.633   1.641  1.00  0.00     0.002 C 
BRANCH  14  15
HETATM   15  C12 UNL     1      -2.167   1.007   0.888  1.00  0.00     0.030 C 
BRANCH  15  16
HETATM   16  C13 UNL     1      -1.930  -0.220   0.105  1.00  0.00     0.272 C 
BRANCH  16  17
HETATM   17  N3  UNL     1      -3.124  -0.707  -0.542  1.00  0.00     0.088 N 
HETATM   18  C14 UNL     1      -4.142  -1.221   0.298  1.00  0.00     0.272 C 
HETATM   19  C15 UNL     1      -5.478  -0.870  -0.377  1.00  0.00     0.032 C 
HETATM   20  C16 UNL     1      -5.017  -0.604  -1.795  1.00  0.00     0.032 C 
HETATM   21  C17 UNL     1      -3.698   0.143  -1.523  1.00  0.00     0.272 C 
ENDBRANCH  16  17
ENDBRANCH  15  16
ENDBRANCH  14  15
ENDBRANCH  13  14
ENDBRANCH  12  13
ENDBRANCH   1  12
TORSDOF 7
