REMARK  2 active torsions:
REMARK  status: ('A' for Active; 'I' for Inactive)
REMARK    1  A    between atoms: O1_2  and  C2_3 
REMARK    2  A    between atoms: C2_3  and  C3_5 
ROOT
HETATM    1  C3  UNL     1       1.151  -1.303   0.546  1.00  0.00     0.153 C 
HETATM    2  C4  UNL     1       0.942  -2.678  -0.036  1.00  0.00     0.101 C 
HETATM    3  S1  UNL     1      -0.722  -2.946   0.741  1.00  0.00    -0.131 SA
HETATM    4  C5  UNL     1      -1.184  -1.196   0.532  1.00  0.00     0.008 C 
HETATM    5  C6  UNL     1      -0.081  -0.511   0.449  1.00  0.00     0.074 C 
HETATM    6  O3  UNL     1      -0.210   0.909   0.276  1.00  0.00    -0.348 OA
HETATM    7  C7  UNL     1      -1.451   1.500   0.142  1.00  0.00     0.124 C 
HETATM    8  C8  UNL     1      -1.940   1.637  -1.273  1.00  0.00     0.040 C 
HETATM    9  C9  UNL     1      -2.535   0.774   0.924  1.00  0.00     0.037 C 
HETATM   10  C10 UNL     1      -2.555  -0.662   0.468  1.00  0.00     0.051 C 
ENDROOT
BRANCH   1  11
HETATM   11  C2  UNL     1       2.310  -0.634  -0.079  1.00  0.00     0.269 C 
HETATM   12  O2  UNL     1       2.942  -1.257  -0.967  1.00  0.00    -0.264 OA
BRANCH  11  13
HETATM   13  O1  UNL     1       2.730   0.624   0.256  1.00  0.00    -0.326 OA
HETATM   14  C1  UNL     1       3.851   1.264  -0.353  1.00  0.00     0.213 C 
ENDBRANCH  11  13
ENDBRANCH   1  11
TORSDOF 2
