REMARK  3 active torsions:
REMARK  status: ('A' for Active; 'I' for Inactive)
REMARK    1  A    between atoms: C2_2  and  S1_3 
REMARK    2  A    between atoms: S1_3  and  C3_4 
REMARK    3  A    between atoms: C4_5  and  C5_6 
ROOT
HETATM    1  C5  UNL     1      -0.502  -0.406  -0.049  1.00  0.00     0.272 C 
HETATM    2  O1  UNL     1      -1.559   0.364  -0.550  1.00  0.00    -0.345 OA
HETATM    3  C6  UNL     1      -2.718   0.006   0.119  1.00  0.00     0.127 C 
HETATM    4  C7  UNL     1      -3.028  -1.446  -0.184  1.00  0.00     0.055 C 
HETATM    5  C8  UNL     1      -3.838   0.858  -0.429  1.00  0.00     0.055 C 
HETATM    6  C9  UNL     1      -2.523   0.172   1.561  1.00  0.00     0.223 C 
HETATM    7  O2  UNL     1      -3.286   0.535   2.377  1.00  0.00    -0.282 OA
HETATM    8  S2  UNL     1      -0.830  -0.317   1.770  1.00  0.00    -0.045 SA
ENDROOT
BRANCH   1   9
HETATM    9  C4  UNL     1       0.737   0.283  -0.334  1.00  0.00    -0.051 C 
HETATM   10  C3  UNL     1       1.786   0.847  -0.588  1.00  0.00    -0.031 C 
BRANCH  10  11
HETATM   11  S1  UNL     1       3.310   1.652  -0.983  1.00  0.00    -0.079 SA
BRANCH  11  12
HETATM   12  C2  UNL     1       4.707   0.491  -0.920  1.00  0.00     0.084 C 
HETATM   13  C1  UNL     1       4.889   0.047   0.506  1.00  0.00     0.017 C 
ENDBRANCH  11  12
ENDBRANCH  10  11
ENDBRANCH   1   9
TORSDOF 3
