REMARK  7 active torsions:
REMARK  status: ('A' for Active; 'I' for Inactive)
REMARK    1  A    between atoms: C5_5  and  O1_6 
REMARK    2  A    between atoms: C8_10  and  C9_11 
REMARK    3  A    between atoms: N1_12  and  C10_14 
REMARK    4  A    between atoms: C10_14  and  C11_15 
REMARK    5  A    between atoms: C11_15  and  O2_18 
REMARK    6  A    between atoms: C19_26  and  C20_27 
REMARK    7  A    between atoms: C20_27  and  O4_29 
ROOT
HETATM    1  C1  UNL     1       0.363  -1.695  -1.032  1.00  0.00     0.049 C 
HETATM    2  C2  UNL     1       0.950  -0.477  -0.490  1.00  0.00    -0.045 A 
HETATM    3  C3  UNL     1       2.267  -0.525  -0.011  1.00  0.00    -0.042 A 
HETATM    4  C4  UNL     1       2.883   0.592   0.506  1.00  0.00    -0.015 A 
HETATM    5  C5  UNL     1       2.169   1.759   0.541  1.00  0.00     0.106 A 
HETATM    6  C6  UNL     1       0.873   1.798   0.068  1.00  0.00     0.111 A 
HETATM    7  C7  UNL     1       0.240   0.693  -0.452  1.00  0.00    -0.006 A 
HETATM    8  C8  UNL     1      -1.115   0.781  -0.929  1.00  0.00     0.063 C 
HETATM    9  C14 UNL     1      -1.778   2.029  -0.378  1.00  0.00     0.052 C 
HETATM   10  C15 UNL     1      -0.994   3.278  -0.507  1.00  0.00     0.061 C 
HETATM   11  C16 UNL     1      -1.704   4.360   0.281  1.00  0.00     0.046 C 
HETATM   12  C17 UNL     1      -0.729   3.673  -1.926  1.00  0.00     0.046 C 
HETATM   13  O3  UNL     1       0.243   3.047   0.154  1.00  0.00    -0.338 OA
HETATM   14  C18 UNL     1       4.267   0.240   0.926  1.00  0.00     0.049 C 
HETATM   15  C19 UNL     1       4.557  -0.960   0.011  1.00  0.00     0.023 C 
HETATM   16  C22 UNL     1       3.220  -1.660   0.058  1.00  0.00     0.047 C 
ENDROOT
BRANCH   8  17
HETATM   17  C9  UNL     1      -2.027  -0.309  -0.502  1.00  0.00     0.065 C 
HETATM   18  N1  UNL     1      -2.451  -0.467   0.688  1.00  0.00    -0.399 N 
ATOM     19  H1  UNL     1      -2.153   0.192   1.407  1.00  0.00     0.158 HD
BRANCH  18  20
HETATM   20  C10 UNL     1      -3.319  -1.522   1.048  1.00  0.00     0.155 C 
BRANCH  20  21
HETATM   21  C11 UNL     1      -4.775  -1.189   0.982  1.00  0.00     0.066 C 
HETATM   22  C12 UNL     1      -5.542  -2.422   1.454  1.00  0.00     0.047 C 
HETATM   23  C13 UNL     1      -5.241  -0.918  -0.439  1.00  0.00     0.047 C 
BRANCH  21  24
HETATM   24  O2  UNL     1      -5.110  -0.145   1.819  1.00  0.00    -0.389 OA
ATOM     25  H2  UNL     1      -6.035   0.067   1.777  1.00  0.00     0.210 HD
ENDBRANCH  21  24
ENDBRANCH  20  21
ENDBRANCH  18  20
ENDBRANCH   8  17
BRANCH   5  26
HETATM   26  O1  UNL     1       2.812   2.890   1.072  1.00  0.00    -0.357 OA
ATOM     27  H1  UNL     1       2.316   3.700   1.096  1.00  0.00     0.217 HD
ENDBRANCH   5  26
BRANCH  15  28
HETATM   28  C20 UNL     1       5.642  -1.773   0.683  1.00  0.00     0.118 C 
HETATM   29  C21 UNL     1       6.026  -2.984  -0.108  1.00  0.00     0.040 C 
BRANCH  28  30
HETATM   30  O4  UNL     1       5.279  -2.039   1.986  1.00  0.00    -0.396 OA
ATOM     31  H4  UNL     1       5.960  -2.549   2.408  1.00  0.00     0.210 HD
ENDBRANCH  28  30
ENDBRANCH  15  28
TORSDOF 7
