REMARK  7 active torsions:
REMARK  status: ('A' for Active; 'I' for Inactive)
REMARK    1  A    between atoms: C2_2  and  C3_3 
REMARK    2  A    between atoms: C3_3  and  N1_4 
REMARK    3  A    between atoms: N1_4  and  C4_5 
REMARK    4  A    between atoms: C7_11  and  N3_12 
REMARK    5  A    between atoms: N3_12  and  C8_14 
REMARK    6  A    between atoms: C8_14  and  C10_16 
REMARK    7  A    between atoms: C10_16  and  O1_19 
ROOT
HETATM    1  C4  UNL     1       2.209  -1.474  -0.180  1.00  0.00     0.222 A 
HETATM    2  N2  UNL     1       2.393  -0.164   0.113  1.00  0.00    -0.323 N 
ATOM      3  H2  UNL     1       3.334   0.193   0.280  1.00  0.00     0.169 HD
HETATM    4  C5  UNL     1       1.383   0.631   0.181  1.00  0.00     0.063 A 
HETATM    5  C6  UNL     1       0.129   0.109  -0.050  1.00  0.00     0.040 A 
HETATM    6  S1  UNL     1       0.465  -1.518  -0.360  1.00  0.00    -0.039 SA
HETATM    7  C7  UNL     1      -1.176   0.837  -0.018  1.00  0.00     0.154 C 
HETATM    8  C13 UNL     1      -1.097   1.849  -1.152  1.00  0.00     0.085 C 
HETATM    9  C14 UNL     1      -0.445   1.194  -2.346  1.00  0.00     0.049 C 
HETATM   10  C15 UNL     1      -2.466   2.323  -1.595  1.00  0.00     0.049 C 
HETATM   11  O2  UNL     1      -0.382   3.025  -0.751  1.00  0.00    -0.338 OA
HETATM   12  C16 UNL     1       0.752   3.156   0.047  1.00  0.00     0.082 A 
HETATM   13  C17 UNL     1       1.049   4.451   0.401  1.00  0.00     0.038 A 
HETATM   14  C18 UNL     1       2.138   4.719   1.184  1.00  0.00     0.003 A 
HETATM   15  C19 UNL     1       2.937   3.652   1.612  1.00  0.00     0.001 A 
HETATM   16  C20 UNL     1       2.646   2.355   1.262  1.00  0.00     0.016 A 
HETATM   17  C21 UNL     1       1.553   2.091   0.477  1.00  0.00     0.025 A 
ENDROOT
BRANCH   7  18
HETATM   18  N3  UNL     1      -2.315   0.112  -0.061  1.00  0.00    -0.403 N 
ATOM     19  H3  UNL     1      -3.129   0.601  -0.433  1.00  0.00     0.154 HD
BRANCH  18  20
HETATM   20  C8  UNL     1      -2.537  -1.195   0.325  1.00  0.00     0.106 C 
HETATM   21  C9  UNL     1      -2.283  -1.495   1.790  1.00  0.00     0.035 C 
BRANCH  20  22
HETATM   22  C10 UNL     1      -4.047  -1.504   0.150  1.00  0.00     0.070 C 
HETATM   23  C11 UNL     1      -4.911  -0.746   1.085  1.00  0.00     0.047 C 
HETATM   24  C12 UNL     1      -4.275  -2.994   0.451  1.00  0.00     0.047 C 
BRANCH  22  25
HETATM   25  O1  UNL     1      -4.457  -1.326  -1.155  1.00  0.00    -0.389 OA
ATOM     26  H1  UNL     1      -5.382  -1.515  -1.262  1.00  0.00     0.210 HD
ENDBRANCH  22  25
ENDBRANCH  20  22
ENDBRANCH  18  20
ENDBRANCH   7  18
BRANCH   1  27
HETATM   27  N1  UNL     1       3.011  -2.382  -0.285  1.00  0.00    -0.397 NA
BRANCH  27  28
HETATM   28  C3  UNL     1       3.970  -3.269  -0.368  1.00  0.00     0.157 C 
BRANCH  28  29
HETATM   29  C2  UNL     1       5.288  -2.753  -0.949  1.00  0.00     0.055 C 
HETATM   30  C1  UNL     1       5.910  -1.660  -0.157  1.00  0.00     0.011 C 
ENDBRANCH  28  29
ENDBRANCH  27  28
ENDBRANCH   1  27
TORSDOF 7
