REMARK  5 active torsions:
REMARK  status: ('A' for Active; 'I' for Inactive)
REMARK    1  A    between atoms: C2_2  and  C3_3 
REMARK    2  A    between atoms: C3_3  and  C4_4 
REMARK    3  A    between atoms: C9_11  and  N2_12 
REMARK       I    between atoms: N2_12  and  C10_14 
REMARK    4  A    between atoms: C10_14  and  C11_16 
REMARK    5  A    between atoms: C17_22  and  C18_23 
ROOT
HETATM    1  C3  UNL     1      -3.088  -0.805  -0.177  1.00  0.00     0.082 C 
HETATM    2  O1  UNL     1      -2.510  -1.218  -1.396  1.00  0.00    -0.337 OA
HETATM    3  C6  UNL     1      -1.144  -1.133  -1.257  1.00  0.00     0.101 A 
HETATM    4  C7  UNL     1      -0.140  -1.686  -2.050  1.00  0.00     0.082 A 
HETATM    5  N1  UNL     1      -0.472  -2.467  -3.191  1.00  0.00    -0.099 NA
HETATM    6  C8  UNL     1       1.165  -1.454  -1.697  1.00  0.00     0.059 A 
HETATM    7  C9  UNL     1       1.548  -0.698  -0.591  1.00  0.00     0.037 A 
HETATM    8  C15 UNL     1       0.532  -0.174   0.159  1.00  0.00     0.040 A 
HETATM    9  C16 UNL     1      -0.806  -0.381  -0.159  1.00  0.00    -0.006 A 
HETATM   10  C17 UNL     1      -2.074   0.080   0.490  1.00  0.00     0.125 C 
ENDROOT
BRANCH  10  11
HETATM   11  C18 UNL     1      -2.238   1.516   0.316  1.00  0.00     0.109 A 
HETATM   12  N3  UNL     1      -2.426   2.381   1.334  1.00  0.00    -0.333 N 
HETATM   13  C19 UNL     1      -2.512   3.614   0.836  1.00  0.00     0.093 A 
ATOM     14  H3  UNL     1      -2.491   2.132   2.321  1.00  0.00     0.168 HD
HETATM   15  C20 UNL     1      -2.718   4.891   1.572  1.00  0.00     0.090 C 
HETATM   16  N4  UNL     1      -2.377   3.501  -0.491  1.00  0.00    -0.288 N 
HETATM   17  N5  UNL     1      -2.211   2.233  -0.807  1.00  0.00    -0.287 N 
ATOM     18  H4  UNL     1      -2.399   4.276  -1.154  1.00  0.00     0.188 HD
ATOM     19  H5  UNL     1      -2.084   1.864  -1.749  1.00  0.00     0.188 HD
ENDBRANCH  10  11
BRANCH   1  20
HETATM   20  C2  UNL     1      -4.369  -0.047  -0.546  1.00  0.00     0.035 C 
HETATM   21  C1  UNL     1      -5.267  -1.081  -1.214  1.00  0.00     0.008 C 
ENDBRANCH   1  20
BRANCH   1  22
HETATM   22  C4  UNL     1      -3.424  -1.949   0.751  1.00  0.00     0.035 C 
HETATM   23  C5  UNL     1      -2.218  -2.725   1.134  1.00  0.00     0.008 C 
ENDBRANCH   1  22
BRANCH   7  24
HETATM   24  N2  UNL     1       2.925  -0.548  -0.344  1.00  0.00    -0.326 N 
HETATM   25  C10 UNL     1       3.563   0.244   0.612  1.00  0.00     0.229 C 
HETATM   26  O2  UNL     1       2.947   0.960   1.411  1.00  0.00    -0.272 OA
ATOM     27  H2  UNL     1       3.542  -1.093  -0.946  1.00  0.00     0.169 HD
BRANCH  25  28
HETATM   28  C11 UNL     1       5.052   0.258   0.710  1.00  0.00     0.030 C 
HETATM   29  C12 UNL     1       5.665   0.733  -0.603  1.00  0.00     0.025 C 
HETATM   30  C13 UNL     1       5.531   1.217   1.776  1.00  0.00     0.025 C 
HETATM   31  C14 UNL     1       5.616  -1.116   0.987  1.00  0.00     0.025 C 
ENDBRANCH  25  28
ENDBRANCH   7  24
TORSDOF 5
