REMARK  4 active torsions:
REMARK  status: ('A' for Active; 'I' for Inactive)
REMARK    1  A    between atoms: O1_2  and  C2_3 
REMARK    2  A    between atoms: C2_3  and  C3_4 
REMARK    3  A    between atoms: C3_4  and  N1_5 
REMARK       I    between atoms: N1_5  and  C4_7 
REMARK       I    between atoms: C4_7  and  N5_15 
REMARK       I    between atoms: N2_8  and  C5_10 
REMARK    4  A    between atoms: N5_15  and  C6_17 
ROOT
HETATM    1  N1  UNL     1       2.296  -0.184   0.724  1.00  0.00    -0.224 N 
ATOM      2  H1  UNL     1       2.231  -0.472   1.700  1.00  0.00     0.177 HD
HETATM    3  C4  UNL     1       1.101  -0.200  -0.020  1.00  0.00     0.678 C 
HETATM    4  N2  UNL     1       0.937  -0.547  -1.224  1.00  0.00    -0.164 N 
ATOM      5  H2  UNL     1      -0.023  -0.476  -1.560  1.00  0.00     0.187 HD
HETATM    6  C5  UNL     1       1.847  -1.009  -2.166  1.00  0.00     0.200 C 
HETATM    7  N3  UNL     1       2.361  -0.138  -3.002  1.00  0.00    -0.373 N 
ATOM      8  H31 UNL     1       3.029  -0.477  -3.694  1.00  0.00     0.158 HD
ATOM      9  H32 UNL     1       2.051   0.828  -2.892  1.00  0.00     0.158 HD
HETATM   10  N4  UNL     1       2.277  -2.348  -2.318  1.00  0.00    -0.063 NA
HETATM   11  N5  UNL     1      -0.094   0.237   0.668  1.00  0.00    -0.191 N 
ATOM     12  H5  UNL     1      -0.013   0.905   1.434  1.00  0.00     0.181 HD
ENDROOT
BRANCH  11  13
HETATM   13  C6  UNL     1      -1.420  -0.261   0.287  1.00  0.00     0.182 C 
HETATM   14  C7  UNL     1      -1.417  -1.736   0.452  1.00  0.00     0.096 C 
HETATM   15  C8  UNL     1      -2.626  -2.233   1.258  1.00  0.00     0.126 C 
HETATM   16  C9  UNL     1      -3.817  -1.565   0.552  1.00  0.00     0.041 C 
HETATM   17  O2  UNL     1      -2.606  -1.740   2.536  1.00  0.00    -0.385 OA
HETATM   18  C10 UNL     1      -3.735  -0.227   1.303  1.00  0.00     0.046 C 
HETATM   19  C11 UNL     1      -3.616  -0.831   2.715  1.00  0.00     0.175 C 
HETATM   20  C12 UNL     1      -2.461   0.489   1.043  1.00  0.00     0.187 C 
HETATM   21  O3  UNL     1      -2.599   1.662   0.308  1.00  0.00    -0.345 OA
HETATM   22  C13 UNL     1      -2.256   1.386  -0.990  1.00  0.00     0.160 C 
HETATM   23  C14 UNL     1      -1.347   2.494  -1.516  1.00  0.00     0.078 C 
HETATM   24  C15 UNL     1      -3.512   1.438  -1.829  1.00  0.00     0.078 C 
HETATM   25  O4  UNL     1      -1.640   0.145  -1.035  1.00  0.00    -0.322 OA
ENDBRANCH  11  13
BRANCH   1  26
HETATM   26  C3  UNL     1       3.597   0.197   0.249  1.00  0.00     0.164 C 
BRANCH  26  27
HETATM   27  C2  UNL     1       4.634   0.142   1.371  1.00  0.00     0.187 C 
BRANCH  27  28
HETATM   28  O1  UNL     1       5.898   0.499   0.954  1.00  0.00    -0.394 OA
HETATM   29  C1  UNL     1       6.017   1.770   0.447  1.00  0.00     0.201 C 
ENDBRANCH  27  28
ENDBRANCH  26  27
ENDBRANCH   1  26
TORSDOF 4
