REMARK  7 active torsions:
REMARK  status: ('A' for Active; 'I' for Inactive)
REMARK    1  A    between atoms: C6_8  and  C7_9 
REMARK    2  A    between atoms: C7_9  and  C8_10 
REMARK    3  A    between atoms: C8_10  and  N3_17 
REMARK    4  A    between atoms: N1_11  and  O3_13 
REMARK    5  A    between atoms: O3_13  and  C9_14 
REMARK    6  A    between atoms: N3_17  and  C10_19 
REMARK    7  A    between atoms: C15_24  and  O5_25 
ROOT
HETATM    1  C8  UNL     1      -0.001   1.012  -0.265  1.00  0.00     0.101 C 
HETATM    2  N1  UNL     1       0.044   1.747   0.783  1.00  0.00    -0.244 N 
ATOM      3  H1  UNL     1       0.834   1.674   1.424  1.00  0.00     0.196 HD
ENDROOT
BRANCH   1   4
HETATM    4  C7  UNL     1      -1.105   1.057  -1.238  1.00  0.00     0.113 C 
BRANCH   4   5
HETATM    5  C6  UNL     1      -1.758  -0.236  -1.566  1.00  0.00     0.162 C 
HETATM    6  C2  UNL     1      -2.410  -0.966  -0.439  1.00  0.00     0.080 C 
HETATM    7  C1  UNL     1      -1.458  -1.718   0.460  1.00  0.00     0.048 C 
HETATM    8  C3  UNL     1      -3.302  -0.029   0.363  1.00  0.00     0.048 C 
HETATM    9  O1  UNL     1      -3.300  -1.959  -0.915  1.00  0.00    -0.376 OA
HETATM   10  C4  UNL     1      -3.020  -2.295  -2.212  1.00  0.00     0.195 C 
HETATM   11  C5  UNL     1      -3.287  -1.080  -3.075  1.00  0.00     0.194 C 
HETATM   12  O2  UNL     1      -2.790   0.060  -2.494  1.00  0.00    -0.380 OA
ENDBRANCH   4   5
ENDBRANCH   1   4
BRANCH   1  13
HETATM   13  N3  UNL     1       1.114   0.149  -0.468  1.00  0.00    -0.371 N 
ATOM     14  H3  UNL     1       1.023  -0.592  -1.163  1.00  0.00     0.161 HD
BRANCH  13  15
HETATM   15  C10 UNL     1       2.362   0.255   0.244  1.00  0.00     0.111 C 
HETATM   16  C11 UNL     1       3.297  -0.825  -0.318  1.00  0.00     0.028 C 
HETATM   17  C12 UNL     1       4.628  -0.751   0.353  1.00  0.00     0.002 C 
HETATM   18  C13 UNL     1       4.425  -1.022   1.827  1.00  0.00     0.003 C 
HETATM   19  C14 UNL     1       2.964  -1.227   2.165  1.00  0.00     0.034 C 
HETATM   20  C15 UNL     1       2.121  -0.053   1.699  1.00  0.00     0.140 C 
BRANCH  20  21
HETATM   21  O5  UNL     1       2.431   1.075   2.477  1.00  0.00    -0.394 OA
ATOM     22  H5  UNL     1       2.279   0.881   3.394  1.00  0.00     0.210 HD
ENDBRANCH  20  21
ENDBRANCH  13  15
ENDBRANCH   1  13
BRANCH   2  23
HETATM   23  O3  UNL     1      -0.958   2.620   1.038  1.00  0.00    -0.182 OA
BRANCH  23  24
HETATM   24  C9  UNL     1      -0.943   3.960   0.721  1.00  0.00     0.394 C 
HETATM   25  N2  UNL     1      -2.064   4.754   1.049  1.00  0.00    -0.031 NA
HETATM   26  O4  UNL     1       0.070   4.422   0.151  1.00  0.00    -0.240 OA
ENDBRANCH  23  24
ENDBRANCH   2  23
TORSDOF 7
