REMARK  6 active torsions:
REMARK  status: ('A' for Active; 'I' for Inactive)
REMARK    1  A    between atoms: C2_2  and  C3_3 
REMARK    2  A    between atoms: C3_3  and  O1_5 
REMARK    3  A    between atoms: O1_5  and  C5_6 
REMARK    4  A    between atoms: C7_9  and  O3_10 
REMARK    5  A    between atoms: C8_12  and  O4_13 
REMARK    6  A    between atoms: N1_16  and  O5_17 
ROOT
HETATM    1  C5  UNL     1      -0.884  -0.356  -0.155  1.00  0.00     0.295 C 
HETATM    2  O2  UNL     1       0.061   0.348  -0.860  1.00  0.00    -0.314 OA
HETATM    3  C6  UNL     1       1.314  -0.029  -0.458  1.00  0.00     0.341 A 
HETATM    4  C7  UNL     1       1.184  -1.217   0.447  1.00  0.00     0.222 C 
HETATM    5  C8  UNL     1      -0.220  -1.702   0.053  1.00  0.00     0.207 C 
HETATM    6  C9  UNL     1       2.373   0.931  -0.393  1.00  0.00     0.399 A 
HETATM    7  N1  UNL     1       3.698   0.445  -0.048  1.00  0.00    -0.131 NA
HETATM    8  C11 UNL     1       3.674  -0.356  -1.229  1.00  0.00     0.401 C 
HETATM    9  N2  UNL     1       2.295  -0.141  -1.486  1.00  0.00     0.170 N 
ENDROOT
BRANCH   4  10
HETATM   10  O3  UNL     1       2.133  -2.187   0.230  1.00  0.00    -0.388 OA
ATOM     11  H3  UNL     1       2.051  -2.940   0.804  1.00  0.00     0.210 HD
ENDBRANCH   4  10
BRANCH   1  12
HETATM   12  O1  UNL     1      -2.092  -0.466  -0.827  1.00  0.00    -0.350 OA
BRANCH  12  13
HETATM   13  C3  UNL     1      -3.087   0.051   0.019  1.00  0.00     0.142 C 
HETATM   14  C4  UNL     1      -4.111  -1.011   0.349  1.00  0.00     0.044 C 
BRANCH  13  15
HETATM   15  C2  UNL     1      -3.753   1.231  -0.599  1.00  0.00    -0.006 C 
HETATM   16  C1  UNL     1      -5.053   1.407  -0.436  1.00  0.00     0.009 C 
ENDBRANCH  13  15
ENDBRANCH  12  13
ENDBRANCH   1  12
BRANCH   5  17
HETATM   17  O4  UNL     1      -0.795  -2.424   1.092  1.00  0.00    -0.388 OA
ATOM     18  H4  UNL     1      -0.379  -3.268   1.222  1.00  0.00     0.210 HD
ENDBRANCH   5  17
BRANCH   7  19
HETATM   19  O5  UNL     1       4.653   1.429  -0.025  1.00  0.00    -0.305 OA
HETATM   20  C10 UNL     1       4.372   2.267   1.057  1.00  0.00     0.230 C 
ENDBRANCH   7  19
TORSDOF 6
