REMARK  6 active torsions:
REMARK  status: ('A' for Active; 'I' for Inactive)
REMARK    1  A    between atoms: O1_1  and  C1_3 
REMARK    2  A    between atoms: C1_3  and  C2_4 
REMARK    3  A    between atoms: C3_6  and  C4_7 
REMARK    4  A    between atoms: C4_7  and  N1_8 
REMARK    5  A    between atoms: C9_14  and  O3_15 
REMARK    6  A    between atoms: C11_18  and  O4_19 
ROOT
HETATM    1  C2  UNL     1      -2.696  -0.274   0.292  1.00  0.00     0.174 C 
HETATM    2  O2  UNL     1      -1.512   0.092   0.866  1.00  0.00    -0.371 OA
HETATM    3  C3  UNL     1      -0.386  -0.141   0.072  1.00  0.00     0.179 C 
HETATM    4  C9  UNL     1      -0.492   0.820  -1.087  1.00  0.00     0.151 C 
HETATM    5  C10 UNL     1      -1.739   0.608  -1.878  1.00  0.00     0.068 C 
HETATM    6  C11 UNL     1      -2.916   0.149  -1.116  1.00  0.00     0.151 C 
ENDROOT
BRANCH   3   7
HETATM    7  C4  UNL     1       0.803   0.067   0.929  1.00  0.00     0.306 C 
BRANCH   7   8
HETATM    8  N1  UNL     1       2.076  -0.111   0.329  1.00  0.00     0.092 N 
HETATM    9  C5  UNL     1       2.376  -1.475  -0.036  1.00  0.00     0.282 C 
HETATM   10  C6  UNL     1       3.849  -1.644  -0.346  1.00  0.00     0.104 C 
HETATM   11  S1  UNL     1       4.610  -0.038  -0.801  1.00  0.00    -0.166 SA
HETATM   12  C7  UNL     1       4.186   1.062   0.606  1.00  0.00     0.104 C 
HETATM   13  C8  UNL     1       3.069   0.325   1.324  1.00  0.00     0.282 C 
ENDBRANCH   7   8
ENDBRANCH   3   7
BRANCH   4  14
HETATM   14  O3  UNL     1      -0.492   2.122  -0.577  1.00  0.00    -0.393 OA
ATOM     15  H3  UNL     1      -0.559   2.727  -1.307  1.00  0.00     0.210 HD
ENDBRANCH   4  14
BRANCH   1  16
HETATM   16  C1  UNL     1      -3.799   0.261   1.208  1.00  0.00     0.198 C 
BRANCH  16  17
HETATM   17  O1  UNL     1      -5.057  -0.052   0.745  1.00  0.00    -0.398 OA
ATOM     18  H1  UNL     1      -5.742   0.280   1.314  1.00  0.00     0.209 HD
ENDBRANCH  16  17
ENDBRANCH   1  16
BRANCH   6  19
HETATM   19  O4  UNL     1      -3.590  -0.881  -1.802  1.00  0.00    -0.393 OA
ATOM     20  H4  UNL     1      -3.731  -0.611  -2.702  1.00  0.00     0.210 HD
ENDBRANCH   6  19
TORSDOF 6
