REMARK  6 active torsions:
REMARK  status: ('A' for Active; 'I' for Inactive)
REMARK    1  A    between atoms: O1_2  and  C2_3 
REMARK    2  A    between atoms: C7_9  and  C8_10 
REMARK    3  A    between atoms: C8_10  and  O3_11 
REMARK    4  A    between atoms: C9_13  and  O4_14 
REMARK    5  A    between atoms: C10_16  and  O5_17 
REMARK    6  A    between atoms: C12_19  and  O6_20 
ROOT
HETATM    1  C2  UNL     1       2.775  -0.125  -0.215  1.00  0.00     0.146 C 
HETATM    2  C3  UNL     1       2.584   0.583   1.068  1.00  0.00     0.004 C 
HETATM    3  C4  UNL     1       1.323   0.937   1.196  1.00  0.00     0.012 C 
HETATM    4  C5  UNL     1       0.506   0.505   0.001  1.00  0.00     0.110 C 
HETATM    5  C6  UNL     1       1.628   0.383  -1.049  1.00  0.00     0.081 C 
HETATM    6  O2  UNL     1      -0.286   1.518  -0.360  1.00  0.00    -0.363 OA
HETATM    7  C7  UNL     1      -1.616   1.451  -0.191  1.00  0.00     0.178 C 
HETATM    8  C9  UNL     1      -2.069   0.373   0.760  1.00  0.00     0.180 C 
HETATM    9  C10 UNL     1      -1.559  -0.919   0.120  1.00  0.00     0.184 C 
HETATM   10  C12 UNL     1      -0.051  -0.829   0.240  1.00  0.00     0.188 C 
ENDROOT
BRANCH  10  11
HETATM   11  O6  UNL     1       0.276  -1.296   1.513  1.00  0.00    -0.390 OA
ATOM     12  H6  UNL     1      -0.085  -2.161   1.668  1.00  0.00     0.210 HD
ENDBRANCH  10  11
BRANCH   1  13
HETATM   13  O1  UNL     1       4.009   0.157  -0.799  1.00  0.00    -0.387 OA
HETATM   14  C1  UNL     1       4.652  -1.035  -1.071  1.00  0.00     0.202 C 
ENDBRANCH   1  13
BRANCH   7  15
HETATM   15  C8  UNL     1      -2.154   2.814   0.242  1.00  0.00     0.198 C 
BRANCH  15  16
HETATM   16  O3  UNL     1      -1.858   3.745  -0.740  1.00  0.00    -0.398 OA
ATOM     17  H3  UNL     1      -2.192   4.592  -0.471  1.00  0.00     0.209 HD
ENDBRANCH  15  16
ENDBRANCH   7  15
BRANCH   9  18
HETATM   18  O5  UNL     1      -2.086  -1.966   0.847  1.00  0.00    -0.385 OA
HETATM   19  C11 UNL     1      -2.857  -2.789   0.039  1.00  0.00     0.202 C 
ENDBRANCH   9  18
BRANCH   8  20
HETATM   20  O4  UNL     1      -3.416   0.362   0.965  1.00  0.00    -0.390 OA
ATOM     21  H4  UNL     1      -3.702  -0.317   1.564  1.00  0.00     0.210 HD
ENDBRANCH   8  20
TORSDOF 6
