REMARK  4 active torsions:
REMARK  status: ('A' for Active; 'I' for Inactive)
REMARK    1  A    between atoms: N2_5  and  C4_6 
REMARK    2  A    between atoms: C4_6  and  C5_7 
REMARK    3  A    between atoms: C5_7  and  O1_8 
REMARK    4  A    between atoms: C11_19  and  C12_20 
ROOT
HETATM    1  C5  UNL     1      -0.348  -0.186   0.322  1.00  0.00     0.084 C 
HETATM    2  C6  UNL     1      -0.460   1.105  -0.469  1.00  0.00     0.042 C 
HETATM    3  C7  UNL     1      -1.888   1.165  -0.964  1.00  0.00     0.040 C 
HETATM    4  C8  UNL     1      -2.541   0.350   0.128  1.00  0.00     0.122 C 
HETATM    5  S1  UNL     1      -2.272   1.390   1.638  1.00  0.00    -0.141 SA
HETATM    6  C9  UNL     1      -3.644   2.515   1.545  1.00  0.00     0.090 C 
HETATM    7  C10 UNL     1      -4.500   2.184   0.391  1.00  0.00     0.152 C 
HETATM    8  S2  UNL     1      -4.213   0.413   0.047  1.00  0.00     0.163 S 
HETATM    9  O2  UNL     1      -5.021  -0.239   1.102  1.00  0.00    -0.226 OA
HETATM   10  O3  UNL     1      -4.849   0.284  -1.339  1.00  0.00    -0.226 OA
HETATM   11  C11 UNL     1      -1.692  -0.841   0.345  1.00  0.00     0.110 C 
ENDROOT
BRANCH   1  12
HETATM   12  C4  UNL     1       0.828  -0.909  -0.178  1.00  0.00     0.155 C 
BRANCH  12  13
HETATM   13  N2  UNL     1       2.062  -0.212  -0.208  1.00  0.00    -0.406 N 
HETATM   14  C3  UNL     1       2.777   0.173   0.893  1.00  0.00     0.147 C 
HETATM   15  C2  UNL     1       4.044  -0.675   1.125  1.00  0.00     0.291 C 
HETATM   16  N1  UNL     1       4.868  -0.476  -0.027  1.00  0.00     0.087 N 
HETATM   17  C1  UNL     1       5.363   0.860  -0.109  1.00  0.00     0.310 C 
HETATM   18  C15 UNL     1       4.194  -0.923  -1.218  1.00  0.00     0.291 C 
HETATM   19  C14 UNL     1       2.828  -0.338  -1.396  1.00  0.00     0.147 C 
ENDBRANCH  12  13
ENDBRANCH   1  12
BRANCH   1  20
HETATM   20  O1  UNL     1      -0.060   0.179   1.668  1.00  0.00    -0.388 OA
ATOM     21  H1  UNL     1      -0.821   0.647   1.992  1.00  0.00     0.210 HD
ENDBRANCH   1  20
BRANCH  11  22
HETATM   22  C12 UNL     1      -1.858  -2.042  -0.482  1.00  0.00     0.184 C 
HETATM   23  C13 UNL     1      -3.251  -2.681  -0.362  1.00  0.00     0.070 C 
HETATM   24  F1  UNL     1      -1.047  -3.046   0.035  1.00  0.00    -0.225 F 
HETATM   25 CL1  UNL     1      -1.652  -1.831  -2.226  1.00  0.00    -0.082 Cl
ENDBRANCH  11  22
TORSDOF 4
