REMARK  7 active torsions:
REMARK  status: ('A' for Active; 'I' for Inactive)
REMARK    1  A    between atoms: C2_2  and  C5_5 
REMARK    2  A    between atoms: C5_5  and  N1_6 
REMARK    3  A    between atoms: C5_5  and  N2_15 
REMARK    4  A    between atoms: N1_6  and  C6_8 
REMARK       I    between atoms: N2_15  and  C11_17 
REMARK    5  A    between atoms: C11_17  and  O2_19 
REMARK    6  A    between atoms: O2_19  and  C12_20 
REMARK    7  A    between atoms: C12_20  and  C13_21 
ROOT
HETATM    1  N2  UNL     1      -0.396  -1.011  -0.275  1.00  0.00    -0.291 N 
ATOM      2  H2  UNL     1      -0.062  -1.934  -0.551  1.00  0.00     0.172 HD
HETATM    3  C11 UNL     1       0.538   0.051   0.140  1.00  0.00     0.366 C 
HETATM    4  O1  UNL     1       0.139   1.158   0.476  1.00  0.00    -0.238 OA
ENDROOT
BRANCH   1   5
HETATM    5  C5  UNL     1      -1.731  -0.706  -0.275  1.00  0.00     0.089 C 
BRANCH   5   6
HETATM    6  C2  UNL     1      -2.148  -2.378  -0.870  1.00  0.00     0.007 C 
HETATM    7  C1  UNL     1      -1.493  -3.197   0.147  1.00  0.00     0.022 C 
HETATM    8  C3  UNL     1      -3.603  -2.413  -0.747  1.00  0.00     0.022 C 
HETATM    9  C4  UNL     1      -1.620  -2.315  -2.213  1.00  0.00     0.022 C 
ENDBRANCH   5   6
BRANCH   5  10
HETATM   10  N1  UNL     1      -2.847  -0.451  -0.274  1.00  0.00    -0.374 N 
ATOM     11  H1  UNL     1      -3.340  -1.285  -0.592  1.00  0.00     0.161 HD
BRANCH  10  12
HETATM   12  C6  UNL     1      -3.821   0.524  -0.020  1.00  0.00     0.088 C 
HETATM   13  C7  UNL     1      -4.386   1.242  -1.230  1.00  0.00     0.031 C 
HETATM   14  C8  UNL     1      -5.099   2.452  -0.634  1.00  0.00     0.081 C 
HETATM   15  C9  UNL     1      -4.708   2.504   0.826  1.00  0.00     0.245 C 
HETATM   16  F1  UNL     1      -5.588   1.738   1.602  1.00  0.00    -0.206 F 
HETATM   17  F2  UNL     1      -4.551   3.772   1.302  1.00  0.00    -0.206 F 
HETATM   18  C10 UNL     1      -3.393   1.710   0.818  1.00  0.00     0.104 C 
ENDBRANCH  10  12
ENDBRANCH   5  10
ENDBRANCH   1   5
BRANCH   3  19
HETATM   19  O2  UNL     1       1.904  -0.208   0.151  1.00  0.00    -0.301 OA
BRANCH  19  20
HETATM   20  C12 UNL     1       2.826   0.816   0.543  1.00  0.00     0.213 C 
BRANCH  20  21
HETATM   21  C13 UNL     1       4.250   0.330   0.447  1.00  0.00     0.159 C 
HETATM   22  O3  UNL     1       4.448  -0.738   1.324  1.00  0.00    -0.352 OA
HETATM   23  C14 UNL     1       5.738  -0.250   1.679  1.00  0.00     0.286 C 
HETATM   24  O4  UNL     1       6.643  -0.808   0.823  1.00  0.00    -0.242 OA
HETATM   25  C16 UNL     1       5.284   1.082   1.210  1.00  0.00     0.089 C 
HETATM   26  S1  UNL     1       7.627   0.512   0.420  1.00  0.00     0.268 S 
HETATM   27  O5  UNL     1       8.280   0.348  -0.897  1.00  0.00    -0.199 OA
HETATM   28  O6  UNL     1       8.607   0.717   1.537  1.00  0.00    -0.199 OA
HETATM   29  C15 UNL     1       6.352   1.757   0.411  1.00  0.00     0.183 C 
ENDBRANCH  20  21
ENDBRANCH  19  20
ENDBRANCH   3  19
TORSDOF 7
