REMARK  5 active torsions:
REMARK  status: ('A' for Active; 'I' for Inactive)
REMARK    1  A    between atoms: C2_2  and  O1_3 
REMARK    2  A    between atoms: O1_3  and  C3_4 
REMARK    3  A    between atoms: C3_4  and  C4_6 
REMARK    4  A    between atoms: C7_10  and  N1_11 
REMARK       I    between atoms: N2_13  and  C8_15 
REMARK    5  A    between atoms: C8_15  and  C9_17 
REMARK       I    between atoms: C9_17  and  N3_19 
ROOT
HETATM    1  N1  UNL     1       0.106  -0.471   3.721  1.00  0.00    -0.294 N 
ATOM      2  H1  UNL     1       0.392  -0.506   4.700  1.00  0.00     0.187 HD
HETATM    3  N2  UNL     1      -1.119  -0.440   3.412  1.00  0.00    -0.261 N 
ATOM      4  H2  UNL     1      -1.825  -0.450   4.148  1.00  0.00     0.190 HD
HETATM    5  C8  UNL     1      -1.530  -0.391   2.031  1.00  0.00     0.328 C 
HETATM    6  O3  UNL     1      -1.284  -1.345   1.284  1.00  0.00    -0.261 OA
ENDROOT
BRANCH   1   7
HETATM    7  C7  UNL     1       1.072  -0.456   2.695  1.00  0.00     0.091 A 
HETATM    8  C6  UNL     1       1.327   0.740   2.040  1.00  0.00     0.060 A 
HETATM    9  C5  UNL     1       2.255   0.779   1.045  1.00  0.00     0.069 A 
HETATM   10  C4  UNL     1       2.941  -0.401   0.700  1.00  0.00     0.133 A 
HETATM   11 CL1  UNL     1       2.604   2.292   0.188  1.00  0.00    -0.082 Cl
HETATM   12  N5  UNL     1       2.669  -1.538   1.354  1.00  0.00    -0.332 N 
HETATM   13  C16 UNL     1       1.743  -1.607   2.356  1.00  0.00     0.147 A 
HETATM   14  C17 UNL     1       3.396  -2.749   0.975  1.00  0.00     0.158 C 
HETATM   15  N4  UNL     1       1.511  -2.846   3.001  1.00  0.00    -0.080 NA
BRANCH  10  16
HETATM   16  C3  UNL     1       3.912  -0.287  -0.363  1.00  0.00     0.311 C 
HETATM   17  O2  UNL     1       4.576  -1.254  -0.753  1.00  0.00    -0.258 OA
BRANCH  16  18
HETATM   18  O1  UNL     1       4.127   0.925  -0.981  1.00  0.00    -0.317 OA
BRANCH  18  19
HETATM   19  C2  UNL     1       5.067   1.101  -2.031  1.00  0.00     0.175 C 
HETATM   20  C1  UNL     1       4.670   0.199  -3.162  1.00  0.00     0.034 C 
ENDBRANCH  18  19
ENDBRANCH  16  18
ENDBRANCH  10  16
ENDBRANCH   1   7
BRANCH   5  21
HETATM   21  C9  UNL     1      -2.218   0.786   1.571  1.00  0.00     0.313 C 
HETATM   22  O4  UNL     1      -2.459   1.760   2.371  1.00  0.00    -0.262 OA
HETATM   23  N3  UNL     1      -2.661   0.934   0.240  1.00  0.00    -0.344 N 
HETATM   24  C10 UNL     1      -2.429  -0.118  -0.721  1.00  0.00     0.126 C 
HETATM   25  C15 UNL     1      -3.337   2.195  -0.031  1.00  0.00     0.126 C 
HETATM   26  C11 UNL     1      -2.959   0.329  -2.069  1.00  0.00     0.020 C 
HETATM   27  C12 UNL     1      -4.446   0.198  -2.088  1.00  0.00     0.002 C 
HETATM   28  C13 UNL     1      -5.092   0.561  -0.779  1.00  0.00     0.002 C 
HETATM   29  C14 UNL     1      -4.780   1.977  -0.356  1.00  0.00     0.020 C 
ENDBRANCH   5  21
TORSDOF 5
