REMARK  6 active torsions:
REMARK  status: ('A' for Active; 'I' for Inactive)
REMARK    1  A    between atoms: C2_2  and  O2_4 
REMARK    2  A    between atoms: O2_4  and  C3_5 
REMARK    3  A    between atoms: C5_7  and  C6_8 
REMARK    4  A    between atoms: C11_13  and  O3_14 
REMARK    5  A    between atoms: O3_14  and  C12_15 
REMARK    6  A    between atoms: C12_15  and  N2_19 
ROOT
HETATM    1  C3  UNL     1       1.779  -0.610   0.879  1.00  0.00     0.198 C 
HETATM    2  C4  UNL     1       1.749   0.892   0.940  1.00  0.00     0.013 C 
HETATM    3  C5  UNL     1       0.790   1.381   0.173  1.00  0.00    -0.063 C 
HETATM    4  C9  UNL     1       0.108   0.277  -0.470  1.00  0.00     0.048 C 
HETATM    5  C10 UNL     1       0.672  -0.029  -1.848  1.00  0.00     0.026 C 
HETATM    6  C11 UNL     1      -1.385   0.386  -0.598  1.00  0.00     0.150 C 
HETATM    7  C13 UNL     1      -1.919  -0.975  -0.926  1.00  0.00     0.071 C 
HETATM    8  C14 UNL     1      -1.227  -2.121  -0.283  1.00  0.00     0.068 C 
HETATM    9  C15 UNL     1      -1.737  -3.399  -0.857  1.00  0.00     0.046 C 
HETATM   10  C16 UNL     1      -1.517  -2.031   1.224  1.00  0.00     0.119 C 
HETATM   11  C17 UNL     1      -0.523  -0.984   1.592  1.00  0.00     0.168 C 
HETATM   12  O4  UNL     1      -0.522  -0.377   2.638  1.00  0.00    -0.294 OA
HETATM   13  C18 UNL     1       0.378  -0.894   0.444  1.00  0.00     0.165 C 
HETATM   14  O5  UNL     1       0.170  -2.028  -0.295  1.00  0.00    -0.357 OA
ENDROOT
BRANCH   6  15
HETATM   15  O3  UNL     1      -1.945   0.985   0.526  1.00  0.00    -0.313 OA
BRANCH  15  16
HETATM   16  C12 UNL     1      -3.291   1.225   0.705  1.00  0.00     0.259 C 
HETATM   17  N1  UNL     1      -4.000   1.382  -0.361  1.00  0.00    -0.186 N 
HETATM   18  F1  UNL     1      -5.327   1.622  -0.331  1.00  0.00    -0.098 F 
ATOM     19  H1  UNL     1      -3.536   1.322  -1.268  1.00  0.00     0.203 HD
BRANCH  16  20
HETATM   20  N2  UNL     1      -3.799   1.282   2.019  1.00  0.00    -0.262 N 
HETATM   21 CL1  UNL     1      -4.899   0.060   2.557  1.00  0.00     0.014 Cl
ATOM     22  H2  UNL     1      -3.521   2.037   2.646  1.00  0.00     0.184 HD
ENDBRANCH  16  20
ENDBRANCH  15  16
ENDBRANCH   6  15
BRANCH   3  23
HETATM   23  C6  UNL     1       0.455   2.832  -0.021  1.00  0.00     0.007 C 
HETATM   24  C7  UNL     1       0.605   3.248  -1.469  1.00  0.00     0.014 C 
HETATM   25  C8  UNL     1       1.405   3.663   0.816  1.00  0.00     0.014 C 
ENDBRANCH   3  23
BRANCH   1  26
HETATM   26  O2  UNL     1       2.747  -1.102   0.019  1.00  0.00    -0.309 OA
BRANCH  26  27
HETATM   27  C2  UNL     1       3.768  -1.942   0.398  1.00  0.00     0.255 C 
HETATM   28  C1  UNL     1       4.804  -2.473  -0.507  1.00  0.00     0.126 C 
HETATM   29  O1  UNL     1       3.803  -2.272   1.625  1.00  0.00    -0.266 OA
ENDBRANCH  26  27
ENDBRANCH   1  26
TORSDOF 6
