REMARK  4 active torsions:
REMARK  status: ('A' for Active; 'I' for Inactive)
REMARK    1  A    between atoms: C2_2  and  C3_3 
REMARK    2  A    between atoms: C3_3  and  N1_4 
REMARK    3  A    between atoms: C7_8  and  N2_9 
REMARK       I    between atoms: N2_9  and  C8_11 
REMARK       I    between atoms: C8_11  and  N4_16 
REMARK    4  A    between atoms: N3_12  and  C9_14 
ROOT
HETATM    1  N1  UNL     1      -1.991   0.063  -0.246  1.00  0.00    -0.341 N 
HETATM    2  C4  UNL     1      -0.977  -0.792   0.013  1.00  0.00     0.012 A 
HETATM    3  C5  UNL     1      -1.280  -2.190   0.314  1.00  0.00     0.068 C 
HETATM    4  C6  UNL     1       0.334  -0.358  -0.007  1.00  0.00     0.073 A 
HETATM    5  C7  UNL     1       0.591   0.957  -0.293  1.00  0.00     0.124 A 
HETATM    6  N5  UNL     1      -0.414   1.790  -0.547  1.00  0.00    -0.332 N 
ATOM      7  H5  UNL     1      -0.223   2.769  -0.761  1.00  0.00     0.168 HD
HETATM    8  C12 UNL     1      -1.676   1.345  -0.522  1.00  0.00     0.081 A 
HETATM    9  C13 UNL     1      -2.785   2.285  -0.812  1.00  0.00     0.089 C 
ENDROOT
BRANCH   5  10
HETATM   10  N2  UNL     1       1.792   1.460  -0.335  1.00  0.00    -0.177 N 
HETATM   11  C8  UNL     1       2.860   0.557  -0.062  1.00  0.00     0.675 C 
HETATM   12  N3  UNL     1       3.438   0.508   1.083  1.00  0.00    -0.227 N 
HETATM   13  N4  UNL     1       3.267  -0.296  -1.110  1.00  0.00    -0.231 N 
ATOM     14  H3  UNL     1       3.145   1.123   1.842  1.00  0.00     0.177 HD
HETATM   15  C11 UNL     1       3.442   0.262  -2.425  1.00  0.00     0.165 C 
ATOM     16  H4  UNL     1       3.434  -1.288  -0.939  1.00  0.00     0.177 HD
ATOM     17  H2  UNL     1       1.958   2.443  -0.551  1.00  0.00     0.185 HD
BRANCH  12  18
HETATM   18  C9  UNL     1       4.512  -0.437   1.273  1.00  0.00     0.133 C 
HETATM   19  C10 UNL     1       5.583   0.265   2.093  1.00  0.00     0.027 C 
ENDBRANCH  12  18
ENDBRANCH   5  10
BRANCH   1  20
HETATM   20  C3  UNL     1      -3.329  -0.420  -0.218  1.00  0.00     0.130 C 
BRANCH  20  21
HETATM   21  C2  UNL     1      -4.016  -0.348   1.115  1.00  0.00     0.016 C 
HETATM   22  C1  UNL     1      -5.426  -0.915   0.900  1.00  0.00     0.006 C 
ENDBRANCH  20  21
ENDBRANCH   1  20
TORSDOF 4
