REMARK  5 active torsions:
REMARK  status: ('A' for Active; 'I' for Inactive)
REMARK    1  A    between atoms: C2_2  and  C3_3 
REMARK    2  A    between atoms: C3_3  and  C4_4 
REMARK    3  A    between atoms: C4_4  and  N5_14 
REMARK    4  A    between atoms: N1_5  and  C5_7 
REMARK    5  A    between atoms: C5_7  and  N2_9 
ROOT
HETATM    1  C4  UNL     1      -0.076   1.143  -0.481  1.00  0.00     0.084 C 
HETATM    2  N1  UNL     1       1.059   1.190  -1.032  1.00  0.00    -0.323 N 
ATOM      3  H1  UNL     1       1.275   2.043  -1.547  1.00  0.00     0.169 HD
ENDROOT
BRANCH   1   4
HETATM    4  C3  UNL     1      -1.004   2.289  -0.606  1.00  0.00     0.102 C 
BRANCH   4   5
HETATM    5  C2  UNL     1      -0.445   3.393  -1.405  1.00  0.00    -0.029 C 
HETATM    6  C1  UNL     1      -1.060   3.777  -2.495  1.00  0.00     0.007 C 
ENDBRANCH   4   5
ENDBRANCH   1   4
BRANCH   1   7
HETATM    7  N5  UNL     1      -0.486   0.011   0.261  1.00  0.00    -0.370 N 
HETATM    8  C7  UNL     1      -0.812   0.020   1.670  1.00  0.00     0.124 C 
HETATM    9  C8  UNL     1      -2.306  -0.178   1.799  1.00  0.00     0.020 C 
HETATM   10  C9  UNL     1      -2.799  -1.129   0.753  1.00  0.00     0.003 C 
HETATM   11  C10 UNL     1      -1.707  -2.082   0.282  1.00  0.00     0.020 C 
HETATM   12  C11 UNL     1      -0.605  -1.293  -0.409  1.00  0.00     0.124 C 
ENDBRANCH   1   7
BRANCH   2  13
HETATM   13  C5  UNL     1       2.058   0.204  -1.018  1.00  0.00     0.179 C 
HETATM   14  S1  UNL     1       2.530  -0.664  -2.316  1.00  0.00    -0.040 SA
BRANCH  13  15
HETATM   15  N2  UNL     1       2.717  -0.070   0.210  1.00  0.00    -0.310 N 
HETATM   16  C6  UNL     1       3.285  -1.158   0.518  1.00  0.00     0.203 C 
HETATM   17  N3  UNL     1       3.901  -1.264   1.796  1.00  0.00    -0.066 NA
HETATM   18  N4  UNL     1       3.351  -2.291  -0.334  1.00  0.00    -0.066 NA
ATOM     19  H2  UNL     1       2.734   0.676   0.905  1.00  0.00     0.170 HD
ENDBRANCH  13  15
ENDBRANCH   2  13
TORSDOF 5
