REMARK  6 active torsions:
REMARK  status: ('A' for Active; 'I' for Inactive)
REMARK    1  A    between atoms: C3_3  and  C4_4 
REMARK    2  A    between atoms: C5_5  and  C6_6 
REMARK    3  A    between atoms: C8_12  and  N3_13 
REMARK       I    between atoms: N3_13  and  C9_15 
REMARK    4  A    between atoms: C9_15  and  C10_17 
REMARK    5  A    between atoms: C10_17  and  C11_18 
REMARK    6  A    between atoms: C11_18  and  C12_19 
ROOT
HETATM    1  C1  UNL     1      -2.556  -3.622  -1.684  1.00  0.00     0.017 C 
HETATM    2  C2  UNL     1      -3.023  -2.585  -1.279  1.00  0.00    -0.088 C 
HETATM    3  C3  UNL     1      -3.602  -1.364  -0.806  1.00  0.00     0.081 C 
ENDROOT
BRANCH   3   4
HETATM    4  C4  UNL     1      -2.924  -0.367  -0.283  1.00  0.00     0.045 A 
HETATM    5  C5  UNL     1      -3.428   0.821   0.184  1.00  0.00     0.058 A 
HETATM    6  N1  UNL     1      -2.397   1.560   0.634  1.00  0.00    -0.299 N 
HETATM    7  N2  UNL     1      -1.259   0.890   0.472  1.00  0.00    -0.284 N 
ATOM      8  H1  UNL     1      -2.476   2.493   1.038  1.00  0.00     0.187 HD
HETATM    9  C8  UNL     1      -1.530  -0.304  -0.090  1.00  0.00     0.135 A 
ATOM     10  H2  UNL     1      -0.332   1.226   0.731  1.00  0.00     0.188 HD
BRANCH   5  11
HETATM   11  C6  UNL     1      -4.711   1.156   0.182  1.00  0.00     0.001 C 
HETATM   12  C7  UNL     1      -5.167   2.468   0.710  1.00  0.00     0.038 C 
ENDBRANCH   5  11
BRANCH   9  13
HETATM   13  N3  UNL     1      -0.764  -1.263  -0.426  1.00  0.00    -0.311 N 
HETATM   14  C9  UNL     1       0.605  -1.414  -0.331  1.00  0.00     0.223 C 
HETATM   15  O1  UNL     1       1.078  -2.559  -0.683  1.00  0.00    -0.273 OA
ATOM     16  H3  UNL     1      -1.247  -2.061  -0.838  1.00  0.00     0.170 HD
BRANCH  14  17
HETATM   17  C10 UNL     1       1.606  -0.437   0.122  1.00  0.00     0.103 C 
BRANCH  17  18
HETATM   18  C11 UNL     1       3.027  -1.006   0.039  1.00  0.00     0.013 C 
BRANCH  18  19
HETATM   19  C12 UNL     1       4.031   0.026   0.513  1.00  0.00    -0.022 C 
HETATM   20  C13 UNL     1       5.436  -0.501   0.444  1.00  0.00     0.009 C 
HETATM   21  C14 UNL     1       3.932   1.311  -0.261  1.00  0.00     0.009 C 
ENDBRANCH  18  19
ENDBRANCH  17  18
ENDBRANCH  14  17
ENDBRANCH   9  13
ENDBRANCH   3   4
TORSDOF 6
