REMARK  5 active torsions:
REMARK  status: ('A' for Active; 'I' for Inactive)
REMARK    1  A    between atoms: C4_4  and  C5_5 
REMARK       I    between atoms: C5_5  and  N1_7 
REMARK    2  A    between atoms: N1_7  and  C6_9 
REMARK    3  A    between atoms: C6_9  and  C7_10 
REMARK    4  A    between atoms: C8_11  and  C9_12 
REMARK    5  A    between atoms: C9_12  and  N2_13 
ROOT
HETATM    1  C5  UNL     1      -1.298   0.672   0.734  1.00  0.00     0.268 C 
HETATM    2  O1  UNL     1      -0.570  -0.098   1.391  1.00  0.00    -0.266 OA
HETATM    3  N1  UNL     1      -0.783   1.903   0.294  1.00  0.00    -0.345 N 
ATOM      4  H1  UNL     1      -1.389   2.524  -0.242  1.00  0.00     0.163 HD
ENDROOT
BRANCH   1   5
HETATM    5  C4  UNL     1      -2.658   0.295   0.431  1.00  0.00     0.101 A 
HETATM    6  C3  UNL     1      -3.289  -0.892   0.806  1.00  0.00     0.044 A 
HETATM    7  C2  UNL     1      -4.587  -0.904   0.340  1.00  0.00    -0.037 A 
HETATM    8  C1  UNL     1      -5.600  -2.001   0.530  1.00  0.00     0.050 C 
HETATM    9  C13 UNL     1      -4.749   0.286  -0.326  1.00  0.00     0.011 A 
HETATM   10  N3  UNL     1      -3.606   0.973  -0.260  1.00  0.00    -0.355 N 
HETATM   11  C14 UNL     1      -6.007   0.706  -0.998  1.00  0.00     0.068 C 
ATOM     12  H3  UNL     1      -3.464   1.893  -0.677  1.00  0.00     0.166 HD
ENDBRANCH   1   5
BRANCH   3  13
HETATM   13  C6  UNL     1       0.574   2.326   0.571  1.00  0.00     0.217 C 
BRANCH  13  14
HETATM   14  C7  UNL     1       1.547   1.388   0.009  1.00  0.00    -0.085 C 
HETATM   15  C8  UNL     1       2.349   0.604  -0.437  1.00  0.00    -0.077 C 
BRANCH  15  16
HETATM   16  C9  UNL     1       3.344  -0.358  -0.962  1.00  0.00     0.329 C 
BRANCH  16  17
HETATM   17  N2  UNL     1       4.396  -0.543   0.031  1.00  0.00    -0.069 N 
HETATM   18  C10 UNL     1       4.336   0.583   0.950  1.00  0.00     0.272 C 
HETATM   19  C11 UNL     1       4.034  -1.723   0.801  1.00  0.00     0.272 C 
HETATM   20  C12 UNL     1       5.680  -0.668  -0.593  1.00  0.00     0.272 C 
ENDBRANCH  16  17
ENDBRANCH  15  16
ENDBRANCH  13  14
ENDBRANCH   3  13
TORSDOF 5
