REMARK  6 active torsions:
REMARK  status: ('A' for Active; 'I' for Inactive)
REMARK    1  A    between atoms: C2_2  and  C3_3 
REMARK    2  A    between atoms: C4_4  and  C5_5 
REMARK    3  A    between atoms: C7_9  and  N2_10 
REMARK       I    between atoms: N2_10  and  C8_12 
REMARK    4  A    between atoms: C8_12  and  C9_14 
REMARK    5  A    between atoms: C9_14  and  C10_15 
REMARK    6  A    between atoms: C10_15  and  S1_16 
ROOT
HETATM    1  C5  UNL     1       2.885   0.315  -0.087  1.00  0.00     0.118 A 
HETATM    2  C6  UNL     1       2.328  -0.745   0.620  1.00  0.00     0.145 A 
HETATM    3  N1  UNL     1       1.030  -0.476   0.895  1.00  0.00    -0.199 N 
ATOM      4  H1  UNL     1       0.368  -1.065   1.400  1.00  0.00     0.183 HD
HETATM    5  C7  UNL     1       0.803   0.731   0.360  1.00  0.00     0.685 A 
HETATM    6  N3  UNL     1       1.897   1.216  -0.229  1.00  0.00    -0.182 N 
ATOM      7  H3  UNL     1       1.971   2.115  -0.705  1.00  0.00     0.185 HD
ENDROOT
BRANCH   5   8
HETATM    8  N2  UNL     1      -0.321   1.352   0.403  1.00  0.00    -0.159 N 
HETATM    9  C8  UNL     1      -1.482   0.852   1.020  1.00  0.00     0.236 C 
HETATM   10  O1  UNL     1      -1.458   0.556   2.234  1.00  0.00    -0.273 OA
ATOM     11  H2  UNL     1      -0.375   2.269  -0.040  1.00  0.00     0.187 HD
BRANCH   9  12
HETATM   12  C9  UNL     1      -2.711   0.687   0.209  1.00  0.00     0.113 C 
BRANCH  12  13
HETATM   13  C10 UNL     1      -3.821   0.142   1.068  1.00  0.00     0.072 C 
BRANCH  13  14
HETATM   14  S1  UNL     1      -5.266  -0.041   0.075  1.00  0.00    -0.228 SA
HETATM   15  C11 UNL     1      -6.637  -0.681   1.004  1.00  0.00     0.078 C 
HETATM   16  C12 UNL     1      -4.990  -0.933  -1.411  1.00  0.00     0.078 C 
ENDBRANCH  13  14
ENDBRANCH  12  13
ENDBRANCH   9  12
ENDBRANCH   5   8
BRANCH   1  17
HETATM   17  C4  UNL     1       4.233   0.422  -0.567  1.00  0.00    -0.047 C 
HETATM   18  C3  UNL     1       5.371   0.517  -0.954  1.00  0.00    -0.100 C 
BRANCH  18  19
HETATM   19  C2  UNL     1       6.765   0.620  -1.406  1.00  0.00     0.090 C 
HETATM   20  C1  UNL     1       7.645  -0.308  -0.575  1.00  0.00     0.018 C 
ENDBRANCH  18  19
ENDBRANCH   1  17
TORSDOF 6
