REMARK  14 active torsions:
REMARK  status: ('A' for Active; 'I' for Inactive)
REMARK    1  A    between atoms: C3_3  and  C13_13 
REMARK    2  A    between atoms: C4_4  and  C5_5 
REMARK    3  A    between atoms: C5_5  and  C6_6 
REMARK    4  A    between atoms: C6_6  and  C8_8 
REMARK    5  A    between atoms: C8_8  and  C9_9 
REMARK    6  A    between atoms: C9_9  and  C10_10 
REMARK    7  A    between atoms: C10_10  and  C11_11 
REMARK    8  A    between atoms: C13_13  and  C14_14 
REMARK    9  A    between atoms: C14_14  and  C15_15 
REMARK   10  A    between atoms: C15_15  and  C16_16 
REMARK   11  A    between atoms: C15_15  and  C26_32 
REMARK   12  A    between atoms: C16_16  and  C17_17 
REMARK   13  A    between atoms: C17_17  and  C18_18 
REMARK   14  A    between atoms: C18_18  and  C19_19 
ROOT
HETATM    1  C1  UNL     1       3.387   1.220   3.012  1.00  0.00     0.018 C 
HETATM    2  C2  UNL     1       2.861   1.114   1.933  1.00  0.00    -0.078 C 
HETATM    3  C3  UNL     1       2.229   1.003   0.616  1.00  0.00     0.017 C 
HETATM    4  C4  UNL     1       3.014   0.577  -0.511  1.00  0.00     0.021 C 
ENDROOT
BRANCH   3   5
HETATM    5  C13 UNL     1       0.930   1.315   0.545  1.00  0.00     0.021 C 
BRANCH   5   6
HETATM    6  C14 UNL     1       0.228   1.239  -0.688  1.00  0.00     0.015 C 
BRANCH   6   7
HETATM    7  C15 UNL     1      -1.046   1.533  -0.838  1.00  0.00     0.018 C 
BRANCH   7   8
HETATM    8  C16 UNL     1      -1.867   1.972   0.274  1.00  0.00     0.046 C 
BRANCH   8   9
HETATM    9  C17 UNL     1      -2.939   1.109   0.791  1.00  0.00     0.007 C 
BRANCH   9  10
HETATM   10  C18 UNL     1      -4.055   0.653  -0.069  1.00  0.00     0.031 C 
BRANCH  10  11
HETATM   11  C19 UNL     1      -4.967  -0.176   0.864  1.00  0.00     0.127 C 
HETATM   12  N1  UNL     1      -5.448   0.618   1.944  1.00  0.00    -0.306 N 
HETATM   13  S1  UNL     1      -6.816  -0.361   2.452  1.00  0.00     0.260 S 
ATOM     14  H1  UNL     1      -5.099   1.501   2.316  1.00  0.00     0.173 HD
HETATM   15  O1  UNL     1      -6.363  -1.409   3.392  1.00  0.00    -0.200 OA
HETATM   16  O2  UNL     1      -7.907   0.503   2.978  1.00  0.00    -0.200 OA
HETATM   17  C20 UNL     1      -7.203  -1.004   0.859  1.00  0.00     0.087 A 
HETATM   18  C21 UNL     1      -8.324  -1.586   0.313  1.00  0.00     0.027 A 
HETATM   19  C25 UNL     1      -6.056  -0.799   0.127  1.00  0.00    -0.010 A 
HETATM   20  C22 UNL     1      -8.347  -1.999  -1.018  1.00  0.00     0.020 A 
HETATM   21  C23 UNL     1      -7.210  -1.804  -1.771  1.00  0.00     0.011 A 
HETATM   22 BR1  UNL     1      -7.186  -2.355  -3.619  1.00  0.00    -0.051 Br
HETATM   23  C24 UNL     1      -6.105  -1.220  -1.204  1.00  0.00     0.030 A 
ENDBRANCH  10  11
ENDBRANCH   9  10
ENDBRANCH   8   9
ENDBRANCH   7   8
BRANCH   7  24
HETATM   24  C26 UNL     1      -1.552   1.477  -2.202  1.00  0.00     0.205 C 
HETATM   25  O3  UNL     1      -0.765   1.111  -3.146  1.00  0.00    -0.644 OA
HETATM   26  O4  UNL     1      -2.827   1.795  -2.595  1.00  0.00    -0.644 OA
ENDBRANCH   7  24
ENDBRANCH   6   7
ENDBRANCH   5   6
ENDBRANCH   3   5
BRANCH   4  27
HETATM   27  C5  UNL     1       4.309   0.289  -0.326  1.00  0.00     0.008 C 
BRANCH  27  28
HETATM   28  C6  UNL     1       5.107  -0.140  -1.454  1.00  0.00    -0.066 C 
HETATM   29  C7  UNL     1       4.483  -0.260  -2.814  1.00  0.00     0.048 C 
BRANCH  28  30
HETATM   30  C8  UNL     1       6.369  -0.431  -1.324  1.00  0.00    -0.020 C 
BRANCH  30  31
HETATM   31  C9  UNL     1       7.155  -0.378  -0.093  1.00  0.00     0.031 C 
BRANCH  31  32
HETATM   32  C10 UNL     1       7.725  -1.755   0.237  1.00  0.00     0.030 C 
BRANCH  32  33
HETATM   33  C11 UNL     1       8.510  -1.665   1.479  1.00  0.00    -0.037 C 
HETATM   34  C12 UNL     1       8.173  -2.393   2.535  1.00  0.00     0.007 C 
ENDBRANCH  32  33
ENDBRANCH  31  32
ENDBRANCH  30  31
ENDBRANCH  28  30
ENDBRANCH  27  28
ENDBRANCH   4  27
TORSDOF 14
