REMARK  12 active torsions:
REMARK  status: ('A' for Active; 'I' for Inactive)
REMARK    1  A    between atoms: C2_2  and  C3_3 
REMARK    2  A    between atoms: C3_3  and  O1_4 
REMARK    3  A    between atoms: C3_3  and  C4_6 
REMARK    4  A    between atoms: C5_7  and  C6_8 
REMARK    5  A    between atoms: C5_7  and  C26_33 
REMARK    6  A    between atoms: C7_9  and  C8_10 
REMARK    7  A    between atoms: C14_17  and  C15_18 
REMARK       I    between atoms: C15_18  and  N1_20 
REMARK    8  A    between atoms: N1_20  and  C16_22 
REMARK    9  A    between atoms: C16_22  and  C17_23 
REMARK   10  A    between atoms: C17_23  and  N2_24 
REMARK   11  A    between atoms: C26_33  and  C27_34 
REMARK   12  A    between atoms: C27_34  and  C28_35 
ROOT
HETATM    1  C8  UNL     1       0.207   1.451   0.003  1.00  0.00    -0.021 C 
HETATM    2  C9  UNL     1       0.819   2.175  -1.223  1.00  0.00     0.020 C 
HETATM    3  C10 UNL     1       0.918   1.936   1.221  1.00  0.00     0.018 C 
HETATM    4  C11 UNL     1       0.046   3.057   1.839  1.00  0.00    -0.008 C 
HETATM    5  C12 UNL     1      -0.825   2.526   2.912  1.00  0.00     0.026 C 
HETATM    6  C13 UNL     1      -1.721   1.392   2.440  1.00  0.00     0.101 C 
HETATM    7 CL1  UNL     1      -0.964  -0.119   2.825  1.00  0.00    -0.124 Cl
HETATM    8  C14 UNL     1      -2.177   1.621   1.028  1.00  0.00     0.062 C 
HETATM    9  C21 UNL     1      -3.228   2.765   1.160  1.00  0.00     0.021 C 
HETATM   10  C22 UNL     1      -2.976   3.885   0.205  1.00  0.00     0.002 C 
HETATM   11  C23 UNL     1      -1.679   4.521   0.681  1.00  0.00     0.005 C 
HETATM   12  C24 UNL     1      -0.656   3.481   0.592  1.00  0.00    -0.004 C 
HETATM   13  C25 UNL     1      -1.139   2.095   0.116  1.00  0.00     0.021 C 
ENDROOT
BRANCH   1  14
HETATM   14  C7  UNL     1       0.290   0.063  -0.257  1.00  0.00    -0.017 C 
HETATM   15  C6  UNL     1       1.188  -0.766  -0.593  1.00  0.00     0.004 C 
BRANCH  15  16
HETATM   16  C5  UNL     1       2.532  -1.034  -0.922  1.00  0.00    -0.059 C 
HETATM   17  C4  UNL     1       2.850  -2.344  -1.279  1.00  0.00     0.011 C 
BRANCH  17  18
HETATM   18  C3  UNL     1       4.157  -2.812  -1.642  1.00  0.00     0.141 C 
BRANCH  18  19
HETATM   19  C2  UNL     1       4.300  -4.336  -1.402  1.00  0.00     0.031 C 
HETATM   20  C1  UNL     1       5.712  -4.769  -1.720  1.00  0.00     0.008 C 
ENDBRANCH  18  19
BRANCH  18  21
HETATM   21  O1  UNL     1       4.451  -2.620  -2.990  1.00  0.00    -0.392 OA
ATOM     22  H1  UNL     1       4.363  -1.686  -3.137  1.00  0.00     0.210 HD
ENDBRANCH  18  21
ENDBRANCH  17  18
BRANCH  16  23
HETATM   23  C26 UNL     1       3.691  -0.172  -1.027  1.00  0.00     0.042 C 
BRANCH  23  24
HETATM   24  C27 UNL     1       4.286   0.350   0.257  1.00  0.00     0.032 C 
BRANCH  24  25
HETATM   25  C28 UNL     1       5.439   1.224  -0.029  1.00  0.00    -0.024 C 
HETATM   26  C29 UNL     1       6.636   0.915   0.418  1.00  0.00    -0.091 C 
HETATM   27  C30 UNL     1       6.838  -0.334   1.225  1.00  0.00     0.042 C 
HETATM   28  C31 UNL     1       7.842   1.758   0.163  1.00  0.00     0.042 C 
ENDBRANCH  24  25
ENDBRANCH  23  24
ENDBRANCH  16  23
ENDBRANCH  15  16
ENDBRANCH   1  14
BRANCH   8  29
HETATM   29  C15 UNL     1      -3.016   0.513   0.527  1.00  0.00     0.228 C 
HETATM   30  O2  UNL     1      -3.215   0.473  -0.736  1.00  0.00    -0.273 OA
HETATM   31  N1  UNL     1      -3.619  -0.494   1.294  1.00  0.00    -0.359 N 
ATOM     32  H1  UNL     1      -3.467  -0.476   2.302  1.00  0.00     0.162 HD
BRANCH  31  33
HETATM   33  C16 UNL     1      -4.441  -1.557   0.758  1.00  0.00     0.150 C 
BRANCH  33  34
HETATM   34  C17 UNL     1      -5.690  -1.043   0.079  1.00  0.00     0.255 C 
BRANCH  34  35
HETATM   35  N2  UNL     1      -6.504  -2.104  -0.445  1.00  0.00    -0.077 N 
HETATM   36  C18 UNL     1      -7.878  -1.871   0.033  1.00  0.00     0.271 C 
HETATM   37  C19 UNL     1      -6.585  -2.045  -1.904  1.00  0.00     0.271 C 
HETATM   38  C20 UNL     1      -6.149  -3.418   0.014  1.00  0.00     0.271 C 
ENDBRANCH  34  35
ENDBRANCH  33  34
ENDBRANCH  31  33
ENDBRANCH   8  29
TORSDOF 12
