REMARK  12 active torsions:
REMARK  status: ('A' for Active; 'I' for Inactive)
REMARK    1  A    between atoms: C2_2  and  C3_3 
REMARK    2  A    between atoms: C3_3  and  C4_4 
REMARK    3  A    between atoms: C4_4  and  C5_5 
REMARK    4  A    between atoms: C5_5  and  C6_6 
REMARK    5  A    between atoms: C6_6  and  N1_7 
REMARK    6  A    between atoms: N1_7  and  C7_8 
REMARK    7  A    between atoms: N1_7  and  C11_12 
REMARK    8  A    between atoms: C7_8  and  C8_9 
REMARK    9  A    between atoms: C8_9  and  C9_10 
REMARK   10  A    between atoms: C11_12  and  C12_13 
REMARK   11  A    between atoms: C24_28  and  C25_29 
REMARK   12  A    between atoms: C26_30  and  O1_32 
ROOT
HETATM    1  C12 UNL     1      -0.791  -0.403   1.720  1.00  0.00     0.110 C 
HETATM    2  C13 UNL     1      -0.651   1.064   1.711  1.00  0.00     0.099 C 
HETATM    3  C14 UNL     1      -1.425   1.641   0.545  1.00  0.00     0.019 A 
HETATM    4  N2  UNL     1      -1.318   2.880   0.034  1.00  0.00    -0.358 N 
ATOM      5  H2  UNL     1      -0.692   3.615   0.364  1.00  0.00     0.166 HD
HETATM    6  C15 UNL     1      -2.198   2.979  -1.006  1.00  0.00     0.044 A 
HETATM    7  C16 UNL     1      -2.437   4.045  -1.819  1.00  0.00     0.049 A 
HETATM    8  C17 UNL     1      -3.396   3.893  -2.819  1.00  0.00     0.013 A 
HETATM    9 BR1  UNL     1      -3.726   5.398  -3.960  1.00  0.00    -0.051 Br
HETATM   10  C18 UNL     1      -4.061   2.706  -2.961  1.00  0.00     0.020 A 
HETATM   11  C19 UNL     1      -3.805   1.649  -2.133  1.00  0.00     0.015 A 
HETATM   12  C20 UNL     1      -2.862   1.755  -1.128  1.00  0.00    -0.001 A 
HETATM   13  C21 UNL     1      -2.372   0.927  -0.155  1.00  0.00    -0.022 A 
HETATM   14  C22 UNL     1      -2.717  -0.509   0.186  1.00  0.00     0.054 C 
HETATM   15  C23 UNL     1      -2.343  -0.631   1.631  1.00  0.00     0.066 C 
HETATM   16  C24 UNL     1      -2.590  -1.847   2.345  1.00  0.00     0.028 C 
HETATM   17  C27 UNL     1      -1.211  -2.320   2.723  1.00  0.00     0.290 C 
HETATM   18  O2  UNL     1      -0.840  -3.504   2.834  1.00  0.00    -0.260 OA
HETATM   19  O3  UNL     1      -0.517  -1.098   2.906  1.00  0.00    -0.303 OA
ENDROOT
BRANCH   1  20
HETATM   20  C11 UNL     1      -0.132  -1.123   0.567  1.00  0.00     0.312 C 
BRANCH  20  21
HETATM   21  N1  UNL     1       1.250  -1.399   0.677  1.00  0.00     0.091 N 
BRANCH  21  22
HETATM   22  C6  UNL     1       2.208  -0.384   0.643  1.00  0.00     0.272 C 
BRANCH  22  23
HETATM   23  C5  UNL     1       2.267   0.430  -0.638  1.00  0.00     0.030 C 
BRANCH  23  24
HETATM   24  C4  UNL     1       3.391   1.456  -0.407  1.00  0.00     0.002 C 
BRANCH  24  25
HETATM   25  C3  UNL     1       3.570   2.337  -1.592  1.00  0.00    -0.000 C 
BRANCH  25  26
HETATM   26  C2  UNL     1       4.646   3.365  -1.482  1.00  0.00    -0.005 C 
HETATM   27  C1  UNL     1       4.434   4.341  -0.359  1.00  0.00     0.005 C 
ENDBRANCH  25  26
ENDBRANCH  24  25
ENDBRANCH  23  24
ENDBRANCH  22  23
ENDBRANCH  21  22
BRANCH  21  28
HETATM   28  C7  UNL     1       1.539  -2.513  -0.206  1.00  0.00     0.272 C 
BRANCH  28  29
HETATM   29  C8  UNL     1       2.705  -3.348   0.193  1.00  0.00     0.030 C 
BRANCH  29  30
HETATM   30  C9  UNL     1       2.917  -4.497  -0.802  1.00  0.00    -0.003 C 
HETATM   31  C10 UNL     1       1.687  -5.367  -0.841  1.00  0.00     0.005 C 
ENDBRANCH  29  30
ENDBRANCH  28  29
ENDBRANCH  21  28
ENDBRANCH  20  21
ENDBRANCH   1  20
BRANCH  16  32
HETATM   32  C25 UNL     1      -3.645  -2.506   2.794  1.00  0.00     0.066 C 
HETATM   33  C26 UNL     1      -5.011  -2.101   2.672  1.00  0.00     0.150 C 
HETATM   34  N3  UNL     1      -5.532  -0.935   2.106  1.00  0.00    -0.075 NA
BRANCH  33  35
HETATM   35  O1  UNL     1      -5.898  -2.925   3.151  1.00  0.00    -0.348 OA
ATOM     36  H1  UNL     1      -6.805  -2.656   3.070  1.00  0.00     0.219 HD
ENDBRANCH  33  35
ENDBRANCH  16  32
TORSDOF 12
