REMARK  8 active torsions:
REMARK  status: ('A' for Active; 'I' for Inactive)
REMARK    1  A    between atoms: C2_2  and  N1_3 
REMARK    2  A    between atoms: C14_16  and  C15_17 
REMARK    3  A    between atoms: C15_17  and  C17_19 
REMARK    4  A    between atoms: C17_19  and  C18_20 
REMARK    5  A    between atoms: C18_20  and  O2_21 
REMARK    6  A    between atoms: O2_21  and  C19_22 
REMARK    7  A    between atoms: C19_22  and  C20_23 
REMARK    8  A    between atoms: C20_23  and  O3_24 
ROOT
HETATM    1  N1  UNL     1      -5.141   0.232  -0.898  1.00  0.00    -0.322 N 
HETATM    2  C3  UNL     1      -5.878  -0.730  -0.093  1.00  0.00     0.224 C 
HETATM    3  O1  UNL     1      -7.102  -0.620   0.031  1.00  0.00    -0.273 OA
HETATM    4  C4  UNL     1      -5.042  -1.791   0.524  1.00  0.00     0.104 C 
HETATM    5  C5  UNL     1      -3.979  -1.013   1.319  1.00  0.00     0.020 C 
HETATM    6  C6  UNL     1      -2.955  -0.458   0.311  1.00  0.00     0.041 C 
HETATM    7  C7  UNL     1      -3.781   0.417  -0.599  1.00  0.00     0.015 C 
HETATM    8  C8  UNL     1      -3.315   1.476  -1.219  1.00  0.00    -0.001 C 
HETATM    9  C9  UNL     1      -1.927   2.056  -1.202  1.00  0.00     0.030 C 
HETATM   10  C10 UNL     1      -0.996   0.891  -1.026  1.00  0.00     0.018 C 
HETATM   11  C11 UNL     1      -0.627   0.647   0.404  1.00  0.00    -0.011 C 
HETATM   12  C12 UNL     1      -0.295   1.984   1.091  1.00  0.00     0.021 C 
HETATM   13  C13 UNL     1       0.343  -0.389   0.678  1.00  0.00    -0.039 C 
HETATM   14  C14 UNL     1       1.645  -0.589   0.487  1.00  0.00    -0.059 C 
HETATM   15  C21 UNL     1       1.879  -2.112   0.679  1.00  0.00    -0.005 C 
HETATM   16  C22 UNL     1       3.115  -2.423   1.447  1.00  0.00     0.021 C 
HETATM   17  C23 UNL     1       0.724  -2.665   1.366  1.00  0.00     0.032 C 
HETATM   18  C24 UNL     1       0.141  -3.705   0.466  1.00  0.00     0.011 C 
HETATM   19  C25 UNL     1       1.360  -4.164  -0.303  1.00  0.00     0.010 C 
HETATM   20  C26 UNL     1       1.997  -2.798  -0.643  1.00  0.00    -0.036 C 
HETATM   21  C27 UNL     1       1.152  -2.255  -1.750  1.00  0.00     0.016 C 
HETATM   22  C28 UNL     1       3.380  -3.003  -1.177  1.00  0.00     0.016 C 
HETATM   23  C29 UNL     1      -0.118  -1.494   1.576  1.00  0.00    -0.049 C 
HETATM   24  C30 UNL     1      -1.090  -1.395   2.435  1.00  0.00    -0.018 C 
HETATM   25  C31 UNL     1      -1.787  -0.088   2.523  1.00  0.00     0.034 C 
HETATM   26  C32 UNL     1      -1.991   0.358   1.071  1.00  0.00     0.011 C 
ENDROOT
BRANCH  14  27
HETATM   27  C15 UNL     1       2.728   0.168  -0.087  1.00  0.00     0.014 C 
HETATM   28  C16 UNL     1       3.592   0.716   1.133  1.00  0.00     0.015 C 
BRANCH  27  29
HETATM   29  C17 UNL     1       2.557   1.319  -1.003  1.00  0.00     0.035 C 
BRANCH  29  30
HETATM   30  C18 UNL     1       3.859   1.885  -1.522  1.00  0.00     0.168 C 
BRANCH  30  31
HETATM   31  O2  UNL     1       4.712   2.518  -0.718  1.00  0.00    -0.389 OA
BRANCH  31  32
HETATM   32  C19 UNL     1       4.336   3.778  -0.249  1.00  0.00     0.193 C 
BRANCH  32  33
HETATM   33  C20 UNL     1       5.416   4.311   0.638  1.00  0.00     0.190 C 
BRANCH  33  34
HETATM   34  O3  UNL     1       6.639   4.440  -0.028  1.00  0.00    -0.399 OA
ATOM     35  H3  UNL     1       7.325   4.779   0.535  1.00  0.00     0.209 HD
ENDBRANCH  33  34
ENDBRANCH  32  33
ENDBRANCH  31  32
ENDBRANCH  30  31
ENDBRANCH  29  30
ENDBRANCH  27  29
ENDBRANCH  14  27
BRANCH   1  36
HETATM   36  C2  UNL     1      -5.880   0.917  -1.954  1.00  0.00     0.127 C 
HETATM   37  C1  UNL     1      -6.512   2.191  -1.483  1.00  0.00     0.027 C 
ENDBRANCH   1  36
TORSDOF 8
