REMARK  7 active torsions:
REMARK  status: ('A' for Active; 'I' for Inactive)
REMARK    1  A    between atoms: O1_2  and  C2_3 
REMARK    2  A    between atoms: C2_3  and  C3_4 
REMARK    3  A    between atoms: C3_4  and  O2_5 
REMARK    4  A    between atoms: O2_5  and  C4_6 
REMARK    5  A    between atoms: C24_26  and  C25_27 
REMARK    6  A    between atoms: C25_27  and  C26_28 
REMARK    7  A    between atoms: C26_28  and  C27_29 
ROOT
HETATM    1  C4  UNL     1      -1.663   2.220  -0.231  1.00  0.00     0.126 C 
HETATM    2  C5  UNL     1      -0.737   2.766  -1.288  1.00  0.00     0.033 C 
HETATM    3  C6  UNL     1       0.638   2.283  -1.295  1.00  0.00     0.012 C 
HETATM    4  C7  UNL     1       0.835   0.794  -0.939  1.00  0.00    -0.035 C 
HETATM    5  C8  UNL     1       0.138   0.061  -2.069  1.00  0.00     0.016 C 
HETATM    6  C9  UNL     1       0.007   0.646   0.317  1.00  0.00     0.001 C 
HETATM    7  C10 UNL     1       0.478  -0.438   1.181  1.00  0.00     0.007 C 
HETATM    8  C11 UNL     1       1.894  -0.147   1.589  1.00  0.00     0.011 C 
HETATM    9  C12 UNL     1       2.832   0.290   0.530  1.00  0.00    -0.032 C 
HETATM   10  C13 UNL     1       3.422   1.644   0.987  1.00  0.00     0.016 C 
HETATM   11  C14 UNL     1       2.277   0.463  -0.830  1.00  0.00     0.003 C 
HETATM   12  C15 UNL     1       2.731  -0.609  -1.831  1.00  0.00     0.011 C 
HETATM   13  C16 UNL     1       4.066  -1.183  -1.613  1.00  0.00    -0.006 C 
HETATM   14  C17 UNL     1       3.861  -2.559  -0.951  1.00  0.00     0.006 C 
HETATM   15  C18 UNL     1       3.551  -2.128   0.463  1.00  0.00     0.011 C 
HETATM   16  C19 UNL     1       4.024  -0.673   0.599  1.00  0.00    -0.029 C 
HETATM   17  C20 UNL     1       4.678  -0.577   1.942  1.00  0.00     0.016 C 
HETATM   18  C21 UNL     1       4.936  -0.574  -0.562  1.00  0.00    -0.036 C 
HETATM   19  C22 UNL     1       5.634   0.650  -0.875  1.00  0.00     0.016 C 
HETATM   20  C23 UNL     1       6.051  -1.611  -0.319  1.00  0.00     0.016 C 
HETATM   21  C24 UNL     1      -1.443   0.704  -0.054  1.00  0.00     0.019 C 
ENDROOT
BRANCH  21  22
HETATM   22  C25 UNL     1      -2.449   0.252   0.942  1.00  0.00     0.010 C 
BRANCH  22  23
HETATM   23  C26 UNL     1      -2.556  -1.184   1.264  1.00  0.00     0.036 C 
BRANCH  23  24
HETATM   24  C27 UNL     1      -2.876  -2.052   0.070  1.00  0.00     0.222 C 
HETATM   25  C28 UNL     1      -2.964  -3.532   0.435  1.00  0.00     0.037 C 
HETATM   26  C29 UNL     1      -4.016  -4.124  -0.462  1.00  0.00     0.032 C 
HETATM   27  C30 UNL     1      -4.434  -2.981  -1.335  1.00  0.00     0.272 C 
HETATM   28  N1  UNL     1      -4.161  -1.759  -0.542  1.00  0.00     0.088 N 
HETATM   29  C31 UNL     1      -5.231  -1.689   0.427  1.00  0.00     0.310 C 
ENDBRANCH  23  24
ENDBRANCH  22  23
ENDBRANCH  21  22
BRANCH   1  30
HETATM   30  O2  UNL     1      -2.945   2.543  -0.600  1.00  0.00    -0.383 OA
BRANCH  30  31
HETATM   31  C3  UNL     1      -3.531   3.356   0.352  1.00  0.00     0.194 C 
BRANCH  31  32
HETATM   32  C2  UNL     1      -4.938   3.738  -0.009  1.00  0.00     0.193 C 
BRANCH  32  33
HETATM   33  O1  UNL     1      -5.545   4.548   0.917  1.00  0.00    -0.394 OA
HETATM   34  C1  UNL     1      -5.663   4.021   2.176  1.00  0.00     0.201 C 
ENDBRANCH  32  33
ENDBRANCH  31  32
ENDBRANCH  30  31
ENDBRANCH   1  30
TORSDOF 7
