REMARK  7 active torsions:
REMARK  status: ('A' for Active; 'I' for Inactive)
REMARK    1  A    between atoms: C2_2  and  C4_4 
REMARK    2  A    between atoms: C4_4  and  C5_5 
REMARK    3  A    between atoms: C5_5  and  C6_6 
REMARK    4  A    between atoms: C6_6  and  C7_7 
REMARK    5  A    between atoms: C7_7  and  C9_9 
REMARK    6  A    between atoms: C25_27  and  C26_28 
REMARK    7  A    between atoms: C26_28  and  N1_29 
ROOT
HETATM    1  C9  UNL     1       1.771  -1.099  -0.292  1.00  0.00     0.023 C 
HETATM    2  C10 UNL     1       1.130  -2.376   0.223  1.00  0.00     0.009 C 
HETATM    3  C11 UNL     1      -0.175  -2.241   0.887  1.00  0.00     0.011 C 
HETATM    4  C12 UNL     1      -1.372  -2.492  -0.005  1.00  0.00    -0.025 C 
HETATM    5  C13 UNL     1      -1.217  -3.852  -0.597  1.00  0.00     0.016 C 
HETATM    6  C14 UNL     1      -2.683  -2.374   0.709  1.00  0.00     0.027 C 
HETATM    7  C15 UNL     1      -3.587  -3.546   0.796  1.00  0.00     0.045 C 
HETATM    8  C16 UNL     1      -4.614  -3.343  -0.298  1.00  0.00     0.054 C 
HETATM    9  C17 UNL     1      -5.730  -2.454   0.199  1.00  0.00     0.045 C 
HETATM   10  C18 UNL     1      -5.239  -4.620  -0.783  1.00  0.00     0.045 C 
HETATM   11  O1  UNL     1      -3.845  -2.695  -1.291  1.00  0.00    -0.374 OA
HETATM   12  C19 UNL     1      -3.213  -1.712  -0.581  1.00  0.00     0.139 C 
HETATM   13  C20 UNL     1      -1.800  -1.361  -0.832  1.00  0.00     0.022 C 
HETATM   14  C21 UNL     1      -1.227  -1.656  -2.222  1.00  0.00     0.018 C 
HETATM   15  C22 UNL     1       0.227  -1.370  -2.252  1.00  0.00     0.039 C 
HETATM   16  C23 UNL     1       0.779  -0.406  -1.245  1.00  0.00     0.062 C 
HETATM   17  C24 UNL     1       1.424   0.691  -2.053  1.00  0.00     0.046 C 
HETATM   18  O2  UNL     1      -0.102   0.200  -0.411  1.00  0.00    -0.372 OA
HETATM   19  C25 UNL     1      -1.427   0.015  -0.560  1.00  0.00     0.152 C 
ENDROOT
BRANCH   1  20
HETATM   20  C7  UNL     1       2.233  -0.254   0.836  1.00  0.00    -0.012 C 
HETATM   21  C8  UNL     1       3.059  -1.033   1.870  1.00  0.00     0.010 C 
BRANCH  20  22
HETATM   22  C6  UNL     1       2.933   1.013   0.621  1.00  0.00     0.005 C 
BRANCH  22  23
HETATM   23  C5  UNL     1       4.358   0.881   0.122  1.00  0.00     0.001 C 
BRANCH  23  24
HETATM   24  C4  UNL     1       4.905   2.261  -0.041  1.00  0.00     0.004 C 
BRANCH  24  25
HETATM   25  C2  UNL     1       6.328   2.297  -0.531  1.00  0.00    -0.023 C 
HETATM   26  C1  UNL     1       6.719   3.764  -0.641  1.00  0.00     0.009 C 
HETATM   27  C3  UNL     1       7.284   1.677   0.471  1.00  0.00     0.009 C 
ENDBRANCH  24  25
ENDBRANCH  23  24
ENDBRANCH  22  23
ENDBRANCH  20  22
ENDBRANCH   1  20
BRANCH  19  28
HETATM   28  C26 UNL     1      -2.131   0.791   0.514  1.00  0.00     0.154 C 
BRANCH  28  29
HETATM   29  N1  UNL     1      -1.818   2.190   0.403  1.00  0.00    -0.391 N 
HETATM   30  C27 UNL     1      -2.304   2.876  -0.700  1.00  0.00     0.122 C 
HETATM   31  C28 UNL     1      -2.277   4.382  -0.430  1.00  0.00     0.020 C 
HETATM   32  C29 UNL     1      -3.148   4.663   0.777  1.00  0.00     0.007 C 
HETATM   33  C30 UNL     1      -2.784   3.770   1.942  1.00  0.00     0.044 C 
HETATM   34  C31 UNL     1      -1.593   2.875   1.612  1.00  0.00     0.058 C 
ENDBRANCH  28  29
ENDBRANCH  19  28
TORSDOF 7
