REMARK  6 active torsions:
REMARK  status: ('A' for Active; 'I' for Inactive)
REMARK    1  A    between atoms: C2_2  and  C4_4 
REMARK    2  A    between atoms: C4_4  and  C5_5 
REMARK    3  A    between atoms: C6_6  and  C7_7 
REMARK    4  A    between atoms: C20_20  and  C21_21 
REMARK    5  A    between atoms: C21_21  and  C22_22 
REMARK    6  A    between atoms: C22_22  and  N1_23 
ROOT
HETATM    1  C7  UNL     1       3.584  -0.177   0.989  1.00  0.00     0.035 C 
HETATM    2  C8  UNL     1       3.589  -1.356   2.028  1.00  0.00     0.027 C 
HETATM    3  C9  UNL     1       3.387  -0.723  -0.347  1.00  0.00     0.022 C 
HETATM    4  C10 UNL     1       2.316  -0.036  -1.168  1.00  0.00     0.014 C 
HETATM    5  C11 UNL     1       0.949  -0.052  -0.631  1.00  0.00    -0.002 C 
HETATM    6  C12 UNL     1       0.263   1.186  -1.252  1.00  0.00     0.019 C 
HETATM    7  C13 UNL     1       0.986   0.201   0.859  1.00  0.00     0.068 C 
HETATM    8  C14 UNL     1       0.359  -0.993   1.530  1.00  0.00     0.020 C 
HETATM    9  C15 UNL     1       0.129  -1.984   0.427  1.00  0.00     0.022 C 
HETATM   10  C16 UNL     1      -0.982  -2.948   0.656  1.00  0.00     0.015 C 
HETATM   11  C17 UNL     1      -2.281  -2.503   0.088  1.00  0.00     0.028 A 
HETATM   12  C18 UNL     1      -2.631  -2.730  -1.314  1.00  0.00     0.024 A 
HETATM   13  C19 UNL     1      -4.094  -2.963  -1.620  1.00  0.00     0.013 C 
HETATM   14  C20 UNL     1      -2.262  -1.322  -0.756  1.00  0.00     0.071 A 
HETATM   15  O1  UNL     1      -1.147  -0.823  -1.268  1.00  0.00    -0.367 OA
HETATM   16  C29 UNL     1       0.091  -1.249  -0.874  1.00  0.00     0.070 C 
HETATM   17  C30 UNL     1       0.592  -2.178  -1.941  1.00  0.00     0.047 C 
HETATM   18  C31 UNL     1       2.310   0.572   1.361  1.00  0.00     0.143 C 
HETATM   19  O2  UNL     1       2.482   1.511   2.116  1.00  0.00    -0.296 OA
ENDROOT
BRANCH  14  20
HETATM   20  C21 UNL     1      -3.452  -0.347  -0.731  1.00  0.00     0.058 C 
BRANCH  20  21
HETATM   21  C22 UNL     1      -3.659   0.217   0.655  1.00  0.00     0.119 C 
BRANCH  21  22
HETATM   22  N1  UNL     1      -4.767   1.105   0.637  1.00  0.00    -0.412 N 
HETATM   23  C23 UNL     1      -4.615   2.324  -0.073  1.00  0.00     0.117 C 
HETATM   24  C24 UNL     1      -5.794   2.440  -1.050  1.00  0.00     0.019 C 
HETATM   25  C25 UNL     1      -7.049   2.410  -0.171  1.00  0.00     0.002 C 
HETATM   26  C26 UNL     1      -7.483   1.019   0.146  1.00  0.00     0.002 C 
HETATM   27  C27 UNL     1      -6.924   0.495   1.444  1.00  0.00     0.019 C 
HETATM   28  C28 UNL     1      -5.593   1.125   1.789  1.00  0.00     0.117 C 
ENDBRANCH  21  22
ENDBRANCH  20  21
ENDBRANCH  14  20
BRANCH   1  29
HETATM   29  C6  UNL     1       4.783   0.589   1.354  1.00  0.00    -0.010 C 
HETATM   30  C5  UNL     1       5.220   1.788   0.676  1.00  0.00    -0.007 C 
BRANCH  30  31
HETATM   31  C4  UNL     1       5.758   1.875  -0.673  1.00  0.00    -0.023 C 
BRANCH  31  32
HETATM   32  C2  UNL     1       7.050   1.287  -1.035  1.00  0.00    -0.000 C 
HETATM   33  C1  UNL     1       8.231   1.825  -0.251  1.00  0.00     0.013 C 
HETATM   34  C3  UNL     1       7.210  -0.183  -1.164  1.00  0.00     0.013 C 
ENDBRANCH  31  32
ENDBRANCH  30  31
ENDBRANCH   1  29
TORSDOF 6
