REMARK  11 active torsions:
REMARK  status: ('A' for Active; 'I' for Inactive)
REMARK    1  A    between atoms: C2_2  and  C3_3 
REMARK    2  A    between atoms: C3_3  and  C4_4 
REMARK    3  A    between atoms: C4_4  and  C5_5 
REMARK       I    between atoms: N3_11  and  C7_13 
REMARK    4  A    between atoms: C7_13  and  C8_15 
REMARK    5  A    between atoms: C8_15  and  C9_16 
REMARK    6  A    between atoms: C8_15  and  N4_19 
REMARK    7  A    between atoms: C9_16  and  C10_17 
REMARK       I    between atoms: N4_19  and  C12_21 
REMARK    8  A    between atoms: C12_21  and  C13_23 
REMARK    9  A    between atoms: C14_24  and  C15_25 
REMARK   10  A    between atoms: C15_25  and  C16_26 
REMARK   11  A    between atoms: C16_26  and  C17_29 
ROOT
HETATM    1  N4  UNL     1      -0.303   0.674  -0.760  1.00  0.00    -0.347 N 
ATOM      2  H4  UNL     1      -0.355   1.071  -1.698  1.00  0.00     0.163 HD
HETATM    3  C12 UNL     1      -1.381  -0.134  -0.337  1.00  0.00     0.224 C 
HETATM    4  O2  UNL     1      -1.337  -0.627   0.814  1.00  0.00    -0.273 OA
ENDROOT
BRANCH   1   5
HETATM    5  C8  UNL     1       0.852   0.980   0.018  1.00  0.00     0.177 C 
BRANCH   5   6
HETATM    6  C7  UNL     1       2.145   0.753  -0.675  1.00  0.00     0.247 C 
HETATM    7  N3  UNL     1       3.310   1.029   0.058  1.00  0.00    -0.289 N 
HETATM    8  C6  UNL     1       4.463   0.498  -0.060  1.00  0.00     0.247 A 
ATOM      9  H3  UNL     1       3.223   1.747   0.778  1.00  0.00     0.172 HD
HETATM   10  N2  UNL     1       4.817  -0.453  -0.922  1.00  0.00    -0.263 N 
HETATM   11  O5  UNL     1       5.548   0.795   0.662  1.00  0.00    -0.264 OA
HETATM   12  N1  UNL     1       6.114  -0.721  -0.713  1.00  0.00    -0.280 N 
ATOM     13  H2  UNL     1       4.213  -0.896  -1.614  1.00  0.00     0.190 HD
HETATM   14  C5  UNL     1       6.553   0.061   0.273  1.00  0.00     0.142 A 
ATOM     15  H1  UNL     1       6.671  -1.407  -1.222  1.00  0.00     0.189 HD
HETATM   16  O1  UNL     1       2.218   0.339  -1.852  1.00  0.00    -0.271 OA
BRANCH  14  17
HETATM   17  C4  UNL     1       7.946   0.063   0.800  1.00  0.00     0.086 C 
BRANCH  17  18
HETATM   18  C3  UNL     1       8.091  -0.935   1.926  1.00  0.00     0.008 C 
BRANCH  18  19
HETATM   19  C2  UNL     1       9.539  -0.872   2.414  1.00  0.00    -0.004 C 
HETATM   20  C1  UNL     1      10.469  -1.212   1.280  1.00  0.00     0.005 C 
ENDBRANCH  18  19
ENDBRANCH  17  18
ENDBRANCH  14  17
ENDBRANCH   5   6
BRANCH   5  21
HETATM   21  C9  UNL     1       0.834   2.416   0.524  1.00  0.00     0.034 C 
BRANCH  21  22
HETATM   22  C10 UNL     1       0.968   3.407  -0.609  1.00  0.00    -0.002 C 
HETATM   23  C11 UNL     1       0.942   4.807  -0.031  1.00  0.00     0.005 C 
ENDBRANCH  21  22
ENDBRANCH   5  21
ENDBRANCH   1   5
BRANCH   3  24
HETATM   24  C13 UNL     1      -2.558  -0.417  -1.214  1.00  0.00     0.105 C 
HETATM   25  C14 UNL     1      -3.689  -1.042  -0.439  1.00  0.00     0.020 C 
HETATM   26  C21 UNL     1      -3.725  -2.497  -0.754  1.00  0.00     0.146 C 
HETATM   27  S1  UNL     1      -3.257  -2.539  -2.497  1.00  0.00     0.153 S 
HETATM   28  O3  UNL     1      -2.534  -3.778  -2.845  1.00  0.00    -0.227 OA
HETATM   29  O4  UNL     1      -4.440  -2.400  -3.381  1.00  0.00    -0.227 OA
HETATM   30  C22 UNL     1      -2.213  -1.134  -2.445  1.00  0.00     0.069 C 
HETATM   31  C23 UNL     1      -2.273  -0.310  -3.707  1.00  0.00     0.032 C 
HETATM   32  C24 UNL     1      -0.776  -1.682  -2.365  1.00  0.00     0.032 C 
BRANCH  25  33
HETATM   33  C15 UNL     1      -4.916  -0.248  -0.626  1.00  0.00     0.086 C 
BRANCH  33  34
HETATM   34  C16 UNL     1      -6.189  -0.584  -0.009  1.00  0.00     0.250 C 
HETATM   35  F1  UNL     1      -6.737  -1.813  -0.322  1.00  0.00    -0.206 F 
HETATM   36  F2  UNL     1      -7.131   0.290  -0.617  1.00  0.00    -0.206 F 
BRANCH  34  37
HETATM   37  C17 UNL     1      -6.348  -0.303   1.456  1.00  0.00     0.015 C 
HETATM   38  C18 UNL     1      -6.174   1.171   1.784  1.00  0.00     0.020 C 
HETATM   39  C19 UNL     1      -5.431  -1.041   2.359  1.00  0.00     0.020 C 
HETATM   40  C20 UNL     1      -7.807  -0.605   1.829  1.00  0.00     0.020 C 
ENDBRANCH  34  37
ENDBRANCH  33  34
ENDBRANCH  25  33
ENDBRANCH   3  24
TORSDOF 11
