REMARK  9 active torsions:
REMARK  status: ('A' for Active; 'I' for Inactive)
REMARK    1  A    between atoms: C1_2  and  C2_3 
REMARK    2  A    between atoms: C2_3  and  C3_4 
REMARK    3  A    between atoms: C2_3  and  C18_30 
REMARK       I    between atoms: C3_4  and  N1_6 
REMARK    4  A    between atoms: N1_6  and  C4_8 
REMARK    5  A    between atoms: C4_8  and  C5_9 
REMARK    6  A    between atoms: C4_8  and  C6_12 
REMARK       I    between atoms: C6_12  and  N2_14 
REMARK    7  A    between atoms: N2_14  and  C7_16 
REMARK    8  A    between atoms: C10_19  and  O6_20 
REMARK    9  A    between atoms: O6_20  and  C11_21 
ROOT
HETATM    1  C6  UNL     1      -1.423   0.882  -0.476  1.00  0.00     0.255 C 
HETATM    2  O5  UNL     1      -1.591  -0.357  -0.408  1.00  0.00    -0.270 OA
HETATM    3  N2  UNL     1      -0.162   1.437  -0.652  1.00  0.00    -0.325 N 
ATOM      4  H2  UNL     1      -0.137   2.456  -0.687  1.00  0.00     0.169 HD
ENDROOT
BRANCH   1   5
HETATM    5  C4  UNL     1      -2.670   1.706  -0.355  1.00  0.00     0.279 C 
BRANCH   5   6
HETATM    6  N1  UNL     1      -3.814   0.870  -0.089  1.00  0.00    -0.338 N 
HETATM    7  C3  UNL     1      -4.583   1.042   1.077  1.00  0.00     0.231 C 
HETATM    8  O2  UNL     1      -4.242   1.955   1.887  1.00  0.00    -0.273 OA
ATOM      9  H1  UNL     1      -4.070   0.142  -0.756  1.00  0.00     0.163 HD
BRANCH   7  10
HETATM   10  C2  UNL     1      -5.779   0.184   1.378  1.00  0.00     0.163 C 
BRANCH  10  11
HETATM   11  C1  UNL     1      -5.409  -1.233   1.501  1.00  0.00     0.247 C 
HETATM   12  O1  UNL     1      -5.689  -2.033   0.656  1.00  0.00    -0.306 OA
ENDBRANCH  10  11
BRANCH  10  13
HETATM   13  C18 UNL     1      -6.841   0.389   0.288  1.00  0.00     0.149 C 
HETATM   14 BR1  UNL     1      -7.308   2.238   0.144  1.00  0.00    -0.078 Br
HETATM   15 BR2  UNL     1      -8.345  -0.739   0.686  1.00  0.00    -0.078 Br
ENDBRANCH  10  13
ENDBRANCH   7  10
ENDBRANCH   5   6
BRANCH   5  16
HETATM   16  C5  UNL     1      -2.865   2.454  -1.630  1.00  0.00     0.206 C 
HETATM   17  O3  UNL     1      -3.898   2.302  -2.328  1.00  0.00    -0.646 OA
HETATM   18  O4  UNL     1      -1.900   3.332  -2.063  1.00  0.00    -0.646 OA
ENDBRANCH   5  16
ENDBRANCH   1   5
BRANCH   3  19
HETATM   19  C7  UNL     1       1.084   0.802  -0.789  1.00  0.00     0.035 A 
HETATM   20  C8  UNL     1       2.259   1.537  -0.676  1.00  0.00     0.032 A 
HETATM   21  C9  UNL     1       3.481   0.936  -0.823  1.00  0.00     0.039 A 
HETATM   22  C10 UNL     1       3.624  -0.409  -1.088  1.00  0.00     0.076 A 
HETATM   23  C16 UNL     1       2.471  -1.144  -1.203  1.00  0.00     0.039 A 
HETATM   24  C17 UNL     1       1.211  -0.538  -1.054  1.00  0.00     0.032 A 
BRANCH  22  25
HETATM   25  O6  UNL     1       4.868  -0.963  -1.227  1.00  0.00    -0.309 OA
BRANCH  25  26
HETATM   26  C11 UNL     1       5.641  -1.510  -0.246  1.00  0.00     0.091 A 
HETATM   27  C12 UNL     1       5.221  -1.565   1.064  1.00  0.00     0.040 A 
HETATM   28  C13 UNL     1       6.029  -2.128   2.043  1.00  0.00     0.020 A 
HETATM   29  C14 UNL     1       7.273  -2.634   1.667  1.00  0.00     0.088 A 
HETATM   30  N3  UNL     1       7.672  -2.576   0.395  1.00  0.00    -0.373 N 
HETATM   31  C15 UNL     1       6.876  -2.022  -0.567  1.00  0.00     0.124 A 
ATOM     32  H3  UNL     1       8.585  -2.951   0.137  1.00  0.00     0.164 HD
ENDBRANCH  25  26
ENDBRANCH  22  25
ENDBRANCH   3  19
TORSDOF 9
