REMARK  10 active torsions:
REMARK  status: ('A' for Active; 'I' for Inactive)
REMARK    1  A    between atoms: C2_2  and  N1_3 
REMARK    2  A    between atoms: C2_2  and  C21_35 
REMARK       I    between atoms: N1_3  and  C3_5 
REMARK    3  A    between atoms: C3_5  and  C4_7 
REMARK    4  A    between atoms: C4_7  and  N2_8 
REMARK    5  A    between atoms: C4_7  and  C18_32 
REMARK       I    between atoms: N2_8  and  C5_10 
REMARK    6  A    between atoms: C5_10  and  O3_12 
REMARK    7  A    between atoms: O3_12  and  C6_13 
REMARK    8  A    between atoms: C11_20  and  C12_21 
REMARK       I    between atoms: C12_21  and  N4_23 
REMARK    9  A    between atoms: N4_23  and  C13_25 
REMARK   10  A    between atoms: C13_25  and  C15_27 
ROOT
HETATM    1  N2  UNL     1      -1.072   1.252  -0.789  1.00  0.00    -0.323 N 
ATOM      2  H2  UNL     1      -1.166   0.966  -1.764  1.00  0.00     0.165 HD
HETATM    3  C5  UNL     1       0.188   1.700  -0.313  1.00  0.00     0.361 C 
HETATM    4  O2  UNL     1       0.286   2.050   0.890  1.00  0.00    -0.238 OA
ENDROOT
BRANCH   3   5
HETATM    5  O3  UNL     1       1.319   1.778  -1.079  1.00  0.00    -0.296 OA
BRANCH   5   6
HETATM    6  C6  UNL     1       2.587   2.202  -0.703  1.00  0.00     0.166 C 
HETATM    7  C7  UNL     1       3.063   3.360  -1.585  1.00  0.00     0.201 C 
HETATM    8  O4  UNL     1       3.787   2.829  -2.620  1.00  0.00    -0.381 OA
HETATM    9  C8  UNL     1       3.980   1.498  -2.423  1.00  0.00     0.159 C 
HETATM   10  C9  UNL     1       2.987   0.605  -3.139  1.00  0.00     0.305 C 
HETATM   11  C17 UNL     1       3.665   1.170  -0.974  1.00  0.00     0.091 C 
HETATM   12  N3  UNL     1       2.804  -0.559  -2.323  1.00  0.00     0.101 N 
HETATM   13  C10 UNL     1       1.564  -1.228  -2.489  1.00  0.00     0.311 C 
HETATM   14  C11 UNL     1       3.167  -0.235  -0.981  1.00  0.00     0.322 C 
BRANCH  14  15
HETATM   15  C12 UNL     1       4.291  -1.114  -0.577  1.00  0.00     0.252 C 
HETATM   16  O5  UNL     1       4.735  -1.982  -1.352  1.00  0.00    -0.271 OA
HETATM   17  N4  UNL     1       4.903  -1.002   0.700  1.00  0.00    -0.349 N 
ATOM     18  H4  UNL     1       4.545  -0.294   1.341  1.00  0.00     0.163 HD
BRANCH  17  19
HETATM   19  C13 UNL     1       5.989  -1.820   1.144  1.00  0.00     0.152 C 
HETATM   20  C14 UNL     1       5.627  -2.630   2.370  1.00  0.00     0.038 C 
BRANCH  19  21
HETATM   21  C15 UNL     1       7.227  -1.016   1.484  1.00  0.00     0.259 C 
HETATM   22  C16 UNL     1       6.981  -0.022   2.574  1.00  0.00     0.092 C 
HETATM   23  F1  UNL     1       8.200  -1.906   1.909  1.00  0.00    -0.205 F 
HETATM   24  F2  UNL     1       7.717  -0.343   0.384  1.00  0.00    -0.205 F 
ENDBRANCH  19  21
ENDBRANCH  17  19
ENDBRANCH  14  15
ENDBRANCH   5   6
ENDBRANCH   3   5
BRANCH   1  25
HETATM   25  C4  UNL     1      -2.220   1.194   0.080  1.00  0.00     0.182 C 
BRANCH  25  26
HETATM   26  C3  UNL     1      -2.840  -0.131   0.128  1.00  0.00     0.241 C 
HETATM   27  N1  UNL     1      -3.976  -0.425   0.919  1.00  0.00    -0.351 N 
ATOM     28  H1  UNL     1      -4.392   0.316   1.484  1.00  0.00     0.163 HD
HETATM   29  O1  UNL     1      -2.348  -1.058  -0.561  1.00  0.00    -0.271 OA
BRANCH  27  30
HETATM   30  C2  UNL     1      -4.566  -1.749   0.949  1.00  0.00     0.113 C 
HETATM   31  C1  UNL     1      -4.406  -2.238   2.385  1.00  0.00     0.037 C 
BRANCH  30  32
HETATM   32  C21 UNL     1      -6.008  -1.762   0.616  1.00  0.00    -0.036 A 
HETATM   33  C22 UNL     1      -6.932  -2.490   1.362  1.00  0.00     0.009 A 
HETATM   34  C23 UNL     1      -8.278  -2.505   1.055  1.00  0.00     0.001 A 
HETATM   35  C24 UNL     1      -8.765  -1.791  -0.016  1.00  0.00     0.000 A 
HETATM   36  C25 UNL     1      -7.877  -1.071  -0.761  1.00  0.00     0.001 A 
HETATM   37  C26 UNL     1      -6.540  -1.057  -0.454  1.00  0.00     0.009 A 
ENDBRANCH  30  32
ENDBRANCH  27  30
ENDBRANCH  25  26
BRANCH  25  38
HETATM   38  C18 UNL     1      -3.284   2.201  -0.349  1.00  0.00     0.009 C 
HETATM   39  C19 UNL     1      -2.604   3.557  -0.381  1.00  0.00     0.012 C 
HETATM   40  C20 UNL     1      -3.896   1.854  -1.674  1.00  0.00     0.012 C 
ENDBRANCH  25  38
ENDBRANCH   1  25
TORSDOF 10
