REMARK  10 active torsions:
REMARK  status: ('A' for Active; 'I' for Inactive)
REMARK       I    between atoms: C1_2  and  N1_3 
REMARK    1  A    between atoms: C1_2  and  C9_16 
REMARK    2  A    between atoms: N1_3  and  C2_5 
REMARK    3  A    between atoms: C2_5  and  C3_6 
REMARK    4  A    between atoms: C3_6  and  O2_7 
REMARK    5  A    between atoms: C3_6  and  C4_9 
REMARK    6  A    between atoms: C4_9  and  N2_10 
REMARK    7  A    between atoms: C9_16  and  C10_19 
REMARK    8  A    between atoms: C10_19  and  N3_20 
REMARK    9  A    between atoms: N3_20  and  C11_22 
REMARK   10  A    between atoms: C11_22  and  C12_23 
ROOT
HETATM    1  N3  UNL     1      -1.502   0.108  -0.337  1.00  0.00    -0.402 N 
ATOM      2  H3  UNL     1      -1.539   0.680  -1.181  1.00  0.00     0.154 HD
ENDROOT
BRANCH   1   3
HETATM    3  C10 UNL     1      -0.455  -0.822  -0.108  1.00  0.00     0.204 C 
BRANCH   3   4
HETATM    4  C9  UNL     1       0.730  -0.697  -1.046  1.00  0.00     0.337 C 
HETATM    5  F1  UNL     1       0.459  -0.796  -2.361  1.00  0.00    -0.194 F 
HETATM    6  F2  UNL     1       1.424   0.506  -0.773  1.00  0.00    -0.194 F 
BRANCH   4   7
HETATM    7  C1  UNL     1       1.755  -1.746  -0.695  1.00  0.00     0.292 C 
HETATM    8  O1  UNL     1       1.381  -2.882  -0.276  1.00  0.00    -0.267 OA
HETATM    9  N1  UNL     1       3.151  -1.526  -0.815  1.00  0.00    -0.353 N 
ATOM     10  H1  UNL     1       3.479  -0.619  -1.147  1.00  0.00     0.162 HD
BRANCH   9  11
HETATM   11  C2  UNL     1       4.125  -2.539  -0.485  1.00  0.00     0.156 C 
BRANCH  11  12
HETATM   12  C3  UNL     1       5.525  -1.961  -0.672  1.00  0.00     0.164 C 
BRANCH  12  13
HETATM   13  O2  UNL     1       6.447  -2.977  -0.345  1.00  0.00    -0.392 OA
ATOM     14  H2  UNL     1       7.318  -2.617  -0.461  1.00  0.00     0.210 HD
ENDBRANCH  12  13
BRANCH  12  15
HETATM   15  C4  UNL     1       5.753  -0.837   0.294  1.00  0.00     0.305 C 
BRANCH  15  16
HETATM   16  N2  UNL     1       7.095  -0.341   0.213  1.00  0.00     0.095 N 
HETATM   17  C5  UNL     1       7.333   0.328  -1.042  1.00  0.00     0.298 C 
HETATM   18  C6  UNL     1       8.789   0.765  -1.152  1.00  0.00     0.198 C 
HETATM   19  O3  UNL     1       9.380   0.970   0.076  1.00  0.00    -0.388 OA
HETATM   20  C7  UNL     1       8.505   1.499   1.017  1.00  0.00     0.198 C 
HETATM   21  C8  UNL     1       7.408   0.520   1.354  1.00  0.00     0.298 C 
ENDBRANCH  15  16
ENDBRANCH  12  15
ENDBRANCH  11  12
ENDBRANCH   9  11
ENDBRANCH   4   7
ENDBRANCH   3   4
ENDBRANCH   1   3
BRANCH   1  22
HETATM   22  C11 UNL     1      -2.508   0.200   0.686  1.00  0.00     0.061 C 
HETATM   23  C18 UNL     1      -3.835   0.715   0.276  1.00  0.00     0.024 C 
HETATM   24  C19 UNL     1      -4.670  -0.025  -0.668  1.00  0.00     0.018 C 
HETATM   25  C26 UNL     1      -3.473   2.088  -0.285  1.00  0.00    -0.001 C 
HETATM   26  C20 UNL     1      -5.901   0.845  -0.986  1.00  0.00     0.037 C 
HETATM   27  C21 UNL     1      -6.848   0.088  -1.849  1.00  0.00    -0.021 C 
HETATM   28  C24 UNL     1      -5.477   2.109  -1.654  1.00  0.00     0.129 C 
HETATM   29  C22 UNL     1      -7.707   0.831  -2.533  1.00  0.00    -0.004 C 
HETATM   30  C23 UNL     1      -7.682   2.284  -2.410  1.00  0.00     0.195 C 
HETATM   31  O4  UNL     1      -6.506   2.881  -2.086  1.00  0.00    -0.382 OA
HETATM   32  C25 UNL     1      -4.699   2.905  -0.598  1.00  0.00     0.038 C 
HETATM   33  C27 UNL     1      -2.719   2.626   0.912  1.00  0.00    -0.003 A 
HETATM   34  C28 UNL     1      -1.252   2.466   0.838  1.00  0.00     0.013 A 
HETATM   35  C29 UNL     1      -2.024   1.391   1.532  1.00  0.00     0.023 A 
BRANCH  22  36
HETATM   36  C12 UNL     1      -2.636  -1.035   1.460  1.00  0.00    -0.030 A 
HETATM   37  C13 UNL     1      -3.032  -2.182   0.754  1.00  0.00     0.010 A 
HETATM   38  C14 UNL     1      -3.201  -3.407   1.358  1.00  0.00     0.001 A 
HETATM   39  C15 UNL     1      -2.973  -3.531   2.718  1.00  0.00     0.000 A 
HETATM   40  C16 UNL     1      -2.584  -2.407   3.415  1.00  0.00     0.001 A 
HETATM   41  C17 UNL     1      -2.415  -1.179   2.814  1.00  0.00     0.010 A 
ENDBRANCH  22  36
ENDBRANCH   1  22
TORSDOF 10
