REMARK  14 active torsions:
REMARK  status: ('A' for Active; 'I' for Inactive)
REMARK    1  A    between atoms: C2_2  and  C4_4 
REMARK    2  A    between atoms: C4_4  and  N1_5 
REMARK    3  A    between atoms: C4_4  and  C14_22 
REMARK       I    between atoms: N1_5  and  C5_7 
REMARK    4  A    between atoms: C5_7  and  O2_9 
REMARK    5  A    between atoms: O2_9  and  C6_10 
REMARK    6  A    between atoms: C6_10  and  C7_11 
REMARK    7  A    between atoms: C12_18  and  C13_19 
REMARK    8  A    between atoms: C14_22  and  O5_23 
REMARK    9  A    between atoms: C14_22  and  N2_25 
REMARK   10  A    between atoms: C18_29  and  C19_30 
REMARK       I    between atoms: C19_30  and  N3_32 
REMARK   11  A    between atoms: N3_32  and  C20_34 
REMARK   12  A    between atoms: C20_34  and  C21_35 
REMARK   13  A    between atoms: C20_34  and  C22_38 
REMARK   14  A    between atoms: C21_35  and  O7_36 
ROOT
HETATM    1  C4  UNL     1      -0.101   0.643  -1.513  1.00  0.00     0.164 C 
ENDROOT
BRANCH   1   2
HETATM    2  C2  UNL     1      -0.414  -0.202  -2.735  1.00  0.00     0.008 C 
HETATM    3  C1  UNL     1       0.736  -0.597  -3.580  1.00  0.00     0.012 C 
HETATM    4  C3  UNL     1      -1.568   0.344  -3.551  1.00  0.00     0.012 C 
ENDBRANCH   1   2
BRANCH   1   5
HETATM    5  N1  UNL     1      -1.477   0.796  -0.921  1.00  0.00    -0.325 N 
HETATM    6  C5  UNL     1      -1.890   0.005   0.166  1.00  0.00     0.361 C 
HETATM    7  O1  UNL     1      -1.078  -0.822   0.627  1.00  0.00    -0.238 OA
ATOM      8  H1  UNL     1      -2.119   1.484  -1.314  1.00  0.00     0.165 HD
BRANCH   6   9
HETATM    9  O2  UNL     1      -3.136   0.087   0.754  1.00  0.00    -0.304 OA
BRANCH   9  10
HETATM   10  C6  UNL     1      -3.426  -0.761   1.849  1.00  0.00     0.186 C 
BRANCH  10  11
HETATM   11  C7  UNL     1      -4.839  -0.574   2.340  1.00  0.00     0.030 C 
HETATM   12  C8  UNL     1      -5.145   0.812   2.804  1.00  0.00     0.086 C 
HETATM   13  C9  UNL     1      -6.533   0.781   3.431  1.00  0.00     0.244 C 
HETATM   14  F1  UNL     1      -6.889   2.008   3.934  1.00  0.00    -0.206 F 
HETATM   15  F2  UNL     1      -6.530  -0.153   4.456  1.00  0.00    -0.206 F 
HETATM   16  C10 UNL     1      -7.554   0.383   2.406  1.00  0.00     0.080 C 
HETATM   17  C11 UNL     1      -7.218  -0.927   1.707  1.00  0.00     0.021 C 
HETATM   18  C12 UNL     1      -5.796  -0.919   1.214  1.00  0.00     0.093 C 
BRANCH  18  19
HETATM   19  C13 UNL     1      -5.445  -2.257   0.699  1.00  0.00     0.177 C 
HETATM   20  O3  UNL     1      -5.087  -2.387  -0.495  1.00  0.00    -0.648 OA
HETATM   21  O4  UNL     1      -5.499  -3.382   1.498  1.00  0.00    -0.648 OA
ENDBRANCH  18  19
ENDBRANCH  10  11
ENDBRANCH   9  10
ENDBRANCH   6   9
ENDBRANCH   1   5
BRANCH   1  22
HETATM   22  C14 UNL     1       0.352   1.997  -1.741  1.00  0.00     0.138 C 
BRANCH  22  23
HETATM   23  O5  UNL     1      -0.553   2.939  -1.825  1.00  0.00    -0.348 OA
ATOM     24  H5  UNL     1      -0.255   3.829  -1.975  1.00  0.00     0.219 HD
ENDBRANCH  22  23
BRANCH  22  25
HETATM   25  N2  UNL     1       1.687   2.510  -1.889  1.00  0.00    -0.350 N 
HETATM   26  C15 UNL     1       1.888   3.914  -2.108  1.00  0.00     0.126 C 
HETATM   27  C16 UNL     1       3.354   4.118  -1.775  1.00  0.00     0.022 C 
HETATM   28  C17 UNL     1       3.958   2.829  -2.372  1.00  0.00     0.037 C 
HETATM   29  C18 UNL     1       2.913   1.831  -1.840  1.00  0.00     0.178 C 
BRANCH  29  30
HETATM   30  C19 UNL     1       3.364   1.357  -0.499  1.00  0.00     0.241 C 
HETATM   31  O6  UNL     1       3.386   1.988   0.548  1.00  0.00    -0.271 OA
HETATM   32  N3  UNL     1       3.826  -0.018  -0.465  1.00  0.00    -0.352 N 
ATOM     33  H3  UNL     1       3.804  -0.571  -1.322  1.00  0.00     0.163 HD
BRANCH  32  34
HETATM   34  C20 UNL     1       4.318  -0.626   0.755  1.00  0.00     0.115 C 
BRANCH  34  35
HETATM   35  C21 UNL     1       3.090  -1.321   1.387  1.00  0.00     0.190 C 
BRANCH  35  36
HETATM   36  O7  UNL     1       2.106  -0.365   1.655  1.00  0.00    -0.399 OA
ATOM     37  H7  UNL     1       1.351  -0.792   2.043  1.00  0.00     0.209 HD
ENDBRANCH  35  36
ENDBRANCH  34  35
BRANCH  34  38
HETATM   38  C22 UNL     1       5.356  -1.683   0.531  1.00  0.00    -0.029 C 
HETATM   39  C23 UNL     1       6.575  -1.099  -0.184  1.00  0.00     0.016 C 
HETATM   40  C24 UNL     1       5.872  -2.239   1.849  1.00  0.00     0.016 C 
HETATM   41  C25 UNL     1       4.833  -2.855  -0.266  1.00  0.00     0.016 C 
ENDBRANCH  34  38
ENDBRANCH  32  34
ENDBRANCH  29  30
ENDBRANCH  22  25
ENDBRANCH   1  22
TORSDOF 14
