REMARK  10 active torsions:
REMARK  status: ('A' for Active; 'I' for Inactive)
REMARK    1  A    between atoms: C2_2  and  C5_5 
REMARK    2  A    between atoms: C5_5  and  N1_6 
REMARK    3  A    between atoms: C5_5  and  C11_16 
REMARK       I    between atoms: N1_6  and  C6_8 
REMARK       I    between atoms: C6_8  and  N2_10 
REMARK    4  A    between atoms: C11_16  and  C12_18 
REMARK    5  A    between atoms: C12_18  and  C13_21 
REMARK    6  A    between atoms: C13_21  and  C14_23 
REMARK    7  A    between atoms: C14_23  and  C15_24 
REMARK    8  A    between atoms: C14_23  and  N3_31 
REMARK    9  A    between atoms: C15_24  and  C16_25 
REMARK       I    between atoms: N3_31  and  C22_33 
REMARK   10  A    between atoms: C22_33  and  C23_35 
ROOT
HETATM    1  C13 UNL     1      -0.712  -0.304  -0.116  1.00  0.00     0.228 C 
HETATM    2  O4  UNL     1      -0.579  -1.366  -0.728  1.00  0.00    -0.289 OA
ENDROOT
BRANCH   1   3
HETATM    3  C12 UNL     1       0.391   0.679  -0.051  1.00  0.00     0.366 C 
HETATM    4  F1  UNL     1      -0.020   1.810  -0.728  1.00  0.00    -0.189 F 
HETATM    5  F2  UNL     1       0.603   0.954   1.304  1.00  0.00    -0.189 F 
BRANCH   3   6
HETATM    6  C11 UNL     1       1.659   0.141  -0.585  1.00  0.00     0.229 C 
HETATM    7  O3  UNL     1       1.689  -1.005  -0.988  1.00  0.00    -0.289 OA
BRANCH   6   8
HETATM    8  C5  UNL     1       2.926   0.894  -0.666  1.00  0.00     0.170 C 
BRANCH   8   9
HETATM    9  C2  UNL     1       3.267   1.356  -2.077  1.00  0.00    -0.024 C 
HETATM   10  C1  UNL     1       4.621   2.101  -2.020  1.00  0.00     0.017 C 
HETATM   11  C3  UNL     1       2.319   2.314  -2.692  1.00  0.00     0.017 C 
HETATM   12  C4  UNL     1       3.459   0.194  -3.021  1.00  0.00     0.017 C 
ENDBRANCH   8   9
BRANCH   8  13
HETATM   13  N1  UNL     1       4.032   0.012  -0.223  1.00  0.00    -0.331 N 
HETATM   14  C6  UNL     1       4.883   0.335   0.856  1.00  0.00     0.319 C 
HETATM   15  O1  UNL     1       4.743   1.416   1.510  1.00  0.00    -0.247 OA
HETATM   16  N2  UNL     1       5.940  -0.515   1.278  1.00  0.00    -0.330 N 
HETATM   17  C7  UNL     1       6.222  -1.786   0.637  1.00  0.00     0.153 C 
HETATM   18  C10 UNL     1       6.813  -0.159   2.388  1.00  0.00     0.153 C 
HETATM   19  C8  UNL     1       6.799  -2.692   1.706  1.00  0.00     0.187 C 
HETATM   20  O2  UNL     1       8.028  -2.243   2.173  1.00  0.00    -0.388 OA
HETATM   21  C9  UNL     1       8.145  -0.861   2.107  1.00  0.00     0.187 C 
ATOM     22  H1  UNL     1       4.185  -0.866  -0.719  1.00  0.00     0.165 HD
ENDBRANCH   8  13
ENDBRANCH   6   8
ENDBRANCH   3   6
ENDBRANCH   1   3
BRANCH   1  23
HETATM   23  C14 UNL     1      -2.033  -0.017   0.568  1.00  0.00     0.161 C 
BRANCH  23  24
HETATM   24  C15 UNL     1      -2.443   1.384   0.505  1.00  0.00     0.038 C 
BRANCH  24  25
HETATM   25  C16 UNL     1      -3.732   1.805   1.122  1.00  0.00    -0.012 C 
HETATM   26  C17 UNL     1      -3.816   3.325   0.911  1.00  0.00     0.005 C 
HETATM   27  C18 UNL     1      -4.374   3.697  -0.427  1.00  0.00     0.000 C 
HETATM   28  C19 UNL     1      -5.812   3.235  -0.587  1.00  0.00     0.000 C 
HETATM   29  C20 UNL     1      -6.104   2.067   0.332  1.00  0.00     0.000 C 
HETATM   30  C21 UNL     1      -4.902   1.139   0.440  1.00  0.00     0.005 C 
ENDBRANCH  24  25
ENDBRANCH  23  24
BRANCH  23  31
HETATM   31  N3  UNL     1      -2.926  -1.067   0.267  1.00  0.00    -0.349 N 
HETATM   32  C22 UNL     1      -3.265  -2.051   1.224  1.00  0.00     0.224 C 
HETATM   33  O5  UNL     1      -2.741  -1.947   2.385  1.00  0.00    -0.273 OA
ATOM     34  H3  UNL     1      -3.338  -1.118  -0.665  1.00  0.00     0.163 HD
BRANCH  32  35
HETATM   35  C23 UNL     1      -4.160  -3.185   1.009  1.00  0.00     0.105 C 
HETATM   36  C24 UNL     1      -5.519  -2.804   0.495  1.00  0.00     0.043 C 
HETATM   37  C25 UNL     1      -5.937  -3.963  -0.414  1.00  0.00     0.233 C 
HETATM   38  N4  UNL     1      -4.734  -4.656  -0.762  1.00  0.00    -0.074 N 
HETATM   39  C26 UNL     1      -3.610  -4.025  -0.141  1.00  0.00     0.246 C 
ATOM     40  H42 UNL     1      -4.787  -5.650  -0.538  1.00  0.00     0.277 HD
ATOM     41  H41 UNL     1      -4.618  -4.737  -1.772  1.00  0.00     0.277 HD
ENDBRANCH  32  35
ENDBRANCH  23  31
ENDBRANCH   1  23
TORSDOF 10
