REMARK  10 active torsions:
REMARK  status: ('A' for Active; 'I' for Inactive)
REMARK       I    between atoms: N1_2  and  C2_4 
REMARK    1  A    between atoms: C2_4  and  C3_6 
REMARK       I    between atoms: N2_11  and  C6_12 
REMARK    2  A    between atoms: C6_12  and  C7_14 
REMARK    3  A    between atoms: C7_14  and  C8_15 
REMARK    4  A    between atoms: C7_14  and  N3_23 
REMARK    5  A    between atoms: C8_15  and  C9_16 
REMARK       I    between atoms: N3_23  and  C15_25 
REMARK    6  A    between atoms: C15_25  and  C16_27 
REMARK    7  A    between atoms: C16_27  and  N4_28 
REMARK    8  A    between atoms: C16_27  and  C20_36 
REMARK       I    between atoms: N4_28  and  C17_30 
REMARK    9  A    between atoms: C17_30  and  O5_32 
REMARK   10  A    between atoms: O5_32  and  C18_33 
ROOT
HETATM    1  C7  UNL     1      -0.849   0.615  -0.802  1.00  0.00     0.181 C 
ENDROOT
BRANCH   1   2
HETATM    2  C6  UNL     1      -1.787   0.312   0.285  1.00  0.00     0.244 C 
HETATM    3  N2  UNL     1      -3.074   0.950   0.445  1.00  0.00    -0.326 N 
HETATM    4  C3  UNL     1      -3.894   0.481   1.533  1.00  0.00     0.190 C 
HETATM    5  C5  UNL     1      -3.490   2.010  -0.424  1.00  0.00     0.213 C 
HETATM    6  C4  UNL     1      -3.605   1.245   2.801  1.00  0.00     0.121 C 
HETATM    7  S1  UNL     1      -4.036   2.994   2.563  1.00  0.00    -0.093 SA
HETATM    8  S2  UNL     1      -4.300   3.352   0.485  1.00  0.00    -0.078 SA
HETATM    9  O2  UNL     1      -1.497  -0.563   1.175  1.00  0.00    -0.271 OA
BRANCH   4  10
HETATM   10  C2  UNL     1      -5.331   0.416   1.265  1.00  0.00     0.241 C 
HETATM   11  N1  UNL     1      -6.233   0.038   2.282  1.00  0.00    -0.364 N 
HETATM   12  C1  UNL     1      -7.674  -0.037   2.053  1.00  0.00     0.149 C 
ATOM     13  H1  UNL     1      -5.867  -0.190   3.206  1.00  0.00     0.161 HD
HETATM   14  O1  UNL     1      -5.791   0.690   0.142  1.00  0.00    -0.271 OA
ENDBRANCH   4  10
ENDBRANCH   1   2
BRANCH   1  15
HETATM   15  C8  UNL     1      -1.336   0.220  -2.176  1.00  0.00     0.073 C 
BRANCH  15  16
HETATM   16  C9  UNL     1      -1.611  -1.218  -2.323  1.00  0.00    -0.056 A 
HETATM   17  C10 UNL     1      -2.860  -1.737  -2.050  1.00  0.00     0.010 A 
HETATM   18  C11 UNL     1      -3.117  -3.102  -2.192  1.00  0.00     0.043 A 
HETATM   19  C12 UNL     1      -2.138  -3.981  -2.608  1.00  0.00     0.116 A 
HETATM   20  F1  UNL     1      -2.383  -5.315  -2.748  1.00  0.00    -0.206 F 
HETATM   21  C13 UNL     1      -0.890  -3.460  -2.880  1.00  0.00     0.043 A 
HETATM   22  C14 UNL     1      -0.643  -2.109  -2.738  1.00  0.00     0.010 A 
ENDBRANCH  15  16
ENDBRANCH   1  15
BRANCH   1  23
HETATM   23  N3  UNL     1       0.442  -0.061  -0.562  1.00  0.00    -0.346 N 
HETATM   24  C15 UNL     1       1.639   0.629  -0.411  1.00  0.00     0.241 C 
HETATM   25  O3  UNL     1       1.618   1.893  -0.483  1.00  0.00    -0.271 OA
ATOM     26  H3  UNL     1       0.456  -1.079  -0.505  1.00  0.00     0.163 HD
BRANCH  24  27
HETATM   27  C16 UNL     1       2.950  -0.001  -0.171  1.00  0.00     0.182 C 
BRANCH  27  28
HETATM   28  N4  UNL     1       4.022   0.960  -0.056  1.00  0.00    -0.323 N 
HETATM   29  C17 UNL     1       5.113   0.996  -0.948  1.00  0.00     0.363 C 
HETATM   30  O4  UNL     1       5.162   0.164  -1.885  1.00  0.00    -0.238 OA
ATOM     31  H4  UNL     1       3.988   1.641   0.702  1.00  0.00     0.165 HD
BRANCH  29  32
HETATM   32  O5  UNL     1       6.132   1.922  -0.824  1.00  0.00    -0.268 OA
BRANCH  32  33
HETATM   33  C18 UNL     1       7.209   1.924  -1.740  1.00  0.00     0.314 C 
HETATM   34  C19 UNL     1       8.494   1.608  -0.994  1.00  0.00     0.077 C 
HETATM   35  F2  UNL     1       7.312   3.153  -2.357  1.00  0.00    -0.220 F 
ENDBRANCH  32  33
ENDBRANCH  29  32
ENDBRANCH  27  28
BRANCH  27  36
HETATM   36  C20 UNL     1       2.912  -0.856   1.064  1.00  0.00     0.009 C 
HETATM   37  C21 UNL     1       4.257  -1.491   1.295  1.00  0.00     0.012 C 
HETATM   38  C22 UNL     1       2.625   0.037   2.265  1.00  0.00     0.012 C 
ENDBRANCH  27  36
ENDBRANCH  24  27
ENDBRANCH   1  23
TORSDOF 10
