REMARK  10 active torsions:
REMARK  status: ('A' for Active; 'I' for Inactive)
REMARK    1  A    between atoms: O1_2  and  C2_3 
REMARK       I    between atoms: C2_3  and  N1_5 
REMARK    2  A    between atoms: N1_5  and  C4_7 
REMARK    3  A    between atoms: C4_7  and  C5_8 
REMARK    4  A    between atoms: C5_8  and  N2_11 
REMARK       I    between atoms: N2_11  and  C8_13 
REMARK    5  A    between atoms: C8_13  and  C9_15 
REMARK    6  A    between atoms: C10_16  and  C11_17 
REMARK       I    between atoms: N3_26  and  C17_27 
REMARK    7  A    between atoms: C17_27  and  C18_29 
REMARK    8  A    between atoms: C18_29  and  N4_30 
REMARK    9  A    between atoms: C18_29  and  C23_39 
REMARK       I    between atoms: N4_30  and  C19_32 
REMARK       I    between atoms: C19_32  and  N5_34 
REMARK   10  A    between atoms: N5_34  and  C20_36 
ROOT
HETATM    1  C9  UNL     1       0.726  -1.196  -1.012  1.00  0.00     0.245 C 
HETATM    2  C10 UNL     1       0.825  -0.841  -2.472  1.00  0.00     0.223 C 
HETATM    3  O4  UNL     1      -0.002   0.217  -2.120  1.00  0.00    -0.261 OA
HETATM    4  N3  UNL     1      -0.524  -0.476  -1.116  1.00  0.00    -0.206 N 
HETATM    5  C17 UNL     1      -1.797  -0.476  -0.486  1.00  0.00     0.267 C 
HETATM    6  O5  UNL     1      -1.976  -1.370   0.397  1.00  0.00    -0.269 OA
ENDROOT
BRANCH   1   7
HETATM    7  C8  UNL     1       1.688  -0.460  -0.150  1.00  0.00     0.246 C 
HETATM    8  N2  UNL     1       2.923  -1.010   0.267  1.00  0.00    -0.349 N 
ATOM      9  H2  UNL     1       3.140  -1.959  -0.038  1.00  0.00     0.163 HD
HETATM   10  O3  UNL     1       1.398   0.699   0.226  1.00  0.00    -0.271 OA
BRANCH   8  11
HETATM   11  C5  UNL     1       3.899  -0.340   1.086  1.00  0.00     0.042 C 
HETATM   12  C6  UNL     1       3.299   0.037   2.453  1.00  0.00     0.039 C 
HETATM   13  C7  UNL     1       5.027  -1.296   1.401  1.00  0.00     0.039 C 
BRANCH  11  14
HETATM   14  C4  UNL     1       4.473   0.885   0.440  1.00  0.00     0.157 C 
BRANCH  14  15
HETATM   15  N1  UNL     1       5.516   1.535   1.181  1.00  0.00    -0.330 N 
HETATM   16  C2  UNL     1       6.900   1.260   1.028  1.00  0.00     0.362 C 
HETATM   17  O2  UNL     1       7.359   0.419   0.187  1.00  0.00    -0.238 OA
HETATM   18  C3  UNL     1       5.145   2.528   2.162  1.00  0.00     0.155 C 
BRANCH  16  19
HETATM   19  O1  UNL     1       7.876   1.890   1.791  1.00  0.00    -0.309 OA
HETATM   20  C1  UNL     1       9.259   1.588   1.618  1.00  0.00     0.215 C 
ENDBRANCH  16  19
ENDBRANCH  14  15
ENDBRANCH  11  14
ENDBRANCH   8  11
ENDBRANCH   1   7
BRANCH   5  21
HETATM   21  C18 UNL     1      -2.895   0.473  -0.779  1.00  0.00     0.184 C 
BRANCH  21  22
HETATM   22  N4  UNL     1      -4.042   0.134   0.034  1.00  0.00    -0.329 N 
HETATM   23  C19 UNL     1      -4.482   0.864   1.159  1.00  0.00     0.317 C 
HETATM   24  O6  UNL     1      -3.932   1.902   1.609  1.00  0.00    -0.247 OA
HETATM   25  N5  UNL     1      -5.637   0.414   1.862  1.00  0.00    -0.339 N 
ATOM     26  H5  UNL     1      -6.110  -0.421   1.517  1.00  0.00     0.164 HD
ATOM     27  H4  UNL     1      -4.574  -0.697  -0.226  1.00  0.00     0.165 HD
BRANCH  25  28
HETATM   28  C20 UNL     1      -6.178   1.062   3.026  1.00  0.00     0.078 C 
HETATM   29  C21 UNL     1      -7.601   1.472   2.748  1.00  0.00     0.032 C 
HETATM   30  C22 UNL     1      -6.204   0.104   4.209  1.00  0.00     0.032 C 
ENDBRANCH  25  28
ENDBRANCH  21  22
BRANCH  21  31
HETATM   31  C23 UNL     1      -3.190   0.658  -2.228  1.00  0.00     0.009 C 
HETATM   32  C24 UNL     1      -3.592  -0.558  -2.982  1.00  0.00     0.012 C 
HETATM   33  C25 UNL     1      -4.281   1.725  -2.423  1.00  0.00     0.012 C 
ENDBRANCH  21  31
ENDBRANCH   5  21
BRANCH   2  34
HETATM   34  C11 UNL     1       0.160  -1.747  -3.412  1.00  0.00     0.017 A 
HETATM   35  C12 UNL     1      -0.514  -2.893  -3.124  1.00  0.00     0.013 A 
HETATM   36  C13 UNL     1      -1.085  -3.659  -4.140  1.00  0.00     0.004 A 
HETATM   37  C14 UNL     1      -1.006  -3.316  -5.460  1.00  0.00     0.045 A 
HETATM   38  C15 UNL     1      -0.314  -2.138  -5.777  1.00  0.00     0.155 A 
HETATM   39  F1  UNL     1      -0.249  -1.822  -7.087  1.00  0.00    -0.203 F 
HETATM   40  C16 UNL     1       0.241  -1.396  -4.765  1.00  0.00     0.163 A 
HETATM   41  F2  UNL     1       0.906  -0.259  -5.133  1.00  0.00    -0.202 F 
ENDBRANCH   2  34
TORSDOF 10
