REMARK  12 active torsions:
REMARK  status: ('A' for Active; 'I' for Inactive)
REMARK    1  A    between atoms: C2_2  and  C3_3 
REMARK    2  A    between atoms: C3_3  and  C6_6 
REMARK    3  A    between atoms: C7_7  and  O1_8 
REMARK    4  A    between atoms: C10_12  and  C11_13 
REMARK    5  A    between atoms: C12_14  and  C13_15 
REMARK    6  A    between atoms: C13_15  and  O2_16 
REMARK    7  A    between atoms: O2_16  and  C14_17 
REMARK    8  A    between atoms: C14_17  and  C15_18 
REMARK    9  A    between atoms: C16_20  and  C18_22 
REMARK   10  A    between atoms: C19_25  and  O6_26 
REMARK   11  A    between atoms: C20_28  and  O7_29 
REMARK   12  A    between atoms: C21_31  and  O8_32 
ROOT
HETATM    1  C11 UNL     1      -0.370   1.524  -0.159  1.00  0.00    -0.061 C 
HETATM    2  C12 UNL     1       0.720   2.040  -0.148  1.00  0.00    -0.075 C 
ENDROOT
BRANCH   2   3
HETATM    3  C13 UNL     1       2.037   2.692  -0.137  1.00  0.00     0.261 C 
BRANCH   3   4
HETATM    4  O2  UNL     1       2.822   2.304   0.915  1.00  0.00    -0.377 OA
BRANCH   4   5
HETATM    5  C14 UNL     1       3.122   0.972   1.002  1.00  0.00     0.203 C 
BRANCH   5   6
HETATM    6  C15 UNL     1       3.872   0.415  -0.194  1.00  0.00     0.178 C 
HETATM    7  O3  UNL     1       5.041   1.050  -0.364  1.00  0.00    -0.357 OA
HETATM    8  C16 UNL     1       6.191   0.503   0.075  1.00  0.00     0.173 C 
HETATM    9  C17 UNL     1       6.467   0.789   1.558  1.00  0.00     0.061 C 
HETATM   10  C19 UNL     1       6.417  -0.936  -0.255  1.00  0.00     0.194 C 
HETATM   11  C20 UNL     1       5.167  -1.713  -0.527  1.00  0.00     0.181 C 
HETATM   12  C21 UNL     1       3.925  -1.073  -0.022  1.00  0.00     0.180 C 
BRANCH   8  13
HETATM   13  C18 UNL     1       7.304   1.254  -0.626  1.00  0.00     0.211 C 
HETATM   14  O4  UNL     1       8.483   0.892  -0.350  1.00  0.00    -0.646 OA
HETATM   15  O5  UNL     1       7.085   2.271  -1.511  1.00  0.00    -0.646 OA
ENDBRANCH   8  13
BRANCH  10  16
HETATM   16  O6  UNL     1       7.115  -1.502   0.838  1.00  0.00    -0.389 OA
ATOM     17  H6  UNL     1       7.259  -2.417   0.628  1.00  0.00     0.210 HD
ENDBRANCH  10  16
BRANCH  11  18
HETATM   18  O7  UNL     1       5.294  -2.964   0.118  1.00  0.00    -0.390 OA
ATOM     19  H7  UNL     1       4.501  -3.457  -0.055  1.00  0.00     0.210 HD
ENDBRANCH  11  18
BRANCH  12  20
HETATM   20  O8  UNL     1       3.698  -1.446   1.326  1.00  0.00    -0.390 OA
ATOM     21  H8  UNL     1       3.732  -2.389   1.435  1.00  0.00     0.210 HD
ENDBRANCH  12  20
ENDBRANCH   5   6
ENDBRANCH   4   5
ENDBRANCH   3   4
ENDBRANCH   2   3
BRANCH   1  22
HETATM   22  C10 UNL     1      -1.682   0.931  -0.170  1.00  0.00     0.072 A 
HETATM   23  C9  UNL     1      -2.688   1.453   0.593  1.00  0.00     0.170 A 
HETATM   24  C7  UNL     1      -3.971   0.893   0.598  1.00  0.00     0.118 A 
HETATM   25  F1  UNL     1      -2.480   2.554   1.392  1.00  0.00    -0.202 F 
HETATM   26  C6  UNL     1      -4.256  -0.211  -0.166  1.00  0.00     0.021 A 
HETATM   27  C25 UNL     1      -3.201  -0.750  -0.963  1.00  0.00     0.096 A 
HETATM   28  C22 UNL     1      -1.956  -0.174  -0.946  1.00  0.00     0.022 A 
HETATM   29  O9  UNL     1      -3.152  -1.780  -1.792  1.00  0.00    -0.321 OA
HETATM   30  C23 UNL     1      -1.159  -0.911  -1.808  1.00  0.00     0.040 A 
HETATM   31  C24 UNL     1      -1.972  -1.904  -2.305  1.00  0.00     0.143 A 
BRANCH  24  32
HETATM   32  O1  UNL     1      -4.907   1.560   1.413  1.00  0.00    -0.352 OA
HETATM   33  C8  UNL     1      -5.409   2.796   0.795  1.00  0.00     0.210 C 
ENDBRANCH  24  32
BRANCH  26  34
HETATM   34  C3  UNL     1      -5.507  -0.952  -0.044  1.00  0.00    -0.015 C 
HETATM   35  C4  UNL     1      -5.472  -2.137   0.924  1.00  0.00     0.020 C 
HETATM   36  C5  UNL     1      -5.495  -1.842  -1.412  1.00  0.00     0.020 C 
BRANCH  34  37
HETATM   37  C2  UNL     1      -6.848  -0.369  -0.195  1.00  0.00     0.009 C 
HETATM   38  C1  UNL     1      -7.589   0.049   1.029  1.00  0.00     0.006 C 
ENDBRANCH  34  37
ENDBRANCH  26  34
ENDBRANCH   1  22
TORSDOF 12
