REMARK  13 active torsions:
REMARK  status: ('A' for Active; 'I' for Inactive)
REMARK    1  A    between atoms: C2_2  and  C3_3 
REMARK    2  A    between atoms: C3_3  and  C4_4 
REMARK    3  A    between atoms: C4_4  and  C5_5 
REMARK    4  A    between atoms: C5_5  and  C6_6 
REMARK    5  A    between atoms: C7_7  and  C8_8 
REMARK    6  A    between atoms: N2_12  and  C10_14 
REMARK    7  A    between atoms: C10_14  and  C11_15 
REMARK    8  A    between atoms: C11_15  and  O1_16 
REMARK    9  A    between atoms: N3_29  and  C22_30 
REMARK   10  A    between atoms: C23_32  and  C24_33 
REMARK   11  A    between atoms: C24_33  and  O3_34 
REMARK   12  A    between atoms: C25_36  and  O4_37 
REMARK   13  A    between atoms: C26_39  and  O5_40 
ROOT
HETATM    1  C8  UNL     1       1.830  -0.985   0.147  1.00  0.00     0.167 A 
HETATM    2  N1  UNL     1       0.735  -0.219   0.083  1.00  0.00    -0.319 N 
ATOM      3  H1  UNL     1       0.778   0.759   0.369  1.00  0.00     0.169 HD
HETATM    4  C9  UNL     1      -0.455  -0.755  -0.371  1.00  0.00     0.144 A 
HETATM    5  N2  UNL     1      -1.486  -0.007  -0.424  1.00  0.00    -0.371 N 
ATOM      6  H2  UNL     1      -1.338   0.954  -0.117  1.00  0.00     0.161 HD
HETATM    7  C20 UNL     1      -0.502  -2.072  -0.752  1.00  0.00     0.175 A 
HETATM    8  F1  UNL     1      -1.620  -2.671  -1.204  1.00  0.00    -0.201 F 
HETATM    9  C21 UNL     1       0.629  -2.841  -0.679  1.00  0.00     0.142 A 
HETATM   10  N3  UNL     1       1.777  -2.276  -0.228  1.00  0.00    -0.303 N 
ENDROOT
BRANCH   5  11
HETATM   11  C10 UNL     1      -2.798  -0.305  -0.842  1.00  0.00     0.159 C 
BRANCH  11  12
HETATM   12  C11 UNL     1      -3.717   0.935  -0.735  1.00  0.00     0.075 C 
HETATM   13  C12 UNL     1      -5.083   0.497  -1.149  1.00  0.00     0.043 C 
HETATM   14  C13 UNL     1      -6.157   1.495  -0.861  1.00  0.00    -0.015 C 
HETATM   15  C14 UNL     1      -7.499   0.788  -1.082  1.00  0.00     0.010 C 
HETATM   16  C15 UNL     1      -6.146   1.947   0.575  1.00  0.00     0.013 C 
HETATM   17  C16 UNL     1      -4.754   2.425   0.960  1.00  0.00    -0.045 C 
HETATM   18  C17 UNL     1      -4.792   2.763   2.431  1.00  0.00     0.015 C 
HETATM   19  C18 UNL     1      -4.453   3.692   0.209  1.00  0.00     0.015 C 
HETATM   20  C19 UNL     1      -3.750   1.342   0.711  1.00  0.00     0.048 C 
BRANCH  12  21
HETATM   21  O1  UNL     1      -3.178   1.925  -1.554  1.00  0.00    -0.388 OA
ATOM     22  H1  UNL     1      -3.742   2.686  -1.488  1.00  0.00     0.210 HD
ENDBRANCH  12  21
ENDBRANCH  11  12
ENDBRANCH   5  11
BRANCH   1  23
HETATM   23  C7  UNL     1       3.072  -0.389   0.631  1.00  0.00    -0.030 C 
HETATM   24  C6  UNL     1       4.088   0.120   1.039  1.00  0.00    -0.098 C 
BRANCH  24  25
HETATM   25  C5  UNL     1       5.308   0.756   1.547  1.00  0.00     0.094 C 
BRANCH  25  26
HETATM   26  C4  UNL     1       4.972   2.194   1.834  1.00  0.00     0.012 C 
BRANCH  26  27
HETATM   27  C3  UNL     1       4.506   2.923   0.610  1.00  0.00     0.000 C 
BRANCH  27  28
HETATM   28  C2  UNL     1       4.189   4.354   0.977  1.00  0.00    -0.005 C 
HETATM   29  C1  UNL     1       3.710   5.121  -0.260  1.00  0.00     0.005 C 
ENDBRANCH  27  28
ENDBRANCH  26  27
ENDBRANCH  25  26
ENDBRANCH  24  25
ENDBRANCH   1  23
BRANCH  10  30
HETATM   30  C22 UNL     1       2.972  -3.062  -0.144  1.00  0.00     0.261 C 
HETATM   31  O2  UNL     1       3.455  -3.244  -1.422  1.00  0.00    -0.353 OA
HETATM   32  C23 UNL     1       3.679  -4.572  -1.652  1.00  0.00     0.179 C 
HETATM   33  C25 UNL     1       2.984  -5.369  -0.599  1.00  0.00     0.182 C 
HETATM   34  C26 UNL     1       2.801  -4.389   0.511  1.00  0.00     0.198 C 
BRANCH  32  35
HETATM   35  C24 UNL     1       5.174  -4.895  -1.669  1.00  0.00     0.198 C 
BRANCH  35  36
HETATM   36  O3  UNL     1       5.835  -4.198  -2.649  1.00  0.00    -0.398 OA
ATOM     37  H3  UNL     1       6.764  -4.399  -2.660  1.00  0.00     0.209 HD
ENDBRANCH  35  36
ENDBRANCH  32  35
BRANCH  33  38
HETATM   38  O4  UNL     1       3.847  -6.414  -0.216  1.00  0.00    -0.390 OA
ATOM     39  H4  UNL     1       3.405  -6.921   0.454  1.00  0.00     0.210 HD
ENDBRANCH  33  38
BRANCH  34  40
HETATM   40  O5  UNL     1       1.606  -4.533   1.202  1.00  0.00    -0.388 OA
ATOM     41  H5  UNL     1       1.497  -5.379   1.620  1.00  0.00     0.210 HD
ENDBRANCH  34  40
ENDBRANCH  10  30
TORSDOF 13
