REMARK  13 active torsions:
REMARK  status: ('A' for Active; 'I' for Inactive)
REMARK    1  A    between atoms: C3_5  and  C4_6 
REMARK    2  A    between atoms: C5_7  and  C6_8 
REMARK    3  A    between atoms: C6_8  and  C7_9 
REMARK    4  A    between atoms: C7_9  and  C8_10 
REMARK    5  A    between atoms: C8_10  and  C9_11 
REMARK    6  A    between atoms: C9_11  and  C10_12 
REMARK    7  A    between atoms: N3_21  and  C15_22 
REMARK    8  A    between atoms: C16_24  and  C17_25 
REMARK    9  A    between atoms: C17_25  and  O2_26 
REMARK   10  A    between atoms: C17_25  and  C18_28 
REMARK   11  A    between atoms: C18_28  and  O3_29 
REMARK   12  A    between atoms: C19_31  and  O4_32 
REMARK   13  A    between atoms: C20_34  and  O5_35 
ROOT
HETATM    1  C1  UNL     1       1.321  -4.043  -1.816  1.00  0.00     0.069 C 
HETATM    2  C2  UNL     1       0.984  -2.832  -1.061  1.00  0.00     0.023 A 
HETATM    3  N1  UNL     1       1.888  -2.063  -0.429  1.00  0.00    -0.338 N 
ATOM      4  H1  UNL     1       2.871  -2.332  -0.473  1.00  0.00     0.168 HD
HETATM    5  C3  UNL     1       1.555  -0.954   0.259  1.00  0.00     0.163 A 
HETATM    6  N2  UNL     1       0.266  -0.573   0.335  1.00  0.00    -0.320 N 
ATOM      7  H2  UNL     1       0.008   0.266   0.855  1.00  0.00     0.169 HD
HETATM    8  C11 UNL     1      -0.694  -1.319  -0.290  1.00  0.00     0.125 A 
HETATM    9  C12 UNL     1      -0.362  -2.457  -0.997  1.00  0.00     0.050 A 
HETATM   10  C13 UNL     1      -1.525  -2.969  -1.494  1.00  0.00     0.043 A 
HETATM   11  S1  UNL     1      -1.622  -4.451  -2.487  1.00  0.00    -0.050 SA
HETATM   12  C14 UNL     1      -2.531  -2.133  -1.079  1.00  0.00     0.116 A 
HETATM   13  N3  UNL     1      -2.034  -1.122  -0.342  1.00  0.00    -0.311 N 
ENDROOT
BRANCH  13  14
HETATM   14  C15 UNL     1      -2.760  -0.030   0.281  1.00  0.00     0.261 C 
HETATM   15  O1  UNL     1      -4.123  -0.277   0.123  1.00  0.00    -0.353 OA
HETATM   16  C16 UNL     1      -4.785   0.921   0.243  1.00  0.00     0.186 C 
HETATM   17  C19 UNL     1      -3.835   2.022  -0.100  1.00  0.00     0.182 C 
HETATM   18  C20 UNL     1      -2.535   1.284  -0.428  1.00  0.00     0.198 C 
BRANCH  16  19
HETATM   19  C17 UNL     1      -5.979   0.930  -0.706  1.00  0.00     0.173 C 
BRANCH  19  20
HETATM   20  O2  UNL     1      -6.603   2.160  -0.539  1.00  0.00    -0.391 OA
ATOM     21  H2  UNL     1      -7.347   2.166  -1.130  1.00  0.00     0.210 HD
ENDBRANCH  19  20
BRANCH  19  22
HETATM   22  C18 UNL     1      -6.936  -0.172  -0.307  1.00  0.00     0.198 C 
BRANCH  22  23
HETATM   23  O3  UNL     1      -7.334  -0.065   1.008  1.00  0.00    -0.398 OA
ATOM     24  H3  UNL     1      -7.935  -0.757   1.259  1.00  0.00     0.209 HD
ENDBRANCH  22  23
ENDBRANCH  19  22
ENDBRANCH  16  19
BRANCH  17  25
HETATM   25  O4  UNL     1      -3.672   2.817   1.042  1.00  0.00    -0.390 OA
ATOM     26  H4  UNL     1      -3.068   3.517   0.824  1.00  0.00     0.210 HD
ENDBRANCH  17  25
BRANCH  18  27
HETATM   27  O5  UNL     1      -1.514   1.982   0.196  1.00  0.00    -0.388 OA
ATOM     28  H5  UNL     1      -1.372   2.809  -0.250  1.00  0.00     0.210 HD
ENDBRANCH  18  27
ENDBRANCH  13  14
BRANCH   5  29
HETATM   29  C4  UNL     1       2.574  -0.158   0.924  1.00  0.00    -0.030 C 
HETATM   30  C5  UNL     1       3.428   0.506   1.457  1.00  0.00    -0.098 C 
BRANCH  30  31
HETATM   31  C6  UNL     1       4.473   1.308   2.082  1.00  0.00     0.094 C 
BRANCH  31  32
HETATM   32  C7  UNL     1       5.489   1.800   1.089  1.00  0.00     0.012 C 
BRANCH  32  33
HETATM   33  C8  UNL     1       6.170   0.625   0.393  1.00  0.00     0.002 C 
BRANCH  33  34
HETATM   34  C9  UNL     1       7.188   1.081  -0.603  1.00  0.00     0.011 C 
BRANCH  34  35
HETATM   35  C10 UNL     1       8.289   1.905   0.027  1.00  0.00     0.085 C 
HETATM   36 BR1  UNL     1       9.162   0.808   1.351  1.00  0.00    -0.097 Br
ENDBRANCH  34  35
ENDBRANCH  33  34
ENDBRANCH  32  33
ENDBRANCH  31  32
ENDBRANCH  30  31
ENDBRANCH   5  29
TORSDOF 13
