REMARK  10 active torsions:
REMARK  status: ('A' for Active; 'I' for Inactive)
REMARK    1  A    between atoms: N1_2  and  C2_5 
REMARK    2  A    between atoms: C2_5  and  N2_6 
REMARK    3  A    between atoms: C2_5  and  C3_10 
REMARK    4  A    between atoms: C6_13  and  S1_14 
REMARK    5  A    between atoms: S1_14  and  N3_15 
REMARK    6  A    between atoms: C7_20  and  N4_21 
REMARK    7  A    between atoms: N5_23  and  C8_25 
REMARK    8  A    between atoms: C11_28  and  S2_29 
REMARK    9  A    between atoms: S2_29  and  N6_32 
REMARK   10  A    between atoms: N6_32  and  C12_34 
ROOT
HETATM    1  N4  UNL     1       1.581  -0.241   0.939  1.00  0.00    -0.299 N 
ATOM      2  H4  UNL     1       1.045  -0.130   1.800  1.00  0.00     0.187 HD
HETATM    3  N5  UNL     1       0.931  -0.365  -0.118  1.00  0.00    -0.300 N 
ATOM      4  H5  UNL     1       1.407  -0.479  -1.013  1.00  0.00     0.187 HD
ENDROOT
BRANCH   1   5
HETATM    5  C7  UNL     1       2.987  -0.239   1.059  1.00  0.00     0.072 A 
HETATM    6  C6  UNL     1       3.518  -0.132   2.328  1.00  0.00     0.107 A 
HETATM    7  C5  UNL     1       4.871  -0.125   2.490  1.00  0.00     0.028 A 
HETATM    8  C4  UNL     1       5.712  -0.226   1.382  1.00  0.00     0.013 A 
HETATM    9  C3  UNL     1       5.216  -0.335   0.094  1.00  0.00     0.001 A 
HETATM   10  C19 UNL     1       3.842  -0.339  -0.037  1.00  0.00     0.043 A 
BRANCH   6  11
HETATM   11  S1  UNL     1       2.486  -0.004   3.734  1.00  0.00     0.259 S 
HETATM   12  O1  UNL     1       3.290  -0.038   4.979  1.00  0.00    -0.201 OA
HETATM   13  O2  UNL     1       1.544  -1.194   3.743  1.00  0.00    -0.201 OA
BRANCH  11  14
HETATM   14  N3  UNL     1       1.469   1.403   3.640  1.00  0.00    -0.324 N 
ATOM     15  H32 UNL     1       1.484   2.059   2.859  1.00  0.00     0.169 HD
ATOM     16  H31 UNL     1       0.867   1.478   4.460  1.00  0.00     0.169 HD
ENDBRANCH  11  14
ENDBRANCH   6  11
BRANCH   9  17
HETATM   17  C2  UNL     1       6.088  -0.442  -1.086  1.00  0.00     0.413 C 
BRANCH  17  18
HETATM   18  N1  UNL     1       7.175  -1.375  -0.903  1.00  0.00    -0.046 N 
HETATM   19  C1  UNL     1       7.941  -1.389  -2.141  1.00  0.00     0.269 C 
ATOM     20  H12 UNL     1       6.862  -2.302  -0.616  1.00  0.00     0.279 HD
ATOM     21  H11 UNL     1       7.745  -1.169  -0.082  1.00  0.00     0.279 HD
ENDBRANCH  17  18
BRANCH  17  22
HETATM   22  N2  UNL     1       6.626   0.890  -1.374  1.00  0.00    -0.046 N 
ATOM     23  H23 UNL     1       7.284   1.202  -0.660  1.00  0.00     0.277 HD
ATOM     24  H22 UNL     1       7.265   0.883  -2.169  1.00  0.00     0.277 HD
ATOM     25  H21 UNL     1       5.858   1.549  -1.503  1.00  0.00     0.277 HD
ENDBRANCH  17  22
ENDBRANCH   9  17
ENDBRANCH   1   5
BRANCH   3  26
HETATM   26  C8  UNL     1      -0.488  -0.344  -0.046  1.00  0.00     0.048 A 
HETATM   27  C9  UNL     1      -1.179  -1.433  -0.512  1.00  0.00     0.032 A 
HETATM   28  C10 UNL     1      -2.563  -1.445  -0.456  1.00  0.00     0.027 A 
HETATM   29  C11 UNL     1      -3.263  -0.381   0.059  1.00  0.00     0.080 A 
HETATM   30  C17 UNL     1      -2.562   0.705   0.522  1.00  0.00     0.027 A 
HETATM   31  C18 UNL     1      -1.172   0.732   0.473  1.00  0.00     0.032 A 
BRANCH  29  32
HETATM   32  S2  UNL     1      -4.991  -0.434   0.110  1.00  0.00     0.264 S 
HETATM   33  O3  UNL     1      -5.447  -1.845   0.370  1.00  0.00    -0.200 OA
HETATM   34  O4  UNL     1      -5.415   0.450   1.271  1.00  0.00    -0.200 OA
BRANCH  32  35
HETATM   35  N6  UNL     1      -5.701   0.205  -1.320  1.00  0.00    -0.266 N 
ATOM     36  H6  UNL     1      -5.107   0.524  -2.086  1.00  0.00     0.180 HD
BRANCH  35  37
HETATM   37  C12 UNL     1      -6.969   0.280  -1.423  1.00  0.00     0.114 A 
HETATM   38  C13 UNL     1      -7.868  -0.116  -0.467  1.00  0.00     0.052 A 
HETATM   39  C14 UNL     1      -9.241   0.006  -0.674  1.00  0.00     0.047 A 
HETATM   40  C15 UNL     1      -9.698   0.533  -1.859  1.00  0.00     0.131 A 
HETATM   41  F1  UNL     1     -11.041   0.671  -2.103  1.00  0.00    -0.205 F 
HETATM   42  C16 UNL     1      -8.778   0.923  -2.803  1.00  0.00     0.132 A 
HETATM   43  N7  UNL     1      -7.462   0.794  -2.575  1.00  0.00    -0.349 N 
ATOM     44  H7  UNL     1      -6.808   1.095  -3.297  1.00  0.00     0.167 HD
ENDBRANCH  35  37
ENDBRANCH  32  35
ENDBRANCH  29  32
ENDBRANCH   3  26
TORSDOF 10
