REMARK  8 active torsions:
REMARK  status: ('A' for Active; 'I' for Inactive)
REMARK    1  A    between atoms: N2_7  and  C5_8 
REMARK    2  A    between atoms: C5_8  and  C6_9 
REMARK    3  A    between atoms: C6_9  and  C7_10 
REMARK    4  A    between atoms: C7_10  and  N3_11 
REMARK    5  A    between atoms: N3_11  and  C8_14 
REMARK    6  A    between atoms: C8_14  and  C9_15 
REMARK    7  A    between atoms: C9_15  and  N4_16 
REMARK    8  A    between atoms: N4_16  and  C10_19 
ROOT
HETATM    1  C1  UNL     1      -5.768  -4.022  -0.163  1.00  0.00     0.043 C 
HETATM    2  C2  UNL     1      -5.451  -2.581  -0.000  1.00  0.00    -0.085 C 
HETATM    3  C3  UNL     1      -4.209  -2.188   0.172  1.00  0.00     0.003 C 
HETATM    4  C4  UNL     1      -3.727  -0.796   0.349  1.00  0.00     0.136 C 
HETATM    5  N1  UNL     1      -2.931  -0.454  -0.824  1.00  0.00    -0.329 N 
ATOM      6  H1  UNL     1      -3.108  -0.995  -1.670  1.00  0.00     0.180 HD
HETATM    7  N2  UNL     1      -2.012   0.476  -0.903  1.00  0.00    -0.327 N 
HETATM    8  C15 UNL     1      -2.353   1.839  -1.382  1.00  0.00     0.182 C 
HETATM    9  C16 UNL     1      -3.458   2.216  -0.404  1.00  0.00    -0.013 A 
HETATM   10  C17 UNL     1      -3.444   3.502   0.098  1.00  0.00     0.043 A 
HETATM   11 CL1  UNL     1      -2.379   4.681  -0.496  1.00  0.00    -0.084 Cl
HETATM   12  C18 UNL     1      -4.396   3.661   1.132  1.00  0.00     0.044 A 
HETATM   13  C19 UNL     1      -5.242   2.680   1.602  1.00  0.00     0.023 A 
HETATM   14 CL2  UNL     1      -6.354   2.989   2.901  1.00  0.00    -0.088 Cl
HETATM   15  C20 UNL     1      -5.269   1.342   1.089  1.00  0.00     0.076 A 
HETATM   16  C21 UNL     1      -4.266   1.315   0.051  1.00  0.00    -0.048 A 
HETATM   17  C22 UNL     1      -4.949   0.125   0.289  1.00  0.00     0.022 A 
HETATM   18  C23 UNL     1      -5.992  -0.344  -0.676  1.00  0.00     0.022 C 
HETATM   19  C24 UNL     1      -6.570  -1.607  -0.037  1.00  0.00     0.034 C 
ENDROOT
BRANCH   7  20
HETATM   20  C5  UNL     1      -0.930   0.527   0.039  1.00  0.00     0.144 C 
BRANCH  20  21
HETATM   21  C6  UNL     1      -0.343  -0.858   0.164  1.00  0.00     0.049 C 
BRANCH  21  22
HETATM   22  C7  UNL     1       0.816  -0.982   1.077  1.00  0.00     0.234 C 
BRANCH  22  23
HETATM   23  N3  UNL     1       1.928  -0.091   0.717  1.00  0.00    -0.073 N 
ATOM     24  H32 UNL     1       1.657   0.890   0.784  1.00  0.00     0.277 HD
ATOM     25  H31 UNL     1       2.660  -0.102   1.428  1.00  0.00     0.277 HD
BRANCH  23  26
HETATM   26  C8  UNL     1       2.448  -0.400  -0.569  1.00  0.00     0.259 C 
BRANCH  26  27
HETATM   27  C9  UNL     1       3.720   0.323  -0.869  1.00  0.00     0.260 C 
BRANCH  27  28
HETATM   28  N4  UNL     1       4.774  -0.075   0.065  1.00  0.00    -0.069 N 
ATOM     29  H42 UNL     1       4.619   0.318   0.994  1.00  0.00     0.277 HD
ATOM     30  H41 UNL     1       4.711  -1.065   0.301  1.00  0.00     0.277 HD
BRANCH  28  31
HETATM   31  C10 UNL     1       6.066   0.262  -0.438  1.00  0.00     0.190 C 
HETATM   32  C11 UNL     1       7.011  -0.890  -0.176  1.00  0.00     0.059 C 
HETATM   33  C12 UNL     1       8.034  -0.511   0.842  1.00  0.00     0.169 C 
HETATM   34  O1  UNL     1       8.809   0.585   0.554  1.00  0.00    -0.391 OA
HETATM   35  C13 UNL     1       8.144   1.573  -0.151  1.00  0.00     0.169 C 
HETATM   36  C14 UNL     1       6.630   1.503   0.149  1.00  0.00     0.059 C 
ENDBRANCH  28  31
ENDBRANCH  27  28
ENDBRANCH  26  27
ENDBRANCH  23  26
ENDBRANCH  22  23
ENDBRANCH  21  22
ENDBRANCH  20  21
ENDBRANCH   7  20
TORSDOF 8
