REMARK  9 active torsions:
REMARK  status: ('A' for Active; 'I' for Inactive)
REMARK    1  A    between atoms: N1_2  and  C2_3 
REMARK    2  A    between atoms: N1_2  and  C9_12 
REMARK    3  A    between atoms: C2_3  and  C3_4 
REMARK    4  A    between atoms: C11_17  and  C12_18 
REMARK    5  A    between atoms: C15_21  and  C16_22 
REMARK    6  A    between atoms: C16_22  and  C17_23 
REMARK    7  A    between atoms: C17_23  and  C18_24 
REMARK    8  A    between atoms: C18_24  and  C19_25 
REMARK    9  A    between atoms: C19_25  and  O2_26 
ROOT
HETATM    1  C9  UNL     1       3.649   0.263  -0.620  1.00  0.00     0.682 A 
HETATM    2  N2  UNL     1       2.813   1.266  -0.971  1.00  0.00    -0.155 N 
ATOM      3  H2  UNL     1       3.219   2.098  -1.401  1.00  0.00     0.187 HD
HETATM    4  C10 UNL     1       1.483   1.237  -0.790  1.00  0.00     0.272 A 
HETATM    5  O1  UNL     1       0.762   2.202  -1.138  1.00  0.00    -0.267 OA
HETATM    6  C11 UNL     1       0.903   0.127  -0.214  1.00  0.00     0.059 A 
HETATM    7  C26 UNL     1       1.741  -0.905   0.149  1.00  0.00     0.124 A 
HETATM    8  N4  UNL     1       3.089  -0.814  -0.061  1.00  0.00    -0.201 N 
ATOM      9  H4  UNL     1       3.686  -1.593   0.218  1.00  0.00     0.183 HD
ENDROOT
BRANCH   6  10
HETATM   10  C12 UNL     1      -0.546   0.034   0.017  1.00  0.00    -0.019 A 
HETATM   11  C13 UNL     1      -1.265   1.069   0.554  1.00  0.00     0.013 A 
HETATM   12  C14 UNL     1      -2.638   0.961   0.776  1.00  0.00     0.008 A 
HETATM   13  C15 UNL     1      -3.283  -0.210   0.448  1.00  0.00    -0.058 A 
HETATM   14  C24 UNL     1      -2.567  -1.245  -0.089  1.00  0.00     0.008 A 
HETATM   15  C25 UNL     1      -1.206  -1.129  -0.305  1.00  0.00     0.013 A 
BRANCH  13  16
HETATM   16  C16 UNL     1      -4.770  -0.294   0.714  1.00  0.00     0.039 C 
BRANCH  16  17
HETATM   17  C17 UNL     1      -5.442   0.200  -0.513  1.00  0.00     0.016 C 
BRANCH  17  18
HETATM   18  C18 UNL     1      -6.949   0.215  -0.477  1.00  0.00    -0.016 C 
HETATM   19  C20 UNL     1      -7.418   1.178   0.576  1.00  0.00     0.039 C 
HETATM   20  C21 UNL     1      -8.700   0.817   1.246  1.00  0.00     0.233 C 
HETATM   21  N3  UNL     1      -8.889  -0.577   1.506  1.00  0.00    -0.075 N 
HETATM   22  C22 UNL     1      -8.881  -1.254   0.221  1.00  0.00     0.233 C 
ATOM     23  H32 UNL     1      -8.209  -0.958   2.164  1.00  0.00     0.277 HD
ATOM     24  H31 UNL     1      -9.725  -0.772   2.056  1.00  0.00     0.277 HD
HETATM   25  C23 UNL     1      -7.468  -1.173  -0.303  1.00  0.00     0.039 C 
BRANCH  18  26
HETATM   26  C19 UNL     1      -7.361   0.764  -1.868  1.00  0.00     0.173 C 
BRANCH  26  27
HETATM   27  O2  UNL     1      -8.725   0.842  -2.003  1.00  0.00    -0.400 OA
ATOM     28  H2  UNL     1      -8.977   1.178  -2.855  1.00  0.00     0.209 HD
ENDBRANCH  26  27
ENDBRANCH  18  26
ENDBRANCH  17  18
ENDBRANCH  16  17
ENDBRANCH  13  16
ENDBRANCH   6  10
BRANCH   1  29
HETATM   29  N1  UNL     1       5.053   0.374  -0.837  1.00  0.00    -0.222 N 
HETATM   30  C1  UNL     1       5.543   1.622  -1.412  1.00  0.00     0.168 C 
BRANCH  29  31
HETATM   31  C2  UNL     1       5.992  -0.649  -0.524  1.00  0.00     0.145 C 
BRANCH  31  32
HETATM   32  C3  UNL     1       6.903  -0.362   0.646  1.00  0.00     0.004 C 
HETATM   33  C4  UNL     1       7.832  -1.569   0.842  1.00  0.00     0.012 C 
HETATM   34  C5  UNL     1       9.088  -1.431   0.023  1.00  0.00     0.079 C 
HETATM   35  C6  UNL     1       9.898  -0.309   0.645  1.00  0.00     0.243 C 
HETATM   36  F1  UNL     1      10.648   0.271  -0.343  1.00  0.00    -0.206 F 
HETATM   37  F2  UNL     1      10.734  -0.857   1.594  1.00  0.00    -0.206 F 
HETATM   38  C7  UNL     1       8.981   0.671   1.347  1.00  0.00     0.079 C 
HETATM   39  C8  UNL     1       7.720   0.881   0.519  1.00  0.00     0.012 C 
ENDBRANCH  31  32
ENDBRANCH  29  31
ENDBRANCH   1  29
TORSDOF 9
