REMARK  9 active torsions:
REMARK  status: ('A' for Active; 'I' for Inactive)
REMARK    1  A    between atoms: C1_2  and  C2_4 
REMARK    2  A    between atoms: C2_4  and  C3_5 
REMARK    3  A    between atoms: C3_5  and  N1_6 
REMARK    4  A    between atoms: C3_5  and  C23_33 
REMARK       I    between atoms: N1_6  and  C4_8 
REMARK    5  A    between atoms: C4_8  and  C5_10 
REMARK    6  A    between atoms: C8_13  and  N2_14 
REMARK    7  A    between atoms: N2_14  and  C9_16 
REMARK    8  A    between atoms: N4_27  and  C18_28 
REMARK    9  A    between atoms: C23_33  and  C24_35 
ROOT
HETATM    1  C5  UNL     1      -1.246  -0.563   0.072  1.00  0.00     0.104 A 
HETATM    2  C6  UNL     1      -0.032   0.101   0.059  1.00  0.00     0.053 A 
HETATM    3  C7  UNL     1       0.946  -0.855   0.178  1.00  0.00     0.037 A 
HETATM    4  C8  UNL     1       2.340  -0.777   0.226  1.00  0.00     0.114 A 
HETATM    5  N3  UNL     1       3.087  -1.879   0.352  1.00  0.00    -0.352 N 
ATOM      6  H3  UNL     1       4.105  -1.821   0.388  1.00  0.00     0.166 HD
HETATM    7  C15 UNL     1       2.467  -3.051   0.429  1.00  0.00     0.092 A 
HETATM    8  C16 UNL     1       1.084  -3.198   0.388  1.00  0.00     0.048 A 
HETATM    9  C17 UNL     1       0.321  -2.064   0.260  1.00  0.00     0.050 A 
HETATM   10  N4  UNL     1      -1.034  -1.878   0.194  1.00  0.00    -0.337 N 
ENDROOT
BRANCH   1  11
HETATM   11  C4  UNL     1      -2.511   0.180  -0.031  1.00  0.00     0.269 C 
HETATM   12  N1  UNL     1      -2.481   1.594  -0.052  1.00  0.00    -0.344 N 
ATOM     13  H1  UNL     1      -1.592   2.092   0.001  1.00  0.00     0.163 HD
HETATM   14  O3  UNL     1      -3.586  -0.453  -0.096  1.00  0.00    -0.266 OA
BRANCH  12  15
HETATM   15  C3  UNL     1      -3.748   2.339  -0.151  1.00  0.00     0.170 C 
BRANCH  15  16
HETATM   16  C2  UNL     1      -3.590   3.217  -1.351  1.00  0.00     0.146 C 
BRANCH  16  17
HETATM   17  C1  UNL     1      -4.703   4.092  -1.690  1.00  0.00     0.174 C 
HETATM   18  O1  UNL     1      -4.647   5.342  -1.404  1.00  0.00    -0.648 OA
HETATM   19  O2  UNL     1      -5.826   3.607  -2.315  1.00  0.00    -0.648 OA
ENDBRANCH  16  17
ENDBRANCH  15  16
BRANCH  15  20
HETATM   20  C23 UNL     1      -3.955   3.036   1.129  1.00  0.00     0.213 C 
HETATM   21  O4  UNL     1      -2.968   3.530   1.654  1.00  0.00    -0.290 OA
BRANCH  20  22
HETATM   22  C24 UNL     1      -5.257   3.164   1.800  1.00  0.00     0.424 C 
HETATM   23  F1  UNL     1      -5.102   3.835   3.022  1.00  0.00    -0.206 F 
HETATM   24  F2  UNL     1      -6.219   3.777   1.074  1.00  0.00    -0.206 F 
ENDBRANCH  20  22
ENDBRANCH  15  20
ENDBRANCH  12  15
ENDBRANCH   1  11
BRANCH  10  25
HETATM   25  C18 UNL     1      -1.999  -2.923   0.265  1.00  0.00     0.090 C 
HETATM   26  C19 UNL     1      -1.902  -3.796   1.499  1.00  0.00     0.026 C 
HETATM   27  C20 UNL     1      -2.224  -5.194   1.019  1.00  0.00     0.002 C 
HETATM   28  C21 UNL     1      -2.799  -5.029  -0.370  1.00  0.00     0.002 C 
HETATM   29  C22 UNL     1      -1.966  -3.887  -0.924  1.00  0.00     0.026 C 
ENDBRANCH  10  25
BRANCH   4  30
HETATM   30  N2  UNL     1       2.839   0.389   0.145  1.00  0.00    -0.371 N 
ATOM     31  H2  UNL     1       2.164   1.148   0.053  1.00  0.00     0.161 HD
BRANCH  30  32
HETATM   32  C9  UNL     1       4.203   0.786   0.164  1.00  0.00     0.083 C 
HETATM   33  C10 UNL     1       4.936   0.558  -1.139  1.00  0.00     0.025 C 
HETATM   34  C11 UNL     1       6.392   0.903  -0.937  1.00  0.00     0.002 C 
HETATM   35  C12 UNL     1       6.582   2.305  -0.440  1.00  0.00     0.000 C 
HETATM   36  C13 UNL     1       5.253   2.990  -0.438  1.00  0.00     0.002 C 
HETATM   37  C14 UNL     1       4.202   2.309   0.378  1.00  0.00     0.025 C 
ENDBRANCH  30  32
ENDBRANCH   4  30
TORSDOF 9
