REMARK  11 active torsions:
REMARK  status: ('A' for Active; 'I' for Inactive)
REMARK    1  A    between atoms: C2_3  and  C3_5 
REMARK    2  A    between atoms: C4_6  and  C5_7 
REMARK    3  A    between atoms: C5_7  and  O2_8 
REMARK    4  A    between atoms: C5_7  and  N2_10 
REMARK    5  A    between atoms: N2_10  and  C6_11 
REMARK    6  A    between atoms: N2_10  and  C13_23 
REMARK    7  A    between atoms: C6_11  and  C7_12 
REMARK       I    between atoms: C7_12  and  N3_14 
REMARK    8  A    between atoms: N3_14  and  C8_16 
REMARK    9  A    between atoms: C8_16  and  C9_17 
REMARK   10  A    between atoms: C8_16  and  C10_20 
REMARK   11  A    between atoms: C13_23  and  C14_24 
ROOT
HETATM    1  C1  UNL     1       2.027   4.130  -0.286  1.00  0.00     0.232 C 
HETATM    2  N1  UNL     1       2.400   2.947   0.251  1.00  0.00    -0.395 NA
HETATM    3  C2  UNL     1       2.782   1.735   0.802  1.00  0.00     0.296 C 
HETATM    4  O1  UNL     1       2.729   1.418   1.998  1.00  0.00    -0.257 OA
ENDROOT
BRANCH   3   5
HETATM    5  C3  UNL     1       3.338   0.612  -0.062  1.00  0.00     0.125 C 
HETATM    6  C4  UNL     1       2.577  -0.689   0.269  1.00  0.00     0.095 C 
HETATM    7  C17 UNL     1       2.818  -1.666  -0.824  1.00  0.00     0.023 C 
HETATM    8  C18 UNL     1       3.526  -2.890  -0.290  1.00  0.00     0.028 C 
HETATM    9  C19 UNL     1       1.591  -2.061  -1.562  1.00  0.00     0.028 C 
HETATM   10  S1  UNL     1       3.945  -1.065  -2.124  1.00  0.00    -0.087 SA
HETATM   11  S2  UNL     1       5.648  -0.333  -1.082  1.00  0.00    -0.086 SA
HETATM   12  C20 UNL     1       4.768   0.631   0.212  1.00  0.00     0.025 C 
HETATM   13  C21 UNL     1       5.224   0.104   1.531  1.00  0.00     0.028 C 
HETATM   14  C22 UNL     1       5.385   2.016   0.076  1.00  0.00     0.028 C 
BRANCH   6  15
HETATM   15  C5  UNL     1       1.168  -0.346   0.336  1.00  0.00     0.124 C 
BRANCH  15  16
HETATM   16  O2  UNL     1       0.858   0.582  -0.547  1.00  0.00    -0.349 OA
ATOM     17  H2  UNL     1      -0.064   0.806  -0.503  1.00  0.00     0.219 HD
ENDBRANCH  15  16
BRANCH  15  18
HETATM   18  N2  UNL     1       0.035  -0.729   1.102  1.00  0.00    -0.334 N 
BRANCH  18  19
HETATM   19  C6  UNL     1      -1.102   0.185   0.829  1.00  0.00     0.232 C 
BRANCH  19  20
HETATM   20  C7  UNL     1      -1.939  -0.042  -0.303  1.00  0.00     0.236 C 
HETATM   21  O3  UNL     1      -1.856  -0.979  -1.113  1.00  0.00    -0.272 OA
HETATM   22  N3  UNL     1      -2.984   0.891  -0.569  1.00  0.00    -0.346 N 
ATOM     23  H3  UNL     1      -3.106   1.669   0.079  1.00  0.00     0.163 HD
BRANCH  22  24
HETATM   24  C8  UNL     1      -3.885   0.804  -1.702  1.00  0.00     0.177 C 
BRANCH  24  25
HETATM   25  C9  UNL     1      -3.646   2.004  -2.583  1.00  0.00     0.254 C 
HETATM   26  N4  UNL     1      -4.341   2.226  -3.787  1.00  0.00    -0.060 NA
HETATM   27  O4  UNL     1      -2.788   2.875  -2.258  1.00  0.00    -0.275 OA
ENDBRANCH  24  25
BRANCH  24  28
HETATM   28  C10 UNL     1      -5.288   0.888  -1.155  1.00  0.00     0.009 C 
HETATM   29  C11 UNL     1      -6.319   0.808  -2.253  1.00  0.00     0.012 C 
HETATM   30  C12 UNL     1      -5.514   2.182  -0.402  1.00  0.00     0.012 C 
ENDBRANCH  24  28
ENDBRANCH  22  24
ENDBRANCH  19  20
ENDBRANCH  18  19
BRANCH  18  31
HETATM   31  C13 UNL     1      -0.163  -1.728   2.054  1.00  0.00     0.091 C 
BRANCH  31  32
HETATM   32  C14 UNL     1      -0.666  -3.074   1.968  1.00  0.00     0.062 C 
HETATM   33  C15 UNL     1      -0.596  -3.607   3.476  1.00  0.00     0.038 C 
HETATM   34  C16 UNL     1      -2.116  -3.321   1.672  1.00  0.00     0.038 C 
HETATM   35 CL1  UNL     1       0.337  -4.319   1.200  1.00  0.00    -0.114 Cl
ENDBRANCH  31  32
ENDBRANCH  18  31
ENDBRANCH  15  18
ENDBRANCH   6  15
ENDBRANCH   3   5
TORSDOF 10
