REMARK  15 active torsions:
REMARK  status: ('A' for Active; 'I' for Inactive)
REMARK    1  A    between atoms: C2_2  and  C3_3 
REMARK    2  A    between atoms: C3_3  and  C4_4 
REMARK    3  A    between atoms: C8_10  and  C9_11 
REMARK       I    between atoms: C9_11  and  N1_13 
REMARK    4  A    between atoms: N1_13  and  C10_15 
REMARK    5  A    between atoms: C10_15  and  C11_16 
REMARK    6  A    between atoms: C11_16  and  N2_17 
REMARK    7  A    between atoms: N3_20  and  C14_21 
REMARK    8  A    between atoms: C14_21  and  O2_22 
REMARK    9  A    between atoms: C14_21  and  C15_24 
REMARK   10  A    between atoms: C15_24  and  O3_25 
REMARK   11  A    between atoms: C15_24  and  C16_27 
REMARK   12  A    between atoms: C16_27  and  C17_28 
REMARK   13  A    between atoms: C16_27  and  C23_38 
REMARK   14  A    between atoms: C17_28  and  C18_30 
REMARK       I    between atoms: C18_30  and  N4_32 
REMARK   15  A    between atoms: N4_32  and  C19_34 
ROOT
HETATM    1  C14 UNL     1      -0.233  -0.966   1.298  1.00  0.00     0.148 C 
ENDROOT
BRANCH   1   2
HETATM    2  N3  UNL     1      -1.462  -1.580   1.038  1.00  0.00    -0.323 N 
HETATM    3  C4  UNL     1      -1.568  -2.949   0.571  1.00  0.00     0.097 C 
HETATM    4  C5  UNL     1      -2.856  -3.623   0.910  1.00  0.00     0.105 C 
HETATM    5  C6  UNL     1      -3.626  -2.979   2.039  1.00  0.00     0.251 C 
HETATM    6  F1  UNL     1      -4.768  -3.702   2.285  1.00  0.00    -0.206 F 
HETATM    7  F2  UNL     1      -2.836  -3.079   3.166  1.00  0.00    -0.206 F 
HETATM    8  C7  UNL     1      -3.857  -1.521   1.778  1.00  0.00     0.142 C 
HETATM    9  C8  UNL     1      -2.701  -0.805   1.222  1.00  0.00     0.087 C 
BRANCH   3  10
HETATM   10  C3  UNL     1      -1.170  -3.061  -0.876  1.00  0.00     0.026 C 
BRANCH  10  11
HETATM   11  C2  UNL     1      -0.933  -4.414  -1.437  1.00  0.00    -0.002 C 
HETATM   12  C1  UNL     1      -2.056  -5.377  -1.479  1.00  0.00     0.005 C 
ENDBRANCH  10  11
ENDBRANCH   3  10
BRANCH   9  13
HETATM   13  C9  UNL     1      -2.997   0.123   0.114  1.00  0.00     0.264 C 
HETATM   14  O1  UNL     1      -4.144   0.691   0.180  1.00  0.00    -0.266 OA
HETATM   15  N1  UNL     1      -2.184   0.451  -0.979  1.00  0.00    -0.354 N 
ATOM     16  H1  UNL     1      -1.273  -0.006  -1.031  1.00  0.00     0.162 HD
BRANCH  15  17
HETATM   17  C10 UNL     1      -2.513   1.374  -2.039  1.00  0.00     0.153 C 
BRANCH  17  18
HETATM   18  C11 UNL     1      -2.704   2.737  -1.491  1.00  0.00     0.291 C 
BRANCH  18  19
HETATM   19  N2  UNL     1      -3.026   3.729  -2.496  1.00  0.00     0.081 N 
HETATM   20  C12 UNL     1      -4.333   3.523  -3.075  1.00  0.00     0.309 C 
HETATM   21  C13 UNL     1      -2.843   5.077  -2.012  1.00  0.00     0.309 C 
ENDBRANCH  18  19
ENDBRANCH  17  18
ENDBRANCH  15  17
ENDBRANCH   9  13
ENDBRANCH   1   2
BRANCH   1  22
HETATM   22  O2  UNL     1      -0.338   0.287   1.665  1.00  0.00    -0.347 OA
ATOM     23  H2  UNL     1       0.497   0.704   1.842  1.00  0.00     0.219 HD
ENDBRANCH   1  22
BRANCH   1  24
HETATM   24  C15 UNL     1       1.105  -1.454   1.230  1.00  0.00     0.205 C 
BRANCH  24  25
HETATM   25  O3  UNL     1       1.207  -2.804   1.508  1.00  0.00    -0.387 OA
ATOM     26  H3  UNL     1       2.098  -3.129   1.463  1.00  0.00     0.210 HD
ENDBRANCH  24  25
BRANCH  24  27
HETATM   27  C16 UNL     1       2.087  -0.722   2.120  1.00  0.00     0.109 C 
BRANCH  27  28
HETATM   28  C17 UNL     1       2.206   0.705   1.871  1.00  0.00     0.224 C 
HETATM   29  O4  UNL     1       1.982   1.492   2.871  1.00  0.00    -0.287 OA
BRANCH  28  30
HETATM   30  C18 UNL     1       2.545   1.338   0.645  1.00  0.00     0.288 C 
HETATM   31  O5  UNL     1       2.772   0.679  -0.394  1.00  0.00    -0.264 OA
HETATM   32  N4  UNL     1       2.640   2.764   0.546  1.00  0.00    -0.346 N 
ATOM     33  H4  UNL     1       2.459   3.325   1.378  1.00  0.00     0.163 HD
BRANCH  32  34
HETATM   34  C19 UNL     1       2.978   3.433  -0.670  1.00  0.00     0.022 C 
HETATM   35  C20 UNL     1       3.000   4.933  -0.473  1.00  0.00     0.037 C 
HETATM   36  C21 UNL     1       4.359   3.039  -1.184  1.00  0.00     0.037 C 
HETATM   37  C22 UNL     1       2.011   3.144  -1.799  1.00  0.00     0.037 C 
ENDBRANCH  32  34
ENDBRANCH  28  30
ENDBRANCH  27  28
BRANCH  27  38
HETATM   38  C23 UNL     1       3.375  -1.452   2.270  1.00  0.00    -0.038 C 
HETATM   39  C24 UNL     1       4.114  -1.738   0.982  1.00  0.00     0.015 C 
HETATM   40  C25 UNL     1       4.292  -0.473   3.084  1.00  0.00     0.015 C 
HETATM   41  C26 UNL     1       3.358  -2.691   3.099  1.00  0.00     0.015 C 
ENDBRANCH  27  38
ENDBRANCH  24  27
ENDBRANCH   1  24
TORSDOF 15
