REMARK  10 active torsions:
REMARK  status: ('A' for Active; 'I' for Inactive)
REMARK    1  A    between atoms: N1_2  and  S1_4 
REMARK    2  A    between atoms: S1_4  and  N2_7 
REMARK    3  A    between atoms: N2_7  and  C3_9 
REMARK    4  A    between atoms: C3_9  and  C4_10 
REMARK    5  A    between atoms: C4_10  and  C5_13 
REMARK    6  A    between atoms: C6_15  and  C7_16 
REMARK       I    between atoms: C7_16  and  N3_18 
REMARK    7  A    between atoms: N3_18  and  C8_20 
REMARK    8  A    between atoms: C8_20  and  C9_21 
REMARK    9  A    between atoms: C8_20  and  C18_34 
REMARK       I    between atoms: C9_21  and  N4_23 
REMARK   10  A    between atoms: N4_23  and  C10_25 
ROOT
HETATM    1  C7  UNL     1       0.666  -2.279   0.864  1.00  0.00     0.250 C 
HETATM    2  O4  UNL     1      -0.220  -3.124   1.297  1.00  0.00    -0.271 OA
HETATM    3  N3  UNL     1       0.162  -0.961   0.739  1.00  0.00    -0.345 N 
ATOM      4  H3  UNL     1       0.776  -0.212   0.417  1.00  0.00     0.163 HD
ENDROOT
BRANCH   3   5
HETATM    5  C8  UNL     1      -1.243  -0.664   1.071  1.00  0.00     0.184 C 
BRANCH   5   6
HETATM    6  C9  UNL     1      -1.974  -0.545  -0.221  1.00  0.00     0.241 C 
HETATM    7  O5  UNL     1      -1.357  -0.258  -1.269  1.00  0.00    -0.271 OA
HETATM    8  N4  UNL     1      -3.398  -0.764  -0.274  1.00  0.00    -0.350 N 
ATOM      9  H4  UNL     1      -3.921  -0.999   0.569  1.00  0.00     0.163 HD
BRANCH   8  10
HETATM   10  C10 UNL     1      -4.078  -0.641  -1.571  1.00  0.00     0.128 C 
HETATM   11  C11 UNL     1      -4.316  -2.070  -2.115  1.00  0.00     0.109 C 
HETATM   12  S2  UNL     1      -5.706  -2.457  -0.950  1.00  0.00    -0.127 SA
HETATM   13  C12 UNL     1      -6.430  -0.798  -1.084  1.00  0.00     0.009 A 
HETATM   14  C13 UNL     1      -7.723  -0.345  -0.909  1.00  0.00     0.019 A 
HETATM   15  C17 UNL     1      -5.389   0.009  -1.460  1.00  0.00    -0.018 A 
HETATM   16  C14 UNL     1      -8.028   0.970  -1.111  1.00  0.00     0.001 A 
HETATM   17  C15 UNL     1      -6.997   1.822  -1.494  1.00  0.00     0.001 A 
HETATM   18  C16 UNL     1      -5.725   1.368  -1.665  1.00  0.00     0.011 A 
ENDBRANCH   8  10
ENDBRANCH   5   6
BRANCH   5  19
HETATM   19  C18 UNL     1      -1.359   0.599   1.880  1.00  0.00    -0.022 C 
HETATM   20  C19 UNL     1      -2.819   0.877   2.211  1.00  0.00     0.017 C 
HETATM   21  C20 UNL     1      -0.629   0.459   3.192  1.00  0.00     0.017 C 
HETATM   22  C21 UNL     1      -0.880   1.807   1.107  1.00  0.00     0.017 C 
ENDBRANCH   5  19
ENDBRANCH   3   5
BRANCH   1  23
HETATM   23  C6  UNL     1       1.980  -2.805   0.594  1.00  0.00     0.249 A 
HETATM   24  C5  UNL     1       3.059  -2.390  -0.232  1.00  0.00     0.234 A 
HETATM   25  O3  UNL     1       2.996  -1.828   1.027  1.00  0.00    -0.359 OA
BRANCH  24  26
HETATM   26  C4  UNL     1       3.038  -1.606  -1.502  1.00  0.00     0.288 C 
HETATM   27  F1  UNL     1       3.446  -2.527  -2.520  1.00  0.00    -0.202 F 
HETATM   28  F2  UNL     1       1.883  -1.022  -1.868  1.00  0.00    -0.202 F 
BRANCH  26  29
HETATM   29  C3  UNL     1       4.233  -0.625  -1.507  1.00  0.00     0.215 C 
BRANCH  29  30
HETATM   30  N2  UNL     1       4.025   0.411  -0.516  1.00  0.00    -0.301 N 
ATOM     31  H2  UNL     1       3.217   0.501   0.100  1.00  0.00     0.173 HD
BRANCH  30  32
HETATM   32  S1  UNL     1       5.392   1.466  -0.567  1.00  0.00     0.298 S 
HETATM   33  O1  UNL     1       5.029   2.869  -0.181  1.00  0.00    -0.188 OA
HETATM   34  O2  UNL     1       6.005   1.497  -1.937  1.00  0.00    -0.188 OA
BRANCH  32  35
HETATM   35  N1  UNL     1       6.568   0.792   0.515  1.00  0.00    -0.202 NA
HETATM   36  C1  UNL     1       7.455  -0.129  -0.185  1.00  0.00     0.130 C 
HETATM   37  C2  UNL     1       7.324   1.822   1.170  1.00  0.00     0.130 C 
ENDBRANCH  32  35
ENDBRANCH  30  32
ENDBRANCH  29  30
ENDBRANCH  26  29
ENDBRANCH  24  26
ENDBRANCH   1  23
TORSDOF 10
