REMARK  11 active torsions:
REMARK  status: ('A' for Active; 'I' for Inactive)
REMARK    1  A    between atoms: N1_2  and  N2_4 
REMARK       I    between atoms: N2_4  and  C3_6 
REMARK    2  A    between atoms: C3_6  and  C4_8 
REMARK    3  A    between atoms: C4_8  and  N3_9 
REMARK    4  A    between atoms: N3_9  and  C5_11 
REMARK    5  A    between atoms: C5_11  and  C6_12 
REMARK    6  A    between atoms: C5_11  and  C8_17 
REMARK    7  A    between atoms: C6_12  and  O2_13 
REMARK    8  A    between atoms: O2_13  and  C7_14 
REMARK    9  A    between atoms: C8_17  and  C9_19 
REMARK   10  A    between atoms: C23_33  and  O5_34 
REMARK   11  A    between atoms: O5_34  and  C24_35 
ROOT
HETATM    1  C9  UNL     1       1.259  -0.737  -0.569  1.00  0.00     0.062 C 
HETATM    2  C10 UNL     1       1.448  -1.593   0.657  1.00  0.00     0.013 C 
HETATM    3  C11 UNL     1       0.098  -2.376   0.641  1.00  0.00     0.006 C 
HETATM    4  C12 UNL     1      -0.818  -1.224   0.580  1.00  0.00    -0.005 C 
HETATM    5  C13 UNL     1      -0.158  -0.345  -0.508  1.00  0.00     0.001 C 
HETATM    6  C14 UNL     1      -0.531   1.032  -0.107  1.00  0.00     0.006 C 
HETATM    7  C15 UNL     1      -1.925   1.020   0.537  1.00  0.00     0.006 C 
HETATM    8  C16 UNL     1      -2.818  -0.090  -0.019  1.00  0.00    -0.003 C 
HETATM    9  C17 UNL     1      -2.192  -1.443   0.026  1.00  0.00    -0.005 C 
HETATM   10  C18 UNL     1      -2.940  -2.527   0.692  1.00  0.00     0.006 C 
HETATM   11  C19 UNL     1      -3.734  -2.089   1.870  1.00  0.00     0.016 C 
HETATM   12  C20 UNL     1      -4.575  -0.899   1.625  1.00  0.00     0.031 A 
HETATM   13  C21 UNL     1      -4.990  -0.290   2.962  1.00  0.00     0.022 C 
HETATM   14  C22 UNL     1      -4.156   0.056   0.589  1.00  0.00     0.039 A 
HETATM   15  C23 UNL     1      -5.342  -0.267  -0.290  1.00  0.00     0.200 A 
HETATM   16  C27 UNL     1      -5.781  -1.271   0.752  1.00  0.00     0.277 A 
HETATM   17  F1  UNL     1      -5.839  -2.568   0.341  1.00  0.00    -0.203 F 
HETATM   18  F2  UNL     1      -6.986  -0.954   1.374  1.00  0.00    -0.203 F 
ENDROOT
BRANCH   1  19
HETATM   19  C8  UNL     1       2.252   0.266  -0.865  1.00  0.00     0.156 C 
HETATM   20  O4  UNL     1       1.881   1.422  -0.966  1.00  0.00    -0.295 OA
BRANCH  19  21
HETATM   21  C5  UNL     1       3.708   0.020  -1.067  1.00  0.00     0.175 C 
BRANCH  21  22
HETATM   22  N3  UNL     1       4.403   1.213  -1.455  1.00  0.00    -0.381 N 
ATOM     23  H3  UNL     1       4.642   1.388  -2.431  1.00  0.00     0.160 HD
BRANCH  22  24
HETATM   24  C4  UNL     1       4.745   2.135  -0.449  1.00  0.00     0.160 C 
BRANCH  24  25
HETATM   25  C3  UNL     1       5.824   1.580   0.413  1.00  0.00     0.270 C 
HETATM   26  N2  UNL     1       6.327   2.352   1.527  1.00  0.00    -0.285 N 
ATOM     27  H2  UNL     1       5.938   3.274   1.722  1.00  0.00     0.184 HD
HETATM   28  O1  UNL     1       6.354   0.453   0.245  1.00  0.00    -0.266 OA
BRANCH  26  29
HETATM   29  N1  UNL     1       7.329   1.849   2.327  1.00  0.00    -0.237 NA
HETATM   30  C1  UNL     1       7.677   2.842   3.317  1.00  0.00     0.135 C 
HETATM   31  C2  UNL     1       6.969   0.585   2.929  1.00  0.00     0.135 C 
ENDBRANCH  26  29
ENDBRANCH  24  25
ENDBRANCH  22  24
ENDBRANCH  21  22
BRANCH  21  32
HETATM   32  C6  UNL     1       4.012  -1.051  -2.046  1.00  0.00     0.213 C 
BRANCH  32  33
HETATM   33  O2  UNL     1       3.634  -0.735  -3.370  1.00  0.00    -0.304 OA
BRANCH  33  34
HETATM   34  C7  UNL     1       3.876  -1.692  -4.340  1.00  0.00     0.372 C 
HETATM   35  N4  UNL     1       3.529  -1.446  -5.670  1.00  0.00    -0.032 NA
HETATM   36  O3  UNL     1       4.406  -2.782  -4.014  1.00  0.00    -0.242 OA
ENDBRANCH  33  34
ENDBRANCH  32  33
ENDBRANCH  21  32
ENDBRANCH  19  21
ENDBRANCH   1  19
BRANCH  15  37
HETATM   37  O5  UNL     1      -6.300   0.724  -0.400  1.00  0.00    -0.374 OA
BRANCH  37  38
HETATM   38  C24 UNL     1      -6.674   1.010  -1.710  1.00  0.00     0.122 A 
HETATM   39  C25 UNL     1      -8.099   1.302  -2.027  1.00  0.00     0.034 A 
HETATM   40  C26 UNL     1      -7.107   2.440  -1.932  1.00  0.00     0.034 A 
ENDBRANCH  37  38
ENDBRANCH  15  37
TORSDOF 11
