REMARK  10 active torsions:
REMARK  status: ('A' for Active; 'I' for Inactive)
REMARK    1  A    between atoms: C2_2  and  C5_5 
REMARK    2  A    between atoms: C5_5  and  N1_6 
REMARK    3  A    between atoms: C5_5  and  C14_27 
REMARK       I    between atoms: N1_6  and  C6_8 
REMARK    4  A    between atoms: C6_8  and  C7_10 
REMARK       I    between atoms: N2_17  and  C11_18 
REMARK    5  A    between atoms: C11_18  and  C12_20 
REMARK    6  A    between atoms: C12_20  and  N3_21 
REMARK    7  A    between atoms: N3_21  and  S2_23 
REMARK    8  A    between atoms: C14_27  and  C15_28 
REMARK    9  A    between atoms: C14_27  and  C22_35 
REMARK   10  A    between atoms: C15_28  and  C16_29 
ROOT
HETATM    1  N1  UNL     1       0.441  -0.312  -1.501  1.00  0.00    -0.353 N 
ATOM      2  H1  UNL     1       0.969   0.157  -0.765  1.00  0.00     0.163 HD
HETATM    3  C6  UNL     1       1.155  -0.672  -2.632  1.00  0.00     0.242 C 
HETATM    4  O1  UNL     1       0.653  -1.224  -3.623  1.00  0.00    -0.271 OA
ENDROOT
BRANCH   3   5
HETATM    5  C7  UNL     1       2.619  -0.412  -2.709  1.00  0.00     0.197 C 
HETATM    6  C8  UNL     1       3.137   0.084  -3.996  1.00  0.00     0.115 C 
HETATM    7  C9  UNL     1       2.768   1.414  -4.495  1.00  0.00     0.256 C 
HETATM    8  F1  UNL     1       1.590   1.382  -5.221  1.00  0.00    -0.205 F 
HETATM    9  F2  UNL     1       3.745   1.746  -5.472  1.00  0.00    -0.205 F 
HETATM   10  C10 UNL     1       2.742   2.558  -3.559  1.00  0.00     0.176 C 
HETATM   11  S1  UNL     1       3.207   2.109  -1.863  1.00  0.00    -0.044 SA
HETATM   12  N2  UNL     1       3.137   0.377  -1.631  1.00  0.00    -0.276 N 
HETATM   13  C11 UNL     1       3.576  -0.196  -0.429  1.00  0.00     0.248 C 
HETATM   14  O2  UNL     1       3.541  -1.460  -0.221  1.00  0.00    -0.271 OA
BRANCH  13  15
HETATM   15  C12 UNL     1       4.114   0.623   0.694  1.00  0.00     0.235 C 
BRANCH  15  16
HETATM   16  N3  UNL     1       4.495  -0.166   1.820  1.00  0.00    -0.311 N 
ATOM     17  H3  UNL     1       4.415  -1.182   1.869  1.00  0.00     0.172 HD
BRANCH  16  18
HETATM   18  S2  UNL     1       5.109   0.828   3.087  1.00  0.00     0.223 S 
HETATM   19  C13 UNL     1       3.834   1.961   3.627  1.00  0.00     0.185 C 
HETATM   20  O3  UNL     1       5.416  -0.027   4.310  1.00  0.00    -0.206 OA
HETATM   21  O4  UNL     1       6.337   1.573   2.726  1.00  0.00    -0.206 OA
ENDBRANCH  16  18
ENDBRANCH  15  16
ENDBRANCH  13  15
ENDBRANCH   3   5
BRANCH   1  22
HETATM   22  C5  UNL     1      -1.020  -0.532  -1.234  1.00  0.00     0.104 C 
BRANCH  22  23
HETATM   23  C2  UNL     1      -1.657   0.758  -1.474  1.00  0.00    -0.030 C 
HETATM   24  C1  UNL     1      -1.137   1.875  -0.542  1.00  0.00     0.016 C 
HETATM   25  C3  UNL     1      -3.113   0.920  -1.581  1.00  0.00     0.016 C 
HETATM   26  C4  UNL     1      -1.144   1.270  -2.864  1.00  0.00     0.016 C 
ENDBRANCH  22  23
BRANCH  22  27
HETATM   27  C14 UNL     1      -1.132  -1.272   0.024  1.00  0.00     0.099 C 
BRANCH  27  28
HETATM   28  C15 UNL     1      -2.328  -1.812   0.648  1.00  0.00     0.020 C 
BRANCH  28  29
HETATM   29  C16 UNL     1      -3.500  -1.115   1.140  1.00  0.00    -0.014 C 
HETATM   30  C17 UNL     1      -4.423  -2.222   1.744  1.00  0.00     0.005 C 
HETATM   31  C18 UNL     1      -4.005  -2.583   3.135  1.00  0.00     0.000 C 
HETATM   32  C19 UNL     1      -4.152  -1.405   4.069  1.00  0.00     0.000 C 
HETATM   33  C20 UNL     1      -4.398  -0.156   3.267  1.00  0.00     0.000 C 
HETATM   34  C21 UNL     1      -3.281  -0.097   2.217  1.00  0.00     0.005 C 
ENDBRANCH  28  29
ENDBRANCH  27  28
BRANCH  27  35
HETATM   35  C22 UNL     1      -0.188  -2.475  -0.055  1.00  0.00     0.237 C 
HETATM   36  N4  UNL     1       0.562  -2.920   1.057  1.00  0.00    -0.062 NA
HETATM   37  O5  UNL     1      -0.097  -3.063  -1.129  1.00  0.00    -0.276 OA
ENDBRANCH  27  35
ENDBRANCH  22  27
ENDBRANCH   1  22
TORSDOF 10
