REMARK  9 active torsions:
REMARK  status: ('A' for Active; 'I' for Inactive)
REMARK    1  A    between atoms: C2_2  and  C3_5 
REMARK    2  A    between atoms: C3_5  and  C4_6 
REMARK    3  A    between atoms: C4_6  and  C5_7 
REMARK       I    between atoms: C5_7  and  N1_9 
REMARK    4  A    between atoms: N1_9  and  C6_11 
REMARK    5  A    between atoms: C6_11  and  C7_12 
REMARK    6  A    between atoms: C6_11  and  C11_22 
REMARK       I    between atoms: C7_12  and  N2_14 
REMARK    7  A    between atoms: N2_14  and  S1_16 
REMARK    8  A    between atoms: S1_16  and  C8_19 
REMARK    9  A    between atoms: C16_28  and  C18_30 
ROOT
HETATM    1  C6  UNL     1       1.344  -0.103  -0.235  1.00  0.00     0.186 C 
ENDROOT
BRANCH   1   2
HETATM    2  N1  UNL     1       2.017   1.105  -0.773  1.00  0.00    -0.347 N 
HETATM    3  C5  UNL     1       2.854   1.895   0.105  1.00  0.00     0.218 C 
HETATM    4  O1  UNL     1       2.979   1.529   1.287  1.00  0.00    -0.274 OA
ATOM      5  H1  UNL     1       1.892   1.375  -1.749  1.00  0.00     0.163 HD
BRANCH   3   6
HETATM    6  C4  UNL     1       3.522   3.085  -0.406  1.00  0.00     0.108 C 
BRANCH   6   7
HETATM    7  C3  UNL     1       4.618   3.663   0.412  1.00  0.00     0.088 C 
BRANCH   7   8
HETATM    8  C2  UNL     1       5.855   2.848   0.587  1.00  0.00     0.240 C 
HETATM    9  C1  UNL     1       6.808   3.695   1.463  1.00  0.00     0.090 C 
HETATM   10  F1  UNL     1       5.657   1.642   1.140  1.00  0.00    -0.207 F 
HETATM   11  F2  UNL     1       6.547   2.701  -0.617  1.00  0.00    -0.207 F 
ENDBRANCH   7   8
ENDBRANCH   6   7
ENDBRANCH   3   6
ENDBRANCH   1   2
BRANCH   1  12
HETATM   12  C7  UNL     1       1.763  -1.244  -1.069  1.00  0.00     0.254 C 
HETATM   13  O2  UNL     1       2.413  -1.041  -2.123  1.00  0.00    -0.270 OA
HETATM   14  N2  UNL     1       1.454  -2.571  -0.711  1.00  0.00    -0.252 N 
ATOM     15  H2  UNL     1       0.932  -2.767   0.143  1.00  0.00     0.181 HD
BRANCH  14  16
HETATM   16  S1  UNL     1       1.968  -3.861  -1.734  1.00  0.00     0.237 S 
HETATM   17  O3  UNL     1       1.909  -3.392  -3.174  1.00  0.00    -0.205 OA
HETATM   18  O4  UNL     1       0.985  -5.004  -1.637  1.00  0.00    -0.205 OA
BRANCH  16  19
HETATM   19  C8  UNL     1       3.578  -4.449  -1.353  1.00  0.00     0.130 A 
HETATM   20  C9  UNL     1       4.035  -4.505   0.055  1.00  0.00     0.023 A 
HETATM   21  C10 UNL     1       4.667  -3.531  -0.946  1.00  0.00     0.023 A 
ENDBRANCH  16  19
ENDBRANCH  14  16
ENDBRANCH   1  12
BRANCH   1  22
HETATM   22  C11 UNL     1      -0.096   0.226  -0.247  1.00  0.00     0.056 C 
HETATM   23  C12 UNL     1      -0.597   0.515  -1.649  1.00  0.00     0.014 C 
HETATM   24  C13 UNL     1      -1.932   1.151  -1.408  1.00  0.00     0.027 C 
HETATM   25  C14 UNL     1      -2.905   0.371  -0.579  1.00  0.00     0.092 C 
HETATM   26  N3  UNL     1      -2.354  -0.511   0.346  1.00  0.00    -0.369 N 
HETATM   27  C22 UNL     1      -3.830   1.457  -0.026  1.00  0.00    -0.027 C 
HETATM   28  C15 UNL     1      -1.012  -0.908   0.213  1.00  0.00     0.067 C 
HETATM   29  C16 UNL     1      -3.166  -1.350   1.091  1.00  0.00     0.117 C 
HETATM   30  C17 UNL     1      -3.185  -0.821   2.545  1.00  0.00     0.050 C 
HETATM   31  C19 UNL     1      -4.590  -1.518   0.597  1.00  0.00     0.042 C 
HETATM   32  C20 UNL     1      -5.384  -0.380   0.235  1.00  0.00     0.004 C 
HETATM   33  C21 UNL     1      -5.007   0.962   0.723  1.00  0.00     0.011 C 
HETATM   34  C23 UNL     1      -4.376   2.119  -1.311  1.00  0.00     0.017 C 
HETATM   35  C24 UNL     1      -3.097   2.548   0.690  1.00  0.00     0.017 C 
BRANCH  29  36
HETATM   36  C18 UNL     1      -2.743  -2.766   1.227  1.00  0.00     0.202 C 
HETATM   37  O5  UNL     1      -1.781  -3.323   0.687  1.00  0.00    -0.646 OA
HETATM   38  O6  UNL     1      -3.485  -3.648   2.062  1.00  0.00    -0.646 OA
ENDBRANCH  29  36
ENDBRANCH   1  22
TORSDOF 9
