REMARK  14 active torsions:
REMARK  status: ('A' for Active; 'I' for Inactive)
REMARK    1  A    between atoms: O1_2  and  C2_3 
REMARK    2  A    between atoms: C2_3  and  C3_4 
REMARK    3  A    between atoms: C3_4  and  O2_5 
REMARK    4  A    between atoms: C3_4  and  C5_7 
REMARK    5  A    between atoms: C15_19  and  O5_20 
REMARK    6  A    between atoms: N1_22  and  C16_23 
REMARK    7  A    between atoms: C16_23  and  O6_24 
REMARK    8  A    between atoms: C16_23  and  C17_26 
REMARK    9  A    between atoms: C17_26  and  C18_27 
REMARK   10  A    between atoms: C18_27  and  C19_28 
REMARK   11  A    between atoms: C20_29  and  C22_31 
REMARK   12  A    between atoms: C22_31  and  O7_32 
REMARK   13  A    between atoms: C23_34  and  C24_35 
REMARK   14  A    between atoms: C24_35  and  O9_37 
ROOT
HETATM    1  C5  UNL     1      -2.322   0.327  -0.602  1.00  0.00     0.147 C 
HETATM    2  O3  UNL     1      -3.677   0.245  -1.037  1.00  0.00    -0.337 OA
HETATM    3  C6  UNL     1      -4.211  -0.907  -0.550  1.00  0.00     0.158 C 
HETATM    4  C7  UNL     1      -4.671  -1.732  -1.774  1.00  0.00     0.078 C 
HETATM    5  C8  UNL     1      -5.504  -0.751   0.237  1.00  0.00     0.078 C 
HETATM    6  O4  UNL     1      -3.297  -1.516   0.241  1.00  0.00    -0.346 OA
HETATM    7  C9  UNL     1      -2.330  -0.513   0.604  1.00  0.00     0.176 C 
HETATM    8  C10 UNL     1      -1.094  -1.384   0.836  1.00  0.00     0.021 C 
HETATM    9  C11 UNL     1      -1.339  -2.149   2.078  1.00  0.00     0.021 C 
HETATM   10  C12 UNL     1      -1.064  -2.313  -0.378  1.00  0.00     0.020 C 
HETATM   11  C13 UNL     1      -0.106  -3.460  -0.283  1.00  0.00     0.013 C 
HETATM   12  C14 UNL     1      -0.573  -1.325  -1.371  1.00  0.00     0.124 C 
HETATM   13  C15 UNL     1      -1.477  -0.189  -1.709  1.00  0.00     0.181 C 
HETATM   14  N1  UNL     1       0.645  -0.857  -0.663  1.00  0.00    -0.333 N 
HETATM   15  C23 UNL     1       0.191  -0.636   0.698  1.00  0.00     0.198 C 
ENDROOT
BRANCH  14  16
HETATM   16  C16 UNL     1       1.941  -0.742  -1.266  1.00  0.00     0.188 C 
BRANCH  16  17
HETATM   17  O6  UNL     1       1.954  -1.183  -2.491  1.00  0.00    -0.340 OA
ATOM     18  H6  UNL     1       2.813  -1.107  -2.890  1.00  0.00     0.220 HD
ENDBRANCH  16  17
BRANCH  16  19
HETATM   19  C17 UNL     1       3.118  -0.240  -0.704  1.00  0.00    -0.073 C 
BRANCH  19  20
HETATM   20  C18 UNL     1       4.010   0.260  -0.008  1.00  0.00     0.060 C 
BRANCH  20  21
HETATM   21  C19 UNL     1       5.389   0.337  -0.465  1.00  0.00     0.013 C 
HETATM   22  C20 UNL     1       6.436   0.839   0.075  1.00  0.00    -0.060 C 
HETATM   23  C21 UNL     1       7.778   0.768  -0.646  1.00  0.00     0.045 C 
BRANCH  22  24
HETATM   24  C22 UNL     1       6.483   1.556   1.353  1.00  0.00     0.198 C 
BRANCH  24  25
HETATM   25  O7  UNL     1       6.962   2.874   1.171  1.00  0.00    -0.397 OA
ATOM     26  H7  UNL     1       6.992   3.339   1.999  1.00  0.00     0.209 HD
ENDBRANCH  24  25
ENDBRANCH  22  24
ENDBRANCH  20  21
ENDBRANCH  19  20
ENDBRANCH  16  19
ENDBRANCH  14  16
BRANCH  15  27
HETATM   27  C24 UNL     1       1.143  -1.151   1.731  1.00  0.00     0.282 C 
HETATM   28  O8  UNL     1       1.066  -0.605   2.891  1.00  0.00    -0.263 OA
BRANCH  27  29
HETATM   29  O9  UNL     1       2.058  -2.124   1.559  1.00  0.00    -0.325 OA
HETATM   30  C25 UNL     1       2.947  -2.616   2.532  1.00  0.00     0.213 C 
ENDBRANCH  27  29
ENDBRANCH  15  27
BRANCH  13  31
HETATM   31  O5  UNL     1      -0.612   0.778  -2.251  1.00  0.00    -0.390 OA
ATOM     32  H5  UNL     1      -0.071   0.448  -2.959  1.00  0.00     0.210 HD
ENDBRANCH  13  31
BRANCH   1  33
HETATM   33  C3  UNL     1      -2.224   1.824  -0.328  1.00  0.00     0.184 C 
BRANCH  33  34
HETATM   34  C2  UNL     1      -3.474   2.227   0.539  1.00  0.00     0.202 C 
BRANCH  34  35
HETATM   35  O1  UNL     1      -3.331   3.588   0.771  1.00  0.00    -0.393 OA
HETATM   36  C1  UNL     1      -4.405   4.036   1.575  1.00  0.00     0.201 C 
ENDBRANCH  34  35
ENDBRANCH  33  34
BRANCH  33  37
HETATM   37  O2  UNL     1      -2.390   2.622  -1.420  1.00  0.00    -0.385 OA
HETATM   38  C4  UNL     1      -1.595   3.736  -1.535  1.00  0.00     0.202 C 
ENDBRANCH  33  37
ENDBRANCH   1  33
TORSDOF 14
