REMARK  13 active torsions:
REMARK  status: ('A' for Active; 'I' for Inactive)
REMARK    1  A    between atoms: C2_2  and  C3_3 
REMARK    2  A    between atoms: C2_2  and  C6_11 
REMARK    3  A    between atoms: C3_3  and  O1_4 
REMARK    4  A    between atoms: C3_3  and  O2_6 
REMARK    5  A    between atoms: O2_6  and  C4_7 
REMARK    6  A    between atoms: C4_7  and  C5_8 
REMARK    7  A    between atoms: C8_13  and  O5_14 
REMARK    8  A    between atoms: O5_14  and  C9_15 
REMARK    9  A    between atoms: C13_20  and  O7_21 
REMARK   10  A    between atoms: O7_21  and  C14_22 
REMARK   11  A    between atoms: C18_27  and  O9_28 
REMARK   12  A    between atoms: C18_27  and  C19_30 
REMARK   13  A    between atoms: C22_33  and  O10_34 
ROOT
HETATM    1  C6  UNL     1       1.260   0.511   0.016  1.00  0.00    -0.037 C 
HETATM    2  C7  UNL     1       1.434   1.788  -0.658  1.00  0.00     0.041 C 
HETATM    3  C8  UNL     1       0.445   2.842  -0.954  1.00  0.00     0.057 C 
HETATM    4  C11 UNL     1      -0.958   2.417  -1.373  1.00  0.00     0.073 C 
HETATM    5  C12 UNL     1      -1.202   1.089  -0.811  1.00  0.00     0.034 C 
HETATM    6  C13 UNL     1      -2.530   0.696  -0.226  1.00  0.00     0.169 C 
HETATM    7  C16 UNL     1      -2.141  -0.654   0.386  1.00  0.00    -0.013 A 
HETATM    8  C17 UNL     1      -2.435  -1.875   0.804  1.00  0.00     0.023 A 
HETATM    9  C18 UNL     1      -1.044  -2.196   1.217  1.00  0.00     0.115 A 
HETATM   10  C22 UNL     1      -0.722  -0.851   0.796  1.00  0.00     0.127 A 
HETATM   11  C23 UNL     1       0.277  -0.567  -0.346  1.00  0.00     0.070 C 
HETATM   12  C24 UNL     1      -0.618  -0.072  -1.527  1.00  0.00    -0.030 C 
HETATM   13  C25 UNL     1       0.370   0.272  -2.649  1.00  0.00     0.016 C 
HETATM   14  C26 UNL     1      -1.456  -1.053  -2.172  1.00  0.00     0.016 C 
ENDROOT
BRANCH   1  15
HETATM   15  C2  UNL     1       2.637   0.023   0.342  1.00  0.00    -0.006 C 
HETATM   16  C1  UNL     1       3.096   0.330   1.571  1.00  0.00     0.024 C 
BRANCH  15  17
HETATM   17  C3  UNL     1       3.550  -0.742  -0.535  1.00  0.00     0.291 C 
BRANCH  17  18
HETATM   18  O1  UNL     1       4.002   0.020  -1.623  1.00  0.00    -0.367 OA
ATOM     19  H1  UNL     1       4.588  -0.471  -2.186  1.00  0.00     0.213 HD
ENDBRANCH  17  18
BRANCH  17  20
HETATM   20  O2  UNL     1       3.066  -1.981  -0.880  1.00  0.00    -0.347 OA
BRANCH  20  21
HETATM   21  C4  UNL     1       3.745  -3.067  -0.424  1.00  0.00     0.284 C 
BRANCH  21  22
HETATM   22  C5  UNL     1       5.113  -3.148  -0.895  1.00  0.00     0.197 C 
HETATM   23  O3  UNL     1       5.599  -2.302  -1.669  1.00  0.00    -0.646 OA
HETATM   24  O4  UNL     1       5.900  -4.216  -0.458  1.00  0.00    -0.646 OA
ENDBRANCH  21  22
ENDBRANCH  20  21
ENDBRANCH  17  20
ENDBRANCH  15  17
ENDBRANCH   1  15
BRANCH   3  25
HETATM   25  O5  UNL     1       0.437   3.946  -0.076  1.00  0.00    -0.284 OA
BRANCH  25  26
HETATM   26  C9  UNL     1       0.771   5.223  -0.306  1.00  0.00     0.259 C 
HETATM   27  C10 UNL     1       0.719   6.287   0.703  1.00  0.00     0.126 C 
HETATM   28  O6  UNL     1       1.136   5.453  -1.461  1.00  0.00    -0.265 OA
ENDBRANCH  25  26
ENDBRANCH   3  25
BRANCH  10  29
HETATM   29  O10 UNL     1      -0.484  -0.123   1.986  1.00  0.00    -0.381 OA
ATOM     30  H10 UNL     1       0.421  -0.249   2.247  1.00  0.00     0.211 HD
ENDBRANCH  10  29
BRANCH   9  31
HETATM   31  O9  UNL     1      -0.470  -3.262   0.506  1.00  0.00    -0.382 OA
ATOM     32  H9  UNL     1       0.419  -3.467   0.770  1.00  0.00     0.211 HD
ENDBRANCH   9  31
BRANCH   9  33
HETATM   33  C19 UNL     1      -1.109  -2.622   2.658  1.00  0.00     0.019 C 
HETATM   34  C20 UNL     1      -1.671  -1.690   3.645  1.00  0.00     0.013 C 
HETATM   35  C21 UNL     1      -1.992  -3.883   2.675  1.00  0.00     0.013 C 
ENDBRANCH   9  33
BRANCH   6  36
HETATM   36  O7  UNL     1      -3.606   0.641  -1.061  1.00  0.00    -0.311 OA
BRANCH  36  37
HETATM   37  C14 UNL     1      -4.839   1.241  -0.819  1.00  0.00     0.255 C 
HETATM   38  C15 UNL     1      -5.987   1.174  -1.723  1.00  0.00     0.126 C 
HETATM   39  O8  UNL     1      -4.953   1.880   0.260  1.00  0.00    -0.266 OA
ENDBRANCH  36  37
ENDBRANCH   6  36
TORSDOF 13
