REMARK  12 active torsions:
REMARK  status: ('A' for Active; 'I' for Inactive)
REMARK    1  A    between atoms: O1_2  and  C2_3 
REMARK    2  A    between atoms: C8_9  and  O2_10 
REMARK    3  A    between atoms: O2_10  and  C9_11 
REMARK    4  A    between atoms: C9_11  and  C10_13 
REMARK    5  A    between atoms: C10_13  and  C12_15 
REMARK    6  A    between atoms: C13_16  and  C14_17 
REMARK    7  A    between atoms: N1_18  and  O4_20 
REMARK    8  A    between atoms: C15_22  and  O5_23 
REMARK    9  A    between atoms: C24_36  and  O6_37 
REMARK   10  A    between atoms: O6_37  and  C25_38 
REMARK   11  A    between atoms: C25_38  and  C26_40 
REMARK   12  A    between atoms: C26_40  and  N3_41 
ROOT
HETATM    1  C2  UNL     1      -2.163   1.910  -2.023  1.00  0.00     0.155 C 
HETATM    2  C3  UNL     1      -1.314   0.834  -2.665  1.00  0.00     0.023 C 
HETATM    3  C4  UNL     1      -2.173  -0.409  -2.355  1.00  0.00     0.022 C 
HETATM    4  C5  UNL     1      -1.689  -0.092  -0.932  1.00  0.00     0.023 C 
HETATM    5  C6  UNL     1      -0.425   0.280  -1.586  1.00  0.00     0.008 C 
HETATM    6  C7  UNL     1       0.472   1.176  -0.837  1.00  0.00     0.041 C 
HETATM    7  C8  UNL     1       1.252   0.258   0.129  1.00  0.00     0.161 C 
HETATM    8  C15 UNL     1       0.309  -0.134   1.212  1.00  0.00     0.158 C 
HETATM    9  C16 UNL     1      -0.505  -1.366   0.891  1.00  0.00     0.017 C 
HETATM   10  C17 UNL     1       0.368  -2.448   0.339  1.00  0.00     0.020 C 
HETATM   11  C18 UNL     1      -0.986  -1.921   2.245  1.00  0.00    -0.004 C 
HETATM   12  C19 UNL     1      -1.621  -0.888   3.094  1.00  0.00     0.011 C 
HETATM   13  C20 UNL     1      -1.885  -3.107   2.046  1.00  0.00     0.037 C 
HETATM   14  C21 UNL     1      -2.787  -3.040   0.869  1.00  0.00     0.182 C 
HETATM   15  C22 UNL     1      -3.227  -4.439   0.486  1.00  0.00     0.040 C 
HETATM   16  N2  UNL     1      -2.267  -2.405  -0.299  1.00  0.00    -0.065 N 
ATOM     17  H21 UNL     1      -2.950  -2.348  -1.054  1.00  0.00     0.278 HD
ATOM     18  H22 UNL     1      -1.575  -2.976  -0.784  1.00  0.00     0.278 HD
HETATM   19  C23 UNL     1      -1.742  -1.087   0.095  1.00  0.00     0.208 C 
HETATM   20  C24 UNL     1      -2.470   1.218  -0.717  1.00  0.00     0.172 C 
ENDROOT
BRANCH   7  21
HETATM   21  O2  UNL     1       2.450   0.850   0.561  1.00  0.00    -0.313 OA
BRANCH  21  22
HETATM   22  C9  UNL     1       3.702   0.424   0.240  1.00  0.00     0.266 C 
HETATM   23  O3  UNL     1       3.850  -0.575  -0.498  1.00  0.00    -0.265 OA
BRANCH  22  24
HETATM   24  C10 UNL     1       4.883   1.142   0.766  1.00  0.00     0.104 C 
HETATM   25  C11 UNL     1       4.893   2.585   0.305  1.00  0.00     0.025 C 
BRANCH  24  26
HETATM   26  C12 UNL     1       6.152   0.514   0.348  1.00  0.00    -0.011 C 
HETATM   27  C13 UNL     1       7.045   1.208  -0.308  1.00  0.00     0.016 C 
BRANCH  27  28
HETATM   28  C14 UNL     1       8.326   0.610  -0.742  1.00  0.00     0.113 C 
HETATM   29  N1  UNL     1       9.202   1.288  -1.385  1.00  0.00    -0.281 N 
ATOM     30  H1  UNL     1       8.985   2.263  -1.590  1.00  0.00     0.193 HD
BRANCH  29  31
HETATM   31  O4  UNL     1      10.392   0.811  -1.813  1.00  0.00    -0.290 OA
ATOM     32  H4  UNL     1      11.042   1.314  -2.290  1.00  0.00     0.244 HD
ENDBRANCH  29  31
ENDBRANCH  27  28
ENDBRANCH  24  26
ENDBRANCH  22  24
ENDBRANCH  21  22
ENDBRANCH   7  21
BRANCH   8  33
HETATM   33  O5  UNL     1       0.961  -0.380   2.439  1.00  0.00    -0.392 OA
ATOM     34  H5  UNL     1       0.359  -0.630   3.130  1.00  0.00     0.210 HD
ENDBRANCH   8  33
BRANCH   1  35
HETATM   35  O1  UNL     1      -1.354   3.004  -1.904  1.00  0.00    -0.388 OA
HETATM   36  C1  UNL     1      -1.754   4.126  -2.580  1.00  0.00     0.202 C 
ENDBRANCH   1  35
BRANCH  20  37
HETATM   37  O6  UNL     1      -3.777   0.801  -0.561  1.00  0.00    -0.311 OA
BRANCH  37  38
HETATM   38  C25 UNL     1      -4.526   1.107   0.556  1.00  0.00     0.284 C 
HETATM   39  O7  UNL     1      -3.919   1.789   1.401  1.00  0.00    -0.263 OA
BRANCH  38  40
HETATM   40  C26 UNL     1      -5.937   0.665   0.739  1.00  0.00     0.340 C 
BRANCH  40  41
HETATM   41  N3  UNL     1      -6.419   1.148   1.999  1.00  0.00    -0.070 N 
ATOM     42  H33 UNL     1      -5.821   0.868   2.776  1.00  0.00     0.274 HD
ATOM     43  H32 UNL     1      -6.313   2.158   2.093  1.00  0.00     0.274 HD
ATOM     44  H31 UNL     1      -7.385   0.845   2.124  1.00  0.00     0.274 HD
ENDBRANCH  40  41
ENDBRANCH  38  40
ENDBRANCH  37  38
ENDBRANCH  20  37
TORSDOF 12
