REMARK  7 active torsions:
REMARK  status: ('A' for Active; 'I' for Inactive)
REMARK    1  A    between atoms: C2_2  and  O1_3 
REMARK    2  A    between atoms: C5_7  and  N1_9 
REMARK    3  A    between atoms: N1_9  and  C7_11 
REMARK    4  A    between atoms: C8_14  and  N3_15 
REMARK    5  A    between atoms: N3_15  and  C9_17 
REMARK    6  A    between atoms: C14_25  and  S1_26 
REMARK    7  A    between atoms: S1_26  and  C15_29 
ROOT
HETATM    1  C7  UNL     1      -0.018   0.268  -0.251  1.00  0.00     0.140 A 
HETATM    2  N2  UNL     1      -0.332   1.468   0.198  1.00  0.00    -0.175 N 
ATOM      3  H2  UNL     1       0.384   2.194   0.184  1.00  0.00     0.186 HD
HETATM    4  C8  UNL     1      -1.546   1.779   0.672  1.00  0.00     0.679 A 
HETATM    5  N4  UNL     1      -2.490   0.826   0.693  1.00  0.00    -0.200 N 
ATOM      6  H4  UNL     1      -3.418   1.049   1.052  1.00  0.00     0.183 HD
HETATM    7  C13 UNL     1      -2.231  -0.436   0.243  1.00  0.00     0.133 A 
HETATM    8  C14 UNL     1      -0.978  -0.728  -0.237  1.00  0.00     0.119 A 
ENDROOT
BRANCH   1   9
HETATM    9  N1  UNL     1       1.129  -0.073  -0.712  1.00  0.00    -0.366 N 
ATOM     10  H1  UNL     1       1.201  -1.044  -1.017  1.00  0.00     0.162 HD
BRANCH   9  11
HETATM   11  C5  UNL     1       2.306   0.689  -0.862  1.00  0.00     0.028 C 
HETATM   12  C4  UNL     1       3.361  -0.228  -1.499  1.00  0.00     0.033 C 
HETATM   13  C3  UNL     1       4.697   0.457  -1.435  1.00  0.00     0.040 C 
HETATM   14  C2  UNL     1       5.198   0.308   0.000  1.00  0.00     0.054 C 
HETATM   15  C1  UNL     1       6.086   1.487   0.322  1.00  0.00     0.045 C 
HETATM   16  C21 UNL     1       4.021   0.186   0.908  1.00  0.00     0.040 C 
HETATM   17  C20 UNL     1       2.847   1.055   0.500  1.00  0.00     0.033 C 
HETATM   18  C6  UNL     1       2.188   1.878  -1.783  1.00  0.00     0.038 C 
BRANCH  14  19
HETATM   19  O1  UNL     1       5.923  -0.900   0.050  1.00  0.00    -0.390 OA
ATOM     20  H1  UNL     1       5.365  -1.641  -0.152  1.00  0.00     0.210 HD
ENDBRANCH  14  19
ENDBRANCH   9  11
ENDBRANCH   1   9
BRANCH   8  21
HETATM   21  S1  UNL     1      -0.582  -2.335  -0.838  1.00  0.00     0.184 S 
HETATM   22  O3  UNL     1       0.570  -2.825   0.008  1.00  0.00    -0.222 OA
HETATM   23  O4  UNL     1      -0.173  -2.232  -2.273  1.00  0.00    -0.222 OA
BRANCH  21  24
HETATM   24  C15 UNL     1      -1.934  -3.433  -0.691  1.00  0.00     0.117 C 
HETATM   25  C16 UNL     1      -1.530  -4.715  -1.449  1.00  0.00     0.046 C 
HETATM   26  C17 UNL     1      -2.444  -5.851  -1.035  1.00  0.00     0.168 C 
HETATM   27  O5  UNL     1      -3.649  -5.320  -0.613  1.00  0.00    -0.391 OA
HETATM   28  C18 UNL     1      -3.558  -4.670   0.617  1.00  0.00     0.168 C 
HETATM   29  C19 UNL     1      -2.244  -3.884   0.702  1.00  0.00     0.046 C 
ENDBRANCH  21  24
ENDBRANCH   8  21
BRANCH   4  30
HETATM   30  N3  UNL     1      -1.805   2.986   1.106  1.00  0.00    -0.219 N 
ATOM     31  H3  UNL     1      -1.066   3.688   1.078  1.00  0.00     0.178 HD
BRANCH  30  32
HETATM   32  C9  UNL     1      -3.091   3.357   1.620  1.00  0.00     0.125 C 
HETATM   33  C10 UNL     1      -4.083   3.702   0.509  1.00  0.00     0.054 C 
HETATM   34  C11 UNL     1      -4.889   4.792   1.151  1.00  0.00     0.169 C 
HETATM   35  O2  UNL     1      -4.182   5.332   2.182  1.00  0.00    -0.389 OA
HETATM   36  C12 UNL     1      -2.976   4.701   2.307  1.00  0.00     0.193 C 
ENDBRANCH  30  32
ENDBRANCH   4  30
TORSDOF 7
