REMARK  7 active torsions:
REMARK  status: ('A' for Active; 'I' for Inactive)
REMARK    1  A    between atoms: O1_2  and  C2_3 
REMARK    2  A    between atoms: C2_3  and  C3_5 
REMARK    3  A    between atoms: C4_7  and  N1_8 
REMARK       I    between atoms: N1_8  and  C5_10 
REMARK    4  A    between atoms: C5_10  and  C6_12 
REMARK    5  A    between atoms: C9_16  and  N2_17 
REMARK       I    between atoms: N2_17  and  C10_19 
REMARK    6  A    between atoms: C10_19  and  C11_21 
REMARK    7  A    between atoms: C17_27  and  O6_28 
ROOT
HETATM    1  C6  UNL     1       1.447   0.720   0.655  1.00  0.00     0.127 C 
HETATM    2  C7  UNL     1       1.302   2.174   0.249  1.00  0.00     0.183 C 
HETATM    3  O4  UNL     1       0.717   2.834   1.297  1.00  0.00    -0.388 OA
HETATM    4  C8  UNL     1       0.613   1.990   2.384  1.00  0.00     0.193 C 
HETATM    5  C9  UNL     1       0.342   0.640   1.694  1.00  0.00     0.123 C 
ENDROOT
BRANCH   5   6
HETATM    6  N2  UNL     1      -0.970   0.574   1.161  1.00  0.00    -0.353 N 
HETATM    7  C10 UNL     1      -1.950  -0.386   1.433  1.00  0.00     0.227 C 
HETATM    8  O5  UNL     1      -1.678  -1.315   2.236  1.00  0.00    -0.273 OA
ATOM      9  H2  UNL     1      -1.229   1.310   0.504  1.00  0.00     0.163 HD
BRANCH   7  10
HETATM   10  C11 UNL     1      -3.307  -0.387   0.834  1.00  0.00     0.044 C 
HETATM   11  C12 UNL     1      -4.138  -1.542   1.344  1.00  0.00     0.024 C 
HETATM   12  C13 UNL     1      -5.458  -1.581   0.644  1.00  0.00    -0.010 C 
HETATM   13  C14 UNL     1      -6.248  -0.303   0.852  1.00  0.00     0.009 C 
HETATM   14  C18 UNL     1      -5.263  -1.770  -0.853  1.00  0.00     0.042 C 
HETATM   15  C15 UNL     1      -5.364   0.867   0.411  1.00  0.00    -0.010 C 
HETATM   16  C16 UNL     1      -5.177   0.727  -1.074  1.00  0.00     0.042 C 
HETATM   17  C20 UNL     1      -4.069   0.876   1.166  1.00  0.00     0.024 C 
HETATM   18  C17 UNL     1      -4.497  -0.585  -1.355  1.00  0.00     0.060 C 
HETATM   19  C19 UNL     1      -3.159  -0.565  -0.655  1.00  0.00     0.057 C 
BRANCH  18  20
HETATM   20  O6  UNL     1      -4.241  -0.764  -2.713  1.00  0.00    -0.390 OA
ATOM     21  H6  UNL     1      -3.812  -1.593  -2.890  1.00  0.00     0.210 HD
ENDBRANCH  18  20
ENDBRANCH   7  10
ENDBRANCH   5   6
BRANCH   1  22
HETATM   22  C5  UNL     1       1.276  -0.226  -0.438  1.00  0.00     0.232 C 
HETATM   23  N1  UNL     1       2.076  -0.133  -1.592  1.00  0.00    -0.307 N 
ATOM     24  H1  UNL     1       1.624  -0.017  -2.499  1.00  0.00     0.171 HD
HETATM   25  O3  UNL     1       0.425  -1.170  -0.431  1.00  0.00    -0.273 OA
BRANCH  23  26
HETATM   26  C4  UNL     1       3.387  -0.191  -1.536  1.00  0.00     0.152 A 
HETATM   27  S1  UNL     1       4.445  -0.374  -0.214  1.00  0.00    -0.046 SA
HETATM   28  C3  UNL     1       5.921  -0.341  -1.068  1.00  0.00     0.105 A 
HETATM   29  C21 UNL     1       5.497  -0.186  -2.361  1.00  0.00     0.030 A 
HETATM   30  N3  UNL     1       4.216  -0.112  -2.578  1.00  0.00    -0.339 N 
HETATM   31  C22 UNL     1       6.546  -0.113  -3.465  1.00  0.00     0.070 C 
ATOM     32  H3  UNL     1       3.854   0.004  -3.524  1.00  0.00     0.168 HD
BRANCH  28  33
HETATM   33  C2  UNL     1       7.299  -0.449  -0.536  1.00  0.00     0.301 C 
HETATM   34  O2  UNL     1       8.276  -0.406  -1.310  1.00  0.00    -0.259 OA
BRANCH  33  35
HETATM   35  O1  UNL     1       7.429  -0.596   0.843  1.00  0.00    -0.322 OA
HETATM   36  C1  UNL     1       8.767  -0.697   1.330  1.00  0.00     0.213 C 
ENDBRANCH  33  35
ENDBRANCH  28  33
ENDBRANCH  23  26
ENDBRANCH   1  22
TORSDOF 7
