REMARK  9 active torsions:
REMARK  status: ('A' for Active; 'I' for Inactive)
REMARK    1  A    between atoms: O1_2  and  C2_3 
REMARK    2  A    between atoms: C4_5  and  C17_21 
REMARK    3  A    between atoms: C5_6  and  C6_7 
REMARK    4  A    between atoms: C6_7  and  O2_8 
REMARK    5  A    between atoms: C12_15  and  C13_16 
REMARK    6  A    between atoms: C21_25  and  O5_26 
REMARK    7  A    between atoms: C22_28  and  O6_29 
REMARK    8  A    between atoms: C22_28  and  C23_31 
REMARK    9  A    between atoms: C23_31  and  O7_32 
ROOT
HETATM    1  C13 UNL     1      -0.235  -1.866   0.581  1.00  0.00     0.015 C 
HETATM    2  C14 UNL     1      -0.744  -2.064   1.965  1.00  0.00     0.084 C 
HETATM    3  C15 UNL     1      -0.782  -0.865   2.811  1.00  0.00     0.128 C 
HETATM    4  O4  UNL     1      -1.516  -0.833   3.765  1.00  0.00    -0.298 OA
HETATM    5  C16 UNL     1       0.066   0.280   2.496  1.00  0.00     0.089 C 
HETATM    6  C17 UNL     1       0.646   0.344   1.141  1.00  0.00    -0.015 C 
HETATM    7  C18 UNL     1       2.175   0.402   1.302  1.00  0.00     0.008 C 
HETATM    8  C19 UNL     1       2.040  -1.117   1.537  1.00  0.00     0.020 C 
HETATM    9  C20 UNL     1       0.965  -0.997   0.514  1.00  0.00     0.003 C 
HETATM   10  C21 UNL     1       1.548  -0.974  -0.855  1.00  0.00     0.165 C 
HETATM   11  C22 UNL     1       2.919  -0.341  -0.968  1.00  0.00     0.113 C 
HETATM   12  C24 UNL     1       2.985   0.694   0.092  1.00  0.00    -0.000 A 
HETATM   13  C25 UNL     1       4.394   1.206   0.424  1.00  0.00     0.014 A 
HETATM   14  C26 UNL     1       3.391   2.107  -0.145  1.00  0.00     0.014 A 
ENDROOT
BRANCH  11  15
HETATM   15  O6  UNL     1       3.921  -1.336  -0.874  1.00  0.00    -0.384 OA
ATOM     16  H6  UNL     1       4.781  -0.939  -0.945  1.00  0.00     0.210 HD
ENDBRANCH  11  15
BRANCH  11  17
HETATM   17  C23 UNL     1       3.158   0.187  -2.382  1.00  0.00     0.205 C 
BRANCH  17  18
HETATM   18  O7  UNL     1       4.428   0.685  -2.517  1.00  0.00    -0.398 OA
ATOM     19  H7  UNL     1       4.577   1.013  -3.396  1.00  0.00     0.209 HD
ENDBRANCH  17  18
ENDBRANCH  11  17
BRANCH  10  20
HETATM   20  O5  UNL     1       1.713  -2.311  -1.258  1.00  0.00    -0.392 OA
ATOM     21  H5  UNL     1       2.085  -2.296  -2.132  1.00  0.00     0.210 HD
ENDBRANCH  10  20
BRANCH   1  22
HETATM   22  C12 UNL     1      -1.172  -1.543  -0.488  1.00  0.00     0.057 C 
HETATM   23  C6  UNL     1      -1.919  -0.273  -0.579  1.00  0.00     0.138 C 
HETATM   24  C8  UNL     1      -3.090  -0.547   0.306  1.00  0.00     0.190 C 
HETATM   25  O3  UNL     1      -3.739   0.125   1.081  1.00  0.00    -0.289 OA
HETATM   26  C9  UNL     1      -3.389  -1.958   0.065  1.00  0.00    -0.016 C 
HETATM   27  C10 UNL     1      -4.694  -2.654   0.293  1.00  0.00     0.052 C 
HETATM   28  C11 UNL     1      -2.285  -2.555  -0.399  1.00  0.00    -0.008 C 
BRANCH  23  29
HETATM   29  C5  UNL     1      -1.248   0.996  -0.470  1.00  0.00     0.063 C 
HETATM   30  C2  UNL     1      -1.799   2.146   0.329  1.00  0.00     0.129 C 
HETATM   31  C3  UNL     1      -0.346   2.600   0.541  1.00  0.00     0.038 C 
HETATM   32  C4  UNL     1       0.066   1.207   0.122  1.00  0.00     0.008 C 
BRANCH  30  33
HETATM   33  O1  UNL     1      -2.423   3.172  -0.397  1.00  0.00    -0.390 OA
HETATM   34  C1  UNL     1      -3.479   3.676   0.332  1.00  0.00     0.202 C 
ENDBRANCH  30  33
ENDBRANCH  23  29
BRANCH  23  35
HETATM   35  O2  UNL     1      -2.592  -0.389  -1.810  1.00  0.00    -0.376 OA
HETATM   36  C7  UNL     1      -1.935  -0.318  -2.961  1.00  0.00     0.203 C 
ENDBRANCH  23  35
ENDBRANCH   1  22
TORSDOF 9
