REMARK  9 active torsions:
REMARK  status: ('A' for Active; 'I' for Inactive)
REMARK    1  A    between atoms: C2_2  and  O1_3 
REMARK    2  A    between atoms: C2_2  and  C15_31 
REMARK    3  A    between atoms: O1_3  and  C3_4 
REMARK    4  A    between atoms: C6_7  and  C7_8 
REMARK    5  A    between atoms: C8_9  and  O2_10 
REMARK    6  A    between atoms: C9_14  and  O3_15 
REMARK    7  A    between atoms: C10_17  and  N2_18 
REMARK    8  A    between atoms: C11_20  and  N3_21 
REMARK    9  A    between atoms: N3_21  and  S1_23 
ROOT
HETATM    1  C15 UNL     1       4.414   0.700  -0.503  1.00  0.00    -0.028 A 
HETATM    2  C16 UNL     1       4.894   0.545  -1.781  1.00  0.00     0.010 A 
HETATM    3  C17 UNL     1       5.263   1.625  -2.565  1.00  0.00     0.002 A 
HETATM    4  C18 UNL     1       5.147   2.897  -2.050  1.00  0.00     0.022 A 
HETATM    5  C19 UNL     1       4.667   3.088  -0.766  1.00  0.00     0.045 A 
HETATM    6  C20 UNL     1       4.553   4.425  -0.246  1.00  0.00     0.099 C 
HETATM    7  N4  UNL     1       4.444   5.505   0.178  1.00  0.00    -0.191 NA
HETATM    8  C21 UNL     1       4.303   1.975  -0.000  1.00  0.00     0.032 A 
ENDROOT
BRANCH   1   9
HETATM    9  C2  UNL     1       4.009  -0.471   0.362  1.00  0.00     0.158 C 
HETATM   10  C1  UNL     1       5.163  -0.646   1.382  1.00  0.00     0.045 C 
BRANCH   9  11
HETATM   11  O1  UNL     1       2.830  -0.183   0.955  1.00  0.00    -0.338 OA
BRANCH  11  12
HETATM   12  C3  UNL     1       1.579  -0.711   0.990  1.00  0.00     0.111 A 
HETATM   13  C4  UNL     1       0.581  -0.078   1.770  1.00  0.00     0.041 A 
HETATM   14  C5  UNL     1      -0.701  -0.544   1.859  1.00  0.00     0.018 A 
HETATM   15  C6  UNL     1      -1.085  -1.667   1.183  1.00  0.00     0.023 A 
HETATM   16  C13 UNL     1      -0.140  -2.304   0.419  1.00  0.00     0.169 A 
HETATM   17  F2  UNL     1      -0.503  -3.427  -0.263  1.00  0.00    -0.202 F 
HETATM   18  C14 UNL     1       1.160  -1.837   0.325  1.00  0.00     0.189 A 
HETATM   19  F3  UNL     1       2.054  -2.524  -0.460  1.00  0.00    -0.200 F 
BRANCH  15  20
HETATM   20  C7  UNL     1      -2.439  -2.213   1.239  1.00  0.00     0.059 A 
HETATM   21  C8  UNL     1      -2.917  -3.154   2.155  1.00  0.00     0.155 A 
HETATM   22  N1  UNL     1      -4.210  -3.408   1.887  1.00  0.00    -0.315 N 
HETATM   23  C9  UNL     1      -4.627  -2.685   0.838  1.00  0.00     0.170 A 
ATOM     24  H1  UNL     1      -4.793  -4.061   2.410  1.00  0.00     0.170 HD
HETATM   25  C10 UNL     1      -3.517  -1.936   0.430  1.00  0.00     0.100 A 
BRANCH  21  26
HETATM   26  O2  UNL     1      -2.136  -3.711   3.168  1.00  0.00    -0.345 OA
ATOM     27  H2  UNL     1      -2.461  -4.351   3.791  1.00  0.00     0.219 HD
ENDBRANCH  21  26
BRANCH  23  28
HETATM   28  O3  UNL     1      -5.901  -2.686   0.274  1.00  0.00    -0.344 OA
ATOM     29  H3  UNL     1      -6.197  -2.174  -0.469  1.00  0.00     0.219 HD
ENDBRANCH  23  28
BRANCH  25  30
HETATM   30  N2  UNL     1      -3.518  -1.040  -0.644  1.00  0.00    -0.348 N 
HETATM   31  C11 UNL     1      -4.523  -0.271  -0.881  1.00  0.00     0.191 C 
ATOM     32  H2  UNL     1      -2.702  -0.995  -1.255  1.00  0.00     0.167 HD
BRANCH  31  33
HETATM   33  N3  UNL     1      -4.563   0.646  -1.953  1.00  0.00    -0.289 N 
ATOM     34  H3  UNL     1      -3.998   0.451  -2.779  1.00  0.00     0.178 HD
BRANCH  33  35
HETATM   35  S1  UNL     1      -5.431   1.947  -1.937  1.00  0.00     0.180 S 
HETATM   36  C12 UNL     1      -4.511   3.393  -2.327  1.00  0.00     0.173 C 
HETATM   37  O4  UNL     1      -6.040   2.112  -0.558  1.00  0.00    -0.217 OA
HETATM   38  F1  UNL     1      -6.653   1.734  -3.068  1.00  0.00    -0.125 F 
ENDBRANCH  33  35
ENDBRANCH  31  33
ENDBRANCH  25  30
ENDBRANCH  15  20
ENDBRANCH  11  12
ENDBRANCH   9  11
ENDBRANCH   1   9
TORSDOF 9
