REMARK  9 active torsions:
REMARK  status: ('A' for Active; 'I' for Inactive)
REMARK    1  A    between atoms: C2_2  and  C3_3 
REMARK    2  A    between atoms: C3_3  and  N1_4 
REMARK    3  A    between atoms: C5_7  and  N2_8 
REMARK    4  A    between atoms: N2_8  and  C6_10 
REMARK    5  A    between atoms: C6_10  and  C8_12 
REMARK    6  A    between atoms: C12_22  and  N6_23 
REMARK    7  A    between atoms: N6_23  and  C13_25 
REMARK    8  A    between atoms: C16_29  and  C17_30 
REMARK    9  A    between atoms: C17_30  and  N7_31 
ROOT
HETATM    1  N1  UNL     1       0.885   0.602  -0.192  1.00  0.00    -0.305 N 
HETATM    2  C4  UNL     1       2.183   0.320  -0.010  1.00  0.00     0.292 A 
HETATM    3  O1  UNL     1       2.821   1.015   0.781  1.00  0.00    -0.264 OA
HETATM    4  C5  UNL     1       2.803  -0.693  -0.659  1.00  0.00     0.172 A 
HETATM    5  N3  UNL     1       2.098  -1.449  -1.536  1.00  0.00    -0.322 N 
ATOM      6  H3  UNL     1       2.543  -2.211  -2.048  1.00  0.00     0.169 HD
HETATM    7  C10 UNL     1       0.813  -1.169  -1.709  1.00  0.00     0.139 A 
HETATM    8  N4  UNL     1       0.025  -2.012  -2.473  1.00  0.00    -0.337 N 
ATOM      9  H4  UNL     1       0.475  -2.756  -3.005  1.00  0.00     0.168 HD
HETATM   10  C11 UNL     1      -1.276  -1.890  -2.538  1.00  0.00     0.183 A 
HETATM   11  N5  UNL     1      -1.930  -0.915  -1.846  1.00  0.00    -0.337 N 
ATOM     12  H5  UNL     1      -2.946  -0.840  -1.887  1.00  0.00     0.168 HD
HETATM   13  C12 UNL     1      -1.215  -0.064  -1.116  1.00  0.00     0.138 A 
HETATM   14  C20 UNL     1       0.164  -0.136  -1.026  1.00  0.00     0.126 A 
ENDROOT
BRANCH  13  15
HETATM   15  N6  UNL     1      -1.771   0.607  -0.106  1.00  0.00    -0.339 N 
ATOM     16  H6  UNL     1      -1.251   1.284   0.452  1.00  0.00     0.167 HD
BRANCH  15  17
HETATM   17  C13 UNL     1      -3.158   0.308   0.140  1.00  0.00     0.059 A 
HETATM   18  C14 UNL     1      -4.161   0.561  -0.722  1.00  0.00     0.056 A 
HETATM   19  C15 UNL     1      -5.415   0.114  -0.492  1.00  0.00     0.045 A 
HETATM   20 CL1  UNL     1      -6.750   0.489  -1.610  1.00  0.00    -0.084 Cl
HETATM   21  C16 UNL     1      -5.691  -0.626   0.663  1.00  0.00     0.012 A 
HETATM   22  C18 UNL     1      -4.715  -0.887   1.550  1.00  0.00     0.067 A 
HETATM   23 CL2  UNL     1      -5.008  -1.853   2.958  1.00  0.00    -0.082 Cl
HETATM   24  C19 UNL     1      -3.408  -0.425   1.325  1.00  0.00     0.083 A 
HETATM   25 CL3  UNL     1      -2.142  -0.775   2.417  1.00  0.00    -0.080 Cl
BRANCH  21  26
HETATM   26  C17 UNL     1      -7.029  -1.257   0.641  1.00  0.00     0.271 C 
BRANCH  26  27
HETATM   27  N7  UNL     1      -7.866  -0.939   1.760  1.00  0.00    -0.075 N 
ATOM     28  H73 UNL     1      -7.387  -1.160   2.633  1.00  0.00     0.274 HD
ATOM     29  H72 UNL     1      -7.955   0.072   1.857  1.00  0.00     0.274 HD
ATOM     30  H71 UNL     1      -8.788  -1.374   1.745  1.00  0.00     0.274 HD
ENDBRANCH  26  27
ENDBRANCH  21  26
ENDBRANCH  15  17
ENDBRANCH  13  15
BRANCH   1  31
HETATM   31  C3  UNL     1       0.287   1.835   0.335  1.00  0.00     0.132 C 
BRANCH  31  32
HETATM   32  C2  UNL     1       1.327   2.881  -0.256  1.00  0.00     0.016 C 
HETATM   33  C1  UNL     1       0.852   4.295  -0.266  1.00  0.00     0.006 C 
ENDBRANCH  31  32
ENDBRANCH   1  31
BRANCH   4  34
HETATM   34  N2  UNL     1       4.014  -0.977  -0.442  1.00  0.00    -0.367 N 
ATOM     35  H2  UNL     1       4.350  -1.783  -0.968  1.00  0.00     0.161 HD
BRANCH  34  36
HETATM   36  C6  UNL     1       4.986  -0.393   0.387  1.00  0.00     0.079 C 
HETATM   37  C7  UNL     1       5.582   0.886  -0.216  1.00  0.00     0.032 C 
BRANCH  36  38
HETATM   38  C8  UNL     1       6.177  -1.422   0.376  1.00  0.00     0.020 C 
HETATM   39  C9  UNL     1       5.596  -2.694   0.881  1.00  0.00     0.007 C 
ENDBRANCH  36  38
ENDBRANCH  34  36
ENDBRANCH   4  34
TORSDOF 9
