REMARK  8 active torsions:
REMARK  status: ('A' for Active; 'I' for Inactive)
REMARK    1  A    between atoms: O1_2  and  C2_3 
REMARK    2  A    between atoms: C2_3  and  C3_4 
REMARK    3  A    between atoms: C5_10  and  N3_11 
REMARK    4  A    between atoms: C6_16  and  N5_17 
REMARK    5  A    between atoms: N5_17  and  C7_19 
REMARK    6  A    between atoms: C10_22  and  O2_23 
REMARK    7  A    between atoms: O2_23  and  C11_24 
REMARK    8  A    between atoms: C11_24  and  C12_25 
ROOT
HETATM    1  C3  UNL     1       5.817  -0.261   1.068  1.00  0.00     0.125 A 
HETATM    2  N1  UNL     1       5.882  -0.965  -0.077  1.00  0.00    -0.327 N 
ATOM      3  H1  UNL     1       6.739  -1.363  -0.461  1.00  0.00     0.169 HD
HETATM    4  C4  UNL     1       4.671  -1.076  -0.649  1.00  0.00     0.154 A 
HETATM    5  N2  UNL     1       4.172  -1.647  -1.755  1.00  0.00    -0.174 N 
ATOM      6  H2  UNL     1       4.818  -2.143  -2.369  1.00  0.00     0.186 HD
HETATM    7  C5  UNL     1       2.875  -1.608  -2.107  1.00  0.00     0.679 A 
HETATM    8  N4  UNL     1       2.000  -0.958  -1.311  1.00  0.00    -0.174 N 
ATOM      9  H4  UNL     1       1.012  -0.917  -1.560  1.00  0.00     0.186 HD
HETATM   10  C6  UNL     1       2.441  -0.364  -0.186  1.00  0.00     0.153 A 
HETATM   11  C20 UNL     1       3.783  -0.410   0.170  1.00  0.00     0.142 A 
HETATM   12  N6  UNL     1       4.503   0.071   1.197  1.00  0.00    -0.233 N 
HETATM   13 CL3  UNL     1       3.867   0.996   2.526  1.00  0.00     0.020 Cl
ENDROOT
BRANCH  10  14
HETATM   14  N5  UNL     1       1.662   0.271   0.617  1.00  0.00    -0.340 N 
ATOM     15  H5  UNL     1       2.075   0.693   1.449  1.00  0.00     0.167 HD
BRANCH  14  16
HETATM   16  C7  UNL     1       0.267   0.422   0.419  1.00  0.00     0.035 A 
HETATM   17  C8  UNL     1      -0.548  -0.667   0.641  1.00  0.00     0.032 A 
HETATM   18  C9  UNL     1      -1.920  -0.576   0.463  1.00  0.00     0.041 A 
HETATM   19  C10 UNL     1      -2.506   0.608   0.059  1.00  0.00     0.091 A 
HETATM   20  C18 UNL     1      -1.698   1.703  -0.165  1.00  0.00     0.069 A 
HETATM   21 CL2  UNL     1      -2.449   3.201  -0.677  1.00  0.00    -0.081 Cl
HETATM   22  C19 UNL     1      -0.337   1.594   0.017  1.00  0.00     0.056 A 
BRANCH  19  23
HETATM   23  O2  UNL     1      -3.880   0.735  -0.130  1.00  0.00    -0.345 OA
BRANCH  23  24
HETATM   24  C11 UNL     1      -4.676  -0.410   0.110  1.00  0.00     0.214 C 
BRANCH  24  25
HETATM   25  C12 UNL     1      -6.110  -0.106  -0.136  1.00  0.00    -0.033 A 
HETATM   26  C13 UNL     1      -7.028  -1.126   0.054  1.00  0.00     0.009 A 
HETATM   27  C14 UNL     1      -8.360  -0.882  -0.164  1.00  0.00     0.002 A 
HETATM   28  C15 UNL     1      -8.768   0.379  -0.570  1.00  0.00     0.024 A 
HETATM   29  C16 UNL     1      -7.834   1.398  -0.758  1.00  0.00     0.034 A 
HETATM   30 CL1  UNL     1      -8.321   2.997  -1.269  1.00  0.00    -0.084 Cl
HETATM   31  C17 UNL     1      -6.475   1.161  -0.539  1.00  0.00     0.033 A 
ENDBRANCH  24  25
ENDBRANCH  23  24
ENDBRANCH  19  23
ENDBRANCH  14  16
ENDBRANCH  10  14
BRANCH   7  32
HETATM   32  N3  UNL     1       2.417  -2.166  -3.179  1.00  0.00    -0.234 N 
ATOM     33  H32 UNL     1       3.078  -2.657  -3.781  1.00  0.00     0.174 HD
ATOM     34  H31 UNL     1       1.433  -2.136  -3.446  1.00  0.00     0.174 HD
ENDBRANCH   7  32
BRANCH   1  35
HETATM   35  C2  UNL     1       6.915   0.092   2.005  1.00  0.00     0.245 C 
BRANCH  35  36
HETATM   36  O1  UNL     1       8.096   0.326   1.359  1.00  0.00    -0.389 OA
HETATM   37  C1  UNL     1       7.954   1.390   0.493  1.00  0.00     0.202 C 
ENDBRANCH  35  36
ENDBRANCH   1  35
TORSDOF 8
