REMARK  8 active torsions:
REMARK  status: ('A' for Active; 'I' for Inactive)
REMARK       I    between atoms: C2_2  and  N1_4 
REMARK    1  A    between atoms: N1_4  and  C3_6 
REMARK    2  A    between atoms: C4_7  and  C5_8 
REMARK    3  A    between atoms: C6_9  and  C7_10 
REMARK    4  A    between atoms: C7_10  and  C8_12 
REMARK    5  A    between atoms: C16_23  and  C17_24 
REMARK    6  A    between atoms: C18_28  and  C19_29 
REMARK       I    between atoms: C19_29  and  N4_31 
REMARK    7  A    between atoms: N4_31  and  O7_33 
REMARK    8  A    between atoms: O7_33  and  C20_34 
ROOT
HETATM    1  C3  UNL     1      -0.935   1.034   1.633  1.00  0.00     0.149 C 
HETATM    2  C4  UNL     1      -1.282   1.462   0.245  1.00  0.00     0.172 C 
HETATM    3  O3  UNL     1      -0.884   0.494  -0.699  1.00  0.00    -0.350 OA
HETATM    4  C9  UNL     1      -1.431  -0.714  -0.228  1.00  0.00     0.277 C 
HETATM    5  C10 UNL     1      -1.647  -1.651  -1.325  1.00  0.00     0.065 A 
HETATM    6  C11 UNL     1      -2.207  -1.421  -2.597  1.00  0.00     0.031 A 
HETATM    7  C12 UNL     1      -2.242  -2.629  -3.215  1.00  0.00     0.020 A 
HETATM    8  C13 UNL     1      -1.717  -3.588  -2.353  1.00  0.00     0.097 A 
HETATM    9  N2  UNL     1      -1.360  -2.944  -1.200  1.00  0.00    -0.323 N 
HETATM   10  C14 UNL     1      -0.714  -3.438  -0.010  1.00  0.00     0.046 C 
HETATM   11  C15 UNL     1      -0.453  -4.902   0.024  1.00  0.00     0.071 C 
HETATM   12  C16 UNL     1      -0.381  -2.605   0.988  1.00  0.00     0.134 C 
HETATM   13  N3  UNL     1      -0.621  -1.215   0.819  1.00  0.00    -0.326 N 
HETATM   14  C18 UNL     1      -0.037  -0.220   1.704  1.00  0.00     0.207 C 
ENDROOT
BRANCH  14  15
HETATM   15  C19 UNL     1       1.362   0.102   1.387  1.00  0.00     0.266 C 
HETATM   16  O6  UNL     1       2.000   0.831   2.174  1.00  0.00    -0.269 OA
HETATM   17  N4  UNL     1       2.038  -0.360   0.237  1.00  0.00    -0.233 N 
ATOM     18  H4  UNL     1       1.542  -0.963  -0.419  1.00  0.00     0.197 HD
BRANCH  17  19
HETATM   19  O7  UNL     1       3.328  -0.027  -0.022  1.00  0.00    -0.273 OA
BRANCH  19  20
HETATM   20  C20 UNL     1       3.718  -0.280  -1.313  1.00  0.00     0.144 C 
HETATM   21  C21 UNL     1       4.954  -1.156  -1.267  1.00  0.00     0.042 C 
HETATM   22  C22 UNL     1       4.094   0.985  -2.065  1.00  0.00     0.042 C 
ENDBRANCH  19  20
ENDBRANCH  17  19
ENDBRANCH  14  15
BRANCH   1  23
HETATM   23  N1  UNL     1      -0.435   2.064   2.493  1.00  0.00    -0.351 N 
HETATM   24  C2  UNL     1      -1.018   2.429   3.738  1.00  0.00     0.214 C 
HETATM   25  C1  UNL     1      -0.474   3.501   4.604  1.00  0.00     0.117 C 
HETATM   26  O1  UNL     1      -2.036   1.815   4.117  1.00  0.00    -0.274 OA
ATOM     27  H1  UNL     1       0.397   2.571   2.192  1.00  0.00     0.163 HD
ENDBRANCH   1  23
BRANCH   2  28
HETATM   28  C5  UNL     1      -0.792   2.766  -0.156  1.00  0.00     0.011 C 
HETATM   29  C6  UNL     1      -1.309   3.566  -0.990  1.00  0.00     0.049 C 
BRANCH  29  30
HETATM   30  C7  UNL     1      -2.496   3.421  -1.760  1.00  0.00     0.159 C 
HETATM   31  O2  UNL     1      -3.207   2.366  -1.691  1.00  0.00    -0.292 OA
BRANCH  30  32
HETATM   32  C8  UNL     1      -3.032   4.445  -2.705  1.00  0.00     0.168 C 
HETATM   33 BR1  UNL     1      -2.345   4.206  -4.478  1.00  0.00    -0.088 Br
ENDBRANCH  30  32
ENDBRANCH  29  30
ENDBRANCH   2  28
BRANCH  12  34
HETATM   34  C17 UNL     1       0.264  -3.173   2.164  1.00  0.00     0.228 C 
HETATM   35  O4  UNL     1       0.619  -2.480   3.161  1.00  0.00    -0.643 OA
HETATM   36  O5  UNL     1       0.536  -4.528   2.267  1.00  0.00    -0.643 OA
ENDBRANCH  12  34
TORSDOF 8
