REMARK  13 active torsions:
REMARK  status: ('A' for Active; 'I' for Inactive)
REMARK    1  A    between atoms: C2_2  and  O1_5 
REMARK    2  A    between atoms: O1_5  and  C5_6 
REMARK       I    between atoms: C5_6  and  N1_8 
REMARK    3  A    between atoms: N1_8  and  C6_10 
REMARK    4  A    between atoms: C6_10  and  C7_11 
REMARK    5  A    between atoms: C7_11  and  N2_12 
REMARK    6  A    between atoms: C12_21  and  N4_22 
REMARK    7  A    between atoms: N4_22  and  O4_23 
REMARK       I    between atoms: N4_22  and  C13_25 
REMARK    8  A    between atoms: C13_25  and  C14_27 
REMARK    9  A    between atoms: C14_27  and  C15_28 
REMARK   10  A    between atoms: C15_28  and  C16_29 
REMARK   11  A    between atoms: C16_29  and  C17_30 
REMARK   12  A    between atoms: C17_30  and  C19_33 
REMARK       I    between atoms: C19_33  and  N5_35 
REMARK   13  A    between atoms: N5_35  and  N6_37 
ROOT
HETATM    1  N2  UNL     1      -1.014  -1.899  -0.384  1.00  0.00    -0.348 N 
HETATM    2  C8  UNL     1      -1.338  -3.309  -0.347  1.00  0.00     0.136 C 
HETATM    3  C9  UNL     1      -1.291  -3.915   1.012  1.00  0.00     0.095 C 
HETATM    4  S1  UNL     1      -1.009  -2.724   2.334  1.00  0.00    -0.148 SA
HETATM    5  C10 UNL     1       0.741  -2.767   2.813  1.00  0.00     0.197 C 
HETATM    6  N3  UNL     1       1.466  -3.606   1.878  1.00  0.00    -0.350 N 
ATOM      7  H3  UNL     1       1.830  -4.502   2.202  1.00  0.00     0.163 HD
HETATM    8  C11 UNL     1       1.687  -3.226   0.533  1.00  0.00     0.253 C 
HETATM    9  O3  UNL     1       2.019  -4.104  -0.294  1.00  0.00    -0.271 OA
HETATM   10  C12 UNL     1       1.527  -1.821   0.129  1.00  0.00     0.301 C 
HETATM   11  C20 UNL     1       0.137  -1.323   0.146  1.00  0.00     0.254 C 
HETATM   12  O7  UNL     1      -0.045  -0.194   0.733  1.00  0.00    -0.270 OA
ENDROOT
BRANCH  10  13
HETATM   13  N4  UNL     1       2.009  -1.599  -1.231  1.00  0.00    -0.202 N 
HETATM   14  C13 UNL     1       3.078  -0.747  -1.542  1.00  0.00     0.267 C 
HETATM   15  O5  UNL     1       3.406  -0.636  -2.774  1.00  0.00    -0.266 OA
BRANCH  13  16
HETATM   16  O4  UNL     1       1.395  -2.250  -2.280  1.00  0.00    -0.283 OA
ATOM     17  H4  UNL     1       1.709  -2.106  -3.165  1.00  0.00     0.245 HD
ENDBRANCH  13  16
BRANCH  14  18
HETATM   18  C14 UNL     1       3.836   0.014  -0.571  1.00  0.00     0.072 C 
BRANCH  18  19
HETATM   19  C15 UNL     1       4.836   0.796  -0.966  1.00  0.00    -0.019 C 
BRANCH  19  20
HETATM   20  C16 UNL     1       5.635   1.591   0.001  1.00  0.00     0.062 C 
BRANCH  20  21
HETATM   21  C17 UNL     1       7.099   1.212  -0.043  1.00  0.00     0.118 C 
HETATM   22  C18 UNL     1       7.659   1.456  -1.423  1.00  0.00     0.043 C 
HETATM   23 CL1  UNL     1       7.286  -0.516   0.319  1.00  0.00    -0.109 Cl
BRANCH  21  24
HETATM   24  C19 UNL     1       7.891   1.991   0.921  1.00  0.00     0.260 C 
HETATM   25  O6  UNL     1       8.532   1.419   1.836  1.00  0.00    -0.270 OA
HETATM   26  N5  UNL     1       7.933   3.408   0.821  1.00  0.00    -0.254 N 
ATOM     27  H5  UNL     1       7.682   3.978   1.629  1.00  0.00     0.191 HD
BRANCH  26  28
HETATM   28  N6  UNL     1       8.268   3.953  -0.225  1.00  0.00    -0.247 N 
HETATM   29  N7  UNL     1       8.929   4.689  -0.982  1.00  0.00    -0.331 N 
ATOM     30  H72 UNL     1       9.590   5.050  -0.294  1.00  0.00     0.178 HD
ATOM     31  H71 UNL     1       9.208   5.142  -1.852  1.00  0.00     0.178 HD
ATOM     32  H6  UNL     1       7.585   3.565  -0.876  1.00  0.00     0.207 HD
ENDBRANCH  26  28
ENDBRANCH  21  24
ENDBRANCH  20  21
ENDBRANCH  19  20
ENDBRANCH  18  19
ENDBRANCH  14  18
ENDBRANCH  10  13
BRANCH   1  33
HETATM   33  C7  UNL     1      -1.997  -1.018  -1.033  1.00  0.00     0.145 C 
BRANCH  33  34
HETATM   34  C6  UNL     1      -3.013  -0.525  -0.023  1.00  0.00     0.144 C 
BRANCH  34  35
HETATM   35  N1  UNL     1      -3.959   0.343  -0.729  1.00  0.00    -0.335 N 
HETATM   36  C5  UNL     1      -5.024   0.947  -0.018  1.00  0.00     0.361 C 
HETATM   37  O2  UNL     1      -5.156   0.736   1.225  1.00  0.00    -0.238 OA
ATOM     38  H1  UNL     1      -3.851   0.512  -1.729  1.00  0.00     0.164 HD
BRANCH  36  39
HETATM   39  O1  UNL     1      -5.905   1.759  -0.693  1.00  0.00    -0.294 OA
BRANCH  39  40
HETATM   40  C2  UNL     1      -6.978   2.367   0.023  1.00  0.00     0.061 C 
HETATM   41  C1  UNL     1      -6.365   3.237   1.109  1.00  0.00     0.046 C 
HETATM   42  C3  UNL     1      -7.753   3.202  -0.976  1.00  0.00     0.046 C 
HETATM   43  C4  UNL     1      -7.856   1.285   0.634  1.00  0.00     0.046 C 
ENDBRANCH  39  40
ENDBRANCH  36  39
ENDBRANCH  34  35
ENDBRANCH  33  34
ENDBRANCH   1  33
TORSDOF 13
