REMARK  8 active torsions:
REMARK  status: ('A' for Active; 'I' for Inactive)
REMARK    1  A    between atoms: C2_2  and  C3_3 
REMARK    2  A    between atoms: C7_13  and  C8_14 
REMARK    3  A    between atoms: C8_14  and  C9_15 
REMARK    4  A    between atoms: C9_15  and  C10_16 
REMARK    5  A    between atoms: C10_16  and  C11_17 
REMARK    6  A    between atoms: C11_17  and  C12_18 
REMARK    7  A    between atoms: C15_24  and  C16_25 
REMARK    8  A    between atoms: C20_31  and  C21_32 
REMARK       I    between atoms: C21_32  and  N4_34 
ROOT
HETATM    1  C3  UNL     1      -3.113  -2.186  -1.123  1.00  0.00     0.189 C 
HETATM    2  C4  UNL     1      -3.114  -2.591  -2.574  1.00  0.00     0.055 C 
HETATM    3  N1  UNL     1      -2.060  -2.886  -0.425  1.00  0.00    -0.051 N 
ATOM      4  H11 UNL     1      -2.164  -3.896  -0.519  1.00  0.00     0.279 HD
ATOM      5  H12 UNL     1      -2.170  -2.804   0.586  1.00  0.00     0.279 HD
HETATM    6  C5  UNL     1      -0.740  -2.454  -0.845  1.00  0.00     0.336 C 
HETATM    7  C6  UNL     1       0.220  -2.706   0.256  1.00  0.00     0.244 C 
HETATM    8  O1  UNL     1       0.363  -3.956   0.520  1.00  0.00    -0.272 OA
HETATM    9  N2  UNL     1       0.945  -1.783   0.999  1.00  0.00    -0.346 N 
ATOM     10  H2  UNL     1       0.839  -1.858   2.011  1.00  0.00     0.163 HD
HETATM   11  C7  UNL     1       1.820  -0.741   0.550  1.00  0.00     0.176 C 
HETATM   12  C13 UNL     1       1.526  -0.159  -0.763  1.00  0.00     0.243 C 
HETATM   13  O2  UNL     1       1.906  -0.893  -1.754  1.00  0.00    -0.271 OA
HETATM   14  N3  UNL     1       0.916   1.039  -1.131  1.00  0.00    -0.340 N 
HETATM   15  C14 UNL     1       1.483   1.774  -2.302  1.00  0.00     0.153 C 
HETATM   16  C15 UNL     1      -0.215   1.736  -0.580  1.00  0.00     0.190 C 
HETATM   17  C19 UNL     1      -0.844   1.241   0.617  1.00  0.00     0.287 C 
HETATM   18  O3  UNL     1      -0.343   1.744   1.704  1.00  0.00    -0.262 OA
HETATM   19  O4  UNL     1      -1.834   0.374   0.844  1.00  0.00    -0.268 OA
HETATM   20  C20 UNL     1      -3.025  -0.033   0.372  1.00  0.00     0.194 C 
HETATM   21  C23 UNL     1      -3.056  -0.710  -0.954  1.00  0.00     0.224 C 
HETATM   22  O6  UNL     1      -3.037  -0.049  -2.004  1.00  0.00    -0.287 OA
ENDROOT
BRANCH  11  23
HETATM   23  C8  UNL     1       3.222  -1.388   0.566  1.00  0.00     0.035 C 
BRANCH  23  24
HETATM   24  C9  UNL     1       4.268  -0.370   0.103  1.00  0.00     0.002 C 
BRANCH  24  25
HETATM   25  C10 UNL     1       5.576  -1.088   0.152  1.00  0.00     0.001 C 
BRANCH  25  26
HETATM   26  C11 UNL     1       6.772  -0.371  -0.335  1.00  0.00     0.011 C 
BRANCH  26  27
HETATM   27  C12 UNL     1       7.079   0.899   0.372  1.00  0.00     0.085 C 
HETATM   28 BR1  UNL     1       5.783   2.296   0.157  1.00  0.00    -0.097 Br
ENDBRANCH  26  27
ENDBRANCH  25  26
ENDBRANCH  24  25
ENDBRANCH  23  24
ENDBRANCH  11  23
BRANCH  16  29
HETATM   29  C16 UNL     1       0.258   3.193  -0.409  1.00  0.00     0.010 C 
HETATM   30  C17 UNL     1       1.447   3.294   0.517  1.00  0.00     0.012 C 
HETATM   31  C18 UNL     1      -0.808   4.100   0.089  1.00  0.00     0.012 C 
ENDBRANCH  16  29
BRANCH   1  32
HETATM   32  C2  UNL     1      -4.430  -2.706  -0.529  1.00  0.00     0.042 C 
HETATM   33  C1  UNL     1      -4.463  -4.224  -0.688  1.00  0.00     0.008 C 
ENDBRANCH   1  32
BRANCH  20  34
HETATM   34  C21 UNL     1      -4.172   0.933   0.497  1.00  0.00     0.279 C 
HETATM   35  O5  UNL     1      -5.299   0.632   0.051  1.00  0.00    -0.265 OA
HETATM   36  N4  UNL     1      -4.004   2.183   1.112  1.00  0.00    -0.359 N 
HETATM   37  C22 UNL     1      -5.143   3.075   1.204  1.00  0.00     0.149 C 
ATOM     38  H4  UNL     1      -3.097   2.459   1.488  1.00  0.00     0.162 HD
ENDBRANCH  20  34
TORSDOF 8
