REMARK  10 active torsions:
REMARK  status: ('A' for Active; 'I' for Inactive)
REMARK    1  A    between atoms: C2_2  and  C3_3 
REMARK    2  A    between atoms: C3_3  and  N1_4 
REMARK       I    between atoms: N1_4  and  C4_6 
REMARK    3  A    between atoms: C4_6  and  C5_8 
REMARK    4  A    between atoms: C7_10  and  C8_11 
REMARK       I    between atoms: C8_11  and  N2_13 
REMARK    5  A    between atoms: N2_13  and  C9_15 
REMARK    6  A    between atoms: C9_15  and  C10_16 
REMARK    7  A    between atoms: C9_15  and  C20_33 
REMARK    8  A    between atoms: C10_16  and  O4_18 
REMARK    9  A    between atoms: O4_18  and  C11_19 
REMARK   10  A    between atoms: C12_20  and  O5_21 
ROOT
HETATM    1  C9  UNL     1      -1.293   1.696  -0.975  1.00  0.00     0.207 C 
ENDROOT
BRANCH   1   2
HETATM    2  N2  UNL     1      -0.014   1.074  -0.949  1.00  0.00    -0.345 N 
HETATM    3  C8  UNL     1       0.843   0.743  -2.015  1.00  0.00     0.223 C 
HETATM    4  O2  UNL     1       0.475   1.028  -3.190  1.00  0.00    -0.273 OA
ATOM      5  H2  UNL     1       0.333   0.832  -0.021  1.00  0.00     0.163 HD
BRANCH   3   6
HETATM    6  C7  UNL     1       2.145   0.087  -1.858  1.00  0.00     0.084 C 
HETATM    7  C6  UNL     1       2.948   0.606  -0.670  1.00  0.00     0.029 C 
HETATM    8  C5  UNL     1       4.160  -0.307  -0.773  1.00  0.00     0.084 C 
HETATM    9  C24 UNL     1       3.484  -1.652  -0.896  1.00  0.00     0.012 A 
HETATM   10  C23 UNL     1       2.137  -1.378  -1.636  1.00  0.00     0.012 A 
HETATM   11  C25 UNL     1       3.210  -2.256  -2.217  1.00  0.00    -0.038 A 
HETATM   12  C26 UNL     1       2.956  -3.763  -2.176  1.00  0.00     0.015 C 
HETATM   13  C27 UNL     1       3.865  -1.790  -3.462  1.00  0.00     0.015 C 
BRANCH   8  14
HETATM   14  C4  UNL     1       5.009  -0.233   0.446  1.00  0.00     0.222 C 
HETATM   15  N1  UNL     1       6.328  -0.742   0.347  1.00  0.00    -0.357 N 
ATOM     16  H1  UNL     1       6.659  -1.135  -0.534  1.00  0.00     0.162 HD
HETATM   17  O1  UNL     1       4.603   0.249   1.511  1.00  0.00    -0.273 OA
BRANCH  15  18
HETATM   18  C3  UNL     1       7.207  -0.703   1.501  1.00  0.00     0.149 C 
BRANCH  18  19
HETATM   19  C2  UNL     1       7.436   0.708   1.985  1.00  0.00    -0.018 C 
HETATM   20  C1  UNL     1       8.657   1.205   2.017  1.00  0.00     0.008 C 
ENDBRANCH  18  19
ENDBRANCH  15  18
ENDBRANCH   8  14
ENDBRANCH   3   6
ENDBRANCH   1   2
BRANCH   1  21
HETATM   21  C10 UNL     1      -2.365   0.696  -0.727  1.00  0.00     0.284 C 
HETATM   22  O3  UNL     1      -2.272  -0.450  -1.283  1.00  0.00    -0.263 OA
BRANCH  21  23
HETATM   23  O4  UNL     1      -3.474   0.859   0.048  1.00  0.00    -0.310 OA
BRANCH  23  24
HETATM   24  C11 UNL     1      -4.478  -0.150   0.239  1.00  0.00     0.179 C 
HETATM   25  C12 UNL     1      -5.775   0.460  -0.254  1.00  0.00     0.217 C 
HETATM   26  C13 UNL     1      -6.374   1.376   0.727  1.00  0.00     0.160 C 
HETATM   27  O6  UNL     1      -6.681   2.504   0.434  1.00  0.00    -0.295 OA
HETATM   28  C14 UNL     1      -6.602   0.893   2.130  1.00  0.00     0.114 C 
HETATM   29  C15 UNL     1      -6.079  -0.494   2.167  1.00  0.00     0.150 C 
HETATM   30  O7  UNL     1      -5.913  -1.069   3.453  1.00  0.00    -0.311 OA
HETATM   31  C19 UNL     1      -4.620  -0.537   1.682  1.00  0.00     0.086 C 
HETATM   32  C16 UNL     1      -5.116  -2.208   3.184  1.00  0.00     0.289 C 
HETATM   33  O8  UNL     1      -5.036  -3.242   3.931  1.00  0.00    -0.260 OA
HETATM   34  C17 UNL     1      -4.412  -2.003   1.923  1.00  0.00     0.017 C 
HETATM   35  C18 UNL     1      -3.794  -2.918   1.230  1.00  0.00     0.025 C 
BRANCH  25  36
HETATM   36  O5  UNL     1      -6.659  -0.501  -0.735  1.00  0.00    -0.385 OA
ATOM     37  H5  UNL     1      -7.472  -0.119  -1.044  1.00  0.00     0.210 HD
ENDBRANCH  25  36
ENDBRANCH  23  24
ENDBRANCH  21  23
ENDBRANCH   1  21
BRANCH   1  38
HETATM   38  C20 UNL     1      -1.499   2.953  -0.248  1.00  0.00     0.059 C 
HETATM   39  C21 UNL     1      -2.951   3.394  -0.455  1.00  0.00     0.035 C 
HETATM   40  C22 UNL     1      -1.237   2.976   1.216  1.00  0.00     0.035 C 
HETATM   41 CL1  UNL     1      -0.530   4.301  -0.953  1.00  0.00    -0.117 Cl
ENDBRANCH   1  38
TORSDOF 10
