REMARK  5 active torsions:
REMARK  status: ('A' for Active; 'I' for Inactive)
REMARK    1  A    between atoms: N2_3  and  C2_5 
REMARK    2  A    between atoms: C3_8  and  C4_9 
REMARK    3  A    between atoms: C4_9  and  N4_10 
REMARK       I    between atoms: N4_10  and  C5_12 
REMARK       I    between atoms: C5_12  and  N5_14 
REMARK    4  A    between atoms: N5_14  and  C6_16 
REMARK    5  A    between atoms: C6_16  and  C7_17 
ROOT
HETATM    1  N1  UNL     1      -5.545  -1.014  -3.263  1.00  0.00    -0.172 NA
HETATM    2  C1  UNL     1      -4.758  -1.234  -2.438  1.00  0.00     0.183 C 
HETATM    3  N2  UNL     1      -3.821  -1.516  -1.431  1.00  0.00    -0.283 N 
ATOM      4  H2  UNL     1      -3.374  -2.430  -1.361  1.00  0.00     0.179 HD
ENDROOT
BRANCH   3   5
HETATM    5  C2  UNL     1      -3.522  -0.467  -0.510  1.00  0.00     0.087 C 
HETATM    6  N3  UNL     1      -2.323  -0.331  -0.086  1.00  0.00    -0.372 N 
HETATM    7  C3  UNL     1      -1.745   0.582   0.799  1.00  0.00     0.110 C 
ATOM      8  H3  UNL     1      -1.668  -1.016  -0.464  1.00  0.00     0.161 HD
HETATM    9  C10 UNL     1      -2.393   0.759   2.137  1.00  0.00     0.100 C 
HETATM   10  S1  UNL     1      -3.965   1.597   2.096  1.00  0.00    -0.167 SA
HETATM   11  C11 UNL     1      -5.062   0.380   1.275  1.00  0.00     0.081 C 
HETATM   12  C12 UNL     1      -4.636   0.350  -0.148  1.00  0.00     0.087 C 
BRANCH   7  13
HETATM   13  C4  UNL     1      -0.324   0.122   1.081  1.00  0.00     0.150 C 
BRANCH  13  14
HETATM   14  N4  UNL     1       0.471   0.060  -0.106  1.00  0.00    -0.341 N 
HETATM   15  C5  UNL     1       1.831  -0.340  -0.110  1.00  0.00     0.316 C 
HETATM   16  O1  UNL     1       2.327  -0.651   1.020  1.00  0.00    -0.247 OA
HETATM   17  N5  UNL     1       2.587  -0.389  -1.309  1.00  0.00    -0.343 N 
ATOM     18  H5  UNL     1       2.122  -0.129  -2.179  1.00  0.00     0.164 HD
ATOM     19  H4  UNL     1       0.038   0.316  -0.993  1.00  0.00     0.164 HD
BRANCH  17  20
HETATM   20  C6  UNL     1       3.974  -0.784  -1.374  1.00  0.00     0.129 C 
BRANCH  20  21
HETATM   21  C7  UNL     1       4.844   0.130  -0.555  1.00  0.00     0.003 A 
HETATM   22  C8  UNL     1       6.311  -0.142  -0.515  1.00  0.00     0.007 A 
HETATM   23  C9  UNL     1       5.780   1.032  -1.282  1.00  0.00     0.007 A 
ENDBRANCH  20  21
ENDBRANCH  17  20
ENDBRANCH  13  14
ENDBRANCH   7  13
ENDBRANCH   3   5
TORSDOF 5
