REMARK  6 active torsions:
REMARK  status: ('A' for Active; 'I' for Inactive)
REMARK    1  A    between atoms: S1_2  and  C2_3 
REMARK    2  A    between atoms: C2_3  and  C3_4 
REMARK    3  A    between atoms: C4_6  and  N1_7 
REMARK       I    between atoms: N1_7  and  C5_9 
REMARK       I    between atoms: C5_9  and  N2_11 
REMARK    4  A    between atoms: C10_16  and  O3_17 
REMARK    5  A    between atoms: C11_19  and  C12_20 
REMARK    6  A    between atoms: C12_20  and  O4_21 
ROOT
HETATM    1  C3  UNL     1      -2.083  -0.027  -0.866  1.00  0.00     0.142 C 
HETATM    2  O1  UNL     1      -1.166  -1.076  -0.616  1.00  0.00    -0.357 OA
HETATM    3  C4  UNL     1      -0.399  -0.656   0.466  1.00  0.00     0.254 C 
HETATM    4  C10 UNL     1      -1.162   0.457   1.160  1.00  0.00     0.175 C 
HETATM    5  C11 UNL     1      -2.557   0.222   0.528  1.00  0.00     0.072 C 
ENDROOT
BRANCH   3   6
HETATM    6  N1  UNL     1       0.882  -0.198  -0.058  1.00  0.00    -0.314 N 
HETATM    7  C5  UNL     1       2.085  -0.818   0.357  1.00  0.00     0.320 C 
HETATM    8  O2  UNL     1       2.065  -1.783   1.194  1.00  0.00    -0.247 OA
HETATM    9  N2  UNL     1       3.327  -0.382  -0.143  1.00  0.00    -0.334 N 
HETATM   10  C6  UNL     1       4.642  -0.915   0.184  1.00  0.00     0.127 C 
HETATM   11  C9  UNL     1       3.503   0.709  -1.101  1.00  0.00     0.127 C 
HETATM   12  C7  UNL     1       5.615   0.196   0.011  1.00  0.00     0.022 C 
HETATM   13  C8  UNL     1       4.911   1.181  -0.881  1.00  0.00     0.022 C 
ATOM     14  H1  UNL     1       0.912   0.572  -0.726  1.00  0.00     0.166 HD
ENDBRANCH   3   6
BRANCH   4  15
HETATM   15  O3  UNL     1      -1.294   0.287   2.510  1.00  0.00    -0.391 OA
ATOM     16  H3  UNL     1      -1.772   0.984   2.944  1.00  0.00     0.210 HD
ENDBRANCH   4  15
BRANCH   1  17
HETATM   17  C2  UNL     1      -3.079  -0.413  -1.876  1.00  0.00     0.106 C 
BRANCH  17  18
HETATM   18  S1  UNL     1      -4.253   0.899  -2.237  1.00  0.00    -0.171 SA
HETATM   19  C1  UNL     1      -5.340   1.248  -0.863  1.00  0.00     0.089 C 
ENDBRANCH  17  18
ENDBRANCH   1  17
BRANCH   5  20
HETATM   20  C12 UNL     1      -3.043  -1.043   1.222  1.00  0.00     0.174 C 
BRANCH  20  21
HETATM   21  O4  UNL     1      -3.464  -0.747   2.495  1.00  0.00    -0.400 OA
ATOM     22  H4  UNL     1      -3.767  -1.536   2.928  1.00  0.00     0.209 HD
ENDBRANCH  20  21
ENDBRANCH   5  20
TORSDOF 6
