REMARK  5 active torsions:
REMARK  status: ('A' for Active; 'I' for Inactive)
REMARK    1  A    between atoms: C2_2  and  C4_4 
REMARK    2  A    between atoms: C4_4  and  N1_5 
REMARK    3  A    between atoms: C4_4  and  C6_10 
REMARK       I    between atoms: N1_5  and  C5_7 
REMARK       I    between atoms: C6_10  and  N3_12 
REMARK    4  A    between atoms: C9_16  and  C10_17 
REMARK    5  A    between atoms: C10_17  and  N4_18 
ROOT
HETATM    1  C10 UNL     1       3.073  -0.656   0.414  1.00  0.00     0.312 C 
HETATM    2  C11 UNL     1       3.610  -1.939  -0.086  1.00  0.00     0.094 C 
HETATM    3  N5  UNL     1       4.042  -2.939  -0.483  1.00  0.00    -0.195 NA
ENDROOT
BRANCH   1   4
HETATM    4  C9  UNL     1       1.891  -0.330  -0.446  1.00  0.00     0.142 C 
HETATM    5  N3  UNL     1       1.218   0.900  -0.083  1.00  0.00    -0.333 N 
HETATM    6  C6  UNL     1      -0.167   1.180  -0.027  1.00  0.00     0.244 C 
HETATM    7  C7  UNL     1       2.298   1.883   0.199  1.00  0.00     0.200 C 
HETATM    8  O2  UNL     1      -0.469   2.382   0.291  1.00  0.00    -0.271 OA
HETATM    9  S1  UNL     1       3.308   1.597  -1.314  1.00  0.00    -0.147 SA
HETATM   10  C8  UNL     1       2.516   0.015  -1.833  1.00  0.00     0.104 C 
BRANCH   6  11
HETATM   11  C4  UNL     1      -1.153   0.163  -0.320  1.00  0.00     0.181 C 
BRANCH  11  12
HETATM   12  C2  UNL     1      -1.810  -0.536   0.822  1.00  0.00     0.009 C 
HETATM   13  C1  UNL     1      -2.768  -1.554   0.166  1.00  0.00     0.012 C 
HETATM   14  C3  UNL     1      -0.922  -1.364   1.700  1.00  0.00     0.012 C 
ENDBRANCH  11  12
BRANCH  11  15
HETATM   15  N1  UNL     1      -2.224   0.787  -1.089  1.00  0.00    -0.332 N 
HETATM   16  C5  UNL     1      -3.183   1.660  -0.571  1.00  0.00     0.329 C 
HETATM   17  N2  UNL     1      -4.202   2.210  -1.439  1.00  0.00    -0.040 NA
HETATM   18  O1  UNL     1      -3.294   2.062   0.612  1.00  0.00    -0.251 OA
ATOM     19  H1  UNL     1      -2.277   0.568  -2.084  1.00  0.00     0.164 HD
ENDBRANCH  11  15
ENDBRANCH   6  11
ENDBRANCH   1   4
BRANCH   1  20
HETATM   20  N4  UNL     1       2.767  -0.820   1.809  1.00  0.00    -0.061 N 
ATOM     21  H43 UNL     1       2.284   0.004   2.166  1.00  0.00     0.276 HD
ATOM     22  H42 UNL     1       2.034  -1.519   1.932  1.00  0.00     0.276 HD
ATOM     23  H41 UNL     1       3.572  -1.042   2.395  1.00  0.00     0.276 HD
ENDBRANCH   1  20
TORSDOF 5
