REMARK  5 active torsions:
REMARK  status: ('A' for Active; 'I' for Inactive)
REMARK    1  A    between atoms: C2_2  and  N1_3 
REMARK    2  A    between atoms: N1_3  and  C3_5 
REMARK    3  A    between atoms: C4_8  and  C5_9 
REMARK    4  A    between atoms: N3_13  and  C9_14 
REMARK    5  A    between atoms: C9_14  and  C10_15 
ROOT
HETATM    1  C5  UNL     1      -0.083  -1.562   0.295  1.00  0.00     0.005 C 
HETATM    2  C6  UNL     1       0.310  -2.857   0.940  1.00  0.00     0.022 C 
HETATM    3  C7  UNL     1       0.439  -0.456   1.154  1.00  0.00     0.046 C 
HETATM    4  C8  UNL     1       1.248   0.539   0.364  1.00  0.00     0.278 C 
HETATM    5  N3  UNL     1       2.320  -0.087  -0.393  1.00  0.00     0.135 N 
HETATM    6  C11 UNL     1       1.810  -1.086  -1.314  1.00  0.00     0.296 C 
HETATM    7  C12 UNL     1       2.735  -2.292  -1.319  1.00  0.00     0.087 C 
HETATM    8  F1  UNL     1       1.900  -0.578  -2.626  1.00  0.00    -0.209 F 
HETATM    9  C13 UNL     1       0.384  -1.436  -1.132  1.00  0.00     0.092 C 
ENDROOT
BRANCH   1  10
HETATM   10  C4  UNL     1      -1.595  -1.537   0.174  1.00  0.00     0.026 A 
HETATM   11  N2  UNL     1      -2.297  -0.434   0.260  1.00  0.00    -0.339 N 
HETATM   12  C3  UNL     1      -3.623  -0.503   0.123  1.00  0.00     0.144 A 
ATOM     13  H2  UNL     1      -1.838   0.461   0.429  1.00  0.00     0.168 HD
HETATM   14  S1  UNL     1      -3.893  -2.176  -0.135  1.00  0.00    -0.064 SA
HETATM   15  C14 UNL     1      -2.272  -2.705  -0.052  1.00  0.00     0.079 A 
BRANCH  12  16
HETATM   16  N1  UNL     1      -4.533   0.413   0.153  1.00  0.00    -0.371 N 
ATOM     17  H1  UNL     1      -5.496   0.102   0.023  1.00  0.00     0.161 HD
BRANCH  16  18
HETATM   18  C2  UNL     1      -4.339   1.807   0.348  1.00  0.00     0.117 C 
HETATM   19  C1  UNL     1      -5.724   2.468   0.449  1.00  0.00     0.026 C 
ENDBRANCH  16  18
ENDBRANCH  12  16
ENDBRANCH   1  10
BRANCH   5  20
HETATM   20  C9  UNL     1       3.012   0.903  -1.173  1.00  0.00     0.355 C 
BRANCH  20  21
HETATM   21  C10 UNL     1       3.585   2.020  -0.418  1.00  0.00     0.141 A 
HETATM   22  N4  UNL     1       4.489   1.924   0.559  1.00  0.00    -0.271 N 
HETATM   23  N5  UNL     1       4.773   3.158   0.992  1.00  0.00    -0.227 N 
ATOM     24  H4  UNL     1       4.894   1.058   0.915  1.00  0.00     0.190 HD
HETATM   25  N6  UNL     1       4.066   4.026   0.309  1.00  0.00    -0.227 N 
ATOM     26  H5  UNL     1       5.434   3.387   1.735  1.00  0.00     0.210 HD
HETATM   27  N7  UNL     1       3.337   3.340  -0.555  1.00  0.00    -0.271 N 
ATOM     28  H6  UNL     1       4.076   5.040   0.423  1.00  0.00     0.210 HD
ATOM     29  H7  UNL     1       2.685   3.747  -1.225  1.00  0.00     0.190 HD
ENDBRANCH  20  21
ENDBRANCH   5  20
TORSDOF 5
