REMARK  5 active torsions:
REMARK  status: ('A' for Active; 'I' for Inactive)
REMARK    1  A    between atoms: C3_4  and  C4_5 
REMARK       I    between atoms: C4_5  and  N1_7 
REMARK    2  A    between atoms: N1_7  and  C5_9 
REMARK    3  A    between atoms: C5_9  and  C6_10 
REMARK    4  A    between atoms: C7_12  and  O2_13 
REMARK    5  A    between atoms: C8_15  and  N2_16 
ROOT
HETATM    1  C1  UNL     1       0.028  -3.138  -1.531  1.00  0.00     0.059 C 
HETATM    2  C2  UNL     1       0.625  -2.013  -0.759  1.00  0.00     0.009 A 
HETATM    3  S1  UNL     1       2.301  -1.690  -0.714  1.00  0.00    -0.084 SA
HETATM    4  C3  UNL     1       2.297  -0.331   0.318  1.00  0.00     0.108 A 
HETATM    5  C7  UNL     1       0.985  -0.161   0.603  1.00  0.00     0.116 A 
HETATM    6  C8  UNL     1       0.098  -1.042   0.040  1.00  0.00     0.078 A 
ENDROOT
BRANCH   6   7
HETATM    7  N2  UNL     1      -1.349  -0.932   0.272  1.00  0.00    -0.375 N 
HETATM    8  C9  UNL     1      -1.973   0.044   1.139  1.00  0.00     0.131 C 
HETATM    9  C10 UNL     1      -3.433  -0.211   1.109  1.00  0.00     0.051 C 
HETATM   10  C11 UNL     1      -4.192   1.076   0.742  1.00  0.00     0.129 C 
HETATM   11  C13 UNL     1      -3.643  -0.948  -0.221  1.00  0.00     0.170 C 
HETATM   12  N3  UNL     1      -3.720   1.232  -0.623  1.00  0.00    -0.200 NA
HETATM   13  C12 UNL     1      -4.442   2.220  -1.364  1.00  0.00     0.143 C 
HETATM   14  O3  UNL     1      -3.697   0.025  -1.183  1.00  0.00    -0.296 OA
HETATM   15  C14 UNL     1      -2.381  -1.734  -0.297  1.00  0.00     0.157 C 
ENDBRANCH   6   7
BRANCH   5  16
HETATM   16  O2  UNL     1       0.574   0.897   1.456  1.00  0.00    -0.357 OA
ATOM     17  H2  UNL     1      -0.347   1.016   1.656  1.00  0.00     0.217 HD
ENDBRANCH   5  16
BRANCH   4  18
HETATM   18  C4  UNL     1       3.501   0.388   0.720  1.00  0.00     0.261 C 
HETATM   19  O1  UNL     1       3.469   1.376   1.473  1.00  0.00    -0.267 OA
HETATM   20  N1  UNL     1       4.774  -0.061   0.228  1.00  0.00    -0.355 N 
ATOM     21  H1  UNL     1       4.804  -0.874  -0.387  1.00  0.00     0.162 HD
BRANCH  20  22
HETATM   22  C5  UNL     1       6.005   0.592   0.569  1.00  0.00     0.137 C 
BRANCH  22  23
HETATM   23  C6  UNL     1       6.013   2.003   0.097  1.00  0.00     0.134 C 
HETATM   24 CL1  UNL     1       7.585   2.727   0.562  1.00  0.00    -0.129 Cl
ENDBRANCH  22  23
ENDBRANCH  20  22
ENDBRANCH   4  18
TORSDOF 5
