REMARK  4 active torsions:
REMARK  status: ('A' for Active; 'I' for Inactive)
REMARK    1  A    between atoms: N2_6  and  C3_8 
REMARK    2  A    between atoms: C8_14  and  C9_15 
REMARK    3  A    between atoms: C10_20  and  C11_21 
REMARK    4  A    between atoms: C11_21  and  N5_22 
ROOT
HETATM    1  C9  UNL     1      -0.533  -0.327   0.899  1.00  0.00     0.143 A 
HETATM    2  N3  UNL     1      -1.666  -0.411   1.607  1.00  0.00    -0.283 N 
ATOM      3  H3  UNL     1      -1.719  -0.455   2.625  1.00  0.00     0.188 HD
HETATM    4  N4  UNL     1      -2.722  -0.428   0.777  1.00  0.00    -0.286 N 
ATOM      5  H4  UNL     1      -3.703  -0.487   1.049  1.00  0.00     0.188 HD
HETATM    6  C10 UNL     1      -2.249  -0.354  -0.473  1.00  0.00     0.115 A 
HETATM    7  N6  UNL     1      -0.909  -0.292  -0.384  1.00  0.00    -0.327 N 
ATOM      8  H6  UNL     1      -0.272  -0.228  -1.178  1.00  0.00     0.169 HD
ENDROOT
BRANCH   1   9
HETATM    9  C8  UNL     1       0.840  -0.282   1.439  1.00  0.00     0.110 A 
HETATM   10  C1  UNL     1       1.237  -0.316   2.746  1.00  0.00     0.211 A 
HETATM   11  F1  UNL     1       0.261  -0.403   3.738  1.00  0.00    -0.184 F 
HETATM   12  N1  UNL     1       2.506  -0.265   3.005  1.00  0.00    -0.312 N 
HETATM   13  C2  UNL     1       3.363  -0.182   1.980  1.00  0.00     0.147 A 
ATOM     14  H1  UNL     1       2.844  -0.288   3.967  1.00  0.00     0.170 HD
HETATM   15  N2  UNL     1       4.671  -0.121   2.056  1.00  0.00    -0.366 N 
HETATM   16  S1  UNL     1       2.331  -0.177   0.622  1.00  0.00    -0.046 SA
ATOM     17  H2  UNL     1       5.094  -0.137   2.984  1.00  0.00     0.162 HD
BRANCH  15  18
HETATM   18  C3  UNL     1       5.535  -0.034   0.939  1.00  0.00     0.083 C 
HETATM   19  C4  UNL     1       5.466  -1.140  -0.055  1.00  0.00     0.025 C 
HETATM   20  C5  UNL     1       6.073  -0.544  -1.329  1.00  0.00     0.002 C 
HETATM   21  C6  UNL     1       6.305   0.922  -1.045  1.00  0.00     0.002 C 
HETATM   22  C7  UNL     1       5.346   1.229   0.113  1.00  0.00     0.025 C 
ENDBRANCH  15  18
ENDBRANCH   1   9
BRANCH   6  23
HETATM   23  C11 UNL     1      -3.038  -0.336  -1.700  1.00  0.00     0.195 C 
BRANCH  23  24
HETATM   24  N5  UNL     1      -4.415  -0.012  -1.565  1.00  0.00    -0.402 N 
HETATM   25  C12 UNL     1      -4.731   1.271  -1.043  1.00  0.00     0.143 C 
HETATM   26  C13 UNL     1      -6.190   1.556  -1.321  1.00  0.00     0.187 C 
HETATM   27  O1  UNL     1      -7.047   0.551  -0.972  1.00  0.00    -0.388 OA
HETATM   28  C14 UNL     1      -6.483  -0.568  -0.424  1.00  0.00     0.187 C 
HETATM   29  C15 UNL     1      -5.285  -1.074  -1.194  1.00  0.00     0.143 C 
ENDBRANCH  23  24
ENDBRANCH   6  23
TORSDOF 4
