REMARK  4 active torsions:
REMARK  status: ('A' for Active; 'I' for Inactive)
REMARK    1  A    between atoms: C3_3  and  C4_4 
REMARK    2  A    between atoms: C5_10  and  C6_11 
REMARK    3  A    between atoms: C6_11  and  C8_13 
REMARK    4  A    between atoms: C17_22  and  N2_23 
ROOT
HETATM    1  C1  UNL     1       5.418  -0.468  -0.055  1.00  0.00     0.053 C 
HETATM    2  C2  UNL     1       4.017  -0.151  -0.285  1.00  0.00    -0.004 A 
HETATM    3  C3  UNL     1       3.500   1.051   0.123  1.00  0.00     0.125 A 
HETATM    4  N1  UNL     1       2.191   1.354  -0.080  1.00  0.00    -0.355 N 
ATOM      5  H1  UNL     1       1.854   2.261   0.243  1.00  0.00     0.166 HD
HETATM    6  C5  UNL     1       1.312   0.530  -0.681  1.00  0.00     0.016 A 
HETATM    7  C16 UNL     1       1.830  -0.682  -1.093  1.00  0.00     0.055 A 
HETATM    8  C17 UNL     1       3.145  -1.051  -0.918  1.00  0.00     0.035 A 
ENDROOT
BRANCH   6   9
HETATM    9  C6  UNL     1      -0.088   0.871  -0.923  1.00  0.00     0.036 C 
HETATM   10  C7  UNL     1      -0.468   0.418  -2.312  1.00  0.00     0.017 C 
BRANCH   9  11
HETATM   11  C8  UNL     1      -1.095   0.411   0.087  1.00  0.00    -0.005 C 
HETATM   12  C9  UNL     1      -1.168  -1.079   0.280  1.00  0.00     0.005 C 
HETATM   13  C10 UNL     1      -1.880  -1.469   1.543  1.00  0.00     0.000 C 
HETATM   14  C11 UNL     1      -3.335  -1.539   1.540  1.00  0.00     0.000 C 
HETATM   15  C12 UNL     1      -4.085  -1.238   0.299  1.00  0.00     0.000 C 
HETATM   16  C13 UNL     1      -4.593   0.213   0.353  1.00  0.00     0.000 C 
HETATM   17  C14 UNL     1      -3.428   1.143   0.667  1.00  0.00     0.000 C 
HETATM   18  C15 UNL     1      -2.437   0.960  -0.435  1.00  0.00     0.005 C 
ENDBRANCH   9  11
ENDBRANCH   6   9
BRANCH   3  19
HETATM   19  C4  UNL     1       4.329   2.051   0.776  1.00  0.00     0.433 C 
HETATM   20  F1  UNL     1       4.887   1.501   1.933  1.00  0.00    -0.165 F 
HETATM   21  F2  UNL     1       5.294   2.649   0.061  1.00  0.00    -0.165 F 
HETATM   22  F3  UNL     1       3.514   3.092   1.278  1.00  0.00    -0.165 F 
ENDBRANCH   3  19
BRANCH   8  23
HETATM   23  N2  UNL     1       3.592  -2.175  -1.305  1.00  0.00    -0.399 N 
ATOM     24  H22 UNL     1       4.566  -2.448  -1.175  1.00  0.00     0.156 HD
ATOM     25  H21 UNL     1       2.958  -2.829  -1.765  1.00  0.00     0.156 HD
ENDBRANCH   8  23
TORSDOF 4
