REMARK  3 active torsions:
REMARK  status: ('A' for Active; 'I' for Inactive)
REMARK    1  A    between atoms: C2_2  and  C4_4 
REMARK    2  A    between atoms: C7_7  and  C8_8 
REMARK    3  A    between atoms: C15_20  and  C16_21 
ROOT
HETATM    1  C4  UNL     1       3.136   0.255   0.180  1.00  0.00    -0.054 A 
HETATM    2  C5  UNL     1       2.104   1.153   0.030  1.00  0.00     0.008 A 
HETATM    3  C6  UNL     1       0.799   0.668   0.004  1.00  0.00     0.011 A 
HETATM    4  C7  UNL     1       0.522  -0.665   0.130  1.00  0.00    -0.013 A 
HETATM    5  C15 UNL     1       1.548  -1.607   0.288  1.00  0.00     0.056 A 
HETATM    6  C17 UNL     1       2.828  -1.117   0.311  1.00  0.00     0.024 A 
ENDROOT
BRANCH   4   7
HETATM    7  C8  UNL     1      -0.868  -1.177   0.278  1.00  0.00     0.223 C 
HETATM    8  C9  UNL     1      -1.718  -1.247  -0.914  1.00  0.00     0.078 C 
HETATM    9  C10 UNL     1      -2.653  -0.291  -0.233  1.00  0.00     0.144 C 
HETATM   10  C11 UNL     1      -3.116   0.651  -1.360  1.00  0.00     0.042 C 
HETATM   11  C14 UNL     1      -3.827  -0.902   0.493  1.00  0.00     0.152 C 
HETATM   12  N2  UNL     1      -1.639   0.100   0.631  1.00  0.00    -0.056 N 
HETATM   13  C12 UNL     1      -4.093   1.669  -1.002  1.00  0.00     0.022 C 
HETATM   14  C13 UNL     1      -4.721   1.360   0.352  1.00  0.00     0.114 C 
HETATM   15  N1  UNL     1      -4.963  -0.045   0.420  1.00  0.00    -0.419 N 
ATOM     16  H1  UNL     1      -5.911  -0.421   0.416  1.00  0.00     0.153 HD
ATOM     17  H22 UNL     1      -1.850   0.321   1.604  1.00  0.00     0.279 HD
ATOM     18  H21 UNL     1      -1.197   1.013   0.525  1.00  0.00     0.279 HD
ENDBRANCH   4   7
BRANCH   5  19
HETATM   19  C16 UNL     1       1.215  -3.036   0.339  1.00  0.00     0.418 C 
HETATM   20  F1  UNL     1       0.516  -3.424  -0.822  1.00  0.00    -0.166 F 
HETATM   21  F2  UNL     1       2.460  -3.691   0.134  1.00  0.00    -0.166 F 
HETATM   22  F3  UNL     1       0.730  -3.539   1.482  1.00  0.00    -0.166 F 
ENDBRANCH   5  19
BRANCH   1  23
HETATM   23  C2  UNL     1       4.567   0.619   0.176  1.00  0.00     0.010 C 
HETATM   24  C1  UNL     1       4.976   0.736  -1.316  1.00  0.00     0.015 C 
HETATM   25  C3  UNL     1       4.840   1.934   0.818  1.00  0.00     0.015 C 
ENDBRANCH   1  23
TORSDOF 3
