REMARK  3 active torsions:
REMARK  status: ('A' for Active; 'I' for Inactive)
REMARK    1  A    between atoms: C2_2  and  C4_4 
REMARK    2  A    between atoms: C9_9  and  C10_10 
REMARK    3  A    between atoms: C15_17  and  C16_18 
ROOT
HETATM    1  C10 UNL     1       0.431   0.739   0.532  1.00  0.00     0.086 A 
HETATM    2  N1  UNL     1       1.265   0.877   1.575  1.00  0.00    -0.344 N 
ATOM      3  H1  UNL     1       1.014   1.313   2.462  1.00  0.00     0.167 HD
HETATM    4  C11 UNL     1       2.479   0.361   1.292  1.00  0.00     0.061 A 
HETATM    5  C12 UNL     1       3.643   0.278   2.054  1.00  0.00     0.032 A 
HETATM    6  C13 UNL     1       4.734  -0.313   1.484  1.00  0.00     0.003 A 
HETATM    7  C14 UNL     1       4.667  -0.801   0.205  1.00  0.00     0.019 A 
HETATM    8  C15 UNL     1       3.511  -0.713  -0.539  1.00  0.00     0.076 A 
HETATM    9  C17 UNL     1       2.397  -0.122   0.015  1.00  0.00     0.075 A 
HETATM   10  N2  UNL     1       1.146   0.121  -0.418  1.00  0.00    -0.343 N 
ATOM     11  H2  UNL     1       0.792  -0.130  -1.341  1.00  0.00     0.167 HD
ENDROOT
BRANCH   1  12
HETATM   12  C9  UNL     1      -0.980   1.182   0.462  1.00  0.00     0.058 C 
HETATM   13  C4  UNL     1      -1.972   0.126   0.145  1.00  0.00     0.000 C 
HETATM   14  C5  UNL     1      -2.323   0.230  -1.337  1.00  0.00     0.006 C 
HETATM   15  C6  UNL     1      -3.106   1.515  -1.567  1.00  0.00     0.000 C 
HETATM   16  C7  UNL     1      -2.521   2.651  -0.748  1.00  0.00     0.001 C 
HETATM   17  C8  UNL     1      -1.062   2.343  -0.544  1.00  0.00     0.013 C 
BRANCH  13  18
HETATM   18  C2  UNL     1      -1.602  -1.265   0.531  1.00  0.00    -0.018 C 
HETATM   19  C1  UNL     1      -1.271  -1.290   2.009  1.00  0.00     0.010 C 
HETATM   20  C3  UNL     1      -2.685  -2.272   0.287  1.00  0.00     0.010 C 
ENDBRANCH  13  18
ENDBRANCH   1  12
BRANCH   8  21
HETATM   21  C16 UNL     1       3.443  -1.242  -1.920  1.00  0.00     0.419 C 
HETATM   22  F1  UNL     1       3.136  -0.268  -2.847  1.00  0.00    -0.166 F 
HETATM   23  F2  UNL     1       2.460  -2.237  -1.912  1.00  0.00    -0.166 F 
HETATM   24  F3  UNL     1       4.628  -1.870  -2.255  1.00  0.00    -0.166 F 
ENDBRANCH   8  21
TORSDOF 3
