REMARK  4 active torsions:
REMARK  status: ('A' for Active; 'I' for Inactive)
REMARK    1  A    between atoms: C2_2  and  C3_3 
REMARK    2  A    between atoms: C6_6  and  N1_7 
REMARK    3  A    between atoms: N1_7  and  N2_8 
REMARK    4  A    between atoms: C11_15  and  C12_16 
ROOT
HETATM    1  C3  UNL     1       2.338   0.182   0.687  1.00  0.00    -0.014 C 
HETATM    2  C4  UNL     1       1.673  -0.767   1.639  1.00  0.00     0.007 C 
HETATM    3  C5  UNL     1       0.179  -0.696   1.485  1.00  0.00     0.034 C 
HETATM    4  C6  UNL     1      -0.238  -0.930   0.044  1.00  0.00     0.081 C 
HETATM    5  C7  UNL     1      -1.666  -0.537  -0.050  1.00  0.00    -0.025 A 
HETATM    6  C8  UNL     1      -2.654  -1.509   0.086  1.00  0.00     0.010 A 
HETATM    7  C9  UNL     1      -3.982  -1.169   0.006  1.00  0.00     0.002 A 
HETATM    8  C10 UNL     1      -4.291   0.148  -0.211  1.00  0.00     0.017 A 
HETATM    9  C11 UNL     1      -3.298   1.135  -0.349  1.00  0.00     0.054 A 
HETATM   10  C13 UNL     1      -1.964   0.804  -0.269  1.00  0.00    -0.035 A 
HETATM   11  C14 UNL     1      -0.863   1.785  -0.384  1.00  0.00     0.040 C 
HETATM   12  C15 UNL     1       0.191   1.191  -1.275  1.00  0.00     0.011 C 
HETATM   13  C16 UNL     1       0.555  -0.209  -0.974  1.00  0.00     0.017 C 
HETATM   14  C17 UNL     1       2.067  -0.318  -0.713  1.00  0.00     0.011 C 
ENDROOT
BRANCH   4  15
HETATM   15  N1  UNL     1      -0.101  -2.374  -0.148  1.00  0.00    -0.133 NA
BRANCH  15  16
HETATM   16  N2  UNL     1      -0.417  -2.805  -1.399  1.00  0.00    -0.347 N 
ATOM     17  H22 UNL     1      -0.722  -2.163  -2.130  1.00  0.00     0.172 HD
ATOM     18  H21 UNL     1      -0.321  -3.812  -1.533  1.00  0.00     0.172 HD
ENDBRANCH  15  16
ENDBRANCH   4  15
BRANCH   1  19
HETATM   19  C2  UNL     1       3.832   0.121   0.945  1.00  0.00     0.000 C 
HETATM   20  C1  UNL     1       4.593   1.052   0.025  1.00  0.00     0.005 C 
ENDBRANCH   1  19
BRANCH   9  21
HETATM   21  C12 UNL     1      -3.677   2.543  -0.602  1.00  0.00     0.418 C 
HETATM   22  F1  UNL     1      -5.089   2.583  -0.576  1.00  0.00    -0.166 F 
HETATM   23  F2  UNL     1      -3.199   3.394   0.365  1.00  0.00    -0.166 F 
HETATM   24  F3  UNL     1      -3.299   2.977  -1.871  1.00  0.00    -0.166 F 
ENDBRANCH   9  21
TORSDOF 4
