REMARK  8 active torsions:
REMARK  status: ('A' for Active; 'I' for Inactive)
REMARK    1  A    between atoms: C1_2  and  C2_3 
REMARK    2  A    between atoms: C1_2  and  C8_9 
REMARK    3  A    between atoms: N1_14  and  C13_15 
REMARK    4  A    between atoms: C13_15  and  O2_16 
REMARK    5  A    between atoms: C13_15  and  N2_18 
REMARK    6  A    between atoms: C16_21  and  N3_22 
REMARK    7  A    between atoms: C19_25  and  C20_26 
REMARK    8  A    between atoms: C20_26  and  O3_27 
ROOT
HETATM    1  C13 UNL     1      -0.683  -1.137  -1.044  1.00  0.00     0.217 C 
ENDROOT
BRANCH   1   2
HETATM    2  N1  UNL     1      -1.811  -1.302  -0.227  1.00  0.00    -0.336 N 
HETATM    3  C8  UNL     1      -3.062  -0.548  -0.593  1.00  0.00     0.158 C 
HETATM    4  C9  UNL     1      -4.168  -1.494  -0.273  1.00  0.00     0.033 C 
HETATM    5  C10 UNL     1      -3.759  -2.958  -0.443  1.00  0.00     0.004 C 
HETATM    6  C11 UNL     1      -2.676  -3.372   0.522  1.00  0.00     0.020 C 
HETATM    7  C12 UNL     1      -1.989  -2.078   0.960  1.00  0.00     0.127 C 
BRANCH   3   8
HETATM    8  C1  UNL     1      -3.106   0.636   0.298  1.00  0.00     0.153 C 
HETATM    9  O1  UNL     1      -2.227   0.757   1.182  1.00  0.00    -0.295 OA
BRANCH   8  10
HETATM   10  C2  UNL     1      -4.090   1.716   0.262  1.00  0.00     0.057 C 
HETATM   11  C3  UNL     1      -5.517   1.297   0.542  1.00  0.00     0.012 C 
HETATM   12  C4  UNL     1      -6.425   2.516   0.586  1.00  0.00     0.001 C 
HETATM   13  C5  UNL     1      -5.645   3.786   0.361  1.00  0.00     0.000 C 
HETATM   14  C6  UNL     1      -4.776   3.785  -0.847  1.00  0.00     0.001 C 
HETATM   15  C7  UNL     1      -4.125   2.443  -1.065  1.00  0.00     0.012 C 
ENDBRANCH   8  10
ENDBRANCH   3   8
ENDBRANCH   1   2
BRANCH   1  16
HETATM   16  O2  UNL     1      -0.850  -0.269  -2.043  1.00  0.00    -0.332 OA
ATOM     17  H2  UNL     1      -0.086  -0.157  -2.596  1.00  0.00     0.220 HD
ENDBRANCH   1  16
BRANCH   1  18
HETATM   18  N2  UNL     1       0.579  -1.692  -1.032  1.00  0.00    -0.347 N 
HETATM   19  C14 UNL     1       1.571  -1.231  -2.036  1.00  0.00     0.128 C 
HETATM   20  C15 UNL     1       2.928  -1.778  -1.748  1.00  0.00     0.055 C 
HETATM   21  C16 UNL     1       3.342  -1.833  -0.322  1.00  0.00     0.226 C 
HETATM   22  C23 UNL     1       2.207  -2.019   0.637  1.00  0.00     0.055 C 
HETATM   23  C24 UNL     1       1.072  -2.699  -0.161  1.00  0.00     0.128 C 
BRANCH  21  24
HETATM   24  N3  UNL     1       4.240  -0.793   0.030  1.00  0.00     0.093 N 
HETATM   25  C17 UNL     1       5.511  -0.781  -0.610  1.00  0.00     0.273 C 
HETATM   26  C18 UNL     1       5.937   0.693  -0.680  1.00  0.00     0.037 C 
HETATM   27  C19 UNL     1       5.947   1.306   0.701  1.00  0.00     0.012 C 
HETATM   28  C21 UNL     1       4.769   0.962   1.544  1.00  0.00     0.037 C 
HETATM   29  C22 UNL     1       4.406  -0.519   1.419  1.00  0.00     0.273 C 
BRANCH  27  30
HETATM   30  C20 UNL     1       5.972   2.825   0.491  1.00  0.00     0.168 C 
BRANCH  30  31
HETATM   31  O3  UNL     1       7.141   3.086  -0.226  1.00  0.00    -0.400 OA
ATOM     32  H3  UNL     1       7.156   4.027  -0.356  1.00  0.00     0.209 HD
ENDBRANCH  30  31
ENDBRANCH  27  30
ENDBRANCH  21  24
ENDBRANCH   1  18
TORSDOF 8
