REMARK  6 active torsions:
REMARK  status: ('A' for Active; 'I' for Inactive)
REMARK    1  A    between atoms: C4_6  and  C5_7 
REMARK    2  A    between atoms: C6_8  and  C7_9 
REMARK    3  A    between atoms: C7_9  and  O1_12 
REMARK    4  A    between atoms: C16_20  and  C17_21 
REMARK    5  A    between atoms: C17_21  and  O2_22 
REMARK    6  A    between atoms: C17_21  and  N2_24 
ROOT
HETATM    1  C1  UNL     1       3.502  -3.958  -2.070  1.00  0.00     0.145 C 
HETATM    2  N1  UNL     1       2.420  -3.531  -1.269  1.00  0.00    -0.400 N 
ATOM      3  H1  UNL     1       1.650  -4.187  -1.138  1.00  0.00     0.158 HD
HETATM    4  C2  UNL     1       2.322  -2.404  -0.699  1.00  0.00    -0.008 C 
HETATM    5  C3  UNL     1       3.315  -1.326  -0.764  1.00  0.00     0.070 C 
HETATM    6  C4  UNL     1       2.418  -0.103  -0.881  1.00  0.00     0.076 C 
HETATM    7  C10 UNL     1       1.056  -0.464  -0.336  1.00  0.00     0.020 C 
HETATM    8  C11 UNL     1       0.070  -0.304  -1.407  1.00  0.00     0.001 C 
HETATM    9  C12 UNL     1       0.201   1.051  -2.116  1.00  0.00     0.006 C 
HETATM   10  C13 UNL     1      -0.923   1.498  -1.144  1.00  0.00     0.010 C 
HETATM   11  C14 UNL     1      -1.320   0.025  -1.179  1.00  0.00    -0.032 C 
HETATM   12  C15 UNL     1      -2.111  -0.172  -2.497  1.00  0.00     0.016 C 
HETATM   13  C16 UNL     1      -2.072  -0.391   0.012  1.00  0.00     0.057 C 
HETATM   14  C21 UNL     1      -2.252  -1.852   0.124  1.00  0.00    -0.009 C 
HETATM   15  C22 UNL     1      -3.459  -2.351   0.846  1.00  0.00     0.010 C 
HETATM   16  C23 UNL     1      -1.058  -2.407   0.927  1.00  0.00     0.006 C 
HETATM   17  C24 UNL     1       0.009  -2.724  -0.066  1.00  0.00     0.016 C 
HETATM   18  C25 UNL     1       1.237  -1.877   0.149  1.00  0.00    -0.001 C 
HETATM   19  C26 UNL     1       1.563  -1.912   1.620  1.00  0.00     0.022 C 
ENDROOT
BRANCH   6  20
HETATM   20  C5  UNL     1       3.051   0.957  -0.099  1.00  0.00    -0.098 C 
HETATM   21  C6  UNL     1       3.568   1.837   0.522  1.00  0.00    -0.069 C 
BRANCH  21  22
HETATM   22  C7  UNL     1       4.200   2.927   1.262  1.00  0.00     0.113 C 
HETATM   23  C8  UNL     1       3.626   2.963   2.639  1.00  0.00     0.060 C 
HETATM   24  C9  UNL     1       5.698   2.742   1.375  1.00  0.00     0.060 C 
BRANCH  22  25
HETATM   25  O1  UNL     1       4.016   4.152   0.580  1.00  0.00    -0.378 OA
ATOM     26  H1  UNL     1       4.427   4.861   1.061  1.00  0.00     0.211 HD
ENDBRANCH  22  25
ENDBRANCH  21  22
ENDBRANCH   6  20
BRANCH  13  27
HETATM   27  C17 UNL     1      -3.319   0.458   0.144  1.00  0.00     0.362 C 
BRANCH  27  28
HETATM   28  O2  UNL     1      -4.167   0.456  -0.911  1.00  0.00    -0.362 OA
HETATM   29  C18 UNL     1      -5.503   0.251  -0.714  1.00  0.00     0.204 C 
ENDBRANCH  27  28
BRANCH  27  30
HETATM   30  N2  UNL     1      -2.934   1.847   0.512  1.00  0.00     0.109 N 
HETATM   31  C19 UNL     1      -4.006   2.777   0.242  1.00  0.00     0.312 C 
HETATM   32  C20 UNL     1      -2.708   1.890   1.958  1.00  0.00     0.312 C 
ENDBRANCH  27  30
ENDBRANCH  13  27
TORSDOF 6
