REMARK  5 active torsions:
REMARK  status: ('A' for Active; 'I' for Inactive)
REMARK    1  A    between atoms: C2_2  and  O1_3 
REMARK    2  A    between atoms: O1_3  and  N1_4 
REMARK    3  A    between atoms: C7_10  and  C8_11 
REMARK    4  A    between atoms: N2_15  and  S1_16 
REMARK    5  A    between atoms: C18_25  and  O4_26 
ROOT
HETATM    1  N1  UNL     1       3.535   2.336  -0.765  1.00  0.00    -0.274 N 
ATOM      2  H1  UNL     1       3.052   3.134  -1.178  1.00  0.00     0.193 HD
HETATM    3  C3  UNL     1       2.712   1.422  -0.588  1.00  0.00     0.019 C 
HETATM    4  C4  UNL     1       1.222   1.373  -0.891  1.00  0.00     0.061 C 
HETATM    5  C5  UNL     1       1.134   0.387   0.242  1.00  0.00     0.010 C 
HETATM    6  C6  UNL     1       0.145  -0.684   0.185  1.00  0.00     0.006 C 
HETATM    7  C7  UNL     1      -1.110  -0.174  -0.470  1.00  0.00     0.000 C 
HETATM    8  C14 UNL     1      -1.678  -1.343  -1.228  1.00  0.00     0.007 C 
HETATM    9  C15 UNL     1      -0.445  -2.035  -1.732  1.00  0.00     0.012 C 
HETATM   10  C16 UNL     1       0.478  -1.927  -0.513  1.00  0.00    -0.014 C 
HETATM   11  C17 UNL     1       0.139  -3.163   0.334  1.00  0.00     0.018 C 
HETATM   12  C18 UNL     1       1.867  -2.120  -0.986  1.00  0.00     0.127 C 
HETATM   13  C19 UNL     1       2.656  -0.904  -1.261  1.00  0.00     0.048 C 
HETATM   14  C20 UNL     1       2.560   0.048  -0.091  1.00  0.00     0.003 C 
HETATM   15  C21 UNL     1       3.333  -0.372   1.112  1.00  0.00     0.022 C 
ENDROOT
BRANCH   7  16
HETATM   16  C8  UNL     1      -2.143   0.355   0.441  1.00  0.00    -0.026 C 
HETATM   17  C9  UNL     1      -1.695   1.526   1.290  1.00  0.00     0.017 C 
HETATM   18  C10 UNL     1      -2.825  -0.625   1.321  1.00  0.00     0.026 C 
HETATM   19  C11 UNL     1      -4.255  -0.757   0.849  1.00  0.00     0.108 C 
HETATM   20  N2  UNL     1      -4.302  -0.112  -0.448  1.00  0.00    -0.210 NA
HETATM   21  C13 UNL     1      -3.275   0.901  -0.442  1.00  0.00     0.116 C 
BRANCH  20  22
HETATM   22  S1  UNL     1      -5.831   0.663  -0.653  1.00  0.00     0.207 S 
HETATM   23  C12 UNL     1      -6.099   1.924   0.563  1.00  0.00     0.180 C 
HETATM   24  O2  UNL     1      -6.884  -0.403  -0.542  1.00  0.00    -0.212 OA
HETATM   25  O3  UNL     1      -5.944   1.272  -2.005  1.00  0.00    -0.212 OA
ENDBRANCH  20  22
ENDBRANCH   7  16
BRANCH  12  26
HETATM   26  O4  UNL     1       2.583  -2.897  -0.045  1.00  0.00    -0.395 OA
ATOM     27  H4  UNL     1       3.475  -3.021  -0.349  1.00  0.00     0.210 HD
ENDBRANCH  12  26
BRANCH   1  28
HETATM   28  O1  UNL     1       4.781   2.641  -0.615  1.00  0.00    -0.281 OA
BRANCH  28  29
HETATM   29  C2  UNL     1       5.741   1.919   0.101  1.00  0.00     0.196 C 
HETATM   30  C1  UNL     1       7.108   2.587   0.052  1.00  0.00     0.036 C 
ENDBRANCH  28  29
ENDBRANCH   1  28
TORSDOF 5
