REMARK  14 active torsions:
REMARK  status: ('A' for Active; 'I' for Inactive)
REMARK    1  A    between atoms: C2_2  and  O1_4 
REMARK    2  A    between atoms: C2_2  and  C4_6 
REMARK    3  A    between atoms: C4_6  and  O3_8 
REMARK    4  A    between atoms: O3_8  and  C5_9 
REMARK    5  A    between atoms: C5_9  and  N1_10 
REMARK    6  A    between atoms: C7_12  and  C8_13 
REMARK    7  A    between atoms: N3_16  and  C9_17 
REMARK    8  A    between atoms: C10_19  and  C11_20 
REMARK    9  A    between atoms: C11_20  and  O5_21 
REMARK   10  A    between atoms: C12_23  and  O6_24 
REMARK   11  A    between atoms: C12_23  and  C13_26 
REMARK   12  A    between atoms: C14_29  and  O8_30 
REMARK   13  A    between atoms: C15_32  and  O9_33 
REMARK   14  A    between atoms: C17_38  and  N6_39 
ROOT
HETATM    1  C8  UNL     1       0.594   1.468   1.013  1.00  0.00     0.095 A 
HETATM    2  N2  UNL     1      -0.106   0.855   0.012  1.00  0.00    -0.291 N 
ATOM      3  H2  UNL     1       0.309   0.498  -0.849  1.00  0.00     0.187 HD
HETATM    4  N3  UNL     1      -1.367   0.787   0.301  1.00  0.00    -0.242 N 
HETATM    5  C16 UNL     1      -1.552   1.356   1.513  1.00  0.00     0.156 A 
HETATM    6  N5  UNL     1      -2.638   1.551   2.275  1.00  0.00    -0.174 N 
ATOM      7  H5  UNL     1      -3.535   1.222   1.917  1.00  0.00     0.186 HD
HETATM    8  C17 UNL     1      -2.626   2.147   3.473  1.00  0.00     0.679 A 
HETATM    9  N7  UNL     1      -1.437   2.565   3.917  1.00  0.00    -0.176 N 
ATOM     10  H7  UNL     1      -1.388   3.023   4.827  1.00  0.00     0.186 HD
HETATM   11  C18 UNL     1      -0.283   2.404   3.200  1.00  0.00     0.131 A 
HETATM   12  N8  UNL     1       0.824   2.822   3.669  1.00  0.00    -0.384 N 
ATOM     13  H81 UNL     1       1.684   2.702   3.134  1.00  0.00     0.157 HD
ATOM     14  H82 UNL     1       0.843   3.277   4.581  1.00  0.00     0.157 HD
HETATM   15  C19 UNL     1      -0.308   1.791   1.972  1.00  0.00     0.085 A 
ENDROOT
BRANCH   4  16
HETATM   16  C9  UNL     1      -2.429   0.216  -0.489  1.00  0.00     0.277 C 
HETATM   17  O4  UNL     1      -3.283  -0.601   0.248  1.00  0.00    -0.351 OA
HETATM   18  C10 UNL     1      -3.941  -1.379  -0.735  1.00  0.00     0.194 C 
HETATM   19  C12 UNL     1      -5.039  -0.518  -1.269  1.00  0.00     0.192 C 
HETATM   20  C14 UNL     1      -4.602   0.865  -1.606  1.00  0.00     0.197 C 
HETATM   21  C15 UNL     1      -3.189   1.209  -1.306  1.00  0.00     0.201 C 
BRANCH  18  22
HETATM   22  C11 UNL     1      -4.415  -2.682  -0.173  1.00  0.00     0.199 C 
BRANCH  22  23
HETATM   23  O5  UNL     1      -3.269  -3.365   0.295  1.00  0.00    -0.398 OA
ATOM     24  H5  UNL     1      -3.570  -4.192   0.652  1.00  0.00     0.209 HD
ENDBRANCH  22  23
ENDBRANCH  18  22
BRANCH  19  25
HETATM   25  O6  UNL     1      -6.070  -0.479  -0.301  1.00  0.00    -0.376 OA
ATOM     26  H6  UNL     1      -6.768   0.068  -0.641  1.00  0.00     0.211 HD
ENDBRANCH  19  25
BRANCH  19  27
HETATM   27  C13 UNL     1      -5.624  -1.235  -2.449  1.00  0.00     0.271 C 
HETATM   28  N4  UNL     1      -4.821  -1.448  -3.617  1.00  0.00    -0.059 NA
HETATM   29  O7  UNL     1      -6.798  -1.670  -2.477  1.00  0.00    -0.273 OA
ENDBRANCH  19  27
BRANCH  20  30
HETATM   30  O8  UNL     1      -4.858   1.058  -2.978  1.00  0.00    -0.389 OA
ATOM     31  H8  UNL     1      -4.579   1.940  -3.193  1.00  0.00     0.210 HD
ENDBRANCH  20  30
BRANCH  21  32
HETATM   32  O9  UNL     1      -2.527   1.440  -2.535  1.00  0.00    -0.388 OA
ATOM     33  H9  UNL     1      -3.010   2.072  -3.055  1.00  0.00     0.210 HD
ENDBRANCH  21  32
ENDBRANCH   4  16
BRANCH   1  34
HETATM   34  C7  UNL     1       2.027   1.702   1.000  1.00  0.00     0.096 A 
HETATM   35  C6  UNL     1       2.884   1.331  -0.055  1.00  0.00     0.152 A 
HETATM   36  N1  UNL     1       4.136   1.680   0.227  1.00  0.00    -0.240 N 
HETATM   37  N10 UNL     1       4.089   2.264   1.436  1.00  0.00    -0.235 N 
HETATM   38  N9  UNL     1       2.848   2.265   1.867  1.00  0.00    -0.282 N 
ATOM     39  H10 UNL     1       4.890   2.646   1.939  1.00  0.00     0.209 HD
ATOM     40  H9  UNL     1       2.554   2.654   2.763  1.00  0.00     0.188 HD
BRANCH  36  41
HETATM   41  C5  UNL     1       5.356   1.507  -0.530  1.00  0.00     0.262 C 
BRANCH  41  42
HETATM   42  O3  UNL     1       6.066   0.341  -0.271  1.00  0.00    -0.270 OA
BRANCH  42  43
HETATM   43  C4  UNL     1       5.682  -0.956  -0.417  1.00  0.00     0.298 C 
HETATM   44  O2  UNL     1       4.525  -1.178  -0.849  1.00  0.00    -0.261 OA
BRANCH  43  45
HETATM   45  C2  UNL     1       6.574  -2.120  -0.089  1.00  0.00     0.138 C 
HETATM   46  C1  UNL     1       7.036  -2.086   1.333  1.00  0.00     0.056 C 
HETATM   47  C3  UNL     1       7.795  -2.105  -1.009  1.00  0.00     0.056 C 
BRANCH  45  48
HETATM   48  O1  UNL     1       5.899  -3.295  -0.348  1.00  0.00    -0.380 OA
ATOM     49  H1  UNL     1       5.606  -3.317  -1.251  1.00  0.00     0.211 HD
ENDBRANCH  45  48
ENDBRANCH  43  45
ENDBRANCH  42  43
ENDBRANCH  41  42
ENDBRANCH  36  41
ENDBRANCH   1  34
BRANCH   8  50
HETATM   50  N6  UNL     1      -3.714   2.299   4.149  1.00  0.00    -0.234 N 
ATOM     51  H62 UNL     1      -4.622   1.980   3.810  1.00  0.00     0.174 HD
ATOM     52  H61 UNL     1      -3.705   2.753   5.062  1.00  0.00     0.174 HD
ENDBRANCH   8  50
TORSDOF 14
