REMARK  14 active torsions:
REMARK  status: ('A' for Active; 'I' for Inactive)
REMARK       I    between atoms: N1_2  and  C2_4 
REMARK    1  A    between atoms: C2_4  and  C3_6 
REMARK    2  A    between atoms: C5_8  and  N2_9 
REMARK    3  A    between atoms: C6_13  and  C7_14 
REMARK       I    between atoms: C7_14  and  N5_16 
REMARK    4  A    between atoms: N5_16  and  N6_18 
REMARK    5  A    between atoms: N6_18  and  C8_19 
REMARK    6  A    between atoms: C9_20  and  O3_21 
REMARK    7  A    between atoms: C10_23  and  N7_24 
REMARK    8  A    between atoms: C12_29  and  N8_30 
REMARK    9  A    between atoms: C13_32  and  N10_35 
REMARK   10  A    between atoms: N10_35  and  O4_37 
REMARK   11  A    between atoms: O4_37  and  C15_38 
REMARK   12  A    between atoms: C17_43  and  C18_44 
REMARK   13  A    between atoms: C18_44  and  N12_45 
REMARK   14  A    between atoms: C18_44  and  O5_49 
ROOT
HETATM    1  N8  UNL     1      -5.101  -1.185   0.965  1.00  0.00    -0.361 N 
ATOM      2  H8  UNL     1      -5.318  -1.710   1.812  1.00  0.00     0.162 HD
HETATM    3  C13 UNL     1      -6.009  -1.310   0.149  1.00  0.00     0.204 C 
HETATM    4  C14 UNL     1      -7.158  -2.123   0.499  1.00  0.00     0.138 C 
HETATM    5  N9  UNL     1      -8.080  -2.768   0.796  1.00  0.00    -0.188 NA
ENDROOT
BRANCH   3   6
HETATM    6  N10 UNL     1      -6.013  -0.726  -1.135  1.00  0.00    -0.239 N 
ATOM      7  H10 UNL     1      -5.632  -1.244  -1.927  1.00  0.00     0.197 HD
BRANCH   6   8
HETATM    8  O4  UNL     1      -6.512   0.501  -1.325  1.00  0.00    -0.243 OA
BRANCH   8   9
HETATM    9  C15 UNL     1      -7.883   0.559  -1.272  1.00  0.00     0.376 A 
HETATM   10  C16 UNL     1      -8.542   1.799  -0.695  1.00  0.00     0.299 A 
HETATM   11  N11 UNL     1      -8.471   1.561  -2.136  1.00  0.00    -0.041 N 
ATOM     12 2H11 UNL     1      -8.113   2.108  -2.919  1.00  0.00     0.280 HD
ATOM     13 1H11 UNL     1      -9.173   1.524  -2.875  1.00  0.00     0.280 HD
ENDBRANCH   8   9
ENDBRANCH   6   8
ENDBRANCH   3   6
BRANCH   1  14
HETATM   14  C12 UNL     1      -3.858  -0.548   1.101  1.00  0.00     0.096 C 
HETATM   15  C11 UNL     1      -3.954   0.931   1.336  1.00  0.00     0.061 C 
HETATM   16  C10 UNL     1      -2.761   1.746   1.047  1.00  0.00     0.215 C 
HETATM   17  C9  UNL     1      -1.481   0.970   0.932  1.00  0.00     0.170 C 
HETATM   18  C8  UNL     1      -1.620  -0.172  -0.021  1.00  0.00     0.140 C 
HETATM   19  C17 UNL     1      -2.917  -0.904   0.009  1.00  0.00     0.088 C 
BRANCH  16  20
HETATM   20  N7  UNL     1      -2.868   2.538  -0.179  1.00  0.00    -0.072 N 
ATOM     21  H73 UNL     1      -2.052   3.124  -0.356  1.00  0.00     0.274 HD
ATOM     22  H72 UNL     1      -2.807   1.979  -1.030  1.00  0.00     0.274 HD
ATOM     23  H71 UNL     1      -3.738   3.065  -0.101  1.00  0.00     0.274 HD
ENDBRANCH  16  20
BRANCH  17  24
HETATM   24  O3  UNL     1      -0.957   0.628   2.173  1.00  0.00    -0.392 OA
ATOM     25  H3  UNL     1      -0.869   1.354   2.779  1.00  0.00     0.210 HD
ENDBRANCH  17  24
BRANCH  18  26
HETATM   26  N6  UNL     1      -0.478  -1.091   0.094  1.00  0.00    -0.130 NA
BRANCH  26  27
HETATM   27  N5  UNL     1       0.663  -0.441  -0.346  1.00  0.00    -0.268 N 
HETATM   28  C7  UNL     1       1.836  -0.447   0.412  1.00  0.00     0.288 C 
HETATM   29  O2  UNL     1       1.892  -1.039   1.508  1.00  0.00    -0.264 OA
ATOM     30  H5  UNL     1       0.646   0.051  -1.239  1.00  0.00     0.185 HD
BRANCH  28  31
HETATM   31  C6  UNL     1       3.015   0.250  -0.089  1.00  0.00     0.158 A 
HETATM   32  N4  UNL     1       3.110   0.933  -1.269  1.00  0.00    -0.275 N 
HETATM   33  N3  UNL     1       4.330   1.426  -1.378  1.00  0.00    -0.012 NA
ATOM     34  H4  UNL     1       2.361   1.044  -1.953  1.00  0.00     0.184 HD
HETATM   35  N2  UNL     1       5.066   1.105  -0.320  1.00  0.00    -0.206 N 
HETATM   36  C19 UNL     1       4.258   0.378   0.481  1.00  0.00     0.171 A 
HETATM   37  N13 UNL     1       4.659  -0.169   1.732  1.00  0.00    -0.078 NA
BRANCH  35  38
HETATM   38  C5  UNL     1       6.423   1.475  -0.126  1.00  0.00     0.150 A 
HETATM   39  C4  UNL     1       7.520   0.645  -0.190  1.00  0.00     0.097 A 
HETATM   40  C3  UNL     1       8.657   1.382   0.051  1.00  0.00     0.170 A 
HETATM   41  O6  UNL     1       8.235   2.614   0.251  1.00  0.00    -0.231 OA
HETATM   42  N14 UNL     1       6.931   2.686   0.151  1.00  0.00    -0.243 N 
ATOM     43  H14 UNL     1       6.382   3.538   0.267  1.00  0.00     0.196 HD
BRANCH  40  44
HETATM   44  C2  UNL     1      10.043   0.895   0.077  1.00  0.00     0.277 C 
HETATM   45  N1  UNL     1      10.243  -0.498  -0.170  1.00  0.00    -0.360 N 
HETATM   46  C1  UNL     1      11.585  -1.018  -0.154  1.00  0.00     0.149 C 
ATOM     47  H1  UNL     1       9.450  -1.112  -0.354  1.00  0.00     0.162 HD
HETATM   48  O1  UNL     1      11.016   1.625   0.298  1.00  0.00    -0.265 OA
ENDBRANCH  40  44
ENDBRANCH  35  38
ENDBRANCH  28  31
ENDBRANCH  26  27
ENDBRANCH  18  26
BRANCH  19  49
HETATM   49  C18 UNL     1      -2.600  -2.388  -0.039  1.00  0.00     0.324 C 
BRANCH  49  50
HETATM   50  N12 UNL     1      -1.887  -2.615  -1.308  1.00  0.00    -0.053 N 
ATOM     51 3H12 UNL     1      -2.398  -2.283  -2.126  1.00  0.00     0.277 HD
ATOM     52 2H12 UNL     1      -1.066  -2.021  -1.424  1.00  0.00     0.277 HD
ATOM     53 1H12 UNL     1      -1.674  -3.612  -1.340  1.00  0.00     0.277 HD
ENDBRANCH  49  50
BRANCH  49  54
HETATM   54  O5  UNL     1      -3.682  -3.219  -0.063  1.00  0.00    -0.369 OA
ATOM     55  H5  UNL     1      -3.484  -4.148  -0.093  1.00  0.00     0.212 HD
ENDBRANCH  49  54
ENDBRANCH  19  49
ENDBRANCH   1  14
TORSDOF 14
