REMARK  18 active torsions:
REMARK  status: ('A' for Active; 'I' for Inactive)
REMARK    1  A    between atoms: C3_4  and  O2_5 
REMARK    2  A    between atoms: O2_5  and  N1_6 
REMARK    3  A    between atoms: N1_6  and  C4_8 
REMARK    4  A    between atoms: C4_8  and  C5_9 
REMARK    5  A    between atoms: C5_9  and  O3_10 
REMARK    6  A    between atoms: C5_9  and  N2_12 
REMARK    7  A    between atoms: N2_12  and  N3_14 
REMARK    8  A    between atoms: N3_14  and  C6_16 
REMARK    9  A    between atoms: C6_16  and  C7_17 
REMARK       I    between atoms: C7_17  and  N4_19 
REMARK   10  A    between atoms: N4_19  and  C8_21 
REMARK   11  A    between atoms: C9_23  and  N5_24 
REMARK   12  A    between atoms: C12_29  and  N7_30 
REMARK   13  A    between atoms: N7_30  and  O6_32 
REMARK   14  A    between atoms: C15_40  and  O7_41 
REMARK   15  A    between atoms: C16_43  and  O8_44 
REMARK   16  A    between atoms: C16_43  and  C17_46 
REMARK   17  A    between atoms: C17_46  and  O9_48 
REMARK   18  A    between atoms: C19_53  and  N11_54 
ROOT
HETATM    1  C8  UNL     1      -2.717  -0.647   0.642  1.00  0.00     0.266 C 
HETATM    2  O5  UNL     1      -3.552   0.424   0.238  1.00  0.00    -0.336 OA
HETATM    3  C9  UNL     1      -4.206   0.019  -0.900  1.00  0.00     0.265 C 
HETATM    4  C15 UNL     1      -4.283  -1.514  -0.854  1.00  0.00     0.208 C 
HETATM    5  C16 UNL     1      -3.669  -1.802   0.457  1.00  0.00     0.156 C 
ENDROOT
BRANCH   1   6
HETATM    6  N4  UNL     1      -1.592  -0.634  -0.226  1.00  0.00    -0.327 N 
HETATM    7  C7  UNL     1      -0.248  -0.495   0.270  1.00  0.00     0.260 C 
HETATM    8  O4  UNL     1      -0.027  -0.380   1.506  1.00  0.00    -0.267 OA
ATOM      9  H4  UNL     1      -1.741  -0.726  -1.231  1.00  0.00     0.165 HD
BRANCH   7  10
HETATM   10  C6  UNL     1       0.882  -0.484  -0.633  1.00  0.00     0.180 C 
BRANCH  10  11
HETATM   11  N3  UNL     1       2.082  -0.362  -0.204  1.00  0.00    -0.308 N 
ATOM     12  H3  UNL     1       2.841  -0.361  -0.886  1.00  0.00     0.185 HD
BRANCH  11  13
HETATM   13  N2  UNL     1       2.405  -0.231   1.136  1.00  0.00    -0.303 N 
ATOM     14  H2  UNL     1       2.329  -1.021   1.777  1.00  0.00     0.183 HD
BRANCH  13  15
HETATM   15  C5  UNL     1       2.860   1.081   1.601  1.00  0.00     0.274 C 
BRANCH  15  16
HETATM   16  C4  UNL     1       4.082   1.499   0.895  1.00  0.00     0.141 C 
BRANCH  16  17
HETATM   17  N1  UNL     1       4.940   0.635   0.534  1.00  0.00    -0.273 N 
ATOM     18  H1  UNL     1       4.744  -0.342   0.753  1.00  0.00     0.193 HD
BRANCH  17  19
HETATM   19  O2  UNL     1       6.107   0.910  -0.126  1.00  0.00    -0.218 OA
BRANCH  19  20
HETATM   20  C3  UNL     1       7.381   0.529   0.409  1.00  0.00     0.494 C 
HETATM   21  O1  UNL     1       8.166   1.649   0.469  1.00  0.00    -0.329 OA
HETATM   22  C2  UNL     1       9.396   1.365  -0.066  1.00  0.00     0.180 C 
HETATM   23  C1  UNL     1       9.634   2.340  -1.208  1.00  0.00     0.043 C 
HETATM   24  C19 UNL     1       9.419  -0.061  -0.509  1.00  0.00     0.414 C 
HETATM   25  N10 UNL     1       8.000  -0.405  -0.499  1.00  0.00     0.008 N 
ATOM     26 2H10 UNL     1       7.817  -1.382  -0.269  1.00  0.00     0.285 HD
ATOM     27 1H10 UNL     1       7.575  -0.417  -1.426  1.00  0.00     0.285 HD
BRANCH  24  28
HETATM   28  N11 UNL     1      10.090  -0.923   0.428  1.00  0.00    -0.047 N 
ATOM     29 3H11 UNL     1      11.032  -0.586   0.625  1.00  0.00     0.276 HD
ATOM     30 2H11 UNL     1       9.685  -0.836   1.360  1.00  0.00     0.276 HD
ATOM     31 1H11 UNL     1      10.106  -1.897   0.125  1.00  0.00     0.276 HD
ENDBRANCH  24  28
ENDBRANCH  19  20
ENDBRANCH  17  19
ENDBRANCH  16  17
ENDBRANCH  15  16
BRANCH  15  32
HETATM   32  O3  UNL     1       3.041   1.027   2.973  1.00  0.00    -0.371 OA
ATOM     33  H3  UNL     1       2.252   0.757   3.429  1.00  0.00     0.212 HD
ENDBRANCH  15  32
ENDBRANCH  13  15
ENDBRANCH  11  13
ENDBRANCH  10  11
ENDBRANCH   7  10
ENDBRANCH   1   6
BRANCH   5  34
HETATM   34  O8  UNL     1      -4.672  -1.573   1.439  1.00  0.00    -0.380 OA
ATOM     35  H8  UNL     1      -5.272  -2.301   1.322  1.00  0.00     0.211 HD
ENDBRANCH   5  34
BRANCH   5  36
HETATM   36  C17 UNL     1      -3.138  -3.139   0.702  1.00  0.00     0.155 C 
HETATM   37  C18 UNL     1      -2.217  -3.759  -0.269  1.00  0.00     0.042 C 
BRANCH  36  38
HETATM   38  O9  UNL     1      -2.589  -3.162   2.004  1.00  0.00    -0.393 OA
ATOM     39  H9  UNL     1      -2.243  -4.032   2.163  1.00  0.00     0.210 HD
ENDBRANCH  36  38
ENDBRANCH   5  36
BRANCH   3  40
HETATM   40  N5  UNL     1      -5.546   0.571  -0.997  1.00  0.00    -0.297 N 
HETATM   41  C10 UNL     1      -6.374   0.292  -2.016  1.00  0.00     0.188 A 
HETATM   42  N6  UNL     1      -7.535   0.931  -1.851  1.00  0.00    -0.346 N 
HETATM   43  C11 UNL     1      -7.467   1.640  -0.705  1.00  0.00     0.124 A 
ATOM     44  H6  UNL     1      -8.335   0.890  -2.482  1.00  0.00     0.167 HD
HETATM   45  C12 UNL     1      -8.338   2.469  -0.037  1.00  0.00     0.157 A 
HETATM   46  C14 UNL     1      -6.203   1.393  -0.189  1.00  0.00     0.142 A 
HETATM   47  N8  UNL     1      -7.959   3.042   1.118  1.00  0.00    -0.335 N 
HETATM   48  C13 UNL     1      -6.722   2.779   1.589  1.00  0.00     0.183 A 
ATOM     49  H8  UNL     1      -8.591   3.661   1.626  1.00  0.00     0.168 HD
HETATM   50  N9  UNL     1      -5.853   1.973   0.957  1.00  0.00    -0.336 N 
ATOM     51  H9  UNL     1      -4.928   1.806   1.354  1.00  0.00     0.168 HD
BRANCH  45  52
HETATM   52  N7  UNL     1      -9.520   2.710  -0.502  1.00  0.00    -0.251 N 
ATOM     53  H7  UNL     1     -10.129   3.332   0.030  1.00  0.00     0.196 HD
BRANCH  52  54
HETATM   54  O6  UNL     1      -9.995   2.183  -1.655  1.00  0.00    -0.288 OA
ATOM     55  H6  UNL     1     -10.864   2.360  -1.997  1.00  0.00     0.244 HD
ENDBRANCH  52  54
ENDBRANCH  45  52
ENDBRANCH   3  40
BRANCH   4  56
HETATM   56  O7  UNL     1      -3.681  -2.065  -1.947  1.00  0.00    -0.388 OA
ATOM     57  H7  UNL     1      -3.729  -3.013  -1.919  1.00  0.00     0.210 HD
ENDBRANCH   4  56
TORSDOF 18
