REMARK  12 active torsions:
REMARK  status: ('A' for Active; 'I' for Inactive)
REMARK    1  A    between atoms: N1_2  and  C3_4 
REMARK    2  A    between atoms: C6_11  and  C7_12 
REMARK    3  A    between atoms: C7_12  and  N4_13 
REMARK    4  A    between atoms: C7_12  and  C8_17 
REMARK    5  A    between atoms: N4_13  and  N5_14 
REMARK       I    between atoms: N8_21  and  C9_22 
REMARK    6  A    between atoms: C9_22  and  C10_24 
REMARK    7  A    between atoms: C10_24  and  O2_25 
REMARK    8  A    between atoms: C10_24  and  C11_27 
REMARK    9  A    between atoms: C12_29  and  O4_30 
REMARK   10  A    between atoms: C13_32  and  N9_33 
REMARK       I    between atoms: N9_33  and  C14_35 
REMARK   11  A    between atoms: C14_35  and  C15_37 
REMARK   12  A    between atoms: C18_48  and  O6_49 
ROOT
HETATM    1  C10 UNL     1       0.655  -1.250  -0.785  1.00  0.00     0.244 C 
ENDROOT
BRANCH   1   2
HETATM    2  C9  UNL     1      -0.497  -0.487  -1.326  1.00  0.00     0.287 C 
HETATM    3  N8  UNL     1      -1.691  -0.287  -0.582  1.00  0.00    -0.141 N 
HETATM    4  N7  UNL     1      -1.880  -0.756   0.638  1.00  0.00     0.005 NA
HETATM    5  N14 UNL     1      -2.785   0.381  -0.967  1.00  0.00    -0.264 N 
HETATM    6  N6  UNL     1      -3.089  -0.395   1.044  1.00  0.00    -0.268 N 
HETATM    7  C8  UNL     1      -3.637   0.307   0.042  1.00  0.00     0.138 A 
ATOM      8  H6  UNL     1      -3.519  -0.610   1.944  1.00  0.00     0.185 HD
ATOM      9  H14 UNL     1      -2.932   0.853  -1.859  1.00  0.00     0.190 HD
HETATM   10  O1  UNL     1      -0.390  -0.004  -2.499  1.00  0.00    -0.267 OA
BRANCH   7  11
HETATM   11  C7  UNL     1      -5.043   0.883   0.170  1.00  0.00     0.222 C 
BRANCH  11  12
HETATM   12  C6  UNL     1      -5.952  -0.283   0.207  1.00  0.00     0.082 A 
HETATM   13  C3  UNL     1      -7.131  -0.403  -0.474  1.00  0.00     0.127 A 
HETATM   14  N2  UNL     1      -7.805  -1.599  -0.332  1.00  0.00    -0.349 N 
HETATM   15  C4  UNL     1      -7.365  -2.604   0.420  1.00  0.00     0.106 A 
ATOM     16  H2  UNL     1      -8.687  -1.718  -0.830  1.00  0.00     0.167 HD
HETATM   17  C5  UNL     1      -6.179  -2.479   1.107  1.00  0.00     0.105 A 
HETATM   18  N3  UNL     1      -5.513  -1.330   0.980  1.00  0.00    -0.363 N 
ATOM     19  H3  UNL     1      -4.632  -1.224   1.483  1.00  0.00     0.165 HD
BRANCH  13  20
HETATM   20  N1  UNL     1      -7.710   0.615  -1.259  1.00  0.00    -0.374 N 
HETATM   21  C1  UNL     1      -8.681   0.142  -2.274  1.00  0.00     0.150 C 
HETATM   22  C2  UNL     1      -7.546   2.027  -1.202  1.00  0.00     0.150 C 
ENDBRANCH  13  20
ENDBRANCH  11  12
BRANCH  11  23
HETATM   23  N4  UNL     1      -5.046   1.490   1.504  1.00  0.00    -0.129 NA
BRANCH  23  24
HETATM   24  N5  UNL     1      -4.202   2.607   1.552  1.00  0.00    -0.347 N 
ATOM     25  H52 UNL     1      -3.662   2.942   0.754  1.00  0.00     0.172 HD
ATOM     26  H51 UNL     1      -4.204   3.029   2.480  1.00  0.00     0.172 HD
ENDBRANCH  23  24
ENDBRANCH  11  23
ENDBRANCH   7  11
ENDBRANCH   1   2
BRANCH   1  27
HETATM   27  O2  UNL     1       0.381  -1.714   0.497  1.00  0.00    -0.383 OA
ATOM     28  H2  UNL     1       1.119  -2.202   0.843  1.00  0.00     0.210 HD
ENDBRANCH   1  27
BRANCH   1  29
HETATM   29  C11 UNL     1       1.885  -0.369  -0.668  1.00  0.00     0.193 C 
HETATM   30  O3  UNL     1       1.678   0.702   0.179  1.00  0.00    -0.348 OA
HETATM   31  C12 UNL     1       2.971   1.162   0.422  1.00  0.00     0.282 C 
HETATM   32  C13 UNL     1       3.785  -0.064   0.768  1.00  0.00     0.171 C 
HETATM   33  C18 UNL     1       3.001  -1.143   0.031  1.00  0.00     0.177 C 
BRANCH  31  34
HETATM   34  O4  UNL     1       3.505   1.750  -0.734  1.00  0.00    -0.369 OA
ATOM     35  H4  UNL     1       4.386   2.064  -0.568  1.00  0.00     0.212 HD
ENDBRANCH  31  34
BRANCH  32  36
HETATM   36  N9  UNL     1       5.144   0.019   0.226  1.00  0.00    -0.344 N 
HETATM   37  C14 UNL     1       6.283  -0.139   1.048  1.00  0.00     0.272 C 
HETATM   38  O5  UNL     1       6.113  -0.359   2.289  1.00  0.00    -0.266 OA
ATOM     39  H9  UNL     1       5.271   0.195  -0.771  1.00  0.00     0.163 HD
BRANCH  37  40
HETATM   40  C15 UNL     1       7.606  -0.047   0.463  1.00  0.00     0.158 A 
HETATM   41  N10 UNL     1       7.879   0.179  -0.828  1.00  0.00    -0.183 N 
HETATM   42  C16 UNL     1       9.231   0.194  -0.989  1.00  0.00     0.677 A 
ATOM     43  H10 UNL     1       7.190   0.317  -1.567  1.00  0.00     0.184 HD
HETATM   44  N11 UNL     1       9.874   0.382  -2.079  1.00  0.00    -0.234 N 
HETATM   45  N12 UNL     1       9.776  -0.025   0.216  1.00  0.00    -0.177 N 
ATOM     46 2H11 UNL     1       9.459   0.549  -2.996  1.00  0.00     0.174 HD
ATOM     47 1H11 UNL     1      10.887   0.393  -2.200  1.00  0.00     0.174 HD
HETATM   48  C17 UNL     1       8.810  -0.179   1.134  1.00  0.00     0.164 A 
ATOM     49  H12 UNL     1      10.777  -0.068   0.407  1.00  0.00     0.185 HD
HETATM   50  N13 UNL     1       8.975  -0.426   2.515  1.00  0.00    -0.080 NA
ENDBRANCH  37  40
ENDBRANCH  32  36
BRANCH  33  51
HETATM   51  O6  UNL     1       3.786  -1.802  -0.913  1.00  0.00    -0.391 OA
ATOM     52  H6  UNL     1       4.480  -2.283  -0.478  1.00  0.00     0.210 HD
ENDBRANCH  33  51
ENDBRANCH   1  29
TORSDOF 12
