REMARK  16 active torsions:
REMARK  status: ('A' for Active; 'I' for Inactive)
REMARK    1  A    between atoms: C2_2  and  O1_3 
REMARK    2  A    between atoms: O1_3  and  C3_4 
REMARK       I    between atoms: C3_4  and  N1_6 
REMARK    3  A    between atoms: C4_7  and  N2_8 
REMARK    4  A    between atoms: C6_14  and  C7_15 
REMARK    5  A    between atoms: C7_15  and  O3_16 
REMARK    6  A    between atoms: C7_15  and  N5_18 
REMARK    7  A    between atoms: N5_18  and  C8_20 
REMARK    8  A    between atoms: C8_20  and  C9_21 
REMARK    9  A    between atoms: C10_22  and  O4_23 
REMARK   10  A    between atoms: C11_25  and  O5_26 
REMARK   11  A    between atoms: C12_28  and  N6_29 
REMARK   12  A    between atoms: C14_31  and  C15_32 
REMARK   13  A    between atoms: C15_32  and  N8_36 
REMARK   14  A    between atoms: N8_36  and  N9_38 
REMARK   15  A    between atoms: C16_45  and  O6_46 
REMARK   16  A    between atoms: C17_48  and  O7_49 
ROOT
HETATM    1  N2  UNL     1       6.562  -2.275  -2.645  1.00  0.00    -0.126 N 
ATOM      2  H2  UNL     1       7.133  -1.801  -3.344  1.00  0.00     0.197 HD
HETATM    3  C5  UNL     1       6.898  -3.593  -2.218  1.00  0.00     0.196 C 
HETATM    4  N3  UNL     1       7.181  -4.649  -1.858  1.00  0.00    -0.171 NA
ENDROOT
BRANCH   1   5
HETATM    5  C4  UNL     1       5.425  -1.626  -2.089  1.00  0.00     0.695 C 
HETATM    6  N1  UNL     1       5.472  -0.561  -1.143  1.00  0.00    -0.119 N 
HETATM    7  C3  UNL     1       6.431  -0.244  -0.156  1.00  0.00     0.381 C 
HETATM    8  C19 UNL     1       4.203   0.163  -1.431  1.00  0.00     0.140 C 
HETATM    9  O2  UNL     1       7.410  -0.983   0.056  1.00  0.00    -0.237 OA
HETATM   10  C6  UNL     1       3.333  -1.079  -1.560  1.00  0.00     0.197 C 
HETATM   11  C20 UNL     1       4.461   0.856  -2.732  1.00  0.00     0.036 C 
HETATM   12  N4  UNL     1       4.181  -1.920  -2.332  1.00  0.00    -0.211 N 
ATOM     13  H4  UNL     1       3.863  -2.643  -2.977  1.00  0.00     0.178 HD
BRANCH   7  14
HETATM   14  O1  UNL     1       6.271   0.900   0.577  1.00  0.00    -0.304 OA
BRANCH  14  15
HETATM   15  C2  UNL     1       7.098   1.380   1.597  1.00  0.00     0.176 C 
HETATM   16  C1  UNL     1       7.097   0.430   2.778  1.00  0.00     0.034 C 
ENDBRANCH  14  15
ENDBRANCH   7  14
BRANCH  10  17
HETATM   17  C7  UNL     1       1.956  -0.824  -2.086  1.00  0.00     0.137 C 
BRANCH  17  18
HETATM   18  O3  UNL     1       1.835  -0.116  -3.229  1.00  0.00    -0.348 OA
ATOM     19  H3  UNL     1       0.961   0.046  -3.563  1.00  0.00     0.219 HD
ENDBRANCH  17  18
BRANCH  17  20
HETATM   20  N5  UNL     1       1.072  -0.650  -1.016  1.00  0.00    -0.372 N 
ATOM     21  H5  UNL     1       1.166  -1.233  -0.185  1.00  0.00     0.161 HD
BRANCH  20  22
HETATM   22  C8  UNL     1       0.055   0.321  -1.074  1.00  0.00     0.131 C 
BRANCH  22  23
HETATM   23  C9  UNL     1      -0.854   0.200   0.186  1.00  0.00     0.066 C 
HETATM   24  C10 UNL     1      -1.431  -1.158   0.174  1.00  0.00     0.157 C 
HETATM   25  C11 UNL     1      -2.901  -1.257   0.436  1.00  0.00     0.174 C 
HETATM   26  C12 UNL     1      -3.414  -0.026   1.167  1.00  0.00     0.171 C 
HETATM   27  C16 UNL     1      -3.225   1.071   0.139  1.00  0.00     0.175 C 
HETATM   28  C17 UNL     1      -1.708   1.379   0.284  1.00  0.00     0.160 C 
BRANCH  24  29
HETATM   29  O4  UNL     1      -0.821  -2.042   1.065  1.00  0.00    -0.392 OA
ATOM     30  H4  UNL     1      -1.192  -2.916   1.057  1.00  0.00     0.210 HD
ENDBRANCH  24  29
BRANCH  25  31
HETATM   31  O5  UNL     1      -3.235  -2.387   1.168  1.00  0.00    -0.391 OA
ATOM     32  H5  UNL     1      -4.168  -2.450   1.334  1.00  0.00     0.210 HD
ENDBRANCH  25  31
BRANCH  26  33
HETATM   33  N6  UNL     1      -4.740  -0.223   1.591  1.00  0.00    -0.277 N 
HETATM   34  C13 UNL     1      -5.878   0.179   1.027  1.00  0.00     0.147 A 
HETATM   35  C14 UNL     1      -6.931  -0.251   1.807  1.00  0.00     0.111 A 
HETATM   36  N10 UNL     1      -6.369  -0.919   2.848  1.00  0.00    -0.281 N 
HETATM   37  N11 UNL     1      -5.060  -0.893   2.706  1.00  0.00    -0.240 N 
ATOM     38  H10 UNL     1      -6.876  -1.366   3.612  1.00  0.00     0.188 HD
ATOM     39  H11 UNL     1      -4.391  -1.319   3.348  1.00  0.00     0.208 HD
BRANCH  35  40
HETATM   40  C15 UNL     1      -8.331  -0.011   1.539  1.00  0.00     0.143 C 
HETATM   41  N7  UNL     1      -9.259  -0.452   2.344  1.00  0.00    -0.383 N 
ATOM     42  H72 UNL     1      -8.989  -0.969   3.181  1.00  0.00     0.157 HD
ATOM     43  H71 UNL     1     -10.247  -0.283   2.155  1.00  0.00     0.157 HD
BRANCH  40  44
HETATM   44  N8  UNL     1      -8.708   0.710   0.371  1.00  0.00    -0.291 N 
ATOM     45  H8  UNL     1      -8.509   1.708   0.301  1.00  0.00     0.188 HD
BRANCH  44  46
HETATM   46  N9  UNL     1      -9.344   0.057  -0.668  1.00  0.00    -0.344 N 
ATOM     47  H92 UNL     1      -9.536  -0.941  -0.582  1.00  0.00     0.176 HD
ATOM     48  H91 UNL     1      -9.614   0.574  -1.505  1.00  0.00     0.176 HD
ENDBRANCH  44  46
ENDBRANCH  40  44
ENDBRANCH  35  40
ENDBRANCH  26  33
BRANCH  27  49
HETATM   49  O6  UNL     1      -3.461   0.643  -1.159  1.00  0.00    -0.391 OA
ATOM     50  H6  UNL     1      -3.343   1.331  -1.804  1.00  0.00     0.210 HD
ENDBRANCH  27  49
BRANCH  28  51
HETATM   51  O7  UNL     1      -1.675   2.038   1.503  1.00  0.00    -0.388 OA
HETATM   52  C18 UNL     1      -1.399   3.354   1.528  1.00  0.00     0.202 C 
ENDBRANCH  28  51
ENDBRANCH  22  23
ENDBRANCH  20  22
ENDBRANCH  17  20
ENDBRANCH  10  17
ENDBRANCH   1   5
TORSDOF 16
