REMARK  11 active torsions:
REMARK  status: ('A' for Active; 'I' for Inactive)
REMARK    1  A    between atoms: O1_1  and  C1_3 
REMARK    2  A    between atoms: C1_3  and  C2_4 
REMARK    3  A    between atoms: C2_4  and  S1_5 
REMARK    4  A    between atoms: S1_5  and  C3_6 
REMARK    5  A    between atoms: C8_11  and  C9_12 
REMARK    6  A    between atoms: C9_12  and  N1_13 
REMARK    7  A    between atoms: N1_13  and  N2_15 
REMARK    8  A    between atoms: N2_15  and  C10_16 
REMARK    9  A    between atoms: C10_16  and  O2_17 
REMARK   10  A    between atoms: C10_16  and  C11_19 
REMARK   11  A    between atoms: N4_26  and  C16_28 
ROOT
HETATM    1  C3  UNL     1       0.866  -0.423  -0.605  1.00  0.00     0.012 A 
HETATM    2  C4  UNL     1       1.394  -0.778   0.577  1.00  0.00     0.019 A 
HETATM    3  C5  UNL     1       0.787  -0.512   1.807  1.00  0.00     0.001 A 
HETATM    4  C6  UNL     1      -0.489   0.162   1.780  1.00  0.00     0.001 A 
HETATM    5  C7  UNL     1      -0.994   0.496   0.585  1.00  0.00     0.014 A 
HETATM    6  C8  UNL     1      -0.340   0.221  -0.602  1.00  0.00    -0.002 A 
ENDROOT
BRANCH   6   7
HETATM    7  C9  UNL     1      -1.039   0.477  -1.885  1.00  0.00     0.133 C 
BRANCH   7   8
HETATM    8  N1  UNL     1      -2.163   0.729  -2.045  1.00  0.00    -0.244 N 
ATOM      9  H1  UNL     1      -2.366   0.805  -3.042  1.00  0.00     0.201 HD
BRANCH   8  10
HETATM   10  N2  UNL     1      -3.261   0.948  -1.340  1.00  0.00    -0.299 NA
BRANCH  10  11
HETATM   11  C10 UNL     1      -4.380   1.186  -0.614  1.00  0.00     0.250 C 
BRANCH  11  12
HETATM   12  O2  UNL     1      -4.566   2.294   0.082  1.00  0.00    -0.333 OA
ATOM     13  H2  UNL     1      -5.351   2.461   0.591  1.00  0.00     0.220 HD
ENDBRANCH  11  12
BRANCH  11  14
HETATM   14  C11 UNL     1      -5.544   0.298  -0.427  1.00  0.00     0.047 A 
HETATM   15  C12 UNL     1      -5.406  -0.901   0.230  1.00  0.00     0.020 A 
HETATM   16  C13 UNL     1      -6.529  -1.626   0.676  1.00  0.00     0.018 A 
HETATM   17  C14 UNL     1      -7.824  -1.116   0.447  1.00  0.00     0.087 A 
HETATM   18  N3  UNL     1      -7.862   0.109  -0.227  1.00  0.00    -0.374 N 
HETATM   19  C15 UNL     1      -6.806   0.758  -0.631  1.00  0.00     0.104 A 
ATOM     20  H3  UNL     1      -8.776   0.522  -0.415  1.00  0.00     0.164 HD
ENDBRANCH  11  14
ENDBRANCH  10  11
ENDBRANCH   8  10
ENDBRANCH   7   8
ENDBRANCH   6   7
BRANCH   1  21
HETATM   21  S1  UNL     1       1.847  -0.500  -2.146  1.00  0.00    -0.121 SA
BRANCH  21  22
HETATM   22  C2  UNL     1       3.589  -0.581  -1.468  1.00  0.00     0.163 C 
BRANCH  22  23
HETATM   23  C1  UNL     1       3.783   0.613  -0.591  1.00  0.00     0.127 C 
HETATM   24  N4  UNL     1       4.491   1.042   0.431  1.00  0.00    -0.320 N 
ATOM     25  H4  UNL     1       4.019   1.710   1.041  1.00  0.00     0.169 HD
BRANCH  23  26
HETATM   26  O1  UNL     1       2.865   1.584  -0.965  1.00  0.00    -0.349 OA
ATOM     27  H1  UNL     1       2.988   2.343  -0.407  1.00  0.00     0.219 HD
ENDBRANCH  23  26
BRANCH  24  28
HETATM   28  C16 UNL     1       5.747   0.725   0.785  1.00  0.00     0.150 A 
HETATM   29  N5  UNL     1       6.521  -0.105   0.154  1.00  0.00    -0.346 N 
HETATM   30  C17 UNL     1       7.768  -0.227   0.533  1.00  0.00     0.097 A 
ATOM     31  H5  UNL     1       6.162  -0.655  -0.627  1.00  0.00     0.167 HD
HETATM   32  C18 UNL     1       8.180   0.541   1.580  1.00  0.00     0.070 A 
HETATM   33  S2  UNL     1       6.713   1.396   1.988  1.00  0.00    -0.064 SA
ENDBRANCH  24  28
ENDBRANCH  22  23
ENDBRANCH  21  22
ENDBRANCH   1  21
TORSDOF 11
