REMARK  6 active torsions:
REMARK  status: ('A' for Active; 'I' for Inactive)
REMARK    1  A    between atoms: C2_2  and  C3_3 
REMARK       I    between atoms: C3_3  and  N1_5 
REMARK    2  A    between atoms: N1_5  and  S1_7 
REMARK    3  A    between atoms: S1_7  and  C4_10 
REMARK    4  A    between atoms: C7_13  and  N2_14 
REMARK       I    between atoms: N2_14  and  C8_16 
REMARK    5  A    between atoms: C8_16  and  C9_18 
REMARK    6  A    between atoms: C12_21  and  N3_22 
ROOT
HETATM    1  N2  UNL     1       0.525   0.458  -0.146  1.00  0.00    -0.323 N 
ATOM      2  H2  UNL     1       0.785  -0.037  -0.999  1.00  0.00     0.169 HD
HETATM    3  C8  UNL     1       1.513   0.681   0.808  1.00  0.00     0.256 C 
HETATM    4  O4  UNL     1       1.245   1.301   1.875  1.00  0.00    -0.267 OA
ENDROOT
BRANCH   1   5
HETATM    5  C7  UNL     1      -0.810   0.874  -0.004  1.00  0.00     0.035 A 
HETATM    6  C6  UNL     1      -1.428   1.030   1.207  1.00  0.00     0.031 A 
HETATM    7  C5  UNL     1      -2.741   1.468   1.333  1.00  0.00     0.027 A 
HETATM    8  C4  UNL     1      -3.464   1.762   0.219  1.00  0.00     0.080 A 
HETATM    9  C19 UNL     1      -2.853   1.608  -1.002  1.00  0.00     0.027 A 
HETATM   10  C18 UNL     1      -1.569   1.180  -1.141  1.00  0.00     0.031 A 
BRANCH   8  11
HETATM   11  S1  UNL     1      -5.101   2.333   0.312  1.00  0.00     0.265 S 
HETATM   12  O2  UNL     1      -5.292   3.275   1.482  1.00  0.00    -0.200 OA
HETATM   13  O3  UNL     1      -5.493   3.062  -0.953  1.00  0.00    -0.200 OA
BRANCH  11  14
HETATM   14  N1  UNL     1      -6.191   1.026   0.522  1.00  0.00    -0.250 N 
HETATM   15  C3  UNL     1      -6.156  -0.077  -0.359  1.00  0.00     0.230 C 
HETATM   16  O1  UNL     1      -5.355  -0.162  -1.313  1.00  0.00    -0.273 OA
ATOM     17  H1  UNL     1      -6.867   1.045   1.286  1.00  0.00     0.181 HD
BRANCH  15  18
HETATM   18  C2  UNL     1      -7.097  -1.232  -0.198  1.00  0.00     0.099 C 
HETATM   19  C1  UNL     1      -6.867  -2.291  -1.240  1.00  0.00     0.014 C 
ENDBRANCH  15  18
ENDBRANCH  11  14
ENDBRANCH   8  11
ENDBRANCH   1   5
BRANCH   3  20
HETATM   20  C9  UNL     1       2.911   0.202   0.608  1.00  0.00     0.032 A 
HETATM   21  C10 UNL     1       3.293  -0.586  -0.441  1.00  0.00     0.019 A 
HETATM   22  C11 UNL     1       4.615  -1.003  -0.586  1.00  0.00     0.031 A 
HETATM   23  C12 UNL     1       5.580  -0.634   0.325  1.00  0.00     0.039 A 
HETATM   24  C16 UNL     1       5.182   0.160   1.379  1.00  0.00     0.031 A 
HETATM   25  C17 UNL     1       3.864   0.578   1.526  1.00  0.00     0.019 A 
BRANCH  23  26
HETATM   26  N3  UNL     1       6.928  -1.067   0.162  1.00  0.00    -0.317 N 
HETATM   27  C13 UNL     1       7.899  -0.401  -0.501  1.00  0.00     0.115 A 
HETATM   28  C14 UNL     1       9.083  -1.093  -0.471  1.00  0.00     0.106 A 
HETATM   29  N4  UNL     1       8.822  -2.221   0.236  1.00  0.00    -0.360 N 
HETATM   30  C15 UNL     1       7.519  -2.188   0.609  1.00  0.00     0.188 A 
ATOM     31  H4  UNL     1       9.489  -2.963   0.449  1.00  0.00     0.166 HD
ENDBRANCH  23  26
ENDBRANCH   3  20
TORSDOF 6
