REMARK  14 active torsions:
REMARK  status: ('A' for Active; 'I' for Inactive)
REMARK    1  A    between atoms: N1_1  and  C1_5 
REMARK    2  A    between atoms: C1_5  and  C2_6 
REMARK       I    between atoms: C2_6  and  N2_8 
REMARK    3  A    between atoms: N2_8  and  C3_10 
REMARK    4  A    between atoms: C4_13  and  N4_14 
REMARK    5  A    between atoms: N5_19  and  C6_20 
REMARK    6  A    between atoms: C6_20  and  C7_21 
REMARK    7  A    between atoms: C12_29  and  O3_30 
REMARK    8  A    between atoms: C13_32  and  N7_33 
REMARK    9  A    between atoms: N7_33  and  C14_36 
REMARK   10  A    between atoms: C14_36  and  O4_37 
REMARK   11  A    between atoms: C14_36  and  C15_39 
REMARK   12  A    between atoms: C15_39  and  N8_40 
REMARK   13  A    between atoms: C15_39  and  C16_44 
REMARK       I    between atoms: C16_44  and  N9_46 
REMARK   14  A    between atoms: N9_46  and  N10_48 
ROOT
HETATM    1  C3  UNL     1      -0.589   1.905   0.613  1.00  0.00     0.216 C 
HETATM    2  N3  UNL     1       0.520   2.780   0.512  1.00  0.00    -0.372 N 
ATOM      3  H3  UNL     1       0.530   3.637   1.065  1.00  0.00     0.157 HD
HETATM    4  C4  UNL     1       1.596   2.497  -0.324  1.00  0.00     0.296 C 
HETATM    5  C5  UNL     1       2.415   1.385   0.302  1.00  0.00     0.173 C 
HETATM    6  N5  UNL     1       1.926   0.168  -0.233  1.00  0.00    -0.378 N 
HETATM    7  C12 UNL     1       0.637  -0.263  -0.017  1.00  0.00     0.251 C 
HETATM    8  C13 UNL     1      -0.548   0.588  -0.017  1.00  0.00     0.278 C 
ENDROOT
BRANCH   8   9
HETATM    9  N7  UNL     1      -1.623  -0.199   0.658  1.00  0.00    -0.034 N 
ATOM     10  H72 UNL     1      -1.253  -0.685   1.475  1.00  0.00     0.281 HD
ATOM     11  H71 UNL     1      -2.289   0.423   1.116  1.00  0.00     0.281 HD
BRANCH   9  12
HETATM   12  C14 UNL     1      -2.291  -1.100  -0.194  1.00  0.00     0.359 C 
BRANCH  12  13
HETATM   13  O4  UNL     1      -1.921  -2.462   0.006  1.00  0.00    -0.368 OA
ATOM     14  H4  UNL     1      -2.372  -3.070  -0.569  1.00  0.00     0.212 HD
ENDBRANCH  12  13
BRANCH  12  15
HETATM   15  C15 UNL     1      -3.790  -1.149   0.205  1.00  0.00     0.332 C 
BRANCH  15  16
HETATM   16  N8  UNL     1      -3.856  -1.587   1.581  1.00  0.00    -0.062 N 
ATOM     17  H83 UNL     1      -3.372  -2.470   1.742  1.00  0.00     0.275 HD
ATOM     18  H82 UNL     1      -3.295  -1.012   2.210  1.00  0.00     0.275 HD
ATOM     19  H81 UNL     1      -4.841  -1.619   1.843  1.00  0.00     0.275 HD
ENDBRANCH  15  16
BRANCH  15  20
HETATM   20  C16 UNL     1      -4.337  -2.284  -0.630  1.00  0.00     0.270 C 
HETATM   21  O5  UNL     1      -4.682  -2.091  -1.848  1.00  0.00    -0.269 OA
HETATM   22  N9  UNL     1      -4.482  -3.596  -0.117  1.00  0.00    -0.275 N 
ATOM     23  H9  UNL     1      -4.220  -3.771   0.853  1.00  0.00     0.189 HD
BRANCH  22  24
HETATM   24  N10 UNL     1      -4.967  -4.662  -0.878  1.00  0.00    -0.343 N 
ATOM     25 2H10 UNL     1      -5.224  -4.470  -1.846  1.00  0.00     0.176 HD
ATOM     26 1H10 UNL     1      -5.071  -5.607  -0.509  1.00  0.00     0.176 HD
ENDBRANCH  22  24
ENDBRANCH  15  20
ENDBRANCH  12  15
ENDBRANCH   9  12
ENDBRANCH   8   9
BRANCH   1  27
HETATM   27  N2  UNL     1      -1.683   2.684  -0.028  1.00  0.00    -0.337 N 
HETATM   28  C2  UNL     1      -2.416   3.630   0.740  1.00  0.00     0.244 C 
HETATM   29  O1  UNL     1      -2.079   3.756   1.957  1.00  0.00    -0.272 OA
ATOM     30  H2  UNL     1      -1.906   2.540  -1.013  1.00  0.00     0.164 HD
BRANCH  28  31
HETATM   31  C1  UNL     1      -3.510   4.462   0.241  1.00  0.00     0.332 C 
BRANCH  31  32
HETATM   32  N1  UNL     1      -4.001   5.343   1.305  1.00  0.00    -0.071 N 
ATOM     33  H13 UNL     1      -4.269   4.821   2.139  1.00  0.00     0.274 HD
ATOM     34  H12 UNL     1      -3.252   5.902   1.713  1.00  0.00     0.274 HD
ATOM     35  H11 UNL     1      -4.764   5.923   0.957  1.00  0.00     0.274 HD
ENDBRANCH  31  32
ENDBRANCH  28  31
ENDBRANCH   1  27
BRANCH   7  36
HETATM   36  O3  UNL     1       0.404  -1.259  -1.023  1.00  0.00    -0.375 OA
ATOM     37  H3  UNL     1      -0.486  -1.557  -0.874  1.00  0.00     0.212 HD
ENDBRANCH   7  36
BRANCH   6  38
HETATM   38  C6  UNL     1       2.787  -0.484  -1.142  1.00  0.00     0.155 C 
BRANCH  38  39
HETATM   39  C7  UNL     1       4.012  -1.081  -0.559  1.00  0.00    -0.048 C 
HETATM   40  C8  UNL     1       4.265  -1.071   0.729  1.00  0.00    -0.011 C 
HETATM   41  C9  UNL     1       5.550  -1.703   1.235  1.00  0.00     0.130 C 
HETATM   42  C10 UNL     1       5.767  -2.960   0.503  1.00  0.00     0.221 C 
HETATM   43  O2  UNL     1       6.270  -3.920   1.102  1.00  0.00    -0.273 OA
HETATM   44  N6  UNL     1       5.374  -2.991  -0.887  1.00  0.00    -0.357 N 
HETATM   45  C11 UNL     1       5.020  -1.719  -1.502  1.00  0.00     0.158 C 
ATOM     46  H6  UNL     1       5.346  -3.864  -1.414  1.00  0.00     0.162 HD
ENDBRANCH  38  39
ENDBRANCH   6  38
BRANCH   4  47
HETATM   47  N4  UNL     1       1.142   2.198  -1.645  1.00  0.00    -0.057 N 
ATOM     48  H43 UNL     1       0.453   1.446  -1.647  1.00  0.00     0.276 HD
ATOM     49  H42 UNL     1       0.556   2.943  -2.021  1.00  0.00     0.276 HD
ATOM     50  H41 UNL     1       1.931   1.991  -2.258  1.00  0.00     0.276 HD
ENDBRANCH   4  47
TORSDOF 14
