REMARK  18 active torsions:
REMARK  status: ('A' for Active; 'I' for Inactive)
REMARK    1  A    between atoms: N1_1  and  N2_4 
REMARK       I    between atoms: N2_4  and  C1_6 
REMARK    2  A    between atoms: C1_6  and  O2_8 
REMARK    3  A    between atoms: O2_8  and  C2_9 
REMARK    4  A    between atoms: C2_9  and  O3_10 
REMARK    5  A    between atoms: C2_9  and  C3_12 
REMARK    6  A    between atoms: C3_12  and  N3_13 
REMARK    7  A    between atoms: C3_12  and  C4_17 
REMARK    8  A    between atoms: C4_17  and  N4_18 
REMARK    9  A    between atoms: C4_17  and  C5_22 
REMARK   10  A    between atoms: C5_22  and  C6_23 
REMARK   11  A    between atoms: C8_25  and  N5_26 
REMARK   12  A    between atoms: N5_26  and  O4_28 
REMARK   13  A    between atoms: C9_32  and  N7_33 
REMARK       I    between atoms: N7_33  and  C10_35 
REMARK   14  A    between atoms: C10_35  and  C11_37 
REMARK   15  A    between atoms: C11_37  and  N8_38 
REMARK   16  A    between atoms: C11_37  and  C12_42 
REMARK   17  A    between atoms: C12_42  and  O6_43 
REMARK   18  A    between atoms: C12_42  and  C13_45 
ROOT
HETATM    1  C6  UNL     1       0.271  -1.191   0.986  1.00  0.00     0.032 A 
HETATM    2  C7  UNL     1       0.336  -1.990  -0.136  1.00  0.00     0.076 A 
HETATM    3  C8  UNL     1       1.034  -1.641  -1.275  1.00  0.00     0.142 A 
HETATM    4  N6  UNL     1       1.669  -0.442  -1.233  1.00  0.00    -0.175 N 
ATOM      5  H6  UNL     1       2.197  -0.143  -2.053  1.00  0.00     0.186 HD
HETATM    6  C9  UNL     1       1.635   0.364  -0.170  1.00  0.00     0.686 A 
HETATM    7  N10 UNL     1       0.947  -0.011   0.914  1.00  0.00    -0.195 N 
ATOM      8  H10 UNL     1       0.928   0.613   1.721  1.00  0.00     0.184 HD
ENDROOT
BRANCH   1   9
HETATM    9  C5  UNL     1      -0.483  -1.641   2.132  1.00  0.00     0.092 C 
BRANCH   9  10
HETATM   10  C4  UNL     1      -1.902  -1.243   2.281  1.00  0.00     0.224 C 
BRANCH  10  11
HETATM   11  C3  UNL     1      -2.836  -1.661   1.190  1.00  0.00     0.269 C 
BRANCH  11  12
HETATM   12  C2  UNL     1      -4.256  -1.265   1.630  1.00  0.00     0.300 C 
BRANCH  12  13
HETATM   13  O2  UNL     1      -5.166  -1.628   0.578  1.00  0.00    -0.269 OA
BRANCH  13  14
HETATM   14  C1  UNL     1      -6.014  -0.687   0.038  1.00  0.00     0.381 C 
HETATM   15  N2  UNL     1      -6.932  -0.998  -1.003  1.00  0.00    -0.252 N 
ATOM     16  H2  UNL     1      -6.981  -1.945  -1.379  1.00  0.00     0.191 HD
HETATM   17  O1  UNL     1      -5.965   0.500   0.497  1.00  0.00    -0.237 OA
BRANCH  15  18
HETATM   18  N1  UNL     1      -7.765   0.003  -1.506  1.00  0.00    -0.341 N 
ATOM     19  H12 UNL     1      -7.703   0.945  -1.119  1.00  0.00     0.177 HD
ATOM     20  H11 UNL     1      -8.423  -0.220  -2.253  1.00  0.00     0.177 HD
ENDBRANCH  15  18
ENDBRANCH  13  14
ENDBRANCH  12  13
BRANCH  12  21
HETATM   21  O3  UNL     1      -4.644  -2.100   2.701  1.00  0.00    -0.368 OA
ATOM     22  H3  UNL     1      -4.043  -1.860   3.396  1.00  0.00     0.212 HD
ENDBRANCH  12  21
ENDBRANCH  11  12
BRANCH  11  23
HETATM   23  N3  UNL     1      -2.601  -0.920  -0.046  1.00  0.00    -0.068 N 
ATOM     24  H33 UNL     1      -3.312  -1.073  -0.761  1.00  0.00     0.275 HD
ATOM     25  H32 UNL     1      -2.740   0.087   0.044  1.00  0.00     0.275 HD
ATOM     26  H31 UNL     1      -1.660  -1.183  -0.338  1.00  0.00     0.275 HD
ENDBRANCH  11  23
ENDBRANCH  10  11
BRANCH  10  27
HETATM   27  N4  UNL     1      -2.365  -1.971   3.494  1.00  0.00    -0.072 N 
ATOM     28  H43 UNL     1      -3.349  -1.819   3.714  1.00  0.00     0.274 HD
ATOM     29  H42 UNL     1      -2.426  -2.982   3.369  1.00  0.00     0.274 HD
ATOM     30  H41 UNL     1      -1.728  -1.686   4.238  1.00  0.00     0.274 HD
ENDBRANCH  10  27
ENDBRANCH   9  10
ENDBRANCH   1   9
BRANCH   3  31
HETATM   31  N5  UNL     1       1.089  -2.397  -2.318  1.00  0.00    -0.253 N 
ATOM     32  H5  UNL     1       1.612  -2.118  -3.148  1.00  0.00     0.196 HD
BRANCH  31  33
HETATM   33  O4  UNL     1       0.416  -3.591  -2.266  1.00  0.00    -0.288 OA
ATOM     34  H4  UNL     1       0.457  -4.148  -3.034  1.00  0.00     0.244 HD
ENDBRANCH  31  33
ENDBRANCH   3  31
BRANCH   6  35
HETATM   35  N7  UNL     1       2.262   1.508  -0.173  1.00  0.00    -0.158 N 
HETATM   36  C10 UNL     1       3.003   1.955  -1.286  1.00  0.00     0.269 C 
HETATM   37  O5  UNL     1       2.369   2.314  -2.310  1.00  0.00    -0.270 OA
ATOM     38  H7  UNL     1       2.215   2.099   0.657  1.00  0.00     0.187 HD
BRANCH  36  39
HETATM   39  C11 UNL     1       4.482   2.027  -1.319  1.00  0.00     0.312 C 
BRANCH  39  40
HETATM   40  N8  UNL     1       4.962   1.549  -0.029  1.00  0.00    -0.064 N 
ATOM     41  H83 UNL     1       4.554   2.050   0.761  1.00  0.00     0.275 HD
ATOM     42  H82 UNL     1       4.612   0.621   0.210  1.00  0.00     0.275 HD
ATOM     43  H81 UNL     1       5.981   1.599  -0.052  1.00  0.00     0.275 HD
ENDBRANCH  39  40
BRANCH  39  44
HETATM   44  C12 UNL     1       4.989   3.446  -1.485  1.00  0.00     0.246 C 
BRANCH  44  45
HETATM   45  O6  UNL     1       4.511   4.269  -0.467  1.00  0.00    -0.384 OA
ATOM     46  H6  UNL     1       4.829   5.158  -0.571  1.00  0.00     0.210 HD
ENDBRANCH  44  45
BRANCH  44  47
HETATM   47  C13 UNL     1       6.480   3.358  -1.320  1.00  0.00     0.262 C 
HETATM   48  N9  UNL     1       7.165   4.029  -0.286  1.00  0.00    -0.060 NA
HETATM   49  O7  UNL     1       7.145   2.663  -2.129  1.00  0.00    -0.274 OA
ENDBRANCH  44  47
ENDBRANCH  39  44
ENDBRANCH  36  39
ENDBRANCH   6  35
TORSDOF 18
