REMARK  9 active torsions:
REMARK  status: ('A' for Active; 'I' for Inactive)
REMARK    1  A    between atoms: C2_2  and  O1_3 
REMARK    2  A    between atoms: O1_3  and  C3_4 
REMARK    3  A    between atoms: C3_4  and  C4_6 
REMARK    4  A    between atoms: C9_11  and  O3_12 
REMARK    5  A    between atoms: C9_11  and  C10_14 
REMARK    6  A    between atoms: C11_16  and  C12_17 
REMARK    7  A    between atoms: C12_17  and  O5_19 
REMARK    8  A    between atoms: O5_19  and  C13_20 
REMARK    9  A    between atoms: C13_20  and  C14_21 
ROOT
HETATM    1  C4  UNL     1      -2.487  -0.463   0.612  1.00  0.00     0.065 C 
HETATM    2  C5  UNL     1      -3.076  -1.521   0.044  1.00  0.00    -0.059 C 
HETATM    3  C6  UNL     1      -4.494  -1.807   0.430  1.00  0.00     0.045 C 
HETATM    4  C7  UNL     1      -2.402  -2.384  -0.923  1.00  0.00     0.049 C 
HETATM    5  C8  UNL     1      -3.280  -2.485  -2.160  1.00  0.00     0.018 C 
HETATM    6  C9  UNL     1      -1.042  -1.917  -1.378  1.00  0.00     0.109 C 
HETATM    7  C11 UNL     1      -0.284  -1.335  -0.191  1.00  0.00     0.173 C 
HETATM    8  C20 UNL     1      -1.105  -0.169   0.239  1.00  0.00     0.036 C 
HETATM    9  N1  UNL     1      -0.709   1.046   0.296  1.00  0.00    -0.401 N 
ATOM     10  H11 UNL     1       0.256   1.251   0.036  1.00  0.00     0.156 HD
ATOM     11  H12 UNL     1      -1.271   1.844   0.590  1.00  0.00     0.156 HD
ENDROOT
BRANCH   7  12
HETATM   12  C12 UNL     1       1.100  -1.029  -0.517  1.00  0.00     0.272 C 
HETATM   13  O4  UNL     1       2.007  -1.727   0.060  1.00  0.00    -0.264 OA
BRANCH  12  14
HETATM   14  O5  UNL     1       1.528  -0.058  -1.390  1.00  0.00    -0.317 OA
BRANCH  14  15
HETATM   15  C13 UNL     1       2.849   0.185  -1.654  1.00  0.00     0.212 C 
BRANCH  15  16
HETATM   16  C14 UNL     1       3.716   0.713  -0.586  1.00  0.00    -0.060 C 
HETATM   17  C15 UNL     1       3.307   0.990   0.640  1.00  0.00    -0.022 C 
HETATM   18  C16 UNL     1       4.318   1.528   1.636  1.00  0.00     0.027 C 
HETATM   19  C17 UNL     1       5.019   2.649   0.895  1.00  0.00     0.004 C 
HETATM   20  C18 UNL     1       5.797   2.072  -0.241  1.00  0.00     0.005 C 
HETATM   21  C19 UNL     1       5.155   0.935  -0.957  1.00  0.00     0.036 C 
ENDBRANCH  15  16
ENDBRANCH  14  15
ENDBRANCH  12  14
ENDBRANCH   7  12
BRANCH   6  22
HETATM   22  O3  UNL     1      -1.128  -0.971  -2.395  1.00  0.00    -0.385 OA
ATOM     23  H3  UNL     1      -0.271  -0.677  -2.682  1.00  0.00     0.210 HD
ENDBRANCH   6  22
BRANCH   6  24
HETATM   24  C10 UNL     1      -0.323  -3.144  -1.887  1.00  0.00     0.262 C 
HETATM   25  F1  UNL     1       0.922  -2.858  -2.341  1.00  0.00    -0.252 F 
ENDBRANCH   6  24
BRANCH   1  26
HETATM   26  C3  UNL     1      -3.181   0.389   1.571  1.00  0.00     0.295 C 
HETATM   27  O2  UNL     1      -4.340   0.261   1.970  1.00  0.00    -0.259 OA
BRANCH  26  28
HETATM   28  O1  UNL     1      -2.469   1.478   2.108  1.00  0.00    -0.318 OA
BRANCH  28  29
HETATM   29  C2  UNL     1      -3.069   2.353   3.043  1.00  0.00     0.174 C 
HETATM   30  C1  UNL     1      -4.290   3.035   2.479  1.00  0.00     0.034 C 
ENDBRANCH  28  29
ENDBRANCH  26  28
ENDBRANCH   1  26
TORSDOF 9
