REMARK  7 active torsions:
REMARK  status: ('A' for Active; 'I' for Inactive)
REMARK    1  A    between atoms: C2_2  and  C3_3 
REMARK    2  A    between atoms: C7_7  and  C8_8 
REMARK    3  A    between atoms: C8_8  and  N1_10 
REMARK    4  A    between atoms: C11_14  and  C12_15 
REMARK    5  A    between atoms: C12_15  and  C13_20 
REMARK    6  A    between atoms: N2_16  and  O1_18 
REMARK    7  A    between atoms: C16_26  and  N4_27 
ROOT
HETATM    1  C12 UNL     1      -0.668   0.016   0.317  1.00  0.00     0.081 C 
HETATM    2  N2  UNL     1      -0.754   0.194   1.591  1.00  0.00    -0.269 N 
ATOM      3  H2  UNL     1      -1.685   0.367   1.971  1.00  0.00     0.194 HD
ENDROOT
BRANCH   1   4
HETATM    4  C11 UNL     1      -1.857   0.056  -0.579  1.00  0.00     0.055 C 
HETATM    5  C3  UNL     1      -1.688   1.222  -1.486  1.00  0.00     0.018 C 
HETATM    6  C4  UNL     1      -2.543   2.416  -1.039  1.00  0.00     0.009 C 
HETATM    7  C5  UNL     1      -3.998   2.103  -1.173  1.00  0.00     0.001 C 
HETATM    8  C6  UNL     1      -4.229   0.711  -0.643  1.00  0.00     0.007 C 
HETATM    9  C7  UNL     1      -3.124   0.153   0.187  1.00  0.00     0.026 C 
BRANCH   5  10
HETATM   10  C2  UNL     1      -1.885   0.999  -2.929  1.00  0.00    -0.031 C 
HETATM   11  C1  UNL     1      -2.206  -0.107  -3.565  1.00  0.00     0.007 C 
ENDBRANCH   5  10
BRANCH   9  12
HETATM   12  C8  UNL     1      -3.622  -1.164   0.740  1.00  0.00     0.186 C 
HETATM   13  C9  UNL     1      -3.988  -2.150  -0.335  1.00  0.00     0.040 C 
BRANCH  12  14
HETATM   14  N1  UNL     1      -4.833  -0.879   1.492  1.00  0.00    -0.075 N 
HETATM   15  C10 UNL     1      -4.619  -0.020   2.616  1.00  0.00     0.267 C 
ATOM     16  H12 UNL     1      -5.556  -0.500   0.881  1.00  0.00     0.277 HD
ATOM     17  H11 UNL     1      -5.290  -1.744   1.781  1.00  0.00     0.277 HD
ENDBRANCH  12  14
ENDBRANCH   9  12
ENDBRANCH   1   4
BRANCH   1  18
HETATM   18  C13 UNL     1       0.632  -0.207  -0.232  1.00  0.00     0.132 A 
HETATM   19  N3  UNL     1       0.812  -0.442  -1.526  1.00  0.00    -0.348 N 
HETATM   20  C14 UNL     1       1.965  -0.663  -2.151  1.00  0.00     0.136 A 
ATOM     21  H3  UNL     1      -0.027  -0.454  -2.105  1.00  0.00     0.167 HD
HETATM   22  C15 UNL     1       3.121  -0.648  -1.364  1.00  0.00     0.175 A 
HETATM   23  F1  UNL     1       4.337  -0.865  -1.927  1.00  0.00    -0.201 F 
HETATM   24  C16 UNL     1       2.971  -0.408  -0.018  1.00  0.00     0.145 A 
HETATM   25  N5  UNL     1       1.762  -0.194   0.532  1.00  0.00    -0.325 N 
ATOM     26  H5  UNL     1       1.689  -0.020   1.534  1.00  0.00     0.169 HD
BRANCH  24  27
HETATM   27  N4  UNL     1       4.140  -0.387   0.843  1.00  0.00    -0.365 N 
HETATM   28  C17 UNL     1       4.975  -1.544   1.018  1.00  0.00     0.124 C 
HETATM   29  C18 UNL     1       6.400  -1.211   0.763  1.00  0.00     0.020 C 
HETATM   30  C19 UNL     1       6.815   0.019   1.499  1.00  0.00     0.003 C 
HETATM   31  C20 UNL     1       5.896   1.193   1.227  1.00  0.00     0.020 C 
HETATM   32  C21 UNL     1       4.470   0.824   1.560  1.00  0.00     0.124 C 
ENDBRANCH  24  27
ENDBRANCH   1  18
BRANCH   2  33
HETATM   33  O1  UNL     1       0.270   0.173   2.469  1.00  0.00    -0.290 OA
ATOM     34  H1  UNL     1       0.207   0.304   3.408  1.00  0.00     0.244 HD
ENDBRANCH   2  33
TORSDOF 7
