REMARK  8 active torsions:
REMARK  status: ('A' for Active; 'I' for Inactive)
REMARK    1  A    between atoms: C2_2  and  C15_26 
REMARK    2  A    between atoms: C3_3  and  N1_4 
REMARK    3  A    between atoms: C3_3  and  C12_15 
REMARK    4  A    between atoms: N1_4  and  C4_6 
REMARK    5  A    between atoms: C4_6  and  C5_7 
REMARK    6  A    between atoms: C5_7  and  C6_8 
REMARK    7  A    between atoms: C6_8  and  N2_9 
REMARK    8  A    between atoms: N5_22  and  N6_23 
ROOT
HETATM    1  C1  UNL     1      -0.487   2.201   0.171  1.00  0.00     0.046 C 
HETATM    2  C2  UNL     1      -1.729   1.352   0.118  1.00  0.00    -0.048 C 
HETATM    3  C3  UNL     1      -1.581   0.052   0.157  1.00  0.00     0.078 C 
ENDROOT
BRANCH   3   4
HETATM    4  N1  UNL     1      -0.348  -0.648   0.241  1.00  0.00    -0.383 N 
ATOM      5  H1  UNL     1       0.061  -0.813   1.161  1.00  0.00     0.160 HD
BRANCH   4   6
HETATM    6  C4  UNL     1       0.364  -1.146  -0.950  1.00  0.00     0.148 C 
BRANCH   6   7
HETATM    7  C5  UNL     1       1.469  -2.056  -0.633  1.00  0.00     0.004 C 
BRANCH   7   8
HETATM    8  C6  UNL     1       2.603  -1.708   0.207  1.00  0.00     0.057 C 
BRANCH   8   9
HETATM    9  N2  UNL     1       3.521  -0.678  -0.107  1.00  0.00    -0.293 NA
HETATM   10  C7  UNL     1       2.993   0.614   0.039  1.00  0.00     0.095 C 
HETATM   11  C8  UNL     1       4.016   1.717   0.089  1.00  0.00     0.015 C 
HETATM   12  C9  UNL     1       5.421   1.303  -0.198  1.00  0.00     0.002 C 
HETATM   13  C10 UNL     1       5.810   0.003   0.451  1.00  0.00     0.015 C 
HETATM   14  C11 UNL     1       4.649  -0.844   0.822  1.00  0.00     0.095 C 
ENDBRANCH   8   9
ENDBRANCH   7   8
ENDBRANCH   6   7
ENDBRANCH   4   6
ENDBRANCH   3   4
BRANCH   3  15
HETATM   15  C12 UNL     1      -2.758  -0.845   0.192  1.00  0.00     0.171 A 
HETATM   16  N3  UNL     1      -3.105  -1.710  -0.782  1.00  0.00    -0.278 N 
HETATM   17  N4  UNL     1      -4.151  -2.377  -0.366  1.00  0.00    -0.269 N 
ATOM     18  H3  UNL     1      -2.637  -1.824  -1.681  1.00  0.00     0.189 HD
HETATM   19  C13 UNL     1      -4.848  -3.423  -1.111  1.00  0.00     0.180 C 
HETATM   20  C14 UNL     1      -4.465  -1.932   0.863  1.00  0.00     0.215 A 
HETATM   21  S1  UNL     1      -5.693  -2.455   1.769  1.00  0.00    -0.037 SA
HETATM   22  N5  UNL     1      -3.582  -0.954   1.234  1.00  0.00    -0.215 N 
BRANCH  22  23
HETATM   23  N6  UNL     1      -3.607  -0.307   2.463  1.00  0.00    -0.334 N 
ATOM     24  H62 UNL     1      -2.949   0.422   2.739  1.00  0.00     0.177 HD
ATOM     25  H61 UNL     1      -4.238  -0.390   3.260  1.00  0.00     0.177 HD
ENDBRANCH  22  23
ENDBRANCH   3  15
BRANCH   2  26
HETATM   26  C15 UNL     1      -3.032   2.021  -0.040  1.00  0.00     0.036 A 
HETATM   27  C16 UNL     1      -3.295   3.429   0.286  1.00  0.00     0.031 A 
HETATM   28  C17 UNL     1      -3.294   2.964  -1.174  1.00  0.00     0.091 A 
HETATM   29 CL1  UNL     1      -2.006   3.512  -2.234  1.00  0.00    -0.124 Cl
ENDBRANCH   2  26
TORSDOF 8
