REMARK  8 active torsions:
REMARK  status: ('A' for Active; 'I' for Inactive)
REMARK    1  A    between atoms: C2_2  and  C3_3 
REMARK    2  A    between atoms: C4_4  and  O1_5 
REMARK    3  A    between atoms: N1_7  and  O2_8 
REMARK    4  A    between atoms: N2_12  and  C6_13 
REMARK    5  A    between atoms: C6_13  and  C7_14 
REMARK    6  A    between atoms: C8_15  and  C9_16 
REMARK    7  A    between atoms: C9_16  and  C10_17 
REMARK    8  A    between atoms: C10_17  and  C11_18 
ROOT
HETATM    1  C7  UNL     1       2.192   0.492   0.056  1.00  0.00    -0.011 C 
HETATM    2  C8  UNL     1       0.968   0.249  -0.308  1.00  0.00    -0.029 C 
ENDROOT
BRANCH   2   3
HETATM    3  C9  UNL     1       0.150  -0.926   0.032  1.00  0.00     0.030 C 
BRANCH   3   4
HETATM    4  C10 UNL     1      -1.116  -0.584   0.796  1.00  0.00     0.045 C 
BRANCH   4   5
HETATM    5  C11 UNL     1      -2.063   0.310   0.103  1.00  0.00     0.098 A 
HETATM    6  O4  UNL     1      -1.794   1.577  -0.320  1.00  0.00    -0.365 OA
HETATM    7  C12 UNL     1      -2.400   1.579   0.904  1.00  0.00     0.192 A 
HETATM    8  C13 UNL     1      -3.872   1.569   1.110  1.00  0.00     0.207 C 
HETATM    9  F1  UNL     1      -4.105   1.875   2.457  1.00  0.00    -0.246 F 
HETATM   10  C14 UNL     1      -4.219   0.082   0.949  1.00  0.00     0.033 C 
HETATM   11  C15 UNL     1      -5.673  -0.157   0.836  1.00  0.00     0.008 C 
HETATM   12  C19 UNL     1      -3.446  -0.223  -0.308  1.00  0.00    -0.004 C 
HETATM   13  C16 UNL     1      -6.244  -0.057  -0.534  1.00  0.00     0.001 C 
HETATM   14  C17 UNL     1      -5.450   0.692  -1.526  1.00  0.00     0.001 C 
HETATM   15  C18 UNL     1      -3.976   0.580  -1.433  1.00  0.00     0.013 C 
HETATM   16  C20 UNL     1      -3.379  -1.661  -0.669  1.00  0.00     0.019 C 
ENDBRANCH   4   5
ENDBRANCH   3   4
ENDBRANCH   2   3
BRANCH   1  17
HETATM   17  C6  UNL     1       3.018  -0.379   0.898  1.00  0.00     0.161 C 
BRANCH  17  18
HETATM   18  N2  UNL     1       4.227  -0.797   0.175  1.00  0.00    -0.294 N 
HETATM   19  C3  UNL     1       5.395  -0.134   0.177  1.00  0.00     0.069 A 
HETATM   20  C4  UNL     1       6.272  -0.868  -0.629  1.00  0.00     0.195 A 
HETATM   21  N1  UNL     1       5.610  -1.939  -1.087  1.00  0.00    -0.147 N 
HETATM   22  C5  UNL     1       4.362  -1.886  -0.591  1.00  0.00     0.355 A 
HETATM   23  O3  UNL     1       3.479  -2.743  -0.826  1.00  0.00    -0.244 OA
BRANCH  19  24
HETATM   24  C2  UNL     1       5.753   1.130   0.872  1.00  0.00     0.057 C 
HETATM   25  C1  UNL     1       5.778   2.276  -0.122  1.00  0.00     0.011 C 
ENDBRANCH  19  24
BRANCH  20  26
HETATM   26  O1  UNL     1       7.588  -0.524  -0.890  1.00  0.00    -0.343 OA
ATOM     27  H1  UNL     1       8.183  -1.022  -1.437  1.00  0.00     0.219 HD
ENDBRANCH  20  26
BRANCH  21  28
HETATM   28  O2  UNL     1       6.115  -2.931  -1.925  1.00  0.00    -0.277 OA
ATOM     29  H2  UNL     1       5.646  -3.690  -2.250  1.00  0.00     0.245 HD
ENDBRANCH  21  28
ENDBRANCH  17  18
ENDBRANCH   1  17
TORSDOF 8
