REMARK  2 active torsions:
REMARK  status: ('A' for Active; 'I' for Inactive)
REMARK    1  A    between atoms: C2_2  and  C3_3 
REMARK    2  A    between atoms: C7_9  and  N2_10 
ROOT
HETATM    1  C3  UNL     1      -0.951   0.156   0.464  1.00  0.00     0.004 C 
HETATM    2  C4  UNL     1      -0.285  -1.176   0.676  1.00  0.00     0.118 C 
HETATM    3  N1  UNL     1       1.024  -0.929   1.163  1.00  0.00    -0.415 N 
ATOM      4  H1  UNL     1       1.371  -1.376   2.012  1.00  0.00     0.153 HD
HETATM    5  C5  UNL     1       1.825  -0.036   0.419  1.00  0.00     0.102 C 
HETATM    6  C6  UNL     1       2.859  -0.876  -0.349  1.00  0.00     0.034 C 
HETATM    7  C7  UNL     1       1.170   0.936  -0.460  1.00  0.00     0.205 C 
HETATM    8  C8  UNL     1      -0.281   0.763  -0.718  1.00  0.00     0.041 C 
ENDROOT
BRANCH   7   9
HETATM    9  N2  UNL     1       1.356   2.316   0.022  1.00  0.00    -0.073 N 
ATOM     10  H23 UNL     1       1.044   2.418   0.988  1.00  0.00     0.274 HD
ATOM     11  H22 UNL     1       2.344   2.536   0.150  1.00  0.00     0.274 HD
ATOM     12  H21 UNL     1       0.900   2.993  -0.590  1.00  0.00     0.274 HD
ENDBRANCH   7   9
BRANCH   1  13
HETATM   13  C2  UNL     1      -2.441   0.074   0.359  1.00  0.00     0.002 C 
HETATM   14  C1  UNL     1      -2.923  -0.776  -0.768  1.00  0.00     0.005 C 
ENDBRANCH   1  13
TORSDOF 2
