REMARK  4 active torsions:
REMARK  status: ('A' for Active; 'I' for Inactive)
REMARK    1  A    between atoms: N1_1  and  C1_4 
REMARK    2  A    between atoms: C1_4  and  N2_5 
REMARK    3  A    between atoms: N2_5  and  N3_7 
REMARK    4  A    between atoms: N3_7  and  C2_9 
ROOT
HETATM    1  N3  UNL     1       1.402  -1.288  -0.253  1.00  0.00    -0.324 N 
ATOM      2  H3  UNL     1       1.337  -1.992   0.482  1.00  0.00     0.181 HD
ENDROOT
BRANCH   1   3
HETATM    3  N2  UNL     1       2.664  -0.935  -0.736  1.00  0.00    -0.255 N 
ATOM      4  H2  UNL     1       2.995  -1.250  -1.648  1.00  0.00     0.198 HD
BRANCH   3   5
HETATM    5  C1  UNL     1       3.389  -0.192   0.028  1.00  0.00     0.060 C 
BRANCH   5   6
HETATM    6  N1  UNL     1       4.032   0.731   0.633  1.00  0.00    -0.351 N 
ATOM      7  H12 UNL     1       3.674   1.416  -0.033  1.00  0.00     0.167 HD
ATOM      8  H11 UNL     1       4.606   1.319   1.238  1.00  0.00     0.167 HD
ENDBRANCH   5   6
ENDBRANCH   3   5
ENDBRANCH   1   3
BRANCH   1   9
HETATM    9  C2  UNL     1       0.171  -0.686  -0.761  1.00  0.00     0.100 C 
HETATM   10  C3  UNL     1       0.236   0.770  -0.522  1.00  0.00     0.026 C 
HETATM   11  C4  UNL     1      -1.014   1.469  -0.189  1.00  0.00     0.002 C 
HETATM   12  C5  UNL     1      -2.117   0.649   0.373  1.00  0.00     0.000 C 
HETATM   13  C6  UNL     1      -1.513  -0.593   1.002  1.00  0.00     0.002 C 
HETATM   14  C7  UNL     1      -0.975  -1.409  -0.159  1.00  0.00     0.026 C 
ENDBRANCH   1   9
TORSDOF 4
