REMARK  1 active torsions:
REMARK  status: ('A' for Active; 'I' for Inactive)
REMARK    1  A    between atoms: C2_2  and  C3_3 
ROOT
HETATM    1  C3  UNL     1       0.724   0.163  -0.569  1.00  0.00     0.171 C 
HETATM    2  N1  UNL     1      -0.054   1.203  -1.129  1.00  0.00    -0.402 N 
ATOM      3  H1  UNL     1       0.373   2.000  -1.600  1.00  0.00     0.155 HD
HETATM    4  C4  UNL     1      -1.472   1.075  -0.998  1.00  0.00     0.117 C 
HETATM    5  C5  UNL     1      -1.851   0.763   0.427  1.00  0.00     0.043 C 
HETATM    6  C6  UNL     1      -1.085  -0.419   0.936  1.00  0.00     0.076 C 
HETATM    7  C7  UNL     1      -1.860  -1.683   0.556  1.00  0.00     0.032 C 
HETATM    8  N2  UNL     1       0.275  -0.466   0.593  1.00  0.00    -0.398 N 
ATOM      9  H2  UNL     1       0.935  -0.960   1.193  1.00  0.00     0.155 HD
ENDROOT
BRANCH   1  10
HETATM   10  C2  UNL     1       2.098   0.773  -0.257  1.00  0.00     0.041 C 
HETATM   11  C1  UNL     1       3.018  -0.253   0.349  1.00  0.00     0.009 C 
ENDBRANCH   1  10
TORSDOF 1
