REMARK  9 active torsions:
REMARK  status: ('A' for Active; 'I' for Inactive)
REMARK    1  A    between atoms: O1_2  and  C2_3 
REMARK    2  A    between atoms: C2_3  and  C3_4 
REMARK    3  A    between atoms: C5_6  and  C6_7 
REMARK    4  A    between atoms: C8_9  and  O2_10 
REMARK    5  A    between atoms: C10_12  and  N1_13 
REMARK    6  A    between atoms: N1_13  and  C11_14 
REMARK    7  A    between atoms: C12_17  and  N3_18 
REMARK    8  A    between atoms: N3_18  and  C13_19 
REMARK    9  A    between atoms: C20_31  and  O3_32 
ROOT
HETATM    1  C6  UNL     1      -2.388  -0.595   0.244  1.00  0.00    -0.025 A 
HETATM    2  C7  UNL     1      -1.632   0.494   0.028  1.00  0.00     0.049 A 
HETATM    3  C8  UNL     1      -0.278   0.438  -0.038  1.00  0.00     0.112 A 
HETATM    4  C10 UNL     1       0.461  -0.785   0.120  1.00  0.00     0.179 A 
HETATM    5  C20 UNL     1      -0.345  -1.895   0.334  1.00  0.00     0.132 A 
HETATM    6  C21 UNL     1      -1.734  -1.810   0.395  1.00  0.00     0.077 A 
HETATM    7 CL2  UNL     1      -2.672  -3.252   0.688  1.00  0.00    -0.081 Cl
ENDROOT
BRANCH   4   8
HETATM    8  N1  UNL     1       1.749  -0.744   0.110  1.00  0.00    -0.365 NA
BRANCH   8   9
HETATM    9  C11 UNL     1       2.913  -0.487   0.455  1.00  0.00     0.263 A 
HETATM   10  N2  UNL     1       4.028  -0.820  -0.198  1.00  0.00    -0.290 N 
HETATM   11  C12 UNL     1       5.306  -0.480   0.256  1.00  0.00     0.192 A 
ATOM     12  H2  UNL     1       3.944  -1.346  -1.068  1.00  0.00     0.172 HD
HETATM   13  C16 UNL     1       5.404   0.243   1.464  1.00  0.00     0.089 A 
HETATM   14  C17 UNL     1       6.491   0.715   2.153  1.00  0.00     0.068 A 
HETATM   15  C19 UNL     1       4.247   0.570   2.111  1.00  0.00     0.125 A 
HETATM   16 CL1  UNL     1       8.203   0.627   1.827  1.00  0.00    -0.082 Cl
HETATM   17  C18 UNL     1       5.930   1.363   3.283  1.00  0.00     0.114 A 
HETATM   18  N4  UNL     1       4.613   1.262   3.234  1.00  0.00    -0.350 N 
ATOM     19  H4  UNL     1       3.968   1.642   3.927  1.00  0.00     0.166 HD
HETATM   20  N5  UNL     1       3.067   0.222   1.632  1.00  0.00    -0.301 N 
ATOM     21  H5  UNL     1       2.232   0.488   2.153  1.00  0.00     0.171 HD
BRANCH  11  22
HETATM   22  N3  UNL     1       6.274  -0.731  -0.382  1.00  0.00    -0.425 NA
BRANCH  22  23
HETATM   23  C13 UNL     1       7.383  -0.993  -1.065  1.00  0.00     0.157 C 
HETATM   24  C14 UNL     1       7.912   0.250  -1.868  1.00  0.00     0.047 C 
HETATM   25  C15 UNL     1       7.374  -2.142  -2.107  1.00  0.00     0.047 C 
ENDBRANCH  22  23
ENDBRANCH  11  22
ENDBRANCH   8   9
ENDBRANCH   4   8
BRANCH   3  26
HETATM   26  O2  UNL     1       0.531   1.532  -0.265  1.00  0.00    -0.352 OA
HETATM   27  C9  UNL     1      -0.076   2.818  -0.442  1.00  0.00     0.210 C 
ENDBRANCH   3  26
BRANCH   5  28
HETATM   28  O3  UNL     1       0.244  -3.145   0.500  1.00  0.00    -0.356 OA
ATOM     29  H3  UNL     1      -0.308  -3.905   0.646  1.00  0.00     0.218 HD
ENDBRANCH   5  28
BRANCH   1  30
HETATM   30  C5  UNL     1      -3.851  -0.575   0.293  1.00  0.00     0.051 C 
HETATM   31  C4  UNL     1      -4.407   0.708   0.893  1.00  0.00     0.049 C 
HETATM   32  C3  UNL     1      -5.800   0.725   0.311  1.00  0.00     0.246 C 
HETATM   33  N6  UNL     1      -5.869  -0.154  -0.789  1.00  0.00     0.091 N 
HETATM   34  C22 UNL     1      -4.439  -0.364  -1.137  1.00  0.00     0.282 C 
HETATM   35  C23 UNL     1      -6.382  -1.479  -0.565  1.00  0.00     0.310 C 
BRANCH  32  36
HETATM   36  C2  UNL     1      -6.864   0.761   1.330  1.00  0.00     0.202 C 
BRANCH  36  37
HETATM   37  O1  UNL     1      -8.082   1.238   0.985  1.00  0.00    -0.394 OA
HETATM   38  C1  UNL     1      -8.808   0.709  -0.007  1.00  0.00     0.201 C 
ENDBRANCH  36  37
ENDBRANCH  32  36
ENDBRANCH   1  30
TORSDOF 9
