REMARK  8 active torsions:
REMARK  status: ('A' for Active; 'I' for Inactive)
REMARK    1  A    between atoms: C2_2  and  O1_3 
REMARK    2  A    between atoms: C2_2  and  C3_5 
REMARK    3  A    between atoms: C3_5  and  O2_6 
REMARK    4  A    between atoms: C3_5  and  C4_8 
REMARK    5  A    between atoms: C8_14  and  N1_15 
REMARK    6  A    between atoms: C14_21  and  C15_22 
REMARK    7  A    between atoms: C25_33  and  C26_34 
REMARK    8  A    between atoms: C26_34  and  O4_35 
ROOT
HETATM    1  N1  UNL     1      -1.670  -0.631   0.060  1.00  0.00    -0.407 N 
HETATM    2  C9  UNL     1      -1.112   0.197  -0.944  1.00  0.00     0.118 C 
HETATM    3  C10 UNL     1       0.370   0.356  -0.634  1.00  0.00     0.035 C 
HETATM    4  C11 UNL     1       0.593   0.815   0.787  1.00  0.00     0.003 C 
HETATM    5  C12 UNL     1       2.059   0.919   0.996  1.00  0.00    -0.014 A 
HETATM    6  C13 UNL     1       3.000   0.332   0.154  1.00  0.00     0.022 A 
HETATM    7  C14 UNL     1       4.353   0.440   0.375  1.00  0.00    -0.029 A 
HETATM    8  C21 UNL     1       4.820   1.152   1.465  1.00  0.00     0.014 A 
HETATM    9  C22 UNL     1       3.893   1.737   2.302  1.00  0.00     0.038 A 
HETATM   10  C23 UNL     1       2.525   1.633   2.088  1.00  0.00     0.075 A 
HETATM   11  O3  UNL     1       1.590   2.213   2.916  1.00  0.00    -0.350 OA
HETATM   12  C24 UNL     1       0.433   2.756   2.379  1.00  0.00     0.183 C 
HETATM   13  C25 UNL     1       0.004   2.167   1.063  1.00  0.00     0.047 C 
HETATM   14  C27 UNL     1       0.065  -0.293   1.655  1.00  0.00     0.013 C 
HETATM   15  C28 UNL     1      -0.859   0.099   2.754  1.00  0.00     0.012 C 
HETATM   16  C29 UNL     1      -0.722  -1.333   0.840  1.00  0.00     0.122 C 
ENDROOT
BRANCH  13  17
HETATM   17  C26 UNL     1       0.367   3.195   0.006  1.00  0.00     0.172 C 
BRANCH  17  18
HETATM   18  O4  UNL     1      -0.200   4.436   0.298  1.00  0.00    -0.400 OA
ATOM     19  H4  UNL     1       0.027   5.079  -0.363  1.00  0.00     0.209 HD
ENDBRANCH  17  18
ENDBRANCH  13  17
BRANCH   1  20
HETATM   20  C8  UNL     1      -2.820  -1.409  -0.311  1.00  0.00     0.091 C 
HETATM   21  C4  UNL     1      -4.017  -0.616  -0.726  1.00  0.00     0.045 C 
HETATM   22  C5  UNL     1      -4.707  -1.447  -1.777  1.00  0.00     0.088 C 
HETATM   23  C6  UNL     1      -3.636  -2.342  -2.376  1.00  0.00     0.246 C 
HETATM   24  F1  UNL     1      -4.109  -3.608  -2.651  1.00  0.00    -0.206 F 
HETATM   25  F2  UNL     1      -3.154  -1.742  -3.519  1.00  0.00    -0.206 F 
HETATM   26  C7  UNL     1      -2.540  -2.454  -1.330  1.00  0.00     0.104 C 
BRANCH  21  27
HETATM   27  C3  UNL     1      -4.974  -0.362   0.409  1.00  0.00     0.152 C 
BRANCH  27  28
HETATM   28  C2  UNL     1      -6.178   0.379  -0.051  1.00  0.00     0.143 C 
HETATM   29  C1  UNL     1      -7.006   0.901   1.101  1.00  0.00     0.042 C 
BRANCH  28  30
HETATM   30  O1  UNL     1      -6.950  -0.288  -0.962  1.00  0.00    -0.393 OA
ATOM     31  H1  UNL     1      -6.430  -0.616  -1.686  1.00  0.00     0.210 HD
ENDBRANCH  28  30
ENDBRANCH  27  28
BRANCH  27  32
HETATM   32  O2  UNL     1      -4.297   0.435   1.352  1.00  0.00    -0.393 OA
ATOM     33  H2  UNL     1      -3.528  -0.038   1.646  1.00  0.00     0.210 HD
ENDBRANCH  27  32
ENDBRANCH  21  27
ENDBRANCH   1  20
BRANCH   7  34
HETATM   34  C15 UNL     1       5.290  -0.212  -0.555  1.00  0.00    -0.052 C 
HETATM   35  C16 UNL     1       6.621  -0.117  -0.373  1.00  0.00    -0.019 C 
HETATM   36  C17 UNL     1       7.456  -0.834  -1.403  1.00  0.00     0.028 C 
HETATM   37  C18 UNL     1       7.001  -2.280  -1.359  1.00  0.00     0.004 C 
HETATM   38  C19 UNL     1       5.528  -2.379  -1.645  1.00  0.00     0.005 C 
HETATM   39  C20 UNL     1       4.876  -0.996  -1.720  1.00  0.00     0.039 C 
ENDBRANCH   7  34
TORSDOF 8
