REMARK  8 active torsions:
REMARK  status: ('A' for Active; 'I' for Inactive)
REMARK    1  A    between atoms: C5_6  and  C6_7 
REMARK    2  A    between atoms: C5_6  and  C13_15 
REMARK    3  A    between atoms: C6_7  and  C7_8 
REMARK    4  A    between atoms: C7_8  and  C8_9 
REMARK    5  A    between atoms: C8_9  and  C9_10 
REMARK    6  A    between atoms: C9_10  and  C10_12 
REMARK    7  A    between atoms: C14_18  and  O3_19 
REMARK    8  A    between atoms: C15_21  and  O4_22 
ROOT
HETATM    1  C1  UNL     1      -3.548  -3.440   0.221  1.00  0.00     0.019 C 
HETATM    2  C2  UNL     1      -3.061  -2.281   0.592  1.00  0.00    -0.062 C 
HETATM    3  C3  UNL     1      -1.752  -2.373   1.251  1.00  0.00     0.023 C 
HETATM    4  C4  UNL     1      -0.680  -1.587   1.126  1.00  0.00     0.011 C 
HETATM    5 BR1  UNL     1       0.789  -2.118   2.210  1.00  0.00    -0.054 Br
HETATM    6  C5  UNL     1      -0.566  -0.394   0.276  1.00  0.00     0.116 C 
HETATM    7  C14 UNL     1      -1.840   0.471   0.425  1.00  0.00     0.112 C 
HETATM    8  C15 UNL     1      -1.535   1.891   0.627  1.00  0.00     0.163 C 
HETATM    9  C16 UNL     1      -1.513   2.836  -0.529  1.00  0.00     0.145 C 
HETATM   10  C17 UNL     1      -2.935   3.137  -0.798  1.00  0.00     0.261 C 
HETATM   11  O5  UNL     1      -3.248   4.328  -0.844  1.00  0.00    -0.265 OA
HETATM   12  O6  UNL     1      -3.916   2.200  -0.997  1.00  0.00    -0.321 OA
HETATM   13  C18 UNL     1      -3.692   0.852  -1.337  1.00  0.00     0.187 C 
HETATM   14  C19 UNL     1      -2.950  -0.009  -0.405  1.00  0.00     0.057 C 
HETATM   15  C20 UNL     1      -3.836  -1.018   0.353  1.00  0.00     0.023 C 
HETATM   16  C21 UNL     1      -5.120  -1.317  -0.363  1.00  0.00     0.015 C 
ENDROOT
BRANCH   6  17
HETATM   17  C6  UNL     1       0.703   0.347   0.367  1.00  0.00     0.029 C 
BRANCH  17  18
HETATM   18  C7  UNL     1       1.870  -0.444  -0.138  1.00  0.00     0.003 C 
BRANCH  18  19
HETATM   19  C8  UNL     1       3.160   0.396   0.037  1.00  0.00     0.020 C 
BRANCH  19  20
HETATM   20  C9  UNL     1       4.336  -0.394  -0.469  1.00  0.00     0.085 C 
HETATM   21 CL1  UNL     1       4.177  -0.811  -2.172  1.00  0.00    -0.125 Cl
BRANCH  20  22
HETATM   22  C10 UNL     1       5.569   0.477  -0.269  1.00  0.00    -0.004 C 
HETATM   23  C11 UNL     1       6.817  -0.233  -0.751  1.00  0.00     0.011 C 
HETATM   24  C12 UNL     1       5.756   0.809   1.193  1.00  0.00     0.011 C 
ENDBRANCH  20  22
ENDBRANCH  19  20
ENDBRANCH  18  19
ENDBRANCH  17  18
ENDBRANCH   6  17
BRANCH   6  25
HETATM   25  C13 UNL     1      -0.496  -0.980  -1.124  1.00  0.00     0.190 C 
HETATM   26  O1  UNL     1      -0.503  -2.213  -1.346  1.00  0.00    -0.647 OA
HETATM   27  O2  UNL     1      -0.420  -0.190  -2.262  1.00  0.00    -0.647 OA
ENDBRANCH   6  25
BRANCH   7  28
HETATM   28  O3  UNL     1      -2.228   0.129   1.771  1.00  0.00    -0.385 OA
ATOM     29  H3  UNL     1      -3.010   0.660   1.862  1.00  0.00     0.210 HD
ENDBRANCH   7  28
BRANCH   8  30
HETATM   30  O4  UNL     1      -2.409   2.550   1.543  1.00  0.00    -0.392 OA
ATOM     31  H4  UNL     1      -2.211   3.470   1.674  1.00  0.00     0.210 HD
ENDBRANCH   8  30
TORSDOF 8
