REMARK  8 active torsions:
REMARK  status: ('A' for Active; 'I' for Inactive)
REMARK    1  A    between atoms: C5_6  and  C6_7 
REMARK    2  A    between atoms: C12_14  and  C13_15 
REMARK    3  A    between atoms: C13_15  and  N1_16 
REMARK    4  A    between atoms: N1_16  and  C14_18 
REMARK    5  A    between atoms: C14_18  and  C15_19 
REMARK    6  A    between atoms: C15_19  and  O2_20 
REMARK    7  A    between atoms: C15_19  and  C16_22 
REMARK    8  A    between atoms: C22_31  and  C24_33 
ROOT
HETATM    1  C1  UNL     1      -3.209  -4.541   2.130  1.00  0.00     0.031 C 
HETATM    2  C2  UNL     1      -2.175  -4.216   1.077  1.00  0.00     0.138 C 
HETATM    3  S1  UNL     1      -1.595  -2.490   1.312  1.00  0.00    -0.122 SA
HETATM    4  C3  UNL     1      -2.274  -1.779  -0.241  1.00  0.00     0.101 C 
HETATM    5  C4  UNL     1      -3.145  -0.589   0.082  1.00  0.00     0.076 C 
HETATM    6  C5  UNL     1      -2.357   0.643   0.351  1.00  0.00     0.129 C 
HETATM    7  O1  UNL     1      -1.260   0.841  -0.405  1.00  0.00    -0.377 OA
HETATM    8  C12 UNL     1      -0.490  -0.149  -0.869  1.00  0.00     0.156 C 
HETATM    9  C22 UNL     1      -1.195  -1.407  -1.188  1.00  0.00     0.078 C 
HETATM   10  C23 UNL     1      -1.892  -1.111  -2.540  1.00  0.00     0.027 C 
HETATM   11  N3  UNL     1      -3.160  -2.830  -0.646  1.00  0.00    -0.336 N 
HETATM   12  C25 UNL     1      -4.435  -2.639  -1.368  1.00  0.00     0.154 C 
HETATM   13  C26 UNL     1      -2.732  -4.119  -0.290  1.00  0.00     0.234 C 
HETATM   14  O3  UNL     1      -2.803  -5.125  -1.048  1.00  0.00    -0.272 OA
ENDROOT
BRANCH   8  15
HETATM   15  C13 UNL     1       0.735  -0.264   0.024  1.00  0.00     0.151 C 
BRANCH  15  16
HETATM   16  N1  UNL     1       1.303   1.048   0.023  1.00  0.00    -0.397 N 
ATOM     17  H1  UNL     1       0.778   1.825  -0.378  1.00  0.00     0.158 HD
BRANCH  16  18
HETATM   18  C14 UNL     1       2.574   1.277   0.567  1.00  0.00     0.089 C 
BRANCH  18  19
HETATM   19  C15 UNL     1       3.743   0.824  -0.226  1.00  0.00     0.187 C 
BRANCH  19  20
HETATM   20  O2  UNL     1       3.737  -0.535  -0.444  1.00  0.00    -0.388 OA
ATOM     21  H2  UNL     1       4.486  -0.825  -0.952  1.00  0.00     0.210 HD
ENDBRANCH  19  20
BRANCH  19  22
HETATM   22  C16 UNL     1       5.050   1.207   0.408  1.00  0.00     0.223 C 
HETATM   23  N2  UNL     1       5.337   0.522   1.627  1.00  0.00    -0.067 N 
HETATM   24  C17 UNL     1       6.346  -0.513   1.467  1.00  0.00     0.237 C 
ATOM     25  H22 UNL     1       5.600   1.179   2.362  1.00  0.00     0.277 HD
ATOM     26  H21 UNL     1       4.486   0.142   2.042  1.00  0.00     0.277 HD
HETATM   27  C18 UNL     1       7.379  -0.152   0.456  1.00  0.00     0.012 C 
HETATM   28  C19 UNL     1       7.471   1.376   0.324  1.00  0.00     0.013 C 
HETATM   29  C21 UNL     1       6.739  -0.090  -0.938  1.00  0.00     0.013 C 
HETATM   30  C20 UNL     1       6.207   1.256  -0.545  1.00  0.00     0.020 C 
ENDBRANCH  19  22
ENDBRANCH  18  19
ENDBRANCH  16  18
ENDBRANCH  15  16
ENDBRANCH   8  15
BRANCH   9  31
HETATM   31  C24 UNL     1      -0.291  -2.562  -1.544  1.00  0.00     0.367 C 
HETATM   32  F1  UNL     1       0.352  -3.148  -0.513  1.00  0.00    -0.213 F 
HETATM   33  F2  UNL     1       0.677  -2.046  -2.410  1.00  0.00    -0.213 F 
ENDBRANCH   9  31
BRANCH   6  34
HETATM   34  C6  UNL     1      -3.246   1.878   0.078  1.00  0.00     0.015 C 
HETATM   35  C7  UNL     1      -2.318   3.057   0.335  1.00  0.00     0.007 C 
HETATM   36  C8  UNL     1      -3.019   4.282  -0.213  1.00  0.00     0.000 C 
HETATM   37  C9  UNL     1      -4.336   4.421   0.473  1.00  0.00     0.000 C 
HETATM   38  C10 UNL     1      -4.618   3.379   1.499  1.00  0.00     0.000 C 
HETATM   39  C11 UNL     1      -4.400   1.971   1.013  1.00  0.00     0.007 C 
ENDBRANCH   6  34
TORSDOF 8
