REMARK  5 active torsions:
REMARK  status: ('A' for Active; 'I' for Inactive)
REMARK    1  A    between atoms: O1_2  and  C2_3 
REMARK    2  A    between atoms: C3_4  and  C4_5 
REMARK    3  A    between atoms: C13_19  and  C14_20 
REMARK    4  A    between atoms: N4_21  and  N5_23 
REMARK    5  A    between atoms: N5_23  and  C15_25 
ROOT
HETATM    1  C2  UNL     1      -0.174   1.547   0.551  1.00  0.00     0.096 A 
HETATM    2  C3  UNL     1      -0.012   0.189   0.479  1.00  0.00     0.011 A 
HETATM    3  C12 UNL     1       1.286  -0.315   0.266  1.00  0.00     0.027 A 
HETATM    4  C13 UNL     1       2.336   0.553   0.140  1.00  0.00     0.000 A 
HETATM    5  C16 UNL     1       2.139   1.915   0.219  1.00  0.00     0.042 A 
HETATM    6 BR1  UNL     1       3.624   3.102   0.040  1.00  0.00    -0.049 Br
HETATM    7  C17 UNL     1       0.894   2.456   0.424  1.00  0.00     0.063 A 
HETATM    8 BR2  UNL     1       0.624   4.335   0.533  1.00  0.00    -0.047 Br
ENDROOT
BRANCH   2   9
HETATM    9  C4  UNL     1      -1.064  -0.820   0.634  1.00  0.00     0.101 A 
HETATM   10  C5  UNL     1      -0.477  -2.234   0.561  1.00  0.00     0.051 C 
HETATM   11  N1  UNL     1      -1.693  -0.752   1.949  1.00  0.00    -0.359 N 
HETATM   12  C6  UNL     1      -2.966  -0.783   1.864  1.00  0.00     0.125 A 
ATOM     13  H1  UNL     1      -1.179  -0.688   2.828  1.00  0.00     0.162 HD
HETATM   14  N2  UNL     1      -3.859  -0.740   2.954  1.00  0.00    -0.082 NA
HETATM   15  C7  UNL     1      -3.345  -0.818   0.461  1.00  0.00     0.030 A 
HETATM   16  C8  UNL     1      -4.542  -0.840  -0.221  1.00  0.00     0.018 A 
HETATM   17  C11 UNL     1      -2.184  -0.802  -0.320  1.00  0.00     0.056 A 
HETATM   18  C9  UNL     1      -4.640  -0.845  -1.592  1.00  0.00     0.018 A 
HETATM   19  C10 UNL     1      -3.468  -0.827  -2.319  1.00  0.00     0.088 A 
HETATM   20  N3  UNL     1      -2.295  -0.806  -1.664  1.00  0.00    -0.366 N 
ATOM     21  H3  UNL     1      -1.437  -0.792  -2.216  1.00  0.00     0.165 HD
ENDBRANCH   2   9
BRANCH   1  22
HETATM   22  O1  UNL     1      -1.390   2.147   0.749  1.00  0.00    -0.354 OA
HETATM   23  C1  UNL     1      -2.259   2.657  -0.232  1.00  0.00     0.210 C 
ENDBRANCH   1  22
BRANCH   4  24
HETATM   24  C14 UNL     1       3.665  -0.008  -0.080  1.00  0.00     0.120 C 
HETATM   25  N4  UNL     1       4.654   0.810  -0.198  1.00  0.00    -0.309 N 
ATOM     26  H4  UNL     1       4.463   1.810  -0.133  1.00  0.00     0.186 HD
BRANCH  25  27
HETATM   27  N5  UNL     1       5.958   0.407  -0.408  1.00  0.00    -0.279 N 
ATOM     28  H5  UNL     1       6.700   0.732   0.212  1.00  0.00     0.189 HD
BRANCH  27  29
HETATM   29  C15 UNL     1       6.262  -0.456  -1.483  1.00  0.00     0.199 C 
HETATM   30  N6  UNL     1       5.234  -0.902  -2.335  1.00  0.00    -0.068 NA
HETATM   31  S1  UNL     1       7.791  -0.952  -1.760  1.00  0.00    -0.043 SA
ENDBRANCH  27  29
ENDBRANCH  25  27
ENDBRANCH   4  24
TORSDOF 5
