REMARK  9 active torsions:
REMARK  status: ('A' for Active; 'I' for Inactive)
REMARK    1  A    between atoms: C4_5  and  O1_6 
REMARK    2  A    between atoms: C5_8  and  C22_30 
REMARK    3  A    between atoms: C9_12  and  O2_13 
REMARK    4  A    between atoms: C11_16  and  C12_17 
REMARK    5  A    between atoms: C13_18  and  C14_20 
REMARK    6  A    between atoms: C17_23  and  C18_24 
REMARK    7  A    between atoms: C18_24  and  O4_26 
REMARK    8  A    between atoms: C22_30  and  O5_31 
REMARK    9  A    between atoms: C27_37  and  O7_38 
ROOT
HETATM    1  C1  UNL     1       0.301  -2.408  -2.153  1.00  0.00     0.019 C 
HETATM    2  C2  UNL     1      -0.555  -1.528  -1.721  1.00  0.00    -0.026 C 
HETATM    3  C3  UNL     1      -0.987  -0.503  -2.706  1.00  0.00     0.152 C 
HETATM    4 CL1  UNL     1      -2.172  -1.136  -3.866  1.00  0.00    -0.117 Cl
HETATM    5  C4  UNL     1      -1.300   0.789  -2.135  1.00  0.00     0.127 C 
HETATM    6  C5  UNL     1      -2.454   1.169  -1.382  1.00  0.00     0.089 C 
HETATM    7  C6  UNL     1      -2.011   2.533  -0.935  1.00  0.00    -0.074 C 
HETATM    8  C7  UNL     1      -2.816   3.726  -0.580  1.00  0.00     0.044 C 
HETATM    9  C8  UNL     1      -0.661   2.591  -0.889  1.00  0.00     0.021 C 
HETATM   10  C9  UNL     1      -0.101   1.270  -1.301  1.00  0.00     0.133 C 
HETATM   11  C10 UNL     1       0.220   0.458  -0.152  1.00  0.00    -0.031 C 
HETATM   12  C11 UNL     1       1.392   0.554   0.417  1.00  0.00     0.009 C 
HETATM   13  C20 UNL     1      -0.749  -0.470   0.527  1.00  0.00     0.067 C 
HETATM   14  C21 UNL     1      -1.968   0.304   0.919  1.00  0.00     0.052 C 
HETATM   15  C22 UNL     1      -2.963   0.449  -0.224  1.00  0.00     0.081 C 
HETATM   16  C24 UNL     1      -3.497  -0.950  -0.418  1.00  0.00     0.090 C 
HETATM   17  C25 UNL     1      -4.369  -1.307   0.797  1.00  0.00     0.021 C 
HETATM   18  C26 UNL     1      -2.446  -1.997  -0.433  1.00  0.00     0.172 C 
HETATM   19  O6  UNL     1      -2.751  -3.172  -0.555  1.00  0.00    -0.294 OA
HETATM   20  C27 UNL     1      -0.998  -1.655  -0.301  1.00  0.00     0.150 C 
ENDROOT
BRANCH  10  21
HETATM   21  O2  UNL     1       0.968   1.485  -2.182  1.00  0.00    -0.378 OA
ATOM     22  H2  UNL     1       1.709   1.782  -1.667  1.00  0.00     0.211 HD
ENDBRANCH  10  21
BRANCH  12  23
HETATM   23  C12 UNL     1       2.499   1.378   0.101  1.00  0.00     0.039 C 
HETATM   24  C13 UNL     1       3.644   1.364   0.743  1.00  0.00     0.102 C 
HETATM   25  F1  UNL     1       4.679   2.160   0.418  1.00  0.00    -0.210 F 
BRANCH  24  26
HETATM   26  C14 UNL     1       3.830   0.523   1.956  1.00  0.00     0.090 A 
HETATM   27  C15 UNL     1       4.752   1.206   2.919  1.00  0.00     0.044 A 
HETATM   28  C16 UNL     1       5.613   0.049   2.770  1.00  0.00    -0.012 A 
HETATM   29  C17 UNL     1       4.813  -0.527   1.944  1.00  0.00     0.024 A 
BRANCH  29  30
HETATM   30  C18 UNL     1       4.858  -1.839   1.242  1.00  0.00     0.289 C 
HETATM   31  O3  UNL     1       3.952  -2.198   0.465  1.00  0.00    -0.260 OA
BRANCH  30  32
HETATM   32  O4  UNL     1       5.910  -2.691   1.444  1.00  0.00    -0.323 OA
HETATM   33  C19 UNL     1       6.095  -3.955   0.869  1.00  0.00     0.213 C 
ENDBRANCH  30  32
ENDBRANCH  29  30
ENDBRANCH  24  26
ENDBRANCH  12  23
BRANCH   5  34
HETATM   34  O1  UNL     1      -1.244   1.702  -3.240  1.00  0.00    -0.383 OA
ATOM     35  H1  UNL     1      -1.450   2.550  -2.865  1.00  0.00     0.210 HD
ENDBRANCH   5  34
BRANCH  20  36
HETATM   36  O7  UNL     1      -0.312  -2.739   0.252  1.00  0.00    -0.377 OA
ATOM     37  H7  UNL     1      -0.594  -2.820   1.156  1.00  0.00     0.211 HD
ENDBRANCH  20  36
BRANCH  15  38
HETATM   38  O5  UNL     1      -4.025   1.163   0.312  1.00  0.00    -0.383 OA
HETATM   39  C23 UNL     1      -5.146   1.322  -0.417  1.00  0.00     0.202 C 
ENDBRANCH  15  38
TORSDOF 9
