REMARK  7 active torsions:
REMARK  status: ('A' for Active; 'I' for Inactive)
REMARK    1  A    between atoms: C4_4  and  C5_5 
REMARK    2  A    between atoms: C6_8  and  N2_9 
REMARK    3  A    between atoms: N2_9  and  C7_11 
REMARK    4  A    between atoms: C7_11  and  C8_12 
REMARK    5  A    between atoms: N4_16  and  O2_17 
REMARK    6  A    between atoms: C9_19  and  C10_20 
REMARK    7  A    between atoms: C17_31  and  N6_32 
ROOT
HETATM    1  C5  UNL     1       2.838  -0.663  -0.661  1.00  0.00     0.079 A 
HETATM    2  N1  UNL     1       1.663  -0.198  -0.172  1.00  0.00    -0.338 N 
ATOM      3  H1  UNL     1       1.709   0.451   0.613  1.00  0.00     0.167 HD
HETATM    4  C6  UNL     1       0.436  -0.521  -0.636  1.00  0.00     0.123 A 
HETATM    5  C14 UNL     1       0.342  -1.394  -1.693  1.00  0.00     0.056 A 
HETATM    6 BR1  UNL     1      -1.323  -1.951  -2.467  1.00  0.00    -0.047 Br
HETATM    7  C15 UNL     1       1.506  -1.891  -2.221  1.00  0.00     0.044 A 
HETATM    8  C16 UNL     1       2.775  -1.531  -1.711  1.00  0.00     0.041 A 
HETATM    9 BR2  UNL     1       4.296  -2.309  -2.556  1.00  0.00    -0.049 Br
ENDROOT
BRANCH   4  10
HETATM   10  N2  UNL     1      -0.572   0.007  -0.062  1.00  0.00    -0.349 N 
ATOM     11  H2  UNL     1      -0.313   0.631   0.702  1.00  0.00     0.167 HD
BRANCH  10  12
HETATM   12  C7  UNL     1      -1.954  -0.081  -0.250  1.00  0.00     0.123 C 
BRANCH  12  13
HETATM   13  C8  UNL     1      -2.655   0.707   0.812  1.00  0.00     0.100 A 
HETATM   14  N3  UNL     1      -2.115   1.394   1.795  1.00  0.00    -0.236 N 
HETATM   15  O1  UNL     1      -3.066   1.946   2.518  1.00  0.00    -0.128 OA
ATOM     16  H3  UNL     1      -1.114   1.485   1.970  1.00  0.00     0.197 HD
HETATM   17  N4  UNL     1      -4.233   1.611   1.993  1.00  0.00    -0.103 N 
HETATM   18  C9  UNL     1      -4.027   0.836   0.925  1.00  0.00     0.105 A 
BRANCH  17  19
HETATM   19  O2  UNL     1      -5.426   2.060   2.559  1.00  0.00    -0.261 OA
ATOM     20  H2  UNL     1      -6.264   1.819   2.182  1.00  0.00     0.247 HD
ENDBRANCH  17  19
BRANCH  18  21
HETATM   21  C10 UNL     1      -5.030   0.243   0.050  1.00  0.00    -0.002 C 
HETATM   22  C11 UNL     1      -4.972  -1.271   0.014  1.00  0.00     0.021 C 
HETATM   23  C12 UNL     1      -6.410   0.602   0.540  1.00  0.00     0.021 C 
HETATM   24  C13 UNL     1      -4.934   0.811  -1.374  1.00  0.00     0.021 C 
ENDBRANCH  18  21
ENDBRANCH  12  13
ENDBRANCH  10  12
ENDBRANCH   4  10
BRANCH   1  25
HETATM   25  C4  UNL     1       4.078  -0.205  -0.035  1.00  0.00     0.079 A 
HETATM   26  C3  UNL     1       5.348  -0.531  -0.349  1.00  0.00     0.057 A 
HETATM   27  C2  UNL     1       6.429   0.017   0.376  1.00  0.00     0.025 A 
HETATM   28  C1  UNL     1       7.811  -0.345   0.025  1.00  0.00     0.068 C 
HETATM   29  N7  UNL     1       6.222   0.869   1.390  1.00  0.00    -0.196 N 
HETATM   30  C17 UNL     1       4.955   1.192   1.701  1.00  0.00     0.676 A 
ATOM     31  H7  UNL     1       7.005   1.262   1.912  1.00  0.00     0.184 HD
HETATM   32  N5  UNL     1       3.941   0.669   1.010  1.00  0.00    -0.190 N 
ATOM     33  H5  UNL     1       2.995   0.940   1.280  1.00  0.00     0.184 HD
BRANCH  30  34
HETATM   34  N6  UNL     1       4.770   2.018   2.685  1.00  0.00    -0.234 N 
ATOM     35  H62 UNL     1       3.808   2.263   2.921  1.00  0.00     0.174 HD
ATOM     36  H61 UNL     1       5.545   2.418   3.213  1.00  0.00     0.174 HD
ENDBRANCH  30  34
ENDBRANCH   1  25
TORSDOF 7
