REMARK  8 active torsions:
REMARK  status: ('A' for Active; 'I' for Inactive)
REMARK    1  A    between atoms: C2_2  and  C3_3 
REMARK    2  A    between atoms: C2_2  and  C12_20 
REMARK    3  A    between atoms: C3_3  and  C4_4 
REMARK    4  A    between atoms: C5_5  and  C6_6 
REMARK    5  A    between atoms: N1_8  and  N2_9 
REMARK       I    between atoms: N2_9  and  C8_11 
REMARK    6  A    between atoms: C8_11  and  C9_13 
REMARK    7  A    between atoms: C14_22  and  O4_23 
REMARK    8  A    between atoms: C20_30  and  O5_31 
ROOT
HETATM    1  C12 UNL     1      -1.475  -0.032  -1.012  1.00  0.00     0.007 C 
HETATM    2  C13 UNL     1      -1.232   1.197  -1.864  1.00  0.00     0.038 C 
HETATM    3  C14 UNL     1      -1.694   2.494  -1.361  1.00  0.00     0.119 C 
HETATM    4  C15 UNL     1      -2.954   2.362  -0.569  1.00  0.00     0.041 C 
HETATM    5  C16 UNL     1      -3.013   1.257   0.428  1.00  0.00    -0.033 C 
HETATM    6  C17 UNL     1      -3.036   1.945   1.793  1.00  0.00     0.016 C 
HETATM    7  C18 UNL     1      -1.908   0.241   0.387  1.00  0.00     0.002 C 
HETATM    8  C19 UNL     1      -2.206  -1.027   1.089  1.00  0.00     0.038 C 
HETATM    9  C20 UNL     1      -3.557  -1.362   1.535  1.00  0.00     0.125 C 
HETATM   10  C21 UNL     1      -4.677  -0.402   1.264  1.00  0.00     0.043 C 
HETATM   11  C22 UNL     1      -5.948  -1.150   0.872  1.00  0.00     0.175 C 
HETATM   12  O6  UNL     1      -6.833  -0.329   0.219  1.00  0.00    -0.391 OA
HETATM   13  C23 UNL     1      -6.709   1.006   0.574  1.00  0.00     0.168 C 
HETATM   14  C24 UNL     1      -5.448   1.517  -0.102  1.00  0.00     0.032 C 
HETATM   15  C25 UNL     1      -4.333   0.533   0.166  1.00  0.00     0.005 C 
ENDROOT
BRANCH   1  16
HETATM   16  C2  UNL     1      -0.446  -0.955  -1.290  1.00  0.00     0.057 C 
HETATM   17  C1  UNL     1       0.695  -0.150  -0.084  1.00  0.00     0.023 C 
BRANCH  16  18
HETATM   18  C3  UNL     1       0.469  -1.778  -1.539  1.00  0.00    -0.151 C 
BRANCH  18  19
HETATM   19  C4  UNL     1       1.442  -2.660  -1.810  1.00  0.00     0.049 C 
HETATM   20  C5  UNL     1       2.648  -2.947  -1.384  1.00  0.00     0.015 C 
BRANCH  20  21
HETATM   21  C6  UNL     1       3.529  -2.416  -0.361  1.00  0.00     0.177 C 
HETATM   22  C7  UNL     1       4.532  -1.422  -0.857  1.00  0.00     0.191 C 
HETATM   23  N1  UNL     1       5.570  -1.506   0.159  1.00  0.00    -0.231 N 
HETATM   24  C11 UNL     1       5.459  -2.826   0.735  1.00  0.00     0.382 C 
HETATM   25  O2  UNL     1       6.283  -3.243   1.621  1.00  0.00    -0.236 OA
HETATM   26  O3  UNL     1       4.382  -3.457   0.163  1.00  0.00    -0.292 OA
BRANCH  23  27
HETATM   27  N2  UNL     1       6.465  -0.511   0.516  1.00  0.00    -0.259 N 
HETATM   28  C8  UNL     1       7.751  -0.431  -0.147  1.00  0.00     0.291 C 
HETATM   29  O1  UNL     1       7.991  -1.271  -1.027  1.00  0.00    -0.267 OA
ATOM     30  H2  UNL     1       6.220   0.162   1.242  1.00  0.00     0.190 HD
BRANCH  28  31
HETATM   31  C9  UNL     1       8.680   0.640   0.271  1.00  0.00     0.256 C 
HETATM   32  C10 UNL     1       8.094   2.007   0.231  1.00  0.00     0.081 C 
HETATM   33  F1  UNL     1       9.267   0.395   1.503  1.00  0.00    -0.215 F 
HETATM   34 CL1  UNL     1      10.034   0.612  -0.920  1.00  0.00    -0.073 Cl
ENDBRANCH  28  31
ENDBRANCH  23  27
ENDBRANCH  20  21
ENDBRANCH  18  19
ENDBRANCH  16  18
ENDBRANCH   1  16
BRANCH   3  35
HETATM   35  O4  UNL     1      -0.758   3.316  -0.755  1.00  0.00    -0.396 OA
ATOM     36  H4  UNL     1      -1.057   4.157  -0.429  1.00  0.00     0.210 HD
ENDBRANCH   3  35
BRANCH   9  37
HETATM   37  O5  UNL     1      -3.540  -1.718   2.919  1.00  0.00    -0.395 OA
ATOM     38  H5  UNL     1      -4.418  -1.936   3.209  1.00  0.00     0.210 HD
ENDBRANCH   9  37
TORSDOF 8
