REMARK  7 active torsions:
REMARK  status: ('A' for Active; 'I' for Inactive)
REMARK    1  A    between atoms: O1_2  and  C2_3 
REMARK    2  A    between atoms: C4_6  and  O2_7 
REMARK    3  A    between atoms: C5_9  and  O3_10 
REMARK    4  A    between atoms: O3_10  and  C6_11 
REMARK    5  A    between atoms: C14_20  and  N1_21 
REMARK       I    between atoms: N1_21  and  C15_23 
REMARK    6  A    between atoms: C18_27  and  C20_29 
REMARK    7  A    between atoms: C20_29  and  O5_30 
ROOT
HETATM    1  C2  UNL     1       3.948   0.163   1.341  1.00  0.00     0.096 C 
HETATM    2  C3  UNL     1       3.022   0.938   1.868  1.00  0.00     0.052 C 
HETATM    3 BR1  UNL     1       3.660   2.565   2.605  1.00  0.00    -0.050 Br
HETATM    4  C4  UNL     1       1.531   0.704   1.970  1.00  0.00     0.190 C 
HETATM    5  C5  UNL     1       1.009   0.314   0.659  1.00  0.00     0.158 C 
HETATM    6  C17 UNL     1       2.010   0.409  -0.479  1.00  0.00     0.049 C 
HETATM    7  C18 UNL     1       2.928  -0.750  -0.620  1.00  0.00     0.017 C 
HETATM    8  C19 UNL     1       4.142  -0.212  -1.414  1.00  0.00     0.021 C 
HETATM    9  C21 UNL     1       3.554  -1.179   0.713  1.00  0.00     0.238 C 
HETATM   10  F1  UNL     1       4.709  -1.886   0.535  1.00  0.00    -0.241 F 
ENDROOT
BRANCH   5  11
HETATM   11  O3  UNL     1      -0.132   0.923   0.195  1.00  0.00    -0.365 OA
BRANCH  11  12
HETATM   12  C6  UNL     1      -1.203   0.172  -0.112  1.00  0.00     0.207 C 
HETATM   13  S1  UNL     1      -1.586   0.489  -1.883  1.00  0.00    -0.126 SA
HETATM   14  C7  UNL     1      -2.978  -0.473  -2.462  1.00  0.00     0.006 C 
HETATM   15  C8  UNL     1      -2.838  -0.582  -3.981  1.00  0.00     0.027 C 
HETATM   16  C9  UNL     1      -2.920  -1.892  -1.910  1.00  0.00     0.027 C 
HETATM   17  C10 UNL     1      -4.308   0.126  -2.145  1.00  0.00     0.046 C 
HETATM   18  C11 UNL     1      -4.270   1.559  -1.787  1.00  0.00    -0.029 C 
HETATM   19  C12 UNL     1      -3.610   2.284  -0.879  1.00  0.00    -0.028 C 
HETATM   20  C13 UNL     1      -2.628   2.109   0.199  1.00  0.00     0.055 C 
HETATM   21  C14 UNL     1      -2.422   0.672   0.616  1.00  0.00     0.127 C 
BRANCH  21  22
HETATM   22  N1  UNL     1      -2.238   0.521   2.026  1.00  0.00    -0.353 N 
HETATM   23  C15 UNL     1      -3.032  -0.356   2.816  1.00  0.00     0.214 C 
HETATM   24  C16 UNL     1      -2.808  -0.481   4.276  1.00  0.00     0.117 C 
HETATM   25  O4  UNL     1      -3.926  -1.015   2.226  1.00  0.00    -0.274 OA
ATOM     26  H1  UNL     1      -1.507   1.065   2.484  1.00  0.00     0.163 HD
ENDBRANCH  21  22
ENDBRANCH  11  12
ENDBRANCH   5  11
BRANCH   4  27
HETATM   27  O2  UNL     1       1.421  -0.349   2.914  1.00  0.00    -0.388 OA
ATOM     28  H2  UNL     1       0.485  -0.496   2.978  1.00  0.00     0.210 HD
ENDBRANCH   4  27
BRANCH   7  29
HETATM   29  C20 UNL     1       2.416  -1.898  -1.420  1.00  0.00     0.176 C 
BRANCH  29  30
HETATM   30  O5  UNL     1       1.265  -2.493  -0.948  1.00  0.00    -0.400 OA
ATOM     31  H5  UNL     1       0.939  -3.225  -1.458  1.00  0.00     0.209 HD
ENDBRANCH  29  30
ENDBRANCH   7  29
BRANCH   1  32
HETATM   32  O1  UNL     1       5.224   0.488   1.324  1.00  0.00    -0.356 OA
HETATM   33  C1  UNL     1       6.104   1.461   1.623  1.00  0.00     0.209 C 
ENDBRANCH   1  32
TORSDOF 7
