REMARK  7 active torsions:
REMARK  status: ('A' for Active; 'I' for Inactive)
REMARK    1  A    between atoms: N2_5  and  C4_6 
REMARK    2  A    between atoms: C9_11  and  C10_12 
REMARK    3  A    between atoms: C11_13  and  C12_14 
REMARK    4  A    between atoms: C12_14  and  O1_15 
REMARK    5  A    between atoms: N3_17  and  O2_19 
REMARK    6  A    between atoms: C13_21  and  O3_22 
REMARK    7  A    between atoms: C17_27  and  C18_28 
ROOT
HETATM    1  C4  UNL     1      -1.192   0.634   0.343  1.00  0.00     0.041 A 
HETATM    2  C5  UNL     1      -0.095  -0.042   0.950  1.00  0.00     0.039 A 
HETATM    3  C6  UNL     1       1.177   0.188   0.480  1.00  0.00    -0.026 A 
HETATM    4  C7  UNL     1       1.442   1.042  -0.551  1.00  0.00    -0.020 A 
HETATM    5  C8  UNL     1       0.382   1.685  -1.129  1.00  0.00     0.024 A 
HETATM    6  C9  UNL     1      -0.966   1.476  -0.674  1.00  0.00    -0.009 A 
HETATM    7  C13 UNL     1       2.831   1.275  -1.030  1.00  0.00     0.158 C 
HETATM    8  C14 UNL     1       3.740   0.133  -0.816  1.00  0.00     0.050 C 
HETATM    9  C15 UNL     1       4.208  -0.509  -2.133  1.00  0.00     0.013 C 
HETATM   10  C16 UNL     1       4.760  -1.893  -1.854  1.00  0.00     0.033 C 
HETATM   11  C17 UNL     1       5.208  -2.025  -0.417  1.00  0.00     0.132 C 
HETATM   12  O4  UNL     1       4.252  -1.712   0.515  1.00  0.00    -0.378 OA
HETATM   13  C19 UNL     1       3.173  -1.022  -0.026  1.00  0.00     0.151 C 
HETATM   14  C20 UNL     1       2.319  -0.536   1.127  1.00  0.00     0.145 C 
HETATM   15 CL1  UNL     1       3.280   0.597   2.080  1.00  0.00    -0.117 Cl
ENDROOT
BRANCH   6  16
HETATM   16  C10 UNL     1      -1.969   2.138  -1.450  1.00  0.00     0.018 C 
HETATM   17  C11 UNL     1      -3.238   1.919  -1.530  1.00  0.00     0.058 C 
BRANCH  17  18
HETATM   18  C12 UNL     1      -4.066   2.787  -2.439  1.00  0.00     0.159 C 
HETATM   19  N3  UNL     1      -5.314   2.638  -2.573  1.00  0.00    -0.248 N 
ATOM     20  H3  UNL     1      -5.785   3.277  -3.213  1.00  0.00     0.196 HD
BRANCH  18  21
HETATM   21  O1  UNL     1      -3.384   3.768  -3.129  1.00  0.00    -0.345 OA
ATOM     22  H1  UNL     1      -3.907   4.316  -3.703  1.00  0.00     0.219 HD
ENDBRANCH  18  21
BRANCH  19  23
HETATM   23  O2  UNL     1      -6.088   1.718  -1.954  1.00  0.00    -0.288 OA
ATOM     24  H2  UNL     1      -7.026   1.606  -2.055  1.00  0.00     0.244 HD
ENDBRANCH  19  23
ENDBRANCH  17  18
ENDBRANCH   6  16
BRANCH   1  25
HETATM   25  N2  UNL     1      -2.429   0.413   0.958  1.00  0.00    -0.377 N 
HETATM   26  C3  UNL     1      -3.169   1.368   1.764  1.00  0.00     0.153 C 
HETATM   27  C2  UNL     1      -3.239   0.706   3.154  1.00  0.00     0.291 C 
HETATM   28  N1  UNL     1      -3.937  -0.561   3.064  1.00  0.00     0.087 N 
HETATM   29  C1  UNL     1      -3.048  -1.587   3.569  1.00  0.00     0.310 C 
HETATM   30  C22 UNL     1      -4.278  -0.899   1.701  1.00  0.00     0.291 C 
HETATM   31  C21 UNL     1      -3.029  -0.930   0.854  1.00  0.00     0.153 C 
ENDBRANCH   1  25
BRANCH   7  32
HETATM   32  O3  UNL     1       2.780   1.534  -2.415  1.00  0.00    -0.390 OA
ATOM     33  H3  UNL     1       3.667   1.683  -2.721  1.00  0.00     0.210 HD
ENDBRANCH   7  32
BRANCH  11  34
HETATM   34  C18 UNL     1       5.740  -3.395  -0.132  1.00  0.00     0.117 C 
HETATM   35 BR1  UNL     1       4.450  -4.782  -0.430  1.00  0.00    -0.094 Br
ENDBRANCH  11  34
TORSDOF 7
