REMARK  10 active torsions:
REMARK  status: ('A' for Active; 'I' for Inactive)
REMARK    1  A    between atoms: N1_1  and  C1_4 
REMARK    2  A    between atoms: N3_10  and  C3_11 
REMARK    3  A    between atoms: C3_11  and  N4_12 
REMARK    4  A    between atoms: N4_12  and  C4_15 
REMARK    5  A    between atoms: N6_17  and  C5_18 
REMARK    6  A    between atoms: C5_18  and  C6_19 
REMARK    7  A    between atoms: C6_19  and  O3_20 
REMARK    8  A    between atoms: N9_27  and  C9_28 
REMARK    9  A    between atoms: C12_31  and  O4_32 
REMARK   10  A    between atoms: C13_34  and  N10_35 
ROOT
HETATM    1  C4  UNL     1      -0.527   0.863   0.555  1.00  0.00     0.347 C 
HETATM    2  N5  UNL     1      -1.710   1.549   0.025  1.00  0.00    -0.124 NA
HETATM    3  N6  UNL     1      -2.030   2.662   0.772  1.00  0.00    -0.225 NA
HETATM    4  C7  UNL     1      -1.081   3.733   0.571  1.00  0.00     0.170 C 
HETATM    5  C8  UNL     1       0.275   3.172   0.484  1.00  0.00     0.066 A 
HETATM    6  N7  UNL     1       1.463   3.838   0.397  1.00  0.00    -0.284 N 
ATOM      7  H7  UNL     1       1.586   4.850   0.382  1.00  0.00     0.184 HD
HETATM    8  N8  UNL     1       2.426   2.933   0.336  1.00  0.00    -0.015 NA
HETATM    9  N9  UNL     1       1.896   1.719   0.380  1.00  0.00    -0.239 N 
HETATM   10  C15 UNL     1       0.567   1.825   0.472  1.00  0.00     0.105 A 
ENDROOT
BRANCH   1  11
HETATM   11  N4  UNL     1      -0.342  -0.361  -0.144  1.00  0.00    -0.033 N 
ATOM     12  H42 UNL     1       0.518  -0.834   0.135  1.00  0.00     0.281 HD
ATOM     13  H41 UNL     1      -0.117  -0.209  -1.127  1.00  0.00     0.281 HD
BRANCH  11  14
HETATM   14  C3  UNL     1      -1.500  -1.205   0.020  1.00  0.00     0.388 C 
BRANCH  14  15
HETATM   15  N3  UNL     1      -1.399  -2.464  -0.642  1.00  0.00    -0.098 N 
HETATM   16  C1  UNL     1      -0.894  -3.575  -0.077  1.00  0.00     0.704 A 
HETATM   17  N2  UNL     1      -0.960  -4.550  -0.990  1.00  0.00    -0.086 N 
HETATM   18  O1  UNL     1      -1.485  -4.055  -2.068  1.00  0.00    -0.165 OA
ATOM     19  H2  UNL     1      -0.652  -5.514  -0.861  1.00  0.00     0.214 HD
HETATM   20  C2  UNL     1      -1.759  -2.802  -1.890  1.00  0.00     0.405 A 
HETATM   21  O2  UNL     1      -2.276  -2.057  -2.760  1.00  0.00    -0.235 OA
BRANCH  16  22
HETATM   22  N1  UNL     1      -0.421  -3.698   1.138  1.00  0.00    -0.233 N 
ATOM     23  H12 UNL     1      -0.038  -4.541   1.567  1.00  0.00     0.174 HD
ATOM     24  H11 UNL     1      -0.371  -2.954   1.834  1.00  0.00     0.174 HD
ENDBRANCH  16  22
ENDBRANCH  14  15
ENDBRANCH  11  14
ENDBRANCH   1  11
BRANCH   3  25
HETATM   25  C5  UNL     1      -3.303   3.164   0.245  1.00  0.00     0.136 C 
BRANCH  25  26
HETATM   26  C6  UNL     1      -4.346   2.082   0.430  1.00  0.00     0.180 C 
BRANCH  26  27
HETATM   27  O3  UNL     1      -5.573   2.510  -0.056  1.00  0.00    -0.400 OA
ATOM     28  H3  UNL     1      -6.227   1.831   0.060  1.00  0.00     0.209 HD
ENDBRANCH  26  27
ENDBRANCH  25  26
ENDBRANCH   3  25
BRANCH   9  29
HETATM   29  C9  UNL     1       2.594   0.487   0.335  1.00  0.00     0.057 A 
HETATM   30  C10 UNL     1       2.500  -0.406   1.377  1.00  0.00     0.034 A 
HETATM   31  C11 UNL     1       3.159  -1.610   1.378  1.00  0.00     0.041 A 
HETATM   32  C12 UNL     1       3.978  -2.007   0.301  1.00  0.00     0.098 A 
HETATM   33  C13 UNL     1       4.079  -1.126  -0.742  1.00  0.00     0.138 A 
HETATM   34  C14 UNL     1       3.392   0.100  -0.713  1.00  0.00     0.070 A 
BRANCH  32  35
HETATM   35  O4  UNL     1       4.611  -3.233   0.377  1.00  0.00    -0.358 OA
ATOM     36  H4  UNL     1       5.163  -3.500  -0.349  1.00  0.00     0.217 HD
ENDBRANCH  32  35
BRANCH  33  37
HETATM   37  N10 UNL     1       4.878  -1.428  -1.865  1.00  0.00    -0.113 N 
HETATM   38  O5  UNL     1       5.381  -0.437  -2.480  1.00  0.00    -0.532 OA
HETATM   39  O6  UNL     1       5.153  -2.648  -2.336  1.00  0.00    -0.532 OA
ENDBRANCH  33  37
ENDBRANCH   9  29
TORSDOF 10
