REMARK  9 active torsions:
REMARK  status: ('A' for Active; 'I' for Inactive)
REMARK    1  A    between atoms: N1_1  and  C1_4 
REMARK    2  A    between atoms: C3_8  and  C4_9 
REMARK    3  A    between atoms: N3_10  and  N4_12 
REMARK    4  A    between atoms: N4_12  and  N5_14 
REMARK    5  A    between atoms: N5_14  and  C5_16 
REMARK    6  A    between atoms: C8_19  and  N6_20 
REMARK    7  A    between atoms: C9_23  and  S1_24 
REMARK    8  A    between atoms: S1_24  and  N7_27 
REMARK    9  A    between atoms: C11_35  and  O5_36 
ROOT
HETATM    1  C5  UNL     1       0.958   0.738   0.174  1.00  0.00     0.084 A 
HETATM    2  C6  UNL     1       0.440  -0.312   0.908  1.00  0.00     0.036 A 
HETATM    3  C7  UNL     1       1.113  -1.484   1.099  1.00  0.00     0.040 A 
HETATM    4  C8  UNL     1       2.409  -1.643   0.520  1.00  0.00     0.129 A 
HETATM    5  C9  UNL     1       2.941  -0.630  -0.203  1.00  0.00     0.149 A 
HETATM    6  C11 UNL     1       2.204   0.567  -0.373  1.00  0.00     0.119 A 
ENDROOT
BRANCH   1   7
HETATM    7  N5  UNL     1       0.187   1.922   0.039  1.00  0.00    -0.284 N 
ATOM      8  H5  UNL     1       0.416   2.715   0.638  1.00  0.00     0.188 HD
BRANCH   7   9
HETATM    9  N4  UNL     1      -0.862   2.064  -0.861  1.00  0.00    -0.243 N 
ATOM     10  H4  UNL     1      -0.715   2.458  -1.790  1.00  0.00     0.208 HD
BRANCH   9  11
HETATM   11  N3  UNL     1      -2.113   1.649  -0.446  1.00  0.00    -0.297 N 
HETATM   12  C4  UNL     1      -2.827   0.794  -1.072  1.00  0.00     0.127 C 
ATOM     13  H3  UNL     1      -2.490   2.050   0.413  1.00  0.00     0.187 HD
BRANCH  12  14
HETATM   14  C3  UNL     1      -4.149   0.398  -0.570  1.00  0.00     0.065 A 
HETATM   15  C2  UNL     1      -4.893  -0.521  -1.237  1.00  0.00     0.124 A 
HETATM   16  N2  UNL     1      -6.107  -0.907  -0.786  1.00  0.00    -0.201 N 
HETATM   17  C1  UNL     1      -6.583  -0.365   0.350  1.00  0.00     0.678 A 
ATOM     18  H2  UNL     1      -6.654  -1.599  -1.299  1.00  0.00     0.183 HD
HETATM   19  N11 UNL     1      -5.853   0.543   1.012  1.00  0.00    -0.156 N 
HETATM   20  C12 UNL     1      -4.635   0.951   0.587  1.00  0.00     0.272 A 
ATOM     21  H11 UNL     1      -6.231   0.943   1.871  1.00  0.00     0.187 HD
HETATM   22  O6  UNL     1      -3.979   1.809   1.241  1.00  0.00    -0.267 OA
BRANCH  17  23
HETATM   23  N1  UNL     1      -7.752  -0.750   0.774  1.00  0.00    -0.234 N 
ATOM     24  H12 UNL     1      -8.308  -1.441   0.270  1.00  0.00     0.174 HD
ATOM     25  H11 UNL     1      -8.113  -0.339   1.635  1.00  0.00     0.174 HD
ENDBRANCH  17  23
ENDBRANCH  12  14
ENDBRANCH   9  11
ENDBRANCH   7   9
ENDBRANCH   1   7
BRANCH   6  26
HETATM   26  O5  UNL     1       2.767   1.576  -1.111  1.00  0.00    -0.357 OA
ATOM     27  H5  UNL     1       3.630   1.458  -1.490  1.00  0.00     0.218 HD
ENDBRANCH   6  26
BRANCH   5  28
HETATM   28  S1  UNL     1       4.510  -0.721  -0.943  1.00  0.00     0.289 S 
HETATM   29  O3  UNL     1       4.803  -2.066  -1.491  1.00  0.00    -0.198 OA
HETATM   30  O4  UNL     1       4.383   0.169  -2.215  1.00  0.00    -0.198 OA
BRANCH  28  31
HETATM   31  N7  UNL     1       5.765  -0.061   0.019  1.00  0.00    -0.155 N 
HETATM   32  C10 UNL     1       6.556   1.000  -0.335  1.00  0.00     0.239 A 
HETATM   33  N8  UNL     1       7.443   1.267   0.637  1.00  0.00    -0.278 N 
HETATM   34  N9  UNL     1       7.203   0.373   1.594  1.00  0.00    -0.226 N 
ATOM     35  H8  UNL     1       8.152   2.001   0.641  1.00  0.00     0.189 HD
HETATM   36  N10 UNL     1       6.218  -0.390   1.206  1.00  0.00    -0.211 N 
ATOM     37  H9  UNL     1       7.704   0.297   2.479  1.00  0.00     0.210 HD
ATOM     38  H10 UNL     1       5.842  -1.157   1.763  1.00  0.00     0.211 HD
ENDBRANCH  28  31
ENDBRANCH   5  28
BRANCH   4  39
HETATM   39  N6  UNL     1       3.029  -2.878   0.730  1.00  0.00    -0.114 N 
HETATM   40  O1  UNL     1       4.207  -3.112   0.911  1.00  0.00    -0.532 OA
HETATM   41  O2  UNL     1       2.190  -4.004   0.786  1.00  0.00    -0.532 OA
ENDBRANCH   4  39
TORSDOF 9
