REMARK  8 active torsions:
REMARK  status: ('A' for Active; 'I' for Inactive)
REMARK    1  A    between atoms: C2_3  and  O1_4 
REMARK    2  A    between atoms: C3_6  and  N2_7 
REMARK    3  A    between atoms: C4_10  and  N3_11 
REMARK    4  A    between atoms: N3_11  and  N4_13 
REMARK    5  A    between atoms: N4_13  and  C5_15 
REMARK    6  A    between atoms: C8_18  and  S1_19 
REMARK    7  A    between atoms: S1_19  and  N5_22 
REMARK       I    between atoms: N5_22  and  C9_24 
REMARK    8  A    between atoms: C11_30  and  N8_31 
ROOT
HETATM    1  C5  UNL     1       0.607  -0.938  -0.312  1.00  0.00     0.081 A 
HETATM    2  C6  UNL     1       0.938   0.382  -0.583  1.00  0.00     0.035 A 
HETATM    3  C7  UNL     1       2.095   0.944  -0.040  1.00  0.00     0.028 A 
HETATM    4  C8  UNL     1       2.938   0.234   0.766  1.00  0.00     0.082 A 
HETATM    5  C10 UNL     1       2.603  -1.076   1.031  1.00  0.00     0.063 A 
HETATM    6  C11 UNL     1       1.472  -1.639   0.505  1.00  0.00     0.132 A 
ENDROOT
BRANCH   1   7
HETATM    7  N4  UNL     1      -0.569  -1.550  -0.841  1.00  0.00    -0.297 N 
ATOM      8  H4  UNL     1      -0.563  -1.977  -1.767  1.00  0.00     0.187 HD
BRANCH   7   9
HETATM    9  N3  UNL     1      -1.727  -1.551  -0.064  1.00  0.00    -0.283 N 
ATOM     10  H3  UNL     1      -1.834  -2.215   0.703  1.00  0.00     0.188 HD
BRANCH   9  11
HETATM   11  C4  UNL     1      -2.748  -0.623  -0.352  1.00  0.00     0.162 A 
HETATM   12  C3  UNL     1      -3.898  -0.672   0.416  1.00  0.00     0.199 A 
HETATM   13  C2  UNL     1      -4.901   0.232   0.144  1.00  0.00     0.183 A 
HETATM   14  N1  UNL     1      -4.777   1.140  -0.836  1.00  0.00    -0.282 N 
HETATM   15  C1  UNL     1      -5.875   2.057  -1.059  1.00  0.00     0.163 C 
HETATM   16  C12 UNL     1      -3.644   1.161  -1.565  1.00  0.00     0.329 A 
HETATM   17  N9  UNL     1      -2.651   0.290  -1.321  1.00  0.00    -0.291 N 
HETATM   18  O8  UNL     1      -3.508   2.015  -2.499  1.00  0.00    -0.246 OA
ATOM     19  H9  UNL     1      -1.804   0.327  -1.889  1.00  0.00     0.172 HD
BRANCH  12  20
HETATM   20  N2  UNL     1      -4.007  -1.642   1.443  1.00  0.00    -0.107 N 
HETATM   21  O2  UNL     1      -4.752  -2.618   1.250  1.00  0.00    -0.531 OA
HETATM   22  O3  UNL     1      -3.336  -1.562   2.633  1.00  0.00    -0.531 OA
ENDBRANCH  12  20
BRANCH  13  23
HETATM   23  O1  UNL     1      -6.059   0.162   0.938  1.00  0.00    -0.344 OA
ATOM     24  H1  UNL     1      -6.147  -0.481   1.632  1.00  0.00     0.219 HD
ENDBRANCH  13  23
ENDBRANCH   9  11
ENDBRANCH   7   9
ENDBRANCH   1   7
BRANCH   6  25
HETATM   25  N8  UNL     1       1.177  -2.992   0.804  1.00  0.00    -0.113 N 
HETATM   26  O6  UNL     1       0.579  -3.665  -0.065  1.00  0.00    -0.532 OA
HETATM   27  O7  UNL     1       1.529  -3.567   2.002  1.00  0.00    -0.532 OA
ENDBRANCH   6  25
BRANCH   4  28
HETATM   28  S1  UNL     1       4.375   0.999   1.409  1.00  0.00     0.265 S 
HETATM   29  O4  UNL     1       4.648   0.509   2.793  1.00  0.00    -0.200 OA
HETATM   30  O5  UNL     1       4.088   2.494   1.465  1.00  0.00    -0.200 OA
BRANCH  28  31
HETATM   31  N5  UNL     1       5.751   0.698   0.417  1.00  0.00    -0.254 N 
HETATM   32  C9  UNL     1       5.727   1.165  -0.924  1.00  0.00     0.195 C 
HETATM   33  N6  UNL     1       5.863   2.400  -1.229  1.00  0.00    -0.373 N 
HETATM   34  N7  UNL     1       5.545   0.206  -1.958  1.00  0.00    -0.063 NA
ATOM     35  H62 UNL     1       5.994   3.088  -0.487  1.00  0.00     0.158 HD
ATOM     36  H61 UNL     1       5.846   2.735  -2.192  1.00  0.00     0.158 HD
ATOM     37  H5  UNL     1       6.561   0.198   0.783  1.00  0.00     0.181 HD
ENDBRANCH  28  31
ENDBRANCH   4  28
TORSDOF 8
