REMARK  8 active torsions:
REMARK  status: ('A' for Active; 'I' for Inactive)
REMARK    1  A    between atoms: C2_2  and  C3_3 
REMARK    2  A    between atoms: C3_3  and  N1_4 
REMARK    3  A    between atoms: N1_4  and  C4_6 
REMARK    4  A    between atoms: C5_9  and  N3_10 
REMARK    5  A    between atoms: N3_10  and  N4_12 
REMARK    6  A    between atoms: N4_12  and  N5_14 
REMARK    7  A    between atoms: N7_26  and  C13_27 
REMARK    8  A    between atoms: C13_27  and  O2_28 
ROOT
HETATM    1  C4  UNL     1       0.927   1.837   0.271  1.00  0.00     0.155 C 
HETATM    2  N2  UNL     1       2.324   1.712   0.268  1.00  0.00    -0.323 N 
ATOM      3  H2  UNL     1       2.898   2.549   0.166  1.00  0.00     0.169 HD
HETATM    4  C5  UNL     1       2.969   0.430   0.405  1.00  0.00     0.150 C 
HETATM    5  C6  UNL     1       2.491  -0.639   1.093  1.00  0.00     0.081 C 
HETATM    6  C7  UNL     1       1.569  -0.497   2.217  1.00  0.00     0.053 C 
HETATM    7  C8  UNL     1       0.394  -0.289   1.457  1.00  0.00     0.064 C 
HETATM    8  C9  UNL     1      -0.002   0.913   0.892  1.00  0.00     0.229 C 
HETATM    9  O1  UNL     1      -1.281   1.111   0.967  1.00  0.00    -0.283 OA
HETATM   10  C10 UNL     1      -0.401  -1.314   0.808  1.00  0.00     0.121 C 
HETATM   11  N6  UNL     1      -1.741  -1.123   0.719  1.00  0.00    -0.339 N 
HETATM   12  C11 UNL     1      -2.650  -1.234   1.837  1.00  0.00     0.157 C 
HETATM   13  C12 UNL     1      -3.855  -1.957   1.246  1.00  0.00     0.297 C 
HETATM   14  N7  UNL     1      -3.969  -1.175   0.049  1.00  0.00     0.130 N 
HETATM   15  C14 UNL     1      -2.625  -1.007  -0.416  1.00  0.00     0.402 C 
HETATM   16  N8  UNL     1       0.171  -2.410   0.175  1.00  0.00    -0.325 N 
ATOM     17  H8  UNL     1      -0.466  -3.086  -0.248  1.00  0.00     0.169 HD
HETATM   18  C15 UNL     1       1.585  -2.680   0.061  1.00  0.00     0.154 C 
HETATM   19  C16 UNL     1       1.956  -3.908  -0.565  1.00  0.00     0.176 A 
HETATM   20  N9  UNL     1       3.137  -4.294  -1.075  1.00  0.00    -0.267 N 
ATOM     21  H9  UNL     1       3.992  -3.737  -1.092  1.00  0.00     0.185 HD
HETATM   22  N10 UNL     1       2.999  -5.539  -1.559  1.00  0.00    -0.007 NA
HETATM   23  N11 UNL     1       1.756  -5.938  -1.362  1.00  0.00    -0.007 NA
HETATM   24  N12 UNL     1       1.125  -4.945  -0.758  1.00  0.00    -0.267 N 
ATOM     25  H12 UNL     1       0.144  -4.964  -0.478  1.00  0.00     0.185 HD
HETATM   26  N13 UNL     1       2.657  -1.893   0.468  1.00  0.00    -0.336 N 
ATOM     27  H13 UNL     1       3.604  -2.237   0.308  1.00  0.00     0.168 HD
ENDROOT
BRANCH   1  28
HETATM   28  N1  UNL     1       0.267   2.844  -0.376  1.00  0.00    -0.369 N 
ATOM     29  H1  UNL     1      -0.752   2.878  -0.363  1.00  0.00     0.161 HD
BRANCH  28  30
HETATM   30  C3  UNL     1       1.009   3.850  -1.072  1.00  0.00     0.148 C 
BRANCH  30  31
HETATM   31  C2  UNL     1       0.217   4.884  -1.765  1.00  0.00    -0.018 C 
HETATM   32  C1  UNL     1      -1.094   4.933  -1.775  1.00  0.00     0.008 C 
ENDBRANCH  30  31
ENDBRANCH  28  30
ENDBRANCH   1  28
BRANCH  14  33
HETATM   33  C13 UNL     1      -4.655   0.063   0.176  1.00  0.00     0.439 C 
BRANCH  33  34
HETATM   34  O2  UNL     1      -4.738   0.775  -1.016  1.00  0.00    -0.373 OA
ATOM     35  H2  UNL     1      -5.197   1.603  -0.931  1.00  0.00     0.211 HD
ENDBRANCH  33  34
ENDBRANCH  14  33
BRANCH   4  36
HETATM   36  N3  UNL     1       4.046   0.188  -0.199  1.00  0.00    -0.269 N 
ATOM     37  H3  UNL     1       4.454  -0.736  -0.060  1.00  0.00     0.190 HD
BRANCH  36  38
HETATM   38  N4  UNL     1       4.722   1.043  -1.023  1.00  0.00    -0.248 N 
ATOM     39  H4  UNL     1       4.211   1.738  -1.567  1.00  0.00     0.207 HD
BRANCH  38  40
HETATM   40  N5  UNL     1       6.130   0.964  -1.122  1.00  0.00    -0.331 N 
ATOM     41  H52 UNL     1       6.626   0.263  -0.572  1.00  0.00     0.178 HD
ATOM     42  H51 UNL     1       6.635   1.602  -1.737  1.00  0.00     0.178 HD
ENDBRANCH  38  40
ENDBRANCH  36  38
ENDBRANCH   4  36
TORSDOF 8
