REMARK  11 active torsions:
REMARK  status: ('A' for Active; 'I' for Inactive)
REMARK    1  A    between atoms: C2_5  and  O2_6 
REMARK    2  A    between atoms: C3_8  and  N2_9 
REMARK    3  A    between atoms: N3_12  and  N4_13 
REMARK    4  A    between atoms: N4_13  and  N5_15 
REMARK    5  A    between atoms: N5_15  and  C4_17 
REMARK    6  A    between atoms: C5_18  and  S1_19 
REMARK    7  A    between atoms: C7_30  and  N9_31 
REMARK    8  A    between atoms: N9_31  and  O8_33 
REMARK    9  A    between atoms: O8_33  and  C8_34 
REMARK   10  A    between atoms: C8_34  and  C9_35 
REMARK   11  A    between atoms: C9_35  and  O9_36 
ROOT
HETATM    1  C4  UNL     1      -0.709  -1.345   0.889  1.00  0.00     0.121 A 
HETATM    2  C5  UNL     1      -0.604  -2.486   1.654  1.00  0.00     0.182 A 
HETATM    3  N6  UNL     1       0.707  -2.778   1.709  1.00  0.00    -0.326 N 
ATOM      4  H6  UNL     1       1.101  -3.575   2.209  1.00  0.00     0.168 HD
HETATM    5  C6  UNL     1       1.435  -1.874   1.012  1.00  0.00     0.151 A 
HETATM    6  N7  UNL     1       2.743  -1.745   0.780  1.00  0.00    -0.269 N 
ATOM      7  H7  UNL     1       3.398  -2.423   1.170  1.00  0.00     0.189 HD
HETATM    8  N8  UNL     1       3.193  -0.741   0.047  1.00  0.00    -0.129 N 
ATOM      9  H8  UNL     1       4.198  -0.668  -0.113  1.00  0.00     0.205 HD
HETATM   10  C7  UNL     1       2.389   0.187  -0.497  1.00  0.00     0.717 A 
HETATM   11  N10 UNL     1       1.062   0.042  -0.251  1.00  0.00    -0.183 N 
ATOM     12  H10 UNL     1       0.420   0.729  -0.647  1.00  0.00     0.184 HD
HETATM   13  C10 UNL     1       0.552  -0.952   0.482  1.00  0.00     0.126 A 
ENDROOT
BRANCH   1  14
HETATM   14  N5  UNL     1      -1.922  -0.698   0.583  1.00  0.00    -0.281 N 
ATOM     15  H5  UNL     1      -2.769  -1.075   1.007  1.00  0.00     0.188 HD
BRANCH  14  16
HETATM   16  N4  UNL     1      -2.054   0.307  -0.169  1.00  0.00    -0.229 N 
ATOM     17  H4  UNL     1      -1.240   0.725  -0.619  1.00  0.00     0.209 HD
BRANCH  16  18
HETATM   18  N3  UNL     1      -3.330   0.840  -0.377  1.00  0.00    -0.164 N 
HETATM   19  C1  UNL     1      -4.198   0.580  -1.369  1.00  0.00     0.350 A 
HETATM   20  O1  UNL     1      -3.991  -0.229  -2.323  1.00  0.00    -0.244 OA
HETATM   21  N1  UNL     1      -5.336   1.308  -1.211  1.00  0.00    -0.284 N 
HETATM   22  C2  UNL     1      -5.197   2.051  -0.094  1.00  0.00     0.198 A 
ATOM     23  H1  UNL     1      -6.149   1.294  -1.827  1.00  0.00     0.172 HD
HETATM   24  C3  UNL     1      -3.945   1.747   0.410  1.00  0.00     0.251 A 
BRANCH  22  25
HETATM   25  O2  UNL     1      -6.126   2.951   0.453  1.00  0.00    -0.343 OA
ATOM     26  H2  UNL     1      -6.028   3.474   1.240  1.00  0.00     0.219 HD
ENDBRANCH  22  25
BRANCH  24  27
HETATM   27  N2  UNL     1      -3.379   2.305   1.589  1.00  0.00    -0.091 N 
HETATM   28  O3  UNL     1      -4.022   3.151   2.273  1.00  0.00    -0.530 OA
HETATM   29  O4  UNL     1      -2.136   1.951   2.017  1.00  0.00    -0.530 OA
ENDBRANCH  24  27
ENDBRANCH  16  18
ENDBRANCH  14  16
ENDBRANCH   1  14
BRANCH   2  30
HETATM   30  S1  UNL     1      -1.899  -3.399   2.419  1.00  0.00     0.157 S 
HETATM   31  O5  UNL     1      -2.704  -2.509   3.324  1.00  0.00    -0.590 OA
HETATM   32  O6  UNL     1      -2.866  -3.904   1.355  1.00  0.00    -0.590 OA
HETATM   33  O7  UNL     1      -1.263  -4.697   3.231  1.00  0.00    -0.590 OA
ENDBRANCH   2  30
BRANCH  10  34
HETATM   34  N9  UNL     1       2.831   1.155  -1.216  1.00  0.00    -0.095 N 
ATOM     35  H9  UNL     1       2.125   1.798  -1.574  1.00  0.00     0.213 HD
BRANCH  34  36
HETATM   36  O8  UNL     1       4.095   1.432  -1.558  1.00  0.00    -0.264 OA
BRANCH  36  37
HETATM   37  C8  UNL     1       5.207   0.678  -1.184  1.00  0.00     0.227 C 
BRANCH  37  38
HETATM   38  C9  UNL     1       6.429   1.365  -1.790  1.00  0.00     0.192 C 
BRANCH  38  39
HETATM   39  O9  UNL     1       6.546   2.660  -1.317  1.00  0.00    -0.399 OA
ATOM     40  H9  UNL     1       7.306   3.087  -1.694  1.00  0.00     0.209 HD
ENDBRANCH  38  39
ENDBRANCH  37  38
ENDBRANCH  36  37
ENDBRANCH  34  36
ENDBRANCH  10  34
TORSDOF 11
