REMARK  6 active torsions:
REMARK  status: ('A' for Active; 'I' for Inactive)
REMARK       I    between atoms: N2_4  and  C3_6 
REMARK       I    between atoms: C3_6  and  N3_7 
REMARK       I    between atoms: C3_6  and  N4_11 
REMARK    1  A    between atoms: C7_20  and  N7_21 
REMARK    2  A    between atoms: N11_31  and  C12_32 
REMARK    3  A    between atoms: C12_32  and  C13_33 
REMARK    4  A    between atoms: C13_33  and  S1_34 
REMARK    5  A    between atoms: S1_34  and  C14_35 
REMARK    6  A    between atoms: C14_35  and  C15_36 
ROOT
HETATM    1  C1  UNL     1       1.682   3.380  -0.264  1.00  0.00     0.179 C 
HETATM    2  N1  UNL     1       0.641   2.370  -0.278  1.00  0.00    -0.277 N 
HETATM    3  C2  UNL     1      -0.680   2.612  -0.337  1.00  0.00     0.137 A 
HETATM    4  N2  UNL     1      -1.365   3.684  -0.394  1.00  0.00    -0.325 N 
ATOM      5  H2  UNL     1      -2.370   3.515  -0.429  1.00  0.00     0.165 HD
HETATM    6  C3  UNL     1      -1.038   5.038  -0.419  1.00  0.00     0.481 C 
HETATM    7  N3  UNL     1      -2.061   5.882   0.229  1.00  0.00    -0.033 N 
ATOM      8  H31 UNL     1      -1.822   6.873   0.211  1.00  0.00     0.278 HD
ATOM      9  H32 UNL     1      -2.246   5.567   1.182  1.00  0.00     0.278 HD
ATOM     10  H33 UNL     1      -2.982   5.720  -0.179  1.00  0.00     0.278 HD
HETATM   11  N4  UNL     1      -0.936   5.598  -1.770  1.00  0.00    -0.033 N 
ATOM     12  H41 UNL     1      -0.697   6.589  -1.788  1.00  0.00     0.278 HD
ATOM     13  H42 UNL     1      -1.793   5.426  -2.296  1.00  0.00     0.278 HD
ATOM     14  H43 UNL     1      -0.278   5.059  -2.333  1.00  0.00     0.278 HD
HETATM   15  C4  UNL     1      -1.334   1.372  -0.327  1.00  0.00     0.081 A 
HETATM   16  C5  UNL     1      -2.653   1.009  -0.369  1.00  0.00     0.092 A 
HETATM   17  N5  UNL     1      -3.695   1.967  -0.437  1.00  0.00    -0.099 NA
HETATM   18  C6  UNL     1      -3.009  -0.342  -0.344  1.00  0.00     0.116 A 
HETATM   19  N6  UNL     1      -4.380  -0.720  -0.388  1.00  0.00    -0.096 NA
HETATM   20  C7  UNL     1      -2.019  -1.271  -0.279  1.00  0.00     0.138 A 
HETATM   21  N10 UNL     1      -0.736  -0.882  -0.240  1.00  0.00    -0.325 N 
ATOM     22  H10 UNL     1      -0.012  -1.599  -0.192  1.00  0.00     0.169 HD
HETATM   23  C11 UNL     1      -0.352   0.430  -0.262  1.00  0.00     0.140 A 
HETATM   24  N11 UNL     1       0.841   1.047  -0.233  1.00  0.00    -0.272 N 
ENDROOT
BRANCH  24  25
HETATM   25  C12 UNL     1       2.096   0.369  -0.165  1.00  0.00     0.161 C 
BRANCH  25  26
HETATM   26  C13 UNL     1       2.591   0.114   1.242  1.00  0.00     0.096 C 
BRANCH  26  27
HETATM   27  S1  UNL     1       4.196  -0.755   1.061  1.00  0.00    -0.160 SA
BRANCH  27  28
HETATM   28  C14 UNL     1       3.945  -2.389   0.330  1.00  0.00     0.153 C 
BRANCH  28  29
HETATM   29  C15 UNL     1       5.287  -3.026   0.212  1.00  0.00     0.122 A 
HETATM   30  N12 UNL     1       6.049  -2.877  -0.898  1.00  0.00    -0.272 N 
HETATM   31  N13 UNL     1       7.176  -3.547  -0.721  1.00  0.00    -0.227 N 
ATOM     32  H12 UNL     1       5.797  -2.340  -1.728  1.00  0.00     0.190 HD
HETATM   33  N14 UNL     1       7.100  -4.091   0.468  1.00  0.00    -0.227 N 
ATOM     34  H13 UNL     1       7.951  -3.625  -1.380  1.00  0.00     0.210 HD
HETATM   35  N15 UNL     1       5.957  -3.792   1.067  1.00  0.00    -0.272 N 
ATOM     36  H14 UNL     1       7.830  -4.672   0.881  1.00  0.00     0.210 HD
ATOM     37  H15 UNL     1       5.653  -4.089   1.994  1.00  0.00     0.190 HD
ENDBRANCH  28  29
ENDBRANCH  27  28
ENDBRANCH  26  27
ENDBRANCH  25  26
ENDBRANCH  24  25
BRANCH  20  38
HETATM   38  N7  UNL     1      -2.305  -2.661  -0.251  1.00  0.00    -0.304 N 
HETATM   39  C8  UNL     1      -2.995  -3.466  -1.237  1.00  0.00     0.153 C 
HETATM   40  C9  UNL     1      -3.605  -4.548  -0.337  1.00  0.00     0.142 C 
HETATM   41  N8  UNL     1      -2.676  -4.600   0.761  1.00  0.00    -0.363 N 
HETATM   42  C10 UNL     1      -1.936  -3.537   0.818  1.00  0.00     0.192 C 
ATOM     43  H8  UNL     1      -2.608  -5.379   1.416  1.00  0.00     0.162 HD
HETATM   44  N9  UNL     1      -0.928  -3.277   1.776  1.00  0.00    -0.063 NA
ENDBRANCH  20  38
TORSDOF 6
