REMARK  11 active torsions:
REMARK  status: ('A' for Active; 'I' for Inactive)
REMARK    1  A    between atoms: N1_1  and  C1_4 
REMARK    2  A    between atoms: C2_7  and  N3_8 
REMARK    3  A    between atoms: C3_11  and  N4_12 
REMARK    4  A    between atoms: N5_14  and  N6_16 
REMARK       I    between atoms: N6_16  and  C4_18 
REMARK    5  A    between atoms: C4_18  and  O4_20 
REMARK    6  A    between atoms: O4_20  and  C5_21 
REMARK    7  A    between atoms: C5_21  and  C6_22 
REMARK    8  A    between atoms: C9_26  and  O6_27 
REMARK    9  A    between atoms: O6_27  and  S1_28 
REMARK   10  A    between atoms: S1_28  and  N7_29 
REMARK   11  A    between atoms: C10_37  and  N9_38 
ROOT
HETATM    1  N4  UNL     1       3.065  -0.172  -0.185  1.00  0.00    -0.279 N 
ATOM      2  H4  UNL     1       2.450   0.108   0.579  1.00  0.00     0.189 HD
HETATM    3  N5  UNL     1       2.538  -0.597  -1.244  1.00  0.00    -0.238 N 
ATOM      4  H5  UNL     1       3.121  -0.886  -2.030  1.00  0.00     0.208 HD
ENDROOT
BRANCH   3   5
HETATM    5  N6  UNL     1       1.157  -0.669  -1.333  1.00  0.00    -0.231 N 
HETATM    6  C4  UNL     1       0.345   0.172  -0.546  1.00  0.00     0.380 C 
HETATM    7  O3  UNL     1       0.908   0.991   0.242  1.00  0.00    -0.237 OA
ATOM      8  H6  UNL     1       0.725  -1.336  -1.973  1.00  0.00     0.194 HD
BRANCH   6   9
HETATM    9  O4  UNL     1      -1.061   0.124  -0.613  1.00  0.00    -0.296 OA
BRANCH   9  10
HETATM   10  C5  UNL     1      -1.757   1.022   0.229  1.00  0.00     0.247 C 
BRANCH  10  11
HETATM   11  C6  UNL     1      -3.223   0.882   0.073  1.00  0.00     0.104 A 
HETATM   12  C7  UNL     1      -3.944   1.615  -0.850  1.00  0.00     0.096 A 
HETATM   13  C8  UNL     1      -5.303   1.407  -0.912  1.00  0.00     0.228 A 
HETATM   14  O5  UNL     1      -5.993   2.047  -1.731  1.00  0.00    -0.284 OA
HETATM   15  C9  UNL     1      -5.914   0.489  -0.068  1.00  0.00     0.232 A 
HETATM   16  N8  UNL     1      -5.117  -0.163   0.785  1.00  0.00    -0.235 N 
HETATM   17  O9  UNL     1      -3.833   0.026   0.851  1.00  0.00    -0.238 OA
ATOM     18  H8  UNL     1      -5.539  -0.844   1.417  1.00  0.00     0.197 HD
BRANCH  15  19
HETATM   19  O6  UNL     1      -7.280   0.294  -0.146  1.00  0.00    -0.192 OA
BRANCH  19  20
HETATM   20  S1  UNL     1      -8.030  -0.826   0.881  1.00  0.00     0.362 S 
HETATM   21  O7  UNL     1      -7.569  -0.554   2.283  1.00  0.00    -0.176 OA
HETATM   22  O8  UNL     1      -9.532  -0.638   0.871  1.00  0.00    -0.176 OA
BRANCH  20  23
HETATM   23  N7  UNL     1      -7.707  -2.446   0.453  1.00  0.00    -0.305 N 
ATOM     24  H72 UNL     1      -7.120  -2.698  -0.343  1.00  0.00     0.171 HD
ATOM     25  H71 UNL     1      -8.158  -3.120   1.071  1.00  0.00     0.171 HD
ENDBRANCH  20  23
ENDBRANCH  19  20
ENDBRANCH  15  19
ENDBRANCH  10  11
ENDBRANCH   9  10
ENDBRANCH   6   9
ENDBRANCH   3   5
BRANCH   1  26
HETATM   26  C3  UNL     1       4.467  -0.060   0.008  1.00  0.00     0.144 A 
HETATM   27  C2  UNL     1       5.045  -0.655   1.108  1.00  0.00     0.220 A 
HETATM   28  N2  UNL     1       6.385  -0.525   1.258  1.00  0.00    -0.168 N 
HETATM   29  C1  UNL     1       7.152   0.149   0.389  1.00  0.00     0.679 A 
ATOM     30  H2  UNL     1       6.830  -0.959   2.067  1.00  0.00     0.186 HD
HETATM   31  N10 UNL     1       6.604   0.726  -0.673  1.00  0.00    -0.175 N 
HETATM   32  C10 UNL     1       5.280   0.628  -0.868  1.00  0.00     0.147 A 
ATOM     33  H10 UNL     1       7.185   1.240  -1.336  1.00  0.00     0.186 HD
BRANCH  27  34
HETATM   34  N3  UNL     1       4.256  -1.367   2.030  1.00  0.00    -0.095 N 
HETATM   35  O1  UNL     1       3.027  -1.460   1.852  1.00  0.00    -0.530 OA
HETATM   36  O2  UNL     1       4.766  -1.982   3.143  1.00  0.00    -0.530 OA
ENDBRANCH  27  34
BRANCH  29  37
HETATM   37  N1  UNL     1       8.427   0.244   0.578  1.00  0.00    -0.234 N 
ATOM     38  H12 UNL     1       8.848  -0.199   1.394  1.00  0.00     0.174 HD
ATOM     39  H11 UNL     1       9.010   0.757  -0.083  1.00  0.00     0.174 HD
ENDBRANCH  29  37
BRANCH  32  40
HETATM   40  N9  UNL     1       4.748   1.198  -1.916  1.00  0.00    -0.383 N 
ATOM     41  H92 UNL     1       3.742   1.124  -2.064  1.00  0.00     0.157 HD
ATOM     42  H91 UNL     1       5.349   1.707  -2.564  1.00  0.00     0.157 HD
ENDBRANCH  32  40
ENDBRANCH   1  26
TORSDOF 11
