REMARK  7 active torsions:
REMARK  status: ('A' for Active; 'I' for Inactive)
REMARK    1  A    between atoms: O1_2  and  C2_3 
REMARK    2  A    between atoms: C8_9  and  C9_10 
REMARK    3  A    between atoms: C9_10  and  O2_11 
REMARK    4  A    between atoms: C9_10  and  C10_13 
REMARK    5  A    between atoms: C9_10  and  C14_17 
REMARK    6  A    between atoms: C14_17  and  N1_19 
REMARK    7  A    between atoms: C14_17  and  C16_23 
ROOT
HETATM    1  C9  UNL     1      -1.638  -0.225   0.119  1.00  0.00     0.136 C 
ENDROOT
BRANCH   1   2
HETATM    2  C8  UNL     1      -0.130  -0.392   0.064  1.00  0.00     0.022 A 
HETATM    3  C7  UNL     1       0.657  -1.417  -0.354  1.00  0.00     0.030 A 
HETATM    4  C6  UNL     1       1.999  -1.268  -0.273  1.00  0.00    -0.015 A 
HETATM    5  C5  UNL     1       2.997  -2.215  -0.638  1.00  0.00     0.013 A 
HETATM    6  C17 UNL     1       2.467  -0.092   0.226  1.00  0.00     0.049 A 
HETATM    7  C4  UNL     1       4.322  -1.928  -0.480  1.00  0.00     0.004 A 
HETATM    8  C3  UNL     1       4.768  -0.743   0.023  1.00  0.00     0.038 A 
HETATM    9  C2  UNL     1       3.846   0.198   0.385  1.00  0.00     0.086 A 
HETATM   10  S1  UNL     1       1.044   0.775   0.567  1.00  0.00    -0.088 SA
BRANCH   9  11
HETATM   11  O1  UNL     1       4.106   1.435   0.905  1.00  0.00    -0.355 OA
HETATM   12  C1  UNL     1       5.426   1.883   1.117  1.00  0.00     0.210 C 
ENDBRANCH   9  11
ENDBRANCH   1   2
BRANCH   1  13
HETATM   13  O2  UNL     1      -1.981  -1.589   0.523  1.00  0.00    -0.381 OA
ATOM     14  H2  UNL     1      -2.925  -1.485   0.557  1.00  0.00     0.211 HD
ENDBRANCH   1  13
BRANCH   1  15
HETATM   15  C10 UNL     1      -2.181  -0.046  -1.206  1.00  0.00    -0.013 C 
HETATM   16  C11 UNL     1      -2.061  -1.235  -2.145  1.00  0.00     0.018 C 
HETATM   17  C12 UNL     1      -3.528   0.565  -1.428  1.00  0.00     0.018 C 
HETATM   18  C13 UNL     1      -1.232   0.956  -2.016  1.00  0.00     0.018 C 
ENDBRANCH   1  15
BRANCH   1  19
HETATM   19  C14 UNL     1      -2.104   0.498   1.299  1.00  0.00     0.214 C 
HETATM   20  C15 UNL     1      -1.390  -0.017   2.510  1.00  0.00     0.056 C 
BRANCH  19  21
HETATM   21  N1  UNL     1      -3.537   0.085   1.514  1.00  0.00    -0.062 N 
ATOM     22  H13 UNL     1      -4.126   0.228   0.694  1.00  0.00     0.275 HD
ATOM     23  H12 UNL     1      -3.660  -0.925   1.584  1.00  0.00     0.275 HD
ATOM     24  H11 UNL     1      -3.863   0.590   2.338  1.00  0.00     0.275 HD
ENDBRANCH  19  21
BRANCH  19  25
HETATM   25  C16 UNL     1      -2.206   1.966   1.368  1.00  0.00     0.392 C 
HETATM   26  F1  UNL     1      -2.702   2.216   2.682  1.00  0.00    -0.212 F 
HETATM   27  F2  UNL     1      -1.148   2.768   1.262  1.00  0.00    -0.212 F 
ENDBRANCH  19  25
ENDBRANCH   1  19
TORSDOF 7
