REMARK  4 active torsions:
REMARK  status: ('A' for Active; 'I' for Inactive)
REMARK    1  A    between atoms: C7_8  and  C8_9 
REMARK    2  A    between atoms: C14_16  and  C15_17 
REMARK    3  A    between atoms: C15_17  and  O1_18 
REMARK    4  A    between atoms: C15_17  and  C16_20 
ROOT
HETATM    1  C1  UNL     1       0.835  -3.838  -0.875  1.00  0.00     0.049 C 
HETATM    2  C2  UNL     1      -0.260  -3.054  -0.182  1.00  0.00    -0.048 A 
HETATM    3  C3  UNL     1      -1.170  -3.737   0.571  1.00  0.00     0.009 A 
HETATM    4  C4  UNL     1      -2.207  -3.091   1.203  1.00  0.00     0.024 A 
HETATM    5  C5  UNL     1      -2.312  -1.730   1.062  1.00  0.00     0.056 A 
HETATM    6  C6  UNL     1      -3.392  -1.056   1.722  1.00  0.00     0.100 C 
HETATM    7  N1  UNL     1      -4.265  -0.512   2.276  1.00  0.00    -0.191 NA
HETATM    8  C7  UNL     1      -1.362  -1.027   0.278  1.00  0.00     0.008 A 
HETATM    9  C14 UNL     1      -0.344  -1.663  -0.341  1.00  0.00     0.017 A 
ENDROOT
BRANCH   8  10
HETATM   10  C8  UNL     1      -1.652   0.394   0.206  1.00  0.00    -0.023 A 
HETATM   11  C9  UNL     1      -2.300   1.017  -0.839  1.00  0.00     0.015 A 
HETATM   12  C10 UNL     1      -2.601   2.360  -0.822  1.00  0.00     0.043 A 
HETATM   13  C11 UNL     1      -2.254   3.124   0.263  1.00  0.00     0.116 A 
HETATM   14  F1  UNL     1      -2.536   4.459   0.315  1.00  0.00    -0.206 F 
HETATM   15  C12 UNL     1      -1.607   2.522   1.319  1.00  0.00     0.043 A 
HETATM   16  C13 UNL     1      -1.314   1.182   1.285  1.00  0.00     0.015 A 
ENDBRANCH   8  10
BRANCH   9  17
HETATM   17  C15 UNL     1       0.656  -0.998  -1.160  1.00  0.00     0.090 C 
BRANCH  17  18
HETATM   18  O1  UNL     1       0.158  -0.806  -2.465  1.00  0.00    -0.359 OA
ATOM     19  H1  UNL     1       0.812  -0.371  -3.000  1.00  0.00     0.217 HD
ENDBRANCH  17  18
BRANCH  17  20
HETATM   20  C16 UNL     1       1.437   0.099  -0.627  1.00  0.00     0.037 A 
HETATM   21  C17 UNL     1       1.489   1.328  -1.237  1.00  0.00     0.019 A 
HETATM   22  C18 UNL     1       2.303   2.357  -0.740  1.00  0.00     0.027 A 
HETATM   23  C19 UNL     1       3.078   2.171   0.376  1.00  0.00     0.049 A 
HETATM   24  N2  UNL     1       3.919   3.200   0.907  1.00  0.00    -0.102 NA
HETATM   25  C20 UNL     1       3.034   0.945   0.994  1.00  0.00     0.069 A 
HETATM   26  C21 UNL     1       2.218  -0.064   0.484  1.00  0.00     0.131 A 
HETATM   27  F2  UNL     1       2.233  -1.214   1.150  1.00  0.00    -0.205 F 
ENDBRANCH  17  20
ENDBRANCH   9  17
TORSDOF 4
