REMARK  4 active torsions:
REMARK  status: ('A' for Active; 'I' for Inactive)
REMARK    1  A    between atoms: C2_2  and  C4_4 
REMARK    2  A    between atoms: C13_16  and  C14_17 
REMARK    3  A    between atoms: C14_17  and  C15_18 
REMARK    4  A    between atoms: C16_21  and  O3_22 
ROOT
HETATM    1  C4  UNL     1       2.631  -0.358  -0.248  1.00  0.00    -0.039 A 
HETATM    2  C5  UNL     1       3.282  -1.561  -0.346  1.00  0.00     0.054 A 
HETATM    3  C6  UNL     1       2.498  -2.697  -0.140  1.00  0.00     0.156 A 
HETATM    4  F1  UNL     1       3.137  -3.947  -0.183  1.00  0.00    -0.203 F 
HETATM    5  C7  UNL     1       1.171  -2.619   0.124  1.00  0.00     0.166 A 
HETATM    6  F2  UNL     1       0.415  -3.729   0.319  1.00  0.00    -0.202 F 
HETATM    7  C8  UNL     1       0.555  -1.391   0.203  1.00  0.00     0.029 A 
HETATM    8  C9  UNL     1       1.278  -0.209   0.024  1.00  0.00     0.007 A 
HETATM    9  C10 UNL     1       0.362   0.918   0.055  1.00  0.00     0.054 A 
HETATM   10  S1  UNL     1       0.752   2.516  -0.109  1.00  0.00    -0.078 SA
HETATM   11  C11 UNL     1      -0.988   0.377   0.253  1.00  0.00    -0.002 A 
HETATM   12  C12 UNL     1      -2.174   1.013   0.285  1.00  0.00     0.024 A 
HETATM   13  C13 UNL     1      -3.390   0.293   0.405  1.00  0.00    -0.014 A 
HETATM   14  C16 UNL     1      -3.318  -1.062   0.494  1.00  0.00     0.073 A 
HETATM   15  C17 UNL     1      -2.072  -1.679   0.459  1.00  0.00     0.050 A 
HETATM   16  C18 UNL     1      -0.894  -0.970   0.336  1.00  0.00    -0.007 A 
ENDROOT
BRANCH  13  17
HETATM   17  C14 UNL     1      -4.605   1.115   0.396  1.00  0.00     0.154 C 
BRANCH  17  18
HETATM   18  C15 UNL     1      -5.234   1.366  -0.918  1.00  0.00     0.177 C 
HETATM   19  O1  UNL     1      -5.055   0.691  -1.920  1.00  0.00    -0.648 OA
HETATM   20  O2  UNL     1      -6.105   2.491  -1.008  1.00  0.00    -0.648 OA
ENDBRANCH  17  18
ENDBRANCH  13  17
BRANCH  14  21
HETATM   21  O3  UNL     1      -4.508  -1.774   0.618  1.00  0.00    -0.360 OA
ATOM     22  H3  UNL     1      -4.458  -2.721   0.680  1.00  0.00     0.217 HD
ENDBRANCH  14  21
BRANCH   1  23
HETATM   23  C2  UNL     1       3.381   0.943  -0.298  1.00  0.00     0.011 C 
HETATM   24  C1  UNL     1       3.813   1.199  -1.762  1.00  0.00     0.015 C 
HETATM   25  C3  UNL     1       4.842   0.665   0.316  1.00  0.00     0.015 C 
ENDBRANCH   1  23
TORSDOF 4
