REMARK  3 active torsions:
REMARK  status: ('A' for Active; 'I' for Inactive)
REMARK    1  A    between atoms: C7_7  and  C8_8 
REMARK    2  A    between atoms: C11_12  and  C12_13 
REMARK    3  A    between atoms: C15_17  and  O1_18 
ROOT
HETATM    1  C1  UNL     1      -2.947   4.937   0.243  1.00  0.00     0.068 C 
HETATM    2  C2  UNL     1      -2.293   3.584   0.216  1.00  0.00     0.007 A 
HETATM    3  C3  UNL     1      -3.142   2.487   0.176  1.00  0.00     0.032 A 
HETATM    4  C4  UNL     1      -2.616   1.207   0.147  1.00  0.00    -0.045 A 
HETATM    5  C5  UNL     1      -3.432   0.004  -0.064  1.00  0.00     0.049 C 
HETATM    6  C6  UNL     1      -1.234   1.106   0.167  1.00  0.00     0.028 A 
HETATM    7  C7  UNL     1      -0.432  -0.064   0.083  1.00  0.00     0.021 A 
HETATM    8  C11 UNL     1       0.834   0.431   0.047  1.00  0.00     0.057 A 
HETATM    9  N2  UNL     1       0.812   1.815   0.123  1.00  0.00    -0.340 N 
ATOM     10  H2  UNL     1       1.631   2.424   0.114  1.00  0.00     0.167 HD
HETATM   11  C18 UNL     1      -0.438   2.214   0.208  1.00  0.00     0.117 A 
HETATM   12  N3  UNL     1      -0.967   3.462   0.232  1.00  0.00    -0.346 N 
ATOM     13  H3  UNL     1      -0.366   4.285   0.262  1.00  0.00     0.167 HD
ENDROOT
BRANCH   8  14
HETATM   14  C12 UNL     1       2.157  -0.190   0.071  1.00  0.00    -0.002 A 
HETATM   15  C13 UNL     1       2.881  -0.275   1.230  1.00  0.00     0.059 A 
HETATM   16  C14 UNL     1       4.217  -0.583   1.238  1.00  0.00     0.153 A 
HETATM   17  F1  UNL     1       4.948  -0.636   2.339  1.00  0.00    -0.203 F 
HETATM   18  C15 UNL     1       4.878  -0.810   0.017  1.00  0.00     0.143 A 
HETATM   19  C16 UNL     1       4.187  -0.727  -1.148  1.00  0.00     0.153 A 
HETATM   20  F2  UNL     1       4.801  -0.843  -2.363  1.00  0.00    -0.203 F 
HETATM   21  C17 UNL     1       2.796  -0.423  -1.124  1.00  0.00     0.059 A 
BRANCH  18  22
HETATM   22  O1  UNL     1       6.245  -1.104   0.137  1.00  0.00    -0.355 OA
ATOM     23  H1  UNL     1       6.691  -1.257  -0.687  1.00  0.00     0.218 HD
ENDBRANCH  18  22
ENDBRANCH   8  14
BRANCH   7  24
HETATM   24  C8  UNL     1      -1.026  -1.344   0.398  1.00  0.00     0.099 C 
HETATM   25  N1  UNL     1      -0.935  -2.510  -0.304  1.00  0.00    -0.398 N 
HETATM   26  C9  UNL     1       0.132  -2.963  -1.037  1.00  0.00     0.148 C 
HETATM   27  C10 UNL     1      -1.680  -3.568   0.327  1.00  0.00     0.148 C 
ENDBRANCH   7  24
TORSDOF 3
