REMARK  3 active torsions:
REMARK  status: ('A' for Active; 'I' for Inactive)
REMARK    1  A    between atoms: O1_1  and  C1_3 
REMARK    2  A    between atoms: C1_3  and  C2_4 
REMARK    3  A    between atoms: C1_3  and  N2_16 
ROOT
HETATM    1  C1  UNL     1       1.075  -1.779   0.130  1.00  0.00     0.408 C 
ENDROOT
BRANCH   1   2
HETATM    2  O1  UNL     1       0.788  -2.121  -1.182  1.00  0.00    -0.363 OA
ATOM      3  H1  UNL     1       0.110  -2.787  -1.183  1.00  0.00     0.212 HD
ENDBRANCH   1   2
BRANCH   1   4
HETATM    4  C2  UNL     1       2.122  -0.751   0.132  1.00  0.00     0.070 A 
HETATM    5  C3  UNL     1       3.251  -0.842  -0.681  1.00  0.00     0.043 A 
HETATM    6  C4  UNL     1       4.045   0.253  -0.465  1.00  0.00    -0.004 A 
HETATM    7  C5  UNL     1       5.268   0.646  -1.011  1.00  0.00     0.017 A 
HETATM    8  C9  UNL     1       3.396   1.013   0.485  1.00  0.00     0.085 A 
HETATM    9  C6  UNL     1       5.834   1.829  -0.582  1.00  0.00     0.046 A 
HETATM   10  C7  UNL     1       5.193   2.600   0.368  1.00  0.00     0.157 A 
HETATM   11  F1  UNL     1       5.750   3.774   0.797  1.00  0.00    -0.203 F 
HETATM   12  C8  UNL     1       3.990   2.182   0.884  1.00  0.00     0.182 A 
HETATM   13  F2  UNL     1       3.366   2.954   1.824  1.00  0.00    -0.200 F 
HETATM   14  N1  UNL     1       2.244   0.381   0.821  1.00  0.00    -0.353 N 
ATOM     15  H1  UNL     1       1.568   0.724   1.504  1.00  0.00     0.166 HD
ENDBRANCH   1   4
BRANCH   1  16
HETATM   16  N2  UNL     1      -0.127  -1.364   0.827  1.00  0.00     0.126 N 
HETATM   17  C10 UNL     1      -1.034  -2.493   0.797  1.00  0.00     0.279 C 
HETATM   18  C11 UNL     1      -2.077  -2.149  -0.247  1.00  0.00     0.073 C 
HETATM   19  C12 UNL     1      -2.224  -0.659  -0.013  1.00  0.00     0.124 C 
HETATM   20  C13 UNL     1      -2.874   0.040  -1.150  1.00  0.00     0.043 C 
HETATM   21  O3  UNL     1      -2.862  -0.497   1.206  1.00  0.00    -0.228 OA
HETATM   22  C17 UNL     1      -0.774  -0.262   0.185  1.00  0.00     0.317 C 
HETATM   23  C14 UNL     1      -3.861   1.083  -0.790  1.00  0.00     0.005 C 
HETATM   24  C15 UNL     1      -4.636   0.841   0.453  1.00  0.00     0.029 C 
HETATM   25  C16 UNL     1      -3.822   1.423   1.616  1.00  0.00     0.210 C 
HETATM   26  O2  UNL     1      -2.643   0.679   1.751  1.00  0.00    -0.240 OA
ENDBRANCH   1  16
TORSDOF 3
