REMARK  4 active torsions:
REMARK  status: ('A' for Active; 'I' for Inactive)
REMARK    1  A    between atoms: C2_2  and  C3_3 
REMARK    2  A    between atoms: C3_3  and  C4_4 
REMARK    3  A    between atoms: C5_5  and  C6_6 
REMARK    4  A    between atoms: C14_20  and  C15_21 
ROOT
HETATM    1  C4  UNL     1      -0.486   0.125   0.608  1.00  0.00     0.005 C 
HETATM    2  C5  UNL     1      -1.610   0.168  -0.312  1.00  0.00     0.000 C 
HETATM    3  C10 UNL     1      -0.946   0.562  -1.625  1.00  0.00     0.039 C 
HETATM    4  C11 UNL     1       0.566   0.480  -1.394  1.00  0.00     0.064 C 
HETATM    5  C12 UNL     1       1.283   0.051  -2.615  1.00  0.00     0.210 C 
HETATM    6  O1  UNL     1       1.815   1.274  -3.146  1.00  0.00    -0.320 OA
HETATM    7  C13 UNL     1       1.971   2.182  -2.125  1.00  0.00     0.213 C 
HETATM    8  N1  UNL     1       2.803   3.161  -2.040  1.00  0.00    -0.365 N 
ATOM      9  H11 UNL     1       2.919   3.834  -1.283  1.00  0.00     0.159 HD
ATOM     10  H12 UNL     1       3.497   3.418  -2.742  1.00  0.00     0.159 HD
HETATM   11  N2  UNL     1       0.987   1.817  -1.130  1.00  0.00    -0.344 N 
ATOM     12  H2  UNL     1       0.652   2.412  -0.372  1.00  0.00     0.164 HD
HETATM   13  C14 UNL     1       0.635  -0.475  -0.203  1.00  0.00     0.057 C 
ENDROOT
BRANCH  13  14
HETATM   14  C15 UNL     1       1.967  -0.406   0.440  1.00  0.00    -0.009 A 
HETATM   15  C16 UNL     1       2.351   0.647   1.236  1.00  0.00     0.011 A 
HETATM   16  C17 UNL     1       3.644   0.740   1.757  1.00  0.00     0.004 A 
HETATM   17  C18 UNL     1       4.562  -0.243   1.470  1.00  0.00     0.045 A 
HETATM   18  C19 UNL     1       4.216  -1.323   0.671  1.00  0.00     0.155 A 
HETATM   19  F1  UNL     1       5.138  -2.276   0.398  1.00  0.00    -0.203 F 
HETATM   20  C20 UNL     1       2.923  -1.387   0.171  1.00  0.00     0.161 A 
HETATM   21  F2  UNL     1       2.621  -2.493  -0.552  1.00  0.00    -0.202 F 
ENDBRANCH  13  14
BRANCH   2  22
HETATM   22  C6  UNL     1      -2.517  -0.933  -0.590  1.00  0.00    -0.047 C 
HETATM   23  C7  UNL     1      -3.508  -0.374  -1.657  1.00  0.00     0.015 C 
HETATM   24  C8  UNL     1      -2.021  -2.196  -1.173  1.00  0.00     0.015 C 
HETATM   25  C9  UNL     1      -3.476  -1.200   0.587  1.00  0.00     0.015 C 
ENDBRANCH   2  22
BRANCH   1  26
HETATM   26  C3  UNL     1      -0.598  -0.249   2.012  1.00  0.00     0.032 C 
BRANCH  26  27
HETATM   27  C2  UNL     1      -1.443   0.658   2.836  1.00  0.00    -0.037 C 
HETATM   28  C1  UNL     1      -0.862   1.302   3.852  1.00  0.00     0.007 C 
ENDBRANCH  26  27
ENDBRANCH   1  26
TORSDOF 4
