REMARK  5 active torsions:
REMARK  status: ('A' for Active; 'I' for Inactive)
REMARK    1  A    between atoms: O1_1  and  C1_3 
REMARK    2  A    between atoms: C1_3  and  N1_4 
REMARK    3  A    between atoms: C1_3  and  C7_14 
REMARK    4  A    between atoms: N1_4  and  N2_5 
REMARK       I    between atoms: N2_5  and  C2_7 
REMARK    5  A    between atoms: C2_7  and  C3_9 
ROOT
HETATM    1  N1  UNL     1      -0.712   0.716  -0.378  1.00  0.00    -0.296 NA
ENDROOT
BRANCH   1   2
HETATM    2  C1  UNL     1      -1.972   1.186  -0.289  1.00  0.00     0.250 C 
BRANCH   2   3
HETATM    3  O1  UNL     1      -2.254   2.466  -0.464  1.00  0.00    -0.333 OA
ATOM      4  H1  UNL     1      -3.142   2.797  -0.401  1.00  0.00     0.220 HD
ENDBRANCH   2   3
BRANCH   2   5
HETATM    5  C7  UNL     1      -3.174   0.410   0.015  1.00  0.00     0.055 A 
HETATM    6  C8  UNL     1      -3.663  -0.780  -0.424  1.00  0.00     0.043 A 
HETATM    7  C9  UNL     1      -4.872  -1.064   0.176  1.00  0.00     0.142 A 
HETATM    8  O3  UNL     1      -5.094  -0.045   0.977  1.00  0.00    -0.334 OA
HETATM    9  C10 UNL     1      -4.158   0.835   0.933  1.00  0.00     0.158 A 
ENDBRANCH   2   5
ENDBRANCH   1   2
BRANCH   1  10
HETATM   10  N2  UNL     1       0.551   0.247  -0.467  1.00  0.00    -0.196 N 
HETATM   11  C2  UNL     1       1.403   0.279   0.712  1.00  0.00     0.287 C 
HETATM   12  O2  UNL     1       0.972   0.664   1.798  1.00  0.00    -0.264 OA
ATOM     13  H2  UNL     1       0.903  -0.125  -1.349  1.00  0.00     0.205 HD
BRANCH  11  14
HETATM   14  C3  UNL     1       2.792  -0.162   0.492  1.00  0.00     0.075 A 
HETATM   15  C4  UNL     1       3.422  -0.532  -0.660  1.00  0.00     0.025 A 
HETATM   16  C5  UNL     1       4.728  -0.826  -0.590  1.00  0.00     0.009 A 
HETATM   17  C6  UNL     1       5.347  -0.744   0.610  1.00  0.00     0.050 A 
HETATM   18  S1  UNL     1       4.089  -0.252   1.632  1.00  0.00    -0.097 SA
ENDBRANCH  11  14
ENDBRANCH   1  10
TORSDOF 5
