REMARK  5 active torsions:
REMARK  status: ('A' for Active; 'I' for Inactive)
REMARK    1  A    between atoms: O1_2  and  C2_3 
REMARK    2  A    between atoms: C2_3  and  C3_5 
REMARK    3  A    between atoms: C8_10  and  N1_11 
REMARK    4  A    between atoms: N1_11  and  C9_13 
REMARK    5  A    between atoms: C9_13  and  N2_15 
REMARK       I    between atoms: N2_15  and  C10_17 
ROOT
HETATM    1  C3  UNL     1       1.748   0.789   0.167  1.00  0.00     0.066 A 
HETATM    2  C4  UNL     1       2.695   1.831   0.274  1.00  0.00     0.020 A 
HETATM    3  C5  UNL     1       2.349   3.152   0.299  1.00  0.00     0.001 A 
HETATM    4  C6  UNL     1       1.032   3.470   0.217  1.00  0.00     0.002 A 
HETATM    5  C7  UNL     1       0.057   2.497   0.112  1.00  0.00     0.030 A 
HETATM    6  C8  UNL     1       0.428   1.148   0.088  1.00  0.00     0.050 A 
ENDROOT
BRANCH   6   7
HETATM    7  N1  UNL     1      -0.583   0.176   0.094  1.00  0.00    -0.332 N 
ATOM      8  H1  UNL     1      -0.298  -0.723   0.481  1.00  0.00     0.168 HD
BRANCH   7   9
HETATM    9  C9  UNL     1      -1.916   0.221  -0.338  1.00  0.00     0.178 C 
HETATM   10  S1  UNL     1      -2.665   1.455  -1.060  1.00  0.00    -0.040 SA
BRANCH   9  11
HETATM   11  N2  UNL     1      -2.710  -0.964  -0.167  1.00  0.00    -0.304 N 
HETATM   12  C10 UNL     1      -4.038  -1.033  -0.600  1.00  0.00     0.219 C 
HETATM   13  C11 UNL     1      -4.827  -2.300  -0.396  1.00  0.00     0.117 C 
HETATM   14  O3  UNL     1      -4.671  -0.099  -1.169  1.00  0.00    -0.274 OA
ATOM     15  H2  UNL     1      -2.293  -1.779   0.283  1.00  0.00     0.171 HD
ENDBRANCH   9  11
ENDBRANCH   7   9
ENDBRANCH   6   7
BRANCH   1  16
HETATM   16  C2  UNL     1       2.260  -0.568   0.077  1.00  0.00     0.295 C 
HETATM   17  O2  UNL     1       1.532  -1.545  -0.099  1.00  0.00    -0.259 OA
BRANCH  16  18
HETATM   18  O1  UNL     1       3.635  -0.818   0.192  1.00  0.00    -0.322 OA
HETATM   19  C1  UNL     1       4.069  -2.157   0.097  1.00  0.00     0.213 C 
ENDBRANCH  16  18
ENDBRANCH   1  16
TORSDOF 5
