REMARK  3 active torsions:
REMARK  status: ('A' for Active; 'I' for Inactive)
REMARK       I    between atoms: C1_2  and  N1_3 
REMARK    1  A    between atoms: C1_2  and  C7_14 
REMARK    2  A    between atoms: N1_3  and  N2_5 
REMARK       I    between atoms: N2_5  and  C2_7 
REMARK    3  A    between atoms: C2_7  and  C3_9 
ROOT
HETATM    1  O1  UNL     1      -0.491   0.974  -1.187  1.00  0.00    -0.266 OA
HETATM    2  C1  UNL     1      -1.144   0.262  -0.374  1.00  0.00     0.271 C 
HETATM    3  N1  UNL     1      -0.469  -0.650   0.494  1.00  0.00    -0.263 N 
ATOM      4  H1  UNL     1      -0.990  -1.231   1.151  1.00  0.00     0.190 HD
ENDROOT
BRANCH   3   5
HETATM    5  N2  UNL     1       0.937  -0.726   0.418  1.00  0.00    -0.263 N 
HETATM    6  C2  UNL     1       1.773   0.191   1.101  1.00  0.00     0.277 C 
HETATM    7  O2  UNL     1       1.286   1.107   1.802  1.00  0.00    -0.265 OA
ATOM      8  H2  UNL     1       1.364  -1.462  -0.145  1.00  0.00     0.190 HD
BRANCH   6   9
HETATM    9  C3  UNL     1       3.228   0.049   0.972  1.00  0.00     0.074 A 
HETATM   10  C4  UNL     1       3.948  -0.870   0.260  1.00  0.00     0.025 A 
HETATM   11  C5  UNL     1       5.281  -0.782   0.306  1.00  0.00     0.009 A 
HETATM   12  C6  UNL     1       5.819   0.224   1.065  1.00  0.00     0.050 A 
HETATM   13  S1  UNL     1       4.441   1.011   1.687  1.00  0.00    -0.097 SA
ENDBRANCH   6   9
ENDBRANCH   3   5
BRANCH   2  14
HETATM   14  C7  UNL     1      -2.590   0.393  -0.343  1.00  0.00     0.049 A 
HETATM   15  C8  UNL     1      -3.347  -0.084   0.695  1.00  0.00     0.020 A 
HETATM   16  C9  UNL     1      -4.729   0.073   0.658  1.00  0.00     0.018 A 
HETATM   17  C10 UNL     1      -5.333   0.699  -0.405  1.00  0.00     0.087 A 
HETATM   18  N3  UNL     1      -4.574   1.162  -1.418  1.00  0.00    -0.374 N 
HETATM   19  C11 UNL     1      -3.255   1.010  -1.378  1.00  0.00     0.104 A 
ATOM     20  H3  UNL     1      -5.011   1.628  -2.213  1.00  0.00     0.164 HD
ENDBRANCH   2  14
TORSDOF 3
