REMARK  1 active torsions:
REMARK  status: ('A' for Active; 'I' for Inactive)
REMARK    1  A    between atoms: C2_2  and  C3_4 
ROOT
HETATM    1  C3  UNL     1       2.002  -0.302   0.263  1.00  0.00     0.085 C 
HETATM    2  C4  UNL     1       0.766   0.059   0.068  1.00  0.00     0.094 C 
HETATM    3  O2  UNL     1       0.443   1.409   0.090  1.00  0.00    -0.278 OA
HETATM    4  C5  UNL     1      -0.859   1.717  -0.278  1.00  0.00     0.298 C 
HETATM    5  O3  UNL     1      -1.173   2.801  -0.855  1.00  0.00    -0.261 OA
HETATM    6  C6  UNL     1      -1.915   0.757   0.009  1.00  0.00     0.143 C 
HETATM    7  C7  UNL     1      -2.950   0.868  -1.119  1.00  0.00     0.057 C 
HETATM    8  C8  UNL     1      -2.616   1.202   1.280  1.00  0.00     0.057 C 
HETATM    9  O4  UNL     1      -1.552  -0.534   0.174  1.00  0.00    -0.354 OA
HETATM   10  C9  UNL     1      -0.297  -0.920  -0.173  1.00  0.00     0.104 C 
HETATM   11  C10 UNL     1       0.026  -2.159   0.654  1.00  0.00     0.053 C 
HETATM   12  C11 UNL     1      -0.342  -1.385  -1.620  1.00  0.00     0.053 C 
ENDROOT
BRANCH   1  13
HETATM   13  C2  UNL     1       3.095   0.630   0.506  1.00  0.00     0.147 C 
HETATM   14  C1  UNL     1       4.484   0.235   0.725  1.00  0.00     0.096 C 
HETATM   15  O1  UNL     1       2.842   1.884   0.534  1.00  0.00    -0.294 OA
ENDBRANCH   1  13
TORSDOF 1
