REMARK  3 active torsions:
REMARK  status: ('A' for Active; 'I' for Inactive)
REMARK    1  A    between atoms: O1_2  and  C2_3 
REMARK    2  A    between atoms: C2_3  and  O2_4 
REMARK    3  A    between atoms: C2_3  and  C3_6 
ROOT
HETATM    1  C3  UNL     1      -0.771   0.561  -0.130  1.00  0.00     0.037 A 
HETATM    2  C4  UNL     1      -0.968   1.968  -0.142  1.00  0.00     0.017 A 
HETATM    3  C5  UNL     1       0.005   2.851   0.225  1.00  0.00     0.002 A 
HETATM    4  C6  UNL     1       1.224   2.379   0.624  1.00  0.00     0.016 A 
HETATM    5  C7  UNL     1       1.489   1.018   0.663  1.00  0.00     0.029 A 
HETATM    6  C8  UNL     1       0.467   0.136   0.280  1.00  0.00     0.043 A 
HETATM    7  C9  UNL     1       0.815  -1.283   0.380  1.00  0.00     0.184 A 
HETATM    8  O3  UNL     1      -0.051  -2.127   0.063  1.00  0.00    -0.288 OA
HETATM    9  C10 UNL     1       2.132  -1.755   0.839  1.00  0.00     0.059 A 
HETATM   10  C11 UNL     1       3.044  -0.878   1.179  1.00  0.00     0.059 A 
HETATM   11  C12 UNL     1       2.802   0.554   1.121  1.00  0.00     0.183 A 
HETATM   12  O4  UNL     1       3.658   1.400   1.441  1.00  0.00    -0.288 OA
ENDROOT
BRANCH   1  13
HETATM   13  C2  UNL     1      -1.835  -0.249  -0.631  1.00  0.00     0.189 C 
BRANCH  13  14
HETATM   14  O1  UNL     1      -1.907  -1.384  -1.362  1.00  0.00    -0.335 OA
HETATM   15  C1  UNL     1      -3.112  -2.018  -1.767  1.00  0.00     0.212 C 
ENDBRANCH  13  14
BRANCH  13  16
HETATM   16  O2  UNL     1      -3.023   0.219  -0.320  1.00  0.00    -0.340 OA
ATOM     17  H2  UNL     1      -2.972   1.017   0.194  1.00  0.00     0.220 HD
ENDBRANCH  13  16
ENDBRANCH   1  13
TORSDOF 3
