REMARK  3 active torsions:
REMARK  status: ('A' for Active; 'I' for Inactive)
REMARK    1  A    between atoms: O1_1  and  N1_3 
REMARK    2  A    between atoms: C1_4  and  O2_5 
REMARK    3  A    between atoms: C2_7  and  C3_8 
ROOT
HETATM    1  N1  UNL     1       1.970   1.501   0.255  1.00  0.00    -0.202 N 
HETATM    2  C1  UNL     1       0.561   1.229   0.208  1.00  0.00     0.200 C 
HETATM    3  C2  UNL     1       0.056   0.023   0.012  1.00  0.00     0.135 C 
HETATM    4  O3  UNL     1       0.737  -1.194  -0.185  1.00  0.00    -0.311 OA
HETATM    5  C9  UNL     1       2.079  -1.426   0.183  1.00  0.00     0.293 C 
HETATM    6  C10 UNL     1       3.062  -1.142  -0.905  1.00  0.00     0.034 C 
HETATM    7  C11 UNL     1       3.635   0.030  -0.657  1.00  0.00     0.029 C 
HETATM    8  C12 UNL     1       3.038   0.546   0.599  1.00  0.00     0.279 C 
HETATM    9  O4  UNL     1       2.512  -0.575   1.203  1.00  0.00    -0.328 OA
ENDROOT
BRANCH   3  10
HETATM   10  C3  UNL     1      -1.407  -0.016   0.005  1.00  0.00     0.002 A 
HETATM   11  C4  UNL     1      -2.084  -0.959   0.777  1.00  0.00     0.014 A 
HETATM   12  C5  UNL     1      -3.455  -1.048   0.800  1.00  0.00     0.001 A 
HETATM   13  C6  UNL     1      -4.225  -0.189   0.044  1.00  0.00     0.000 A 
HETATM   14  C7  UNL     1      -3.576   0.750  -0.727  1.00  0.00     0.001 A 
HETATM   15  C8  UNL     1      -2.182   0.835  -0.745  1.00  0.00     0.014 A 
ENDBRANCH   3  10
BRANCH   2  16
HETATM   16  O2  UNL     1      -0.248   2.319   0.383  1.00  0.00    -0.343 OA
ATOM     17  H2  UNL     1      -1.180   2.139   0.352  1.00  0.00     0.219 HD
ENDBRANCH   2  16
BRANCH   1  18
HETATM   18  O1  UNL     1       2.369   2.647  -0.014  1.00  0.00    -0.283 OA
ATOM     19  H1  UNL     1       3.301   2.827   0.017  1.00  0.00     0.245 HD
ENDBRANCH   1  18
TORSDOF 3
