REMARK  2 active torsions:
REMARK  status: ('A' for Active; 'I' for Inactive)
REMARK    1  A    between atoms: C3_3  and  N1_4 
REMARK    2  A    between atoms: N1_4  and  C4_6 
ROOT
HETATM    1  C1  UNL     1       4.314   1.149  -0.450  1.00  0.00     0.014 C 
HETATM    2  C2  UNL     1       3.887   0.012  -0.381  1.00  0.00    -0.098 C 
HETATM    3  C3  UNL     1       3.417  -1.352  -0.302  1.00  0.00     0.210 C 
ENDROOT
BRANCH   3   4
HETATM    4  N1  UNL     1       2.047  -1.471  -0.627  1.00  0.00    -0.385 N 
ATOM      5  H1  UNL     1       1.759  -1.935  -1.489  1.00  0.00     0.156 HD
BRANCH   4   6
HETATM    6  C4  UNL     1       1.081  -0.940   0.256  1.00  0.00     0.244 C 
HETATM    7  C5  UNL     1       1.070   0.536   0.464  1.00  0.00     0.225 C 
HETATM    8  O1  UNL     1      -0.253   0.791   0.869  1.00  0.00    -0.351 OA
HETATM    9  C6  UNL     1      -0.987  -0.085   0.111  1.00  0.00     0.170 C 
HETATM   10  C7  UNL     1      -2.166  -0.667   0.897  1.00  0.00     0.095 C 
HETATM   11  C10 UNL     1      -1.573   0.648  -1.064  1.00  0.00     0.095 C 
HETATM   12  O3  UNL     1      -0.195  -1.157  -0.265  1.00  0.00    -0.329 OA
HETATM   13  C8  UNL     1      -3.466  -0.003   0.484  1.00  0.00     0.173 C 
HETATM   14  O2  UNL     1      -3.350   1.383   0.407  1.00  0.00    -0.391 OA
HETATM   15  C9  UNL     1      -2.415   1.787  -0.526  1.00  0.00     0.173 C 
ENDBRANCH   4   6
ENDBRANCH   3   4
TORSDOF 2
