REMARK  5 active torsions:
REMARK  status: ('A' for Active; 'I' for Inactive)
REMARK    1  A    between atoms: O1_2  and  C2_3 
REMARK    2  A    between atoms: C2_3  and  C3_4 
REMARK    3  A    between atoms: C2_3  and  N1_11 
REMARK    4  A    between atoms: C4_5  and  C5_6 
REMARK    5  A    between atoms: C5_6  and  O2_9 
ROOT
HETATM    1  C2  UNL     1      -0.990  -0.752   0.052  1.00  0.00     0.443 C 
ENDROOT
BRANCH   1   2
HETATM    2  O1  UNL     1      -1.071  -1.761  -0.882  1.00  0.00    -0.353 OA
HETATM    3  C1  UNL     1      -1.654  -2.910  -0.310  1.00  0.00     0.205 C 
ENDBRANCH   1   2
BRANCH   1   4
HETATM    4  C3  UNL     1       0.446  -0.429   0.208  1.00  0.00    -0.040 C 
HETATM    5  C4  UNL     1       1.611  -0.146   0.334  1.00  0.00    -0.065 C 
BRANCH   5   6
HETATM    6  C5  UNL     1       3.022   0.214   0.501  1.00  0.00     0.114 C 
HETATM    7  C6  UNL     1       3.290   1.622   0.018  1.00  0.00     0.060 C 
HETATM    8  C7  UNL     1       3.833  -0.811  -0.224  1.00  0.00     0.060 C 
BRANCH   6   9
HETATM    9  O2  UNL     1       3.394   0.165   1.854  1.00  0.00    -0.378 OA
ATOM     10  H2  UNL     1       4.309   0.398   1.962  1.00  0.00     0.211 HD
ENDBRANCH   6   9
ENDBRANCH   5   6
ENDBRANCH   1   4
BRANCH   1  11
HETATM   11  N1  UNL     1      -1.649   0.463  -0.364  1.00  0.00     0.154 N 
HETATM   12  C8  UNL     1      -3.059   0.310  -0.559  1.00  0.00     0.306 C 
HETATM   13  C9  UNL     1      -3.564   1.728  -0.264  1.00  0.00     0.200 C 
HETATM   14  O3  UNL     1      -2.493   2.391   0.313  1.00  0.00    -0.361 OA
HETATM   15  C10 UNL     1      -1.569   1.425   0.699  1.00  0.00     0.445 C 
ENDBRANCH   1  11
TORSDOF 5
