REMARK  3 active torsions:
REMARK  status: ('A' for Active; 'I' for Inactive)
REMARK    1  A    between atoms: N3_6  and  C4_7 
REMARK    2  A    between atoms: C4_7  and  C5_8 
REMARK    3  A    between atoms: C5_8  and  O1_9 
ROOT
HETATM    1  N1  UNL     1      -4.046   2.485  -0.119  1.00  0.00    -0.172 NA
HETATM    2  C1  UNL     1      -2.988   1.986  -0.057  1.00  0.00     0.180 C 
HETATM    3  N2  UNL     1      -1.722   1.398  -0.002  1.00  0.00    -0.312 N 
HETATM    4  C2  UNL     1      -0.557   2.153  -0.399  1.00  0.00     0.165 C 
HETATM    5  C3  UNL     1       0.711   1.693   0.198  1.00  0.00     0.293 C 
HETATM    6  N3  UNL     1       0.815   0.291   0.465  1.00  0.00     0.098 N 
HETATM    7  C6  UNL     1      -0.235  -0.463  -0.134  1.00  0.00     0.246 C 
HETATM    8  C7  UNL     1      -0.339  -1.892   0.302  1.00  0.00     0.038 C 
HETATM    9  C8  UNL     1      -1.836  -2.220   0.310  1.00  0.00     0.004 C 
HETATM   10  C9  UNL     1      -2.471  -0.951  -0.247  1.00  0.00     0.028 C 
HETATM   11  C10 UNL     1      -1.561   0.067   0.441  1.00  0.00     0.128 C 
ENDROOT
BRANCH   6  12
HETATM   12  C4  UNL     1       2.073  -0.276  -0.003  1.00  0.00     0.299 C 
BRANCH  12  13
HETATM   13  C5  UNL     1       3.262   0.213   0.780  1.00  0.00     0.194 C 
BRANCH  13  14
HETATM   14  O1  UNL     1       4.398  -0.381   0.261  1.00  0.00    -0.399 OA
ATOM     15  H1  UNL     1       5.148  -0.072   0.755  1.00  0.00     0.209 HD
ENDBRANCH  13  14
ENDBRANCH  12  13
ENDBRANCH   6  12
TORSDOF 3
