REMARK  9 active torsions:
REMARK  status: ('A' for Active; 'I' for Inactive)
REMARK    1  A    between atoms: C2_2  and  C3_3 
REMARK    2  A    between atoms: C4_4  and  C5_5 
REMARK    3  A    between atoms: C5_5  and  N1_8 
REMARK       I    between atoms: N1_8  and  C8_10 
REMARK    4  A    between atoms: C8_10  and  C9_12 
REMARK    5  A    between atoms: C9_12  and  N2_13 
REMARK    6  A    between atoms: C9_12  and  C18_30 
REMARK       I    between atoms: N2_13  and  C10_15 
REMARK    7  A    between atoms: C10_15  and  C11_17 
REMARK    8  A    between atoms: C11_17  and  N3_19 
REMARK    9  A    between atoms: N3_19  and  C13_21 
ROOT
HETATM    1  C9  UNL     1      -0.339   1.331   0.276  1.00  0.00     0.084 C 
ENDROOT
BRANCH   1   2
HETATM    2  C8  UNL     1      -1.541   0.679   0.789  1.00  0.00     0.265 C 
HETATM    3  N1  UNL     1      -2.858   1.047   0.501  1.00  0.00    -0.337 N 
ATOM      4  H1  UNL     1      -3.027   1.834  -0.126  1.00  0.00     0.164 HD
HETATM    5  O1  UNL     1      -1.345  -0.320   1.567  1.00  0.00    -0.266 OA
BRANCH   3   6
HETATM    6  C5  UNL     1      -4.003   0.333   1.075  1.00  0.00     0.089 C 
HETATM    7  C6  UNL     1      -5.323   0.903   0.607  1.00  0.00     0.053 C 
HETATM    8  C7  UNL     1      -3.995   0.418   2.594  1.00  0.00     0.053 C 
BRANCH   6   9
HETATM    9  C4  UNL     1      -3.882  -1.054   0.625  1.00  0.00    -0.076 C 
HETATM   10  C3  UNL     1      -3.794  -2.192   0.237  1.00  0.00    -0.104 C 
BRANCH  10  11
HETATM   11  C2  UNL     1      -3.709  -3.591  -0.249  1.00  0.00     0.089 C 
HETATM   12  C1  UNL     1      -5.096  -4.238  -0.193  1.00  0.00     0.018 C 
ENDBRANCH  10  11
ENDBRANCH   6   9
ENDBRANCH   3   6
ENDBRANCH   1   2
BRANCH   1  13
HETATM   13  N2  UNL     1       0.681   0.431  -0.212  1.00  0.00    -0.324 N 
HETATM   14  C10 UNL     1       1.926   0.186   0.389  1.00  0.00     0.244 C 
HETATM   15  O2  UNL     1       2.242   0.767   1.443  1.00  0.00    -0.271 OA
ATOM     16  H2  UNL     1       0.477  -0.074  -1.075  1.00  0.00     0.169 HD
BRANCH  14  17
HETATM   17  C11 UNL     1       2.873  -0.767  -0.226  1.00  0.00     0.171 C 
HETATM   18  C12 UNL     1       3.198  -0.373  -1.653  1.00  0.00     0.042 C 
BRANCH  17  19
HETATM   19  N3  UNL     1       4.087  -0.869   0.553  1.00  0.00    -0.362 N 
ATOM     20  H3  UNL     1       4.336  -0.137   1.218  1.00  0.00     0.162 HD
BRANCH  19  21
HETATM   21  C13 UNL     1       4.848  -1.891   0.399  1.00  0.00     0.123 A 
HETATM   22  N4  UNL     1       4.609  -2.905  -0.449  1.00  0.00    -0.350 N 
HETATM   23  C14 UNL     1       5.428  -3.961  -0.584  1.00  0.00     0.113 A 
ATOM     24  H4  UNL     1       3.764  -2.871  -1.019  1.00  0.00     0.166 HD
HETATM   25  C15 UNL     1       6.593  -4.067   0.158  1.00  0.00     0.051 A 
HETATM   26 CL1  UNL     1       7.638  -5.460  -0.046  1.00  0.00    -0.083 Cl
HETATM   27  C16 UNL     1       6.874  -3.046   1.040  1.00  0.00     0.053 A 
HETATM   28  C17 UNL     1       6.021  -1.986   1.154  1.00  0.00     0.079 A 
HETATM   29 CL2  UNL     1       6.430  -0.720   2.290  1.00  0.00    -0.080 Cl
ENDBRANCH  19  21
ENDBRANCH  17  19
ENDBRANCH  14  17
ENDBRANCH   1  13
BRANCH   1  30
HETATM   30  C18 UNL     1      -0.507   2.518  -0.588  1.00  0.00     0.045 C 
HETATM   31  C19 UNL     1       0.924   2.928  -1.051  1.00  0.00     0.037 C 
HETATM   32  C20 UNL     1       0.750   4.223  -1.847  1.00  0.00     0.168 C 
HETATM   33  O3  UNL     1       0.301   5.227  -1.023  1.00  0.00    -0.391 OA
HETATM   34  C21 UNL     1      -0.972   4.973  -0.507  1.00  0.00     0.168 C 
HETATM   35  C22 UNL     1      -0.995   3.680   0.282  1.00  0.00     0.037 C 
ENDBRANCH   1  30
TORSDOF 9
