REMARK  5 active torsions:
REMARK  status: ('A' for Active; 'I' for Inactive)
REMARK    1  A    between atoms: C12_16  and  N3_17 
REMARK    2  A    between atoms: N3_17  and  C13_19 
REMARK    3  A    between atoms: C13_19  and  C14_20 
REMARK    4  A    between atoms: C14_20  and  C15_21 
REMARK    5  A    between atoms: C15_21  and  O1_22 
ROOT
HETATM    1  C1  UNL     1      -4.028   3.156  -0.141  1.00  0.00     0.052 C 
HETATM    2  C2  UNL     1      -3.872   1.665  -0.066  1.00  0.00    -0.013 A 
HETATM    3  C3  UNL     1      -4.949   0.814  -0.069  1.00  0.00     0.042 A 
HETATM    4 CL1  UNL     1      -6.572   1.508  -0.163  1.00  0.00    -0.084 Cl
HETATM    5  C4  UNL     1      -4.765  -0.549   0.001  1.00  0.00     0.032 A 
HETATM    6  C5  UNL     1      -3.480  -1.100   0.076  1.00  0.00    -0.047 A 
HETATM    7  C6  UNL     1      -3.321  -2.558   0.149  1.00  0.00     0.049 C 
HETATM    8  C7  UNL     1      -2.415  -0.230   0.077  1.00  0.00     0.011 A 
HETATM    9  C8  UNL     1      -2.586   1.143   0.007  1.00  0.00     0.052 A 
HETATM   10  N1  UNL     1      -1.377   1.726   0.027  1.00  0.00    -0.353 N 
ATOM     11  H1  UNL     1      -1.200   2.730  -0.012  1.00  0.00     0.166 HD
HETATM   12  C9  UNL     1      -0.447   0.776   0.106  1.00  0.00     0.070 A 
HETATM   13  C10 UNL     1       0.941   0.779   0.159  1.00  0.00     0.115 A 
HETATM   14  C11 UNL     1       1.563   2.082   0.124  1.00  0.00     0.105 C 
HETATM   15  N2  UNL     1       2.052   3.140   0.094  1.00  0.00    -0.191 NA
HETATM   16  C12 UNL     1       1.703  -0.362   0.241  1.00  0.00     0.124 A 
HETATM   17  N4  UNL     1       1.048  -1.534   0.270  1.00  0.00    -0.350 N 
ATOM     18  H4  UNL     1       1.590  -2.396   0.331  1.00  0.00     0.166 HD
HETATM   19  C16 UNL     1      -0.307  -1.620   0.221  1.00  0.00     0.104 A 
HETATM   20  C17 UNL     1      -1.057  -0.480   0.140  1.00  0.00     0.021 A 
ENDROOT
BRANCH  16  21
HETATM   21  N3  UNL     1       2.987  -0.285   0.286  1.00  0.00    -0.375 N 
ATOM     22  H3  UNL     1       3.406   0.645   0.258  1.00  0.00     0.161 HD
BRANCH  21  23
HETATM   23  C13 UNL     1       3.869  -1.405   0.372  1.00  0.00     0.123 C 
BRANCH  23  24
HETATM   24  C14 UNL     1       5.262  -1.019   0.817  1.00  0.00     0.045 C 
BRANCH  24  25
HETATM   25  C15 UNL     1       5.867  -0.027  -0.178  1.00  0.00     0.165 C 
BRANCH  25  26
HETATM   26  O1  UNL     1       5.062   1.110  -0.231  1.00  0.00    -0.401 OA
ATOM     27  H1  UNL     1       5.438   1.726  -0.849  1.00  0.00     0.209 HD
ENDBRANCH  25  26
ENDBRANCH  24  25
ENDBRANCH  23  24
ENDBRANCH  21  23
ENDBRANCH  16  21
TORSDOF 5
