REMARK  5 active torsions:
REMARK  status: ('A' for Active; 'I' for Inactive)
REMARK    1  A    between atoms: C2_2  and  C3_3 
REMARK    2  A    between atoms: C3_3  and  N1_4 
REMARK    3  A    between atoms: N1_4  and  C4_6 
REMARK    4  A    between atoms: C7_13  and  C8_14 
REMARK    5  A    between atoms: C11_19  and  N5_20 
ROOT
HETATM    1  C4  UNL     1       1.207  -0.663   0.216  1.00  0.00     0.116 A 
HETATM    2  N2  UNL     1       1.382  -0.541   1.541  1.00  0.00    -0.338 N 
ATOM      3  H2  UNL     1       2.326  -0.664   1.907  1.00  0.00     0.168 HD
HETATM    4  C5  UNL     1       0.400  -0.267   2.424  1.00  0.00     0.182 A 
HETATM    5  N3  UNL     1      -0.850  -0.098   1.987  1.00  0.00    -0.350 N 
ATOM      6  H3  UNL     1      -1.603   0.112   2.643  1.00  0.00     0.166 HD
HETATM    7  C6  UNL     1      -1.105  -0.208   0.667  1.00  0.00     0.071 A 
HETATM    8  C7  UNL     1      -2.414  -0.045   0.239  1.00  0.00     0.043 A 
HETATM    9  N4  UNL     1      -2.666  -0.171  -1.069  1.00  0.00    -0.343 N 
ATOM     10  H4  UNL     1      -3.624  -0.055  -1.400  1.00  0.00     0.167 HD
HETATM   11  C11 UNL     1      -1.687  -0.449  -1.973  1.00  0.00     0.117 A 
HETATM   12  C12 UNL     1      -0.376  -0.615  -1.586  1.00  0.00     0.070 A 
HETATM   13 BR1  UNL     1       0.990  -1.013  -2.865  1.00  0.00    -0.046 Br
HETATM   14  C13 UNL     1      -0.091  -0.490  -0.234  1.00  0.00     0.058 A 
ENDROOT
BRANCH   1  15
HETATM   15  N1  UNL     1       2.165  -0.911  -0.607  1.00  0.00    -0.376 N 
ATOM     16  H1  UNL     1       1.921  -0.983  -1.595  1.00  0.00     0.161 HD
BRANCH  15  17
HETATM   17  C3  UNL     1       3.529  -1.093  -0.265  1.00  0.00     0.121 C 
BRANCH  17  18
HETATM   18  C2  UNL     1       4.304   0.141   0.082  1.00  0.00     0.015 C 
HETATM   19  C1  UNL     1       4.358   1.167  -1.026  1.00  0.00     0.006 C 
ENDBRANCH  17  18
ENDBRANCH  15  17
ENDBRANCH   1  15
BRANCH   8  20
HETATM   20  C8  UNL     1      -3.494   0.286   1.235  1.00  0.00     0.038 A 
HETATM   21  C9  UNL     1      -4.934   0.195   0.837  1.00  0.00     0.011 A 
HETATM   22  C10 UNL     1      -4.252   1.539   0.962  1.00  0.00     0.011 A 
ENDBRANCH   8  20
BRANCH  11  23
HETATM   23  N5  UNL     1      -1.981  -0.562  -3.216  1.00  0.00    -0.384 N 
ATOM     24  H52 UNL     1      -2.952  -0.439  -3.503  1.00  0.00     0.157 HD
ATOM     25  H51 UNL     1      -1.247  -0.770  -3.893  1.00  0.00     0.157 HD
ENDBRANCH  11  23
TORSDOF 5
