REMARK  5 active torsions:
REMARK  status: ('A' for Active; 'I' for Inactive)
REMARK    1  A    between atoms: C2_2  and  C3_3 
REMARK    2  A    between atoms: C3_3  and  C4_4 
REMARK    3  A    between atoms: C4_4  and  N1_5 
REMARK    4  A    between atoms: N1_5  and  C5_7 
REMARK    5  A    between atoms: C10_17  and  N4_18 
ROOT
HETATM    1  C5  UNL     1      -0.530  -0.430   0.087  1.00  0.00     0.067 A 
HETATM    2  C6  UNL     1      -0.747  -0.934   1.362  1.00  0.00     0.060 A 
HETATM    3 BR1  UNL     1       0.673  -1.740   2.357  1.00  0.00    -0.046 Br
HETATM    4  C7  UNL     1      -2.012  -0.839   1.897  1.00  0.00     0.026 A 
HETATM    5  C8  UNL     1      -2.256  -1.381   3.275  1.00  0.00     0.070 C 
HETATM    6  N2  UNL     1      -3.018  -0.281   1.226  1.00  0.00    -0.344 N 
ATOM      7  H2  UNL     1      -3.940  -0.230   1.658  1.00  0.00     0.167 HD
HETATM    8  C9  UNL     1      -2.840   0.218  -0.015  1.00  0.00     0.136 A 
HETATM    9  N3  UNL     1      -3.914   0.779  -0.654  1.00  0.00    -0.176 N 
ATOM     10  H3  UNL     1      -4.832   0.823  -0.212  1.00  0.00     0.186 HD
HETATM   11  C10 UNL     1      -3.708   1.266  -1.881  1.00  0.00     0.677 A 
HETATM   12  N5  UNL     1      -2.514   1.216  -2.478  1.00  0.00    -0.195 N 
ATOM     13  H5  UNL     1      -2.425   1.605  -3.417  1.00  0.00     0.184 HD
HETATM   14  C11 UNL     1      -1.398   0.666  -1.890  1.00  0.00     0.039 A 
HETATM   15  C12 UNL     1      -0.115   0.641  -2.592  1.00  0.00     0.070 C 
HETATM   16  C13 UNL     1      -1.604   0.162  -0.622  1.00  0.00     0.059 A 
ENDROOT
BRANCH   1  17
HETATM   17  N1  UNL     1       0.553  -0.451  -0.512  1.00  0.00    -0.368 N 
ATOM     18  H1  UNL     1       0.425  -0.017  -1.426  1.00  0.00     0.165 HD
BRANCH  17  19
HETATM   19  C4  UNL     1       1.873  -0.847  -0.397  1.00  0.00     0.061 C 
BRANCH  19  20
HETATM   20  C3  UNL     1       2.830   0.247   0.072  1.00  0.00     0.044 C 
BRANCH  20  21
HETATM   21  C2  UNL     1       4.203  -0.384   0.138  1.00  0.00     0.001 C 
HETATM   22  C1  UNL     1       5.254   0.605   0.595  1.00  0.00     0.005 C 
ENDBRANCH  20  21
ENDBRANCH  19  20
ENDBRANCH  17  19
ENDBRANCH   1  17
BRANCH  11  23
HETATM   23  N4  UNL     1      -4.676   1.806  -2.535  1.00  0.00    -0.234 N 
ATOM     24  H42 UNL     1      -5.588   1.844  -2.079  1.00  0.00     0.174 HD
ATOM     25  H41 UNL     1      -4.519   2.178  -3.472  1.00  0.00     0.174 HD
ENDBRANCH  11  23
TORSDOF 5
