REMARK  5 active torsions:
REMARK  status: ('A' for Active; 'I' for Inactive)
REMARK    1  A    between atoms: C4_4  and  C5_5 
REMARK    2  A    between atoms: C5_5  and  O1_6 
REMARK    3  A    between atoms: C6_8  and  C7_9 
REMARK    4  A    between atoms: C7_9  and  C8_10 
REMARK    5  A    between atoms: C11_15  and  C13_17 
ROOT
HETATM    1  C1  UNL     1      -1.758   2.426  -2.188  1.00  0.00     0.016 C 
HETATM    2  C2  UNL     1      -1.352   1.139  -1.543  1.00  0.00     0.028 C 
HETATM    3  C3  UNL     1       0.139   0.999  -1.350  1.00  0.00     0.023 C 
HETATM    4  C4  UNL     1       0.373   0.593   0.083  1.00  0.00    -0.001 C 
HETATM    5  C6  UNL     1       1.420  -0.425   0.278  1.00  0.00     0.007 C 
HETATM    6  C9  UNL     1       0.917  -1.852   0.114  1.00  0.00     0.007 C 
HETATM    7  C10 UNL     1      -0.487  -1.920  -0.393  1.00  0.00     0.020 C 
HETATM    8  C11 UNL     1      -1.344  -1.172   0.605  1.00  0.00     0.046 C 
HETATM    9  C12 UNL     1      -1.071  -1.859   1.956  1.00  0.00     0.026 C 
HETATM   10  C14 UNL     1      -0.971   0.263   0.692  1.00  0.00     0.020 C 
HETATM   11  C15 UNL     1      -1.137   0.796   2.101  1.00  0.00     0.024 C 
HETATM   12  C16 UNL     1      -1.899   1.057  -0.157  1.00  0.00    -0.006 C 
HETATM   13  N1  UNL     1      -2.990   1.619   0.184  1.00  0.00    -0.405 N 
ATOM     14  H11 UNL     1      -3.364   1.563   1.131  1.00  0.00     0.155 HD
ATOM     15  H12 UNL     1      -3.626   2.163  -0.398  1.00  0.00     0.155 HD
ENDROOT
BRANCH   5  16
HETATM   16  C7  UNL     1       2.601  -0.326  -0.663  1.00  0.00     0.118 C 
BRANCH  16  17
HETATM   17  C8  UNL     1       3.621  -1.386  -0.339  1.00  0.00     0.172 C 
HETATM   18  O2  UNL     1       3.440  -2.092   0.673  1.00  0.00    -0.648 OA
HETATM   19  O3  UNL     1       4.741  -1.604  -1.114  1.00  0.00    -0.648 OA
ENDBRANCH  16  17
ENDBRANCH   5  16
BRANCH   4  20
HETATM   20  C5  UNL     1       0.804   1.873   0.818  1.00  0.00     0.175 C 
BRANCH  20  21
HETATM   21  O1  UNL     1       1.954   2.409   0.263  1.00  0.00    -0.400 OA
ATOM     22  H1  UNL     1       2.220   3.200   0.717  1.00  0.00     0.209 HD
ENDBRANCH  20  21
ENDBRANCH   4  20
BRANCH   8  23
HETATM   23  C13 UNL     1      -2.760  -1.462   0.300  1.00  0.00     0.228 C 
HETATM   24  O4  UNL     1      -3.053  -1.991  -0.758  1.00  0.00    -0.279 OA
HETATM   25 CL1  UNL     1      -4.102  -1.094   1.371  1.00  0.00    -0.043 Cl
ENDBRANCH   8  23
TORSDOF 5
