REMARK  3 active torsions:
REMARK  status: ('A' for Active; 'I' for Inactive)
REMARK    1  A    between atoms: C2_2  and  N1_3 
REMARK    2  A    between atoms: N2_6  and  C5_7 
REMARK    3  A    between atoms: C9_12  and  C10_13 
ROOT
HETATM    1  C5  UNL     1      -0.013  -1.294   0.194  1.00  0.00     0.037 A 
HETATM    2  C6  UNL     1      -0.355  -2.531   0.714  1.00  0.00     0.053 A 
HETATM    3  C7  UNL     1      -1.685  -2.882   0.695  1.00  0.00     0.036 A 
HETATM    4 CL1  UNL     1      -2.106  -4.446   1.360  1.00  0.00    -0.084 Cl
HETATM    5  C8  UNL     1      -2.667  -2.066   0.188  1.00  0.00     0.031 A 
HETATM    6  C9  UNL     1      -2.324  -0.842  -0.329  1.00  0.00    -0.048 A 
HETATM    7  C15 UNL     1      -1.010  -0.453  -0.328  1.00  0.00     0.037 A 
ENDROOT
BRANCH   1   8
HETATM    8  N2  UNL     1       1.325  -0.882   0.209  1.00  0.00    -0.334 N 
HETATM    9  C4  UNL     1       1.913  -0.206   1.378  1.00  0.00     0.161 C 
HETATM   10  C3  UNL     1       2.530   1.035   0.832  1.00  0.00     0.293 C 
HETATM   11  N1  UNL     1       3.568   0.872  -0.144  1.00  0.00     0.096 N 
HETATM   12  C17 UNL     1       3.436  -0.273  -1.011  1.00  0.00     0.348 C 
HETATM   13  C16 UNL     1       2.190  -1.060  -0.872  1.00  0.00     0.106 C 
HETATM   14  N4  UNL     1       1.945  -1.932  -1.789  1.00  0.00    -0.387 N 
ATOM     15  H42 UNL     1       1.086  -2.474  -1.693  1.00  0.00     0.157 HD
ATOM     16  H41 UNL     1       2.577  -2.062  -2.579  1.00  0.00     0.157 HD
BRANCH  11  17
HETATM   17  C2  UNL     1       4.886   0.867   0.507  1.00  0.00     0.268 C 
HETATM   18  C1  UNL     1       5.938   1.083  -0.545  1.00  0.00     0.037 C 
ENDBRANCH  11  17
ENDBRANCH   1   8
BRANCH   6  19
HETATM   19  C10 UNL     1      -3.389   0.018  -0.868  1.00  0.00     0.051 C 
HETATM   20  C11 UNL     1      -4.705  -0.147  -0.116  1.00  0.00     0.044 C 
HETATM   21  C12 UNL     1      -4.955   1.311   0.210  1.00  0.00     0.189 C 
HETATM   22  C13 UNL     1      -4.543   2.045  -1.044  1.00  0.00     0.066 C 
HETATM   23  N3  UNL     1      -3.654   1.755   0.743  1.00  0.00    -0.066 N 
HETATM   24  C14 UNL     1      -3.181   1.496  -0.616  1.00  0.00     0.197 C 
ATOM     25  H32 UNL     1      -3.528   2.654   1.208  1.00  0.00     0.278 HD
ATOM     26  H31 UNL     1      -3.223   1.333   1.565  1.00  0.00     0.278 HD
ENDBRANCH   6  19
TORSDOF 3
