REMARK  1 active torsions:
REMARK  status: ('A' for Active; 'I' for Inactive)
REMARK    1  A    between atoms: C7_9  and  O1_10 
ROOT
HETATM    1  N1  UNL     1      -0.021   3.563   0.256  1.00  0.00    -0.196 NA
HETATM    2  C1  UNL     1      -0.066   2.395   0.175  1.00  0.00     0.075 C 
HETATM    3  C2  UNL     1      -0.102   0.943   0.065  1.00  0.00     0.108 C 
HETATM    4  C3  UNL     1      -0.860   0.514  -1.204  1.00  0.00     0.036 C 
HETATM    5  C4  UNL     1      -1.354  -0.645  -0.389  1.00  0.00     0.005 C 
HETATM    6  C5  UNL     1      -0.430  -1.780  -0.243  1.00  0.00     0.125 C 
HETATM    7  N2  UNL     1       0.951  -1.534  -0.313  1.00  0.00    -0.188 NA
HETATM    8  C6  UNL     1       1.415  -0.900   0.885  1.00  0.00     0.192 C 
HETATM    9  C7  UNL     1       1.209   0.303   0.069  1.00  0.00     0.216 C 
HETATM   10  O2  UNL     1       1.376  -0.536  -1.057  1.00  0.00    -0.260 OA
HETATM   11  C8  UNL     1      -1.190   0.271   0.829  1.00  0.00     0.036 C 
ENDROOT
BRANCH   9  12
HETATM   12  O1  UNL     1       2.263   1.216   0.174  1.00  0.00    -0.362 OA
ATOM     13  H1  UNL     1       3.117   0.799   0.177  1.00  0.00     0.213 HD
ENDBRANCH   9  12
TORSDOF 1
