REMARK  7 active torsions:
REMARK  status: ('A' for Active; 'I' for Inactive)
REMARK    1  A    between atoms: C2_2  and  C4_5 
REMARK    2  A    between atoms: C6_7  and  C7_8 
REMARK    3  A    between atoms: C9_11  and  N1_12 
REMARK    4  A    between atoms: N1_12  and  C10_14 
REMARK    5  A    between atoms: C10_14  and  C11_15 
REMARK    6  A    between atoms: C11_15  and  O1_16 
REMARK    7  A    between atoms: C14_23  and  C16_25 
ROOT
HETATM    1  C7  UNL     1       1.549  -0.808  -0.458  1.00  0.00     0.051 A 
HETATM    2  C8  UNL     1       1.517  -2.179  -0.576  1.00  0.00     0.083 A 
HETATM    3  S1  UNL     1      -0.104  -2.500  -0.951  1.00  0.00    -0.064 SA
HETATM    4  C9  UNL     1      -0.681  -0.868  -0.941  1.00  0.00     0.148 A 
HETATM    5  N3  UNL     1       0.413  -0.181  -0.649  1.00  0.00    -0.335 N 
ATOM      6  H3  UNL     1       0.372   0.835  -0.573  1.00  0.00     0.168 HD
ENDROOT
BRANCH   4   7
HETATM    7  N1  UNL     1      -1.885  -0.469  -1.166  1.00  0.00    -0.347 N 
ATOM      8  H1  UNL     1      -2.522  -1.239  -1.371  1.00  0.00     0.167 HD
BRANCH   7   9
HETATM    9  C10 UNL     1      -2.513   0.764  -1.194  1.00  0.00     0.103 C 
BRANCH   9  10
HETATM   10  C11 UNL     1      -3.407   0.878   0.016  1.00  0.00     0.125 C 
HETATM   11  C12 UNL     1      -4.103   2.231   0.103  1.00  0.00     0.073 C 
HETATM   12  C13 UNL     1      -5.198   1.938   1.109  1.00  0.00     0.236 C 
HETATM   13  N2  UNL     1      -5.323   0.523   1.210  1.00  0.00    -0.062 N 
HETATM   14  C14 UNL     1      -4.551  -0.054   0.088  1.00  0.00     0.170 C 
ATOM     15  H22 UNL     1      -5.043   0.158   2.121  1.00  0.00     0.278 HD
ATOM     16  H21 UNL     1      -6.292   0.206   1.237  1.00  0.00     0.278 HD
HETATM   17  C15 UNL     1      -5.467   0.031  -1.120  1.00  0.00     0.051 C 
BRANCH  10  18
HETATM   18  O1  UNL     1      -2.670   0.760   1.201  1.00  0.00    -0.382 OA
ATOM     19  H1  UNL     1      -3.233   0.832   1.963  1.00  0.00     0.211 HD
ENDBRANCH  10  18
BRANCH  14  20
HETATM   20  C16 UNL     1      -4.246  -1.496   0.356  1.00  0.00     0.156 C 
HETATM   21 CL1  UNL     1      -5.795  -2.417   0.450  1.00  0.00    -0.128 Cl
ENDBRANCH  14  20
ENDBRANCH   9  10
ENDBRANCH   7   9
ENDBRANCH   4   7
BRANCH   1  22
HETATM   22  C6  UNL     1       2.872  -0.128  -0.179  1.00  0.00    -0.001 A 
HETATM   23  C5  UNL     1       3.986  -0.782   0.226  1.00  0.00     0.032 A 
HETATM   24  C4  UNL     1       5.122  -0.053   0.396  1.00  0.00     0.022 A 
HETATM   25  S2  UNL     1       4.638   1.531  -0.005  1.00  0.00    -0.102 SA
HETATM   26  C17 UNL     1       3.010   1.228  -0.378  1.00  0.00     0.064 A 
BRANCH  24  27
HETATM   27  C2  UNL     1       6.482  -0.540   0.851  1.00  0.00     0.129 C 
HETATM   28  C1  UNL     1       7.386   0.678   0.798  1.00  0.00     0.057 C 
HETATM   29  C3  UNL     1       6.917  -1.610  -0.115  1.00  0.00     0.057 C 
HETATM   30  F1  UNL     1       6.341  -1.027   2.121  1.00  0.00    -0.238 F 
ENDBRANCH  24  27
ENDBRANCH   1  22
TORSDOF 7
