REMARK  7 active torsions:
REMARK  status: ('A' for Active; 'I' for Inactive)
REMARK    1  A    between atoms: N1_2  and  C3_4 
REMARK    2  A    between atoms: C5_8  and  C6_9 
REMARK    3  A    between atoms: C10_13  and  C11_14 
REMARK    4  A    between atoms: C11_14  and  C12_15 
REMARK    5  A    between atoms: C12_15  and  N3_16 
REMARK       I    between atoms: N3_16  and  C13_18 
REMARK    6  A    between atoms: C13_18  and  C14_20 
REMARK    7  A    between atoms: C16_25  and  N4_26 
ROOT
HETATM    1  C3  UNL     1      -3.406  -0.765  -0.229  1.00  0.00     0.681 A 
HETATM    2  N2  UNL     1      -2.312  -0.010  -0.087  1.00  0.00    -0.190 N 
ATOM      3  H2  UNL     1      -2.410   0.924   0.310  1.00  0.00     0.184 HD
HETATM    4  C4  UNL     1      -1.056  -0.445  -0.457  1.00  0.00     0.078 A 
HETATM    5  C5  UNL     1       0.159   0.222  -0.374  1.00  0.00    -0.009 A 
HETATM    6  C10 UNL     1       1.247  -0.429  -0.806  1.00  0.00    -0.006 A 
HETATM    7  S1  UNL     1       0.607  -1.960  -1.335  1.00  0.00    -0.088 SA
HETATM    8  C15 UNL     1      -1.024  -1.689  -0.972  1.00  0.00     0.077 A 
HETATM    9  C16 UNL     1      -2.179  -2.475  -1.118  1.00  0.00     0.134 A 
HETATM   10  N5  UNL     1      -3.384  -2.028  -0.751  1.00  0.00    -0.176 N 
ATOM     11  H5  UNL     1      -4.229  -2.590  -0.853  1.00  0.00     0.186 HD
ENDROOT
BRANCH   6  12
HETATM   12  C11 UNL     1       2.715  -0.173  -0.833  1.00  0.00     0.066 C 
BRANCH  12  13
HETATM   13  C12 UNL     1       3.275  -0.636   0.495  1.00  0.00     0.128 C 
BRANCH  13  14
HETATM   14  N3  UNL     1       4.684  -0.440   0.600  1.00  0.00    -0.358 N 
HETATM   15  C13 UNL     1       5.575  -1.083  -0.268  1.00  0.00     0.250 C 
HETATM   16  O1  UNL     1       5.287  -1.866  -1.189  1.00  0.00    -0.271 OA
ATOM     17  H3  UNL     1       5.050   0.181   1.322  1.00  0.00     0.162 HD
BRANCH  15  18
HETATM   18  C14 UNL     1       7.039  -0.804  -0.075  1.00  0.00     0.269 C 
HETATM   19 CL1  UNL     1       7.259   0.944  -0.429  1.00  0.00    -0.098 Cl
HETATM   20 CL2  UNL     1       8.016  -1.819  -1.116  1.00  0.00    -0.098 Cl
ENDBRANCH  15  18
ENDBRANCH  13  14
ENDBRANCH  12  13
ENDBRANCH   6  12
BRANCH   5  21
HETATM   21  C6  UNL     1       0.098   1.642   0.149  1.00  0.00    -0.021 C 
HETATM   22  C7  UNL     1       1.320   2.406   0.221  1.00  0.00     0.019 C 
HETATM   23  C8  UNL     1      -0.886   2.424  -0.754  1.00  0.00     0.019 C 
HETATM   24  C9  UNL     1      -0.602   1.535   1.510  1.00  0.00     0.019 C 
ENDBRANCH   5  21
BRANCH   9  25
HETATM   25  N4  UNL     1      -2.050  -3.640  -1.622  1.00  0.00    -0.384 N 
ATOM     26  H42 UNL     1      -1.130  -3.981  -1.902  1.00  0.00     0.157 HD
ATOM     27  H41 UNL     1      -2.889  -4.211  -1.728  1.00  0.00     0.157 HD
ENDBRANCH   9  25
BRANCH   1  28
HETATM   28  N1  UNL     1      -4.685  -0.300   0.177  1.00  0.00    -0.226 N 
HETATM   29  C1  UNL     1      -5.198  -0.732   1.450  1.00  0.00     0.168 C 
HETATM   30  C2  UNL     1      -5.465   0.578  -0.640  1.00  0.00     0.168 C 
ENDBRANCH   1  28
TORSDOF 7
