REMARK  5 active torsions:
REMARK  status: ('A' for Active; 'I' for Inactive)
REMARK    1  A    between atoms: C2_2  and  C3_3 
REMARK    2  A    between atoms: N1_14  and  C12_15 
REMARK    3  A    between atoms: C12_15  and  C13_16 
REMARK    4  A    between atoms: C13_16  and  O1_17 
REMARK    5  A    between atoms: C13_16  and  C14_19 
ROOT
HETATM    1  C1  UNL     1       3.719  -1.699   1.304  1.00  0.00     0.044 C 
HETATM    2  C2  UNL     1       2.988  -0.796   0.289  1.00  0.00     0.060 C 
HETATM    3  C9  UNL     1       1.605  -0.565   0.774  1.00  0.00     0.078 C 
HETATM    4  C10 UNL     1       0.539  -0.577  -0.294  1.00  0.00     0.126 C 
HETATM    5  C11 UNL     1      -0.632   0.354  -0.001  1.00  0.00     0.313 C 
HETATM    6  N1  UNL     1      -1.587  -0.650  -0.031  1.00  0.00     0.097 N 
HETATM    7  C18 UNL     1      -0.505  -1.655  -0.084  1.00  0.00     0.313 C 
HETATM    8  O2  UNL     1       1.019  -0.426  -1.603  1.00  0.00    -0.307 OA
HETATM    9  C19 UNL     1       2.152  -1.114  -1.995  1.00  0.00     0.214 C 
HETATM   10  N2  UNL     1       2.363  -1.424  -3.241  1.00  0.00    -0.365 N 
ATOM     11  H21 UNL     1       3.199  -1.932  -3.530  1.00  0.00     0.159 HD
ATOM     12  H22 UNL     1       1.700  -1.172  -3.974  1.00  0.00     0.159 HD
HETATM   13  N3  UNL     1       3.074  -1.465  -0.976  1.00  0.00    -0.343 N 
ATOM     14  H3  UNL     1       3.784  -2.179  -1.140  1.00  0.00     0.164 HD
ENDROOT
BRANCH   2  15
HETATM   15  C3  UNL     1       3.826   0.422   0.196  1.00  0.00    -0.029 A 
HETATM   16  C4  UNL     1       5.172   0.227  -0.088  1.00  0.00     0.011 A 
HETATM   17  C5  UNL     1       6.064   1.260  -0.195  1.00  0.00     0.026 A 
HETATM   18  C6  UNL     1       5.629   2.558  -0.018  1.00  0.00     0.055 A 
HETATM   19 CL1  UNL     1       6.762   3.899  -0.151  1.00  0.00    -0.083 Cl
HETATM   20  C7  UNL     1       4.294   2.778   0.264  1.00  0.00     0.056 A 
HETATM   21 CL2  UNL     1       3.729   4.428   0.493  1.00  0.00    -0.083 Cl
HETATM   22  C8  UNL     1       3.411   1.706   0.367  1.00  0.00     0.035 A 
ENDBRANCH   2  15
BRANCH   6  23
HETATM   23  C12 UNL     1      -2.548  -0.871  -1.009  1.00  0.00     0.305 C 
BRANCH  23  24
HETATM   24  C13 UNL     1      -3.652   0.056  -1.252  1.00  0.00     0.153 C 
BRANCH  24  25
HETATM   25  O1  UNL     1      -4.456  -0.480  -2.289  1.00  0.00    -0.393 OA
ATOM     26  H1  UNL     1      -5.173   0.122  -2.447  1.00  0.00     0.210 HD
ENDBRANCH  24  25
BRANCH  24  27
HETATM   27  C14 UNL     1      -4.553   0.368  -0.099  1.00  0.00    -0.024 C 
HETATM   28  C15 UNL     1      -5.248  -0.812   0.500  1.00  0.00     0.017 C 
HETATM   29  C16 UNL     1      -3.891   1.204   0.977  1.00  0.00     0.017 C 
HETATM   30  C17 UNL     1      -5.714   1.284  -0.601  1.00  0.00     0.017 C 
ENDBRANCH  24  27
ENDBRANCH  23  24
ENDBRANCH   6  23
TORSDOF 5
