REMARK  8 active torsions:
REMARK  status: ('A' for Active; 'I' for Inactive)
REMARK    1  A    between atoms: N1_1  and  C1_5 
REMARK    2  A    between atoms: C1_5  and  C2_6 
REMARK    3  A    between atoms: C6_10  and  C7_11 
REMARK    4  A    between atoms: C7_11  and  C8_12 
REMARK    5  A    between atoms: C8_12  and  O1_13 
REMARK    6  A    between atoms: N2_15  and  O2_17 
REMARK    7  A    between atoms: C9_19  and  S1_20 
REMARK    8  A    between atoms: S1_20  and  C10_21 
ROOT
HETATM    1  C2  UNL     1      -0.245   1.886  -0.000  1.00  0.00    -0.015 A 
HETATM    2  C3  UNL     1      -0.786   2.814  -0.855  1.00  0.00     0.010 A 
HETATM    3  C4  UNL     1      -1.804   2.459  -1.716  1.00  0.00     0.002 A 
HETATM    4  C5  UNL     1      -2.248   1.154  -1.679  1.00  0.00     0.015 A 
HETATM    5  C6  UNL     1      -1.732   0.202  -0.835  1.00  0.00     0.008 A 
HETATM    6  C9  UNL     1      -0.692   0.576   0.034  1.00  0.00     0.026 A 
ENDROOT
BRANCH   6   7
HETATM    7  S1  UNL     1      -0.128  -0.647   1.168  1.00  0.00    -0.088 SA
BRANCH   7   8
HETATM    8  C10 UNL     1       1.592  -1.025   1.194  1.00  0.00     0.024 A 
HETATM    9  C11 UNL     1       2.365  -0.558   2.289  1.00  0.00     0.020 A 
HETATM   10  C12 UNL     1       3.682  -0.812   2.345  1.00  0.00     0.003 A 
HETATM   11  C13 UNL     1       4.353  -1.527   1.364  1.00  0.00     0.025 A 
HETATM   12  C14 UNL     1       3.589  -1.970   0.315  1.00  0.00     0.052 A 
HETATM   13 CL1  UNL     1       4.361  -2.889  -0.976  1.00  0.00    -0.083 Cl
HETATM   14  C15 UNL     1       2.206  -1.730   0.209  1.00  0.00     0.049 A 
HETATM   15 BR1  UNL     1       1.301  -2.406  -1.349  1.00  0.00    -0.048 Br
ENDBRANCH   7   8
ENDBRANCH   6   7
BRANCH   1  16
HETATM   16  C1  UNL     1       0.876   2.303   0.839  1.00  0.00     0.269 C 
BRANCH  16  17
HETATM   17  N1  UNL     1       1.091   3.733   0.659  1.00  0.00    -0.075 N 
ATOM     18  H13 UNL     1       1.222   3.987  -0.320  1.00  0.00     0.274 HD
ATOM     19  H12 UNL     1       0.248   4.279   0.836  1.00  0.00     0.274 HD
ATOM     20  H11 UNL     1       1.874   4.024   1.245  1.00  0.00     0.274 HD
ENDBRANCH  16  17
ENDBRANCH   1  16
BRANCH   5  21
HETATM   21  C7  UNL     1      -2.377  -1.115  -0.752  1.00  0.00     0.067 C 
HETATM   22  N2  UNL     1      -2.098  -1.986   0.130  1.00  0.00    -0.270 N 
ATOM     23  H2  UNL     1      -1.380  -1.718   0.803  1.00  0.00     0.194 HD
BRANCH  21  24
HETATM   24  C8  UNL     1      -3.409  -1.443  -1.761  1.00  0.00     0.224 C 
BRANCH  24  25
HETATM   25  O1  UNL     1      -3.905  -2.733  -1.613  1.00  0.00    -0.395 OA
ATOM     26  H1  UNL     1      -4.567  -2.944  -2.261  1.00  0.00     0.209 HD
ENDBRANCH  24  25
ENDBRANCH  21  24
BRANCH  22  27
HETATM   27  O2  UNL     1      -2.622  -3.213   0.295  1.00  0.00    -0.290 OA
ATOM     28  H2  UNL     1      -2.413  -3.864   0.954  1.00  0.00     0.244 HD
ENDBRANCH  22  27
ENDBRANCH   5  21
TORSDOF 8
