REMARK  12 active torsions:
REMARK  status: ('A' for Active; 'I' for Inactive)
REMARK    1  A    between atoms: O1_2  and  C2_3 
REMARK    2  A    between atoms: C2_3  and  C3_5 
REMARK    3  A    between atoms: C9_11  and  C10_12 
REMARK    4  A    between atoms: C10_12  and  O3_13 
REMARK    5  A    between atoms: C10_12  and  C11_15 
REMARK    6  A    between atoms: C11_15  and  C12_16 
REMARK    7  A    between atoms: C11_15  and  C20_26 
REMARK    8  A    between atoms: C12_16  and  C13_17 
REMARK    9  A    between atoms: C15_19  and  C16_20 
REMARK   10  A    between atoms: C24_31  and  C25_32 
REMARK       I    between atoms: C25_32  and  N1_34 
REMARK   11  A    between atoms: C26_36  and  C28_38 
REMARK   12  A    between atoms: C29_41  and  O10_42 
ROOT
HETATM    1  C3  UNL     1      -1.788  -2.617   1.407  1.00  0.00     0.106 C 
HETATM    2  C4  UNL     1      -1.098  -3.998   1.161  1.00  0.00     0.034 C 
HETATM    3  C5  UNL     1      -2.996  -2.622   0.568  1.00  0.00     0.038 C 
HETATM    4  C6  UNL     1      -3.047  -1.724  -0.583  1.00  0.00    -0.026 C 
HETATM    5  C7  UNL     1      -3.357  -2.549  -1.856  1.00  0.00     0.016 C 
HETATM    6  C8  UNL     1      -1.943  -0.859  -0.945  1.00  0.00     0.031 C 
HETATM    7  C9  UNL     1      -1.041  -0.308   0.229  1.00  0.00     0.063 C 
HETATM    8  C23 UNL     1      -0.884  -1.552   0.995  1.00  0.00     0.157 C 
HETATM    9  O6  UNL     1       0.233  -1.792   1.392  1.00  0.00    -0.296 OA
HETATM   10  C24 UNL     1      -1.670   0.862   0.787  1.00  0.00     0.129 C 
HETATM   11  C29 UNL     1      -3.195   0.957   0.918  1.00  0.00     0.163 C 
HETATM   12  C30 UNL     1      -3.893   0.436  -0.267  1.00  0.00    -0.034 A 
HETATM   13  C31 UNL     1      -4.529   0.134  -1.446  1.00  0.00    -0.064 A 
HETATM   14  C32 UNL     1      -5.026   0.592  -2.774  1.00  0.00     0.045 C 
HETATM   15  C33 UNL     1      -4.335  -0.892  -0.445  1.00  0.00     0.013 A 
HETATM   16  C34 UNL     1      -5.550  -1.509   0.157  1.00  0.00     0.026 C 
ENDROOT
BRANCH   7  17
HETATM   17  C10 UNL     1       0.302  -0.059  -0.335  1.00  0.00     0.139 C 
BRANCH  17  18
HETATM   18  O3  UNL     1       0.251  -0.229  -1.637  1.00  0.00    -0.394 OA
ATOM     19  H3  UNL     1       1.114  -0.069  -2.000  1.00  0.00     0.210 HD
ENDBRANCH  17  18
BRANCH  17  20
HETATM   20  C11 UNL     1       1.681   0.310   0.050  1.00  0.00     0.021 C 
BRANCH  20  21
HETATM   21  C12 UNL     1       2.488   0.106  -1.206  1.00  0.00     0.040 C 
BRANCH  21  22
HETATM   22  C13 UNL     1       3.900   0.216  -1.378  1.00  0.00     0.133 C 
HETATM   23  C14 UNL     1       4.800  -0.707  -0.618  1.00  0.00     0.047 C 
HETATM   24  C15 UNL     1       6.037  -0.822  -1.473  1.00  0.00     0.091 C 
HETATM   25  C19 UNL     1       5.546  -0.454  -2.809  1.00  0.00     0.263 C 
HETATM   26  O4  UNL     1       6.307  -0.310  -3.806  1.00  0.00    -0.265 OA
HETATM   27  O5  UNL     1       4.171  -0.310  -2.742  1.00  0.00    -0.316 OA
BRANCH  24  28
HETATM   28  C16 UNL     1       7.204  -0.032  -1.008  1.00  0.00    -0.009 C 
HETATM   29  C17 UNL     1       6.985   1.455  -0.930  1.00  0.00     0.010 C 
HETATM   30  C18 UNL     1       8.345  -0.281  -1.971  1.00  0.00     0.010 C 
ENDBRANCH  24  28
ENDBRANCH  21  22
ENDBRANCH  20  21
BRANCH  20  31
HETATM   31  C20 UNL     1       1.901   1.609   0.738  1.00  0.00    -0.016 C 
HETATM   32  C21 UNL     1       3.359   2.002   1.006  1.00  0.00     0.010 C 
HETATM   33  C22 UNL     1       1.416   1.554   2.216  1.00  0.00     0.010 C 
ENDBRANCH  20  31
ENDBRANCH  17  20
ENDBRANCH   7  17
BRANCH  10  34
HETATM   34  C25 UNL     1      -1.474   2.074  -0.055  1.00  0.00     0.230 C 
HETATM   35  O7  UNL     1      -1.108   2.034  -1.227  1.00  0.00    -0.273 OA
HETATM   36  N1  UNL     1      -1.716   3.345   0.500  1.00  0.00    -0.325 N 
HETATM   37  C26 UNL     1      -2.433   4.255   0.013  1.00  0.00     0.085 C 
ATOM     38  H1  UNL     1      -1.262   3.549   1.390  1.00  0.00     0.169 HD
HETATM   39  C27 UNL     1      -3.146   4.090  -1.268  1.00  0.00     0.076 C 
BRANCH  37  40
HETATM   40  C28 UNL     1      -2.596   5.545   0.714  1.00  0.00     0.222 C 
HETATM   41  O8  UNL     1      -3.303   6.454   0.245  1.00  0.00    -0.643 OA
HETATM   42  O9  UNL     1      -1.945   5.727   1.909  1.00  0.00    -0.643 OA
ENDBRANCH  37  40
ENDBRANCH  10  34
BRANCH   1  43
HETATM   43  C2  UNL     1      -2.019  -2.729   2.859  1.00  0.00     0.274 C 
HETATM   44  O2  UNL     1      -1.521  -1.947   3.673  1.00  0.00    -0.264 OA
BRANCH  43  45
HETATM   45  O1  UNL     1      -2.828  -3.758   3.314  1.00  0.00    -0.326 OA
HETATM   46  C1  UNL     1      -3.114  -3.956   4.683  1.00  0.00     0.213 C 
ENDBRANCH  43  45
ENDBRANCH   1  43
BRANCH  11  47
HETATM   47  O10 UNL     1      -3.711   0.356   2.049  1.00  0.00    -0.390 OA
ATOM     48  H10 UNL     1      -4.656   0.415   2.130  1.00  0.00     0.210 HD
ENDBRANCH  11  47
TORSDOF 12
