REMARK  10 active torsions:
REMARK  status: ('A' for Active; 'I' for Inactive)
REMARK    1  A    between atoms: C2_2  and  C3_3 
REMARK    2  A    between atoms: C3_3  and  O1_5 
REMARK    3  A    between atoms: C3_3  and  C33_42 
REMARK    4  A    between atoms: O1_5  and  C5_6 
REMARK    5  A    between atoms: C12_14  and  O3_15 
REMARK    6  A    between atoms: C16_20  and  C17_21 
REMARK    7  A    between atoms: C17_21  and  O4_22 
REMARK    8  A    between atoms: O4_22  and  C18_23 
REMARK    9  A    between atoms: C22_28  and  N1_29 
REMARK   10  A    between atoms: C25_32  and  O6_33 
ROOT
HETATM    1  C5  UNL     1      -1.508   0.830   0.915  1.00  0.00     0.155 C 
HETATM    2  C6  UNL     1      -2.811   0.356   1.526  1.00  0.00     0.003 C 
HETATM    3  C7  UNL     1      -3.599  -0.626   1.128  1.00  0.00    -0.009 C 
HETATM    4  C8  UNL     1      -3.844  -1.697   0.157  1.00  0.00     0.053 C 
HETATM    5  C9  UNL     1      -3.792  -1.321  -1.265  1.00  0.00     0.145 C 
HETATM    6  O2  UNL     1      -4.149  -0.285  -1.781  1.00  0.00    -0.296 OA
HETATM    7  C10 UNL     1      -3.204  -2.440  -2.099  1.00  0.00     0.060 C 
HETATM    8  C11 UNL     1      -1.801  -2.079  -2.612  1.00  0.00     0.048 C 
HETATM    9  C12 UNL     1      -0.764  -2.260  -1.484  1.00  0.00     0.149 C 
HETATM   10  C13 UNL     1      -1.458  -1.865  -0.179  1.00  0.00    -0.039 C 
HETATM   11  C14 UNL     1      -0.556  -1.502   0.938  1.00  0.00    -0.069 C 
HETATM   12  C15 UNL     1       0.690  -2.325   1.017  1.00  0.00     0.044 C 
HETATM   13  C16 UNL     1      -0.372  -0.037   1.236  1.00  0.00     0.071 C 
HETATM   14  C26 UNL     1      -2.639  -2.678   0.123  1.00  0.00     0.005 C 
HETATM   15  C27 UNL     1      -2.921  -3.528  -1.119  1.00  0.00     0.028 C 
HETATM   16  C28 UNL     1      -2.888  -3.502   1.258  1.00  0.00     0.020 C 
HETATM   17  C29 UNL     1      -4.422  -3.576   1.415  1.00  0.00    -0.012 C 
HETATM   18  C30 UNL     1      -4.952  -4.973   1.206  1.00  0.00     0.010 C 
HETATM   19  C31 UNL     1      -5.021  -2.531   0.567  1.00  0.00     0.006 C 
HETATM   20  C32 UNL     1      -6.004  -2.868  -0.461  1.00  0.00     0.012 C 
ENDROOT
BRANCH  13  21
HETATM   21  C17 UNL     1       0.886   0.574   0.761  1.00  0.00     0.183 C 
BRANCH  21  22
HETATM   22  O4  UNL     1       2.058  -0.134   0.996  1.00  0.00    -0.358 OA
BRANCH  22  23
HETATM   23  C18 UNL     1       3.172   0.556   0.525  1.00  0.00     0.290 C 
HETATM   24  O5  UNL     1       3.937   0.900   1.631  1.00  0.00    -0.354 OA
HETATM   25  C19 UNL     1       5.124   1.527   1.341  1.00  0.00     0.122 C 
HETATM   26  C20 UNL     1       5.017   2.758   0.498  1.00  0.00     0.040 C 
HETATM   27  C21 UNL     1       6.005   0.537   0.608  1.00  0.00     0.070 C 
HETATM   28  C22 UNL     1       5.314   0.286  -0.739  1.00  0.00     0.257 C 
HETATM   29  C25 UNL     1       3.924  -0.257  -0.483  1.00  0.00     0.206 C 
BRANCH  28  30
HETATM   30  N1  UNL     1       6.103  -0.720  -1.421  1.00  0.00     0.087 N 
HETATM   31  C23 UNL     1       5.566  -1.033  -2.729  1.00  0.00     0.310 C 
HETATM   32  C24 UNL     1       7.496  -0.362  -1.498  1.00  0.00     0.310 C 
ENDBRANCH  28  30
BRANCH  29  33
HETATM   33  O6  UNL     1       4.078  -1.583  -0.146  1.00  0.00    -0.388 OA
ATOM     34  H6  UNL     1       4.555  -2.099  -0.785  1.00  0.00     0.210 HD
ENDBRANCH  29  33
ENDBRANCH  22  23
ENDBRANCH  21  22
ENDBRANCH  13  21
BRANCH   1  35
HETATM   35  O1  UNL     1      -1.328   2.082   1.516  1.00  0.00    -0.364 OA
BRANCH  35  36
HETATM   36  C3  UNL     1      -1.557   3.192   0.830  1.00  0.00     0.102 C 
HETATM   37  C4  UNL     1      -3.061   3.386   0.490  1.00  0.00     0.053 C 
BRANCH  36  38
HETATM   38  C2  UNL     1      -1.328   4.331   1.814  1.00  0.00     0.003 C 
HETATM   39  C1  UNL     1      -1.594   4.093   3.082  1.00  0.00     0.010 C 
ENDBRANCH  36  38
BRANCH  36  40
HETATM   40  C33 UNL     1      -0.820   3.603  -0.380  1.00  0.00     0.170 C 
HETATM   41  C34 UNL     1       0.558   4.203  -0.121  1.00  0.00     0.045 C 
HETATM   42  C35 UNL     1       0.691   5.437  -0.946  1.00  0.00     0.114 C 
HETATM   43  C36 UNL     1      -0.657   5.611  -1.513  1.00  0.00     0.259 C 
HETATM   44  O7  UNL     1      -0.949   6.351  -2.475  1.00  0.00    -0.265 OA
HETATM   45  O8  UNL     1      -1.504   4.825  -0.800  1.00  0.00    -0.313 OA
ENDBRANCH  36  40
ENDBRANCH  35  36
ENDBRANCH   1  35
BRANCH   9  46
HETATM   46  O3  UNL     1       0.197  -1.284  -1.850  1.00  0.00    -0.391 OA
ATOM     47  H3  UNL     1       0.836  -1.395  -1.155  1.00  0.00     0.210 HD
ENDBRANCH   9  46
TORSDOF 10
