REMARK  9 active torsions:
REMARK  status: ('A' for Active; 'I' for Inactive)
REMARK    1  A    between atoms: C2_2  and  C3_3 
REMARK    2  A    between atoms: C3_3  and  C4_4 
REMARK    3  A    between atoms: C12_14  and  O2_15 
REMARK    4  A    between atoms: C18_23  and  N3_24 
REMARK    5  A    between atoms: C21_29  and  S1_30 
REMARK    6  A    between atoms: S1_30  and  N4_33 
REMARK    7  A    between atoms: N4_33  and  C23_35 
REMARK    8  A    between atoms: C23_35  and  C24_36 
REMARK    9  A    between atoms: C24_36  and  N5_37 
ROOT
HETATM    1  C3  UNL     1      -3.625   0.956   2.177  1.00  0.00     0.091 C 
HETATM    2  C6  UNL     1      -2.579  -0.096   2.410  1.00  0.00     0.236 C 
HETATM    3  O1  UNL     1      -2.190  -0.587   3.539  1.00  0.00    -0.272 OA
HETATM    4  N1  UNL     1      -2.339  -0.207   1.054  1.00  0.00    -0.304 N 
HETATM    5  C7  UNL     1      -1.462  -0.659  -0.041  1.00  0.00     0.074 C 
HETATM    6  C8  UNL     1      -2.428  -0.941  -1.230  1.00  0.00     0.041 C 
HETATM    7  C9  UNL     1      -1.713  -1.798  -2.306  1.00  0.00    -0.013 C 
HETATM    8  C10 UNL     1      -2.795  -1.857  -3.396  1.00  0.00     0.010 C 
HETATM    9  C11 UNL     1      -1.615  -3.180  -1.747  1.00  0.00     0.036 C 
HETATM   10  C12 UNL     1      -1.591  -3.093  -0.183  1.00  0.00     0.123 C 
HETATM   11  C14 UNL     1      -0.789  -1.873   0.207  1.00  0.00     0.068 C 
HETATM   12  C15 UNL     1      -0.859   0.656  -0.397  1.00  0.00     0.049 A 
HETATM   13  C16 UNL     1      -1.794   1.627  -0.621  1.00  0.00     0.156 A 
HETATM   14  N2  UNL     1      -1.412   2.796  -1.141  1.00  0.00    -0.334 N 
ATOM     15  H2  UNL     1      -2.108   3.519  -1.325  1.00  0.00     0.168 HD
HETATM   16  C17 UNL     1      -0.105   3.031  -1.427  1.00  0.00     0.081 A 
HETATM   17  C18 UNL     1       0.271   4.264  -1.902  1.00  0.00     0.130 A 
HETATM   18  C19 UNL     1       1.602   4.565  -2.125  1.00  0.00     0.040 A 
HETATM   19  C20 UNL     1       2.529   3.615  -1.867  1.00  0.00     0.028 A 
HETATM   20  C21 UNL     1       2.254   2.307  -1.374  1.00  0.00     0.089 A 
HETATM   21  C27 UNL     1       0.891   2.065  -1.187  1.00  0.00     0.043 A 
HETATM   22  C28 UNL     1       0.482   0.844  -0.660  1.00  0.00     0.053 A 
HETATM   23  N6  UNL     1       1.305  -0.010  -0.477  1.00  0.00    -0.398 N 
ATOM     24  H61 UNL     1       2.297   0.129  -0.671  1.00  0.00     0.156 HD
ATOM     25  H62 UNL     1       1.005  -0.905  -0.091  1.00  0.00     0.156 HD
HETATM   26  O7  UNL     1      -3.180   1.451  -0.278  1.00  0.00    -0.302 OA
HETATM   27  C29 UNL     1      -3.520   0.559   0.772  1.00  0.00     0.160 C 
HETATM   28  C30 UNL     1      -4.773  -0.159   0.348  1.00  0.00     0.073 C 
ENDROOT
BRANCH  20  29
HETATM   29  S1  UNL     1       3.521   1.328  -0.866  1.00  0.00     0.244 S 
HETATM   30  O5  UNL     1       3.631   1.234   0.696  1.00  0.00    -0.206 OA
HETATM   31  O6  UNL     1       4.784   2.247  -0.949  1.00  0.00    -0.206 OA
BRANCH  29  32
HETATM   32  N4  UNL     1       4.189  -0.016  -1.652  1.00  0.00    -0.209 NA
HETATM   33  C22 UNL     1       4.737   0.399  -2.927  1.00  0.00     0.129 C 
BRANCH  32  34
HETATM   34  C23 UNL     1       5.325  -0.392  -0.789  1.00  0.00     0.126 C 
BRANCH  34  35
HETATM   35  C24 UNL     1       5.082  -1.649   0.010  1.00  0.00     0.131 C 
BRANCH  35  36
HETATM   36  N5  UNL     1       6.148  -1.786   0.933  1.00  0.00    -0.420 N 
HETATM   37  C25 UNL     1       6.171  -0.845   1.997  1.00  0.00     0.142 C 
HETATM   38  C26 UNL     1       7.100  -2.777   0.858  1.00  0.00     0.142 C 
ENDBRANCH  35  36
ENDBRANCH  34  35
ENDBRANCH  32  34
ENDBRANCH  29  32
ENDBRANCH  20  29
BRANCH  17  39
HETATM   39  N3  UNL     1      -0.651   5.303  -2.226  1.00  0.00    -0.113 N 
HETATM   40  O3  UNL     1      -0.311   6.518  -2.087  1.00  0.00    -0.532 OA
HETATM   41  O4  UNL     1      -1.914   5.092  -2.666  1.00  0.00    -0.532 OA
ENDBRANCH  17  39
BRANCH  10  42
HETATM   42  O2  UNL     1      -0.898  -4.265   0.216  1.00  0.00    -0.391 OA
HETATM   43  C13 UNL     1      -1.699  -5.244   0.748  1.00  0.00     0.202 C 
ENDBRANCH  10  42
BRANCH   1  44
HETATM   44  C2  UNL     1      -4.883   0.362   2.885  1.00  0.00     0.020 C 
HETATM   45  C1  UNL     1      -4.617   0.268   4.360  1.00  0.00     0.006 C 
ENDBRANCH   1  44
BRANCH   1  46
HETATM   46  C4  UNL     1      -3.430   2.287   2.701  1.00  0.00     0.020 C 
HETATM   47  C5  UNL     1      -2.332   3.193   2.277  1.00  0.00     0.006 C 
ENDBRANCH   1  46
TORSDOF 9
