REMARK  13 active torsions:
REMARK  status: ('A' for Active; 'I' for Inactive)
REMARK    1  A    between atoms: C2_2  and  O2_4 
REMARK    2  A    between atoms: O2_4  and  C3_5 
REMARK    3  A    between atoms: C4_6  and  O3_7 
REMARK    4  A    between atoms: O3_7  and  C5_8 
REMARK    5  A    between atoms: C5_8  and  C6_10 
REMARK    6  A    between atoms: C14_18  and  O5_19 
REMARK    7  A    between atoms: C15_21  and  O6_22 
REMARK    8  A    between atoms: O6_22  and  C16_23 
REMARK    9  A    between atoms: C16_23  and  C17_25 
REMARK   10  A    between atoms: C17_25  and  C18_26 
REMARK   11  A    between atoms: C18_26  and  S1_27 
REMARK   12  A    between atoms: C21_30  and  C22_31 
REMARK   13  A    between atoms: C22_31  and  O8_32 
ROOT
HETATM    1  C3  UNL     1      -2.028  -0.127   1.207  1.00  0.00     0.171 C 
HETATM    2  C4  UNL     1      -2.251   1.173   0.503  1.00  0.00     0.170 C 
HETATM    3  C10 UNL     1      -0.959   1.436  -0.251  1.00  0.00    -0.011 C 
HETATM    4  C11 UNL     1      -1.341   2.231  -1.462  1.00  0.00     0.018 C 
HETATM    5  C12 UNL     1      -0.219   2.499   0.616  1.00  0.00     0.018 C 
HETATM    6  C13 UNL     1      -0.048   0.318  -0.338  1.00  0.00     0.045 C 
HETATM    7  C14 UNL     1       1.159   0.691  -1.131  1.00  0.00     0.158 C 
HETATM    8  C15 UNL     1       2.307  -0.096  -0.576  1.00  0.00     0.192 C 
HETATM    9  C21 UNL     1       1.965  -1.373   0.069  1.00  0.00    -0.018 C 
HETATM   10  C23 UNL     1       0.625  -2.014  -0.239  1.00  0.00    -0.025 C 
HETATM   11  C24 UNL     1       0.893  -3.262  -0.964  1.00  0.00     0.088 C 
HETATM   12  C25 UNL     1       1.497  -4.272   0.040  1.00  0.00     0.051 C 
HETATM   13  C26 UNL     1       1.985  -3.156  -2.041  1.00  0.00     0.051 C 
HETATM   14  O9  UNL     1      -0.143  -3.994  -1.549  1.00  0.00    -0.303 OA
HETATM   15  C27 UNL     1      -0.960  -3.537  -2.576  1.00  0.00     0.283 C 
HETATM   16  O10 UNL     1      -1.558  -4.345  -3.320  1.00  0.00    -0.260 OA
HETATM   17  C28 UNL     1      -1.191  -2.123  -2.872  1.00  0.00     0.079 C 
HETATM   18  C29 UNL     1      -0.986  -1.135  -1.987  1.00  0.00    -0.005 C 
HETATM   19  C30 UNL     1      -0.518  -1.115  -0.578  1.00  0.00     0.021 C 
HETATM   20  C31 UNL     1      -1.754  -1.284   0.269  1.00  0.00    -0.003 C 
HETATM   21  C32 UNL     1      -3.027  -1.465  -0.555  1.00  0.00     0.019 C 
HETATM   22  C33 UNL     1      -1.773  -2.440   1.233  1.00  0.00     0.019 C 
ENDROOT
BRANCH   8  23
HETATM   23  O6  UNL     1       2.950   0.734   0.385  1.00  0.00    -0.309 OA
BRANCH  23  24
HETATM   24  C16 UNL     1       4.196   1.281   0.164  1.00  0.00     0.260 C 
HETATM   25  O7  UNL     1       4.790   1.047  -0.922  1.00  0.00    -0.265 OA
BRANCH  24  26
HETATM   26  C17 UNL     1       4.876   2.144   1.157  1.00  0.00     0.120 C 
BRANCH  26  27
HETATM   27  C18 UNL     1       6.208   2.596   0.654  1.00  0.00     0.072 C 
BRANCH  27  28
HETATM   28  S1  UNL     1       7.249   1.219   0.318  1.00  0.00    -0.227 SA
HETATM   29  C19 UNL     1       8.840   1.739  -0.283  1.00  0.00     0.078 C 
HETATM   30  C20 UNL     1       7.465   0.209   1.745  1.00  0.00     0.078 C 
ENDBRANCH  27  28
ENDBRANCH  26  27
ENDBRANCH  24  26
ENDBRANCH  23  24
ENDBRANCH   8  23
BRANCH   7  31
HETATM   31  O5  UNL     1       1.083   0.527  -2.487  1.00  0.00    -0.392 OA
ATOM     32  H5  UNL     1       1.852   0.765  -2.992  1.00  0.00     0.210 HD
ENDBRANCH   7  31
BRANCH   9  33
HETATM   33  C22 UNL     1       2.351  -1.458   1.553  1.00  0.00     0.201 C 
BRANCH  33  34
HETATM   34  O8  UNL     1       3.715  -1.311   1.745  1.00  0.00    -0.397 OA
ATOM     35  H8  UNL     1       3.954  -1.364   2.663  1.00  0.00     0.209 HD
ENDBRANCH  33  34
ENDBRANCH   9  33
BRANCH   2  36
HETATM   36  O3  UNL     1      -3.379   1.248  -0.304  1.00  0.00    -0.312 OA
BRANCH  36  37
HETATM   37  C5  UNL     1      -4.469   2.079  -0.083  1.00  0.00     0.267 C 
HETATM   38  O4  UNL     1      -4.402   2.809   0.935  1.00  0.00    -0.264 OA
BRANCH  37  39
HETATM   39  C6  UNL     1      -5.648   2.145  -0.943  1.00  0.00     0.037 C 
HETATM   40  C7  UNL     1      -6.240   0.728  -0.977  1.00  0.00     0.025 C 
HETATM   41  C8  UNL     1      -5.342   2.637  -2.339  1.00  0.00     0.025 C 
HETATM   42  C9  UNL     1      -6.702   3.008  -0.287  1.00  0.00     0.025 C 
ENDBRANCH  37  39
ENDBRANCH  36  37
ENDBRANCH   2  36
BRANCH   1  43
HETATM   43  O2  UNL     1      -3.242  -0.406   1.895  1.00  0.00    -0.313 OA
BRANCH  43  44
HETATM   44  C2  UNL     1      -3.329  -0.441   3.288  1.00  0.00     0.255 C 
HETATM   45  C1  UNL     1      -4.567  -0.726   4.030  1.00  0.00     0.126 C 
HETATM   46  O1  UNL     1      -2.284  -0.215   3.936  1.00  0.00    -0.266 OA
ENDBRANCH  43  44
ENDBRANCH   1  43
TORSDOF 13
