REMARK  6 active torsions:
REMARK  status: ('A' for Active; 'I' for Inactive)
REMARK    1  A    between atoms: C5_9  and  N3_10 
REMARK    2  A    between atoms: N3_10  and  C7_12 
REMARK    3  A    between atoms: N6_20  and  C12_21 
REMARK    4  A    between atoms: C15_24  and  N7_25 
REMARK    5  A    between atoms: N7_25  and  C16_27 
REMARK    6  A    between atoms: C16_27  and  C17_28 
ROOT
HETATM    1  C1  UNL     1       4.274  -2.633   0.011  1.00  0.00     0.089 C 
HETATM    2  C2  UNL     1       3.052  -1.775   0.161  1.00  0.00     0.080 A 
HETATM    3  N1  UNL     1       1.821  -2.277   0.055  1.00  0.00    -0.330 N 
ATOM      4  H1  UNL     1       1.685  -3.270  -0.132  1.00  0.00     0.168 HD
HETATM    5  C3  UNL     1       0.756  -1.458   0.197  1.00  0.00     0.156 A 
HETATM    6  C4  UNL     1       0.946  -0.125   0.449  1.00  0.00     0.137 A 
HETATM    7  N2  UNL     1      -0.256   0.401   0.540  1.00  0.00    -0.184 N 
ATOM      8  H2  UNL     1      -0.453   1.385   0.723  1.00  0.00     0.184 HD
HETATM    9  C5  UNL     1      -1.216  -0.583   0.349  1.00  0.00     0.689 A 
HETATM   10  N6  UNL     1      -0.588  -1.745   0.134  1.00  0.00    -0.161 N 
HETATM   11  C15 UNL     1       2.239   0.394   0.558  1.00  0.00     0.134 A 
HETATM   12  N8  UNL     1       3.253  -0.471   0.406  1.00  0.00    -0.331 N 
ATOM     13  H8  UNL     1       4.210  -0.126   0.479  1.00  0.00     0.168 HD
ENDROOT
BRANCH   9  14
HETATM   14  N3  UNL     1      -2.604  -0.317   0.393  1.00  0.00    -0.184 N 
HETATM   15  C6  UNL     1      -3.670  -1.254   0.279  1.00  0.00     0.175 C 
BRANCH  14  16
HETATM   16  C7  UNL     1      -3.003   1.062   0.569  1.00  0.00     0.091 A 
HETATM   17  C8  UNL     1      -2.698   1.908   1.613  1.00  0.00     0.139 A 
HETATM   18  N4  UNL     1      -3.294   3.094   1.334  1.00  0.00    -0.308 N 
HETATM   19  N5  UNL     1      -3.946   3.033   0.188  1.00  0.00    -0.299 N 
ATOM     20  H4  UNL     1      -3.245   3.921   1.929  1.00  0.00     0.186 HD
HETATM   21  C9  UNL     1      -4.720   4.102  -0.464  1.00  0.00     0.177 C 
HETATM   22  C10 UNL     1      -3.783   1.806  -0.296  1.00  0.00     0.053 A 
HETATM   23  C11 UNL     1      -4.350   1.300  -1.572  1.00  0.00     0.072 C 
ENDBRANCH  14  16
ENDBRANCH   9  14
BRANCH  10  24
HETATM   24  C12 UNL     1      -1.121  -3.077  -0.126  1.00  0.00     0.101 C 
HETATM   25  C13 UNL     1      -0.213  -3.799  -1.150  1.00  0.00     0.033 C 
HETATM   26  C14 UNL     1      -1.068  -3.944   1.114  1.00  0.00     0.033 C 
ENDBRANCH  10  24
BRANCH  11  27
HETATM   27  N7  UNL     1       2.389   1.650   0.795  1.00  0.00    -0.372 N 
ATOM     28  H7  UNL     1       1.574   2.254   0.900  1.00  0.00     0.161 HD
BRANCH  27  29
HETATM   29  C16 UNL     1       3.715   2.195   0.910  1.00  0.00     0.158 C 
BRANCH  29  30
HETATM   30  C17 UNL     1       4.307   2.519  -0.445  1.00  0.00     0.183 C 
HETATM   31  C18 UNL     1       5.700   3.090  -0.306  1.00  0.00     0.046 C 
HETATM   32  F1  UNL     1       3.518   3.499  -1.054  1.00  0.00    -0.248 F 
ENDBRANCH  29  30
ENDBRANCH  27  29
ENDBRANCH  11  27
TORSDOF 6
