REMARK  11 active torsions:
REMARK  status: ('A' for Active; 'I' for Inactive)
REMARK    1  A    between atoms: C2_2  and  N1_3 
REMARK    2  A    between atoms: N1_3  and  C4_5 
REMARK    3  A    between atoms: C5_6  and  N2_8 
REMARK    4  A    between atoms: N2_8  and  O1_9 
REMARK    5  A    between atoms: N2_8  and  C6_11 
REMARK    6  A    between atoms: C6_11  and  C7_12 
REMARK    7  A    between atoms: C12_18  and  C13_19 
REMARK    8  A    between atoms: C13_19  and  C14_20 
REMARK    9  A    between atoms: C14_20  and  C15_21 
REMARK   10  A    between atoms: C15_21  and  O3_22 
REMARK   11  A    between atoms: N3_24  and  O4_26 
ROOT
HETATM    1  C7  UNL     1       0.280  -0.617   0.863  1.00  0.00    -0.016 A 
HETATM    2  C8  UNL     1       0.254   0.816   0.391  1.00  0.00     0.029 A 
HETATM    3  C9  UNL     1       1.413   1.380  -0.147  1.00  0.00     0.219 A 
HETATM    4  O2  UNL     1       1.906   0.390   0.037  1.00  0.00    -0.330 OA
HETATM    5  C10 UNL     1       2.484  -0.613   0.199  1.00  0.00     0.088 A 
HETATM    6  C11 UNL     1       1.527  -1.400   0.754  1.00  0.00     0.051 A 
HETATM    7  C12 UNL     1       3.712  -0.086  -0.352  1.00  0.00     0.033 A 
HETATM    8  S1  UNL     1       3.142   1.693  -0.771  1.00  0.00    -0.091 SA
ENDROOT
BRANCH   1   9
HETATM    9  C6  UNL     1      -0.810  -1.228   1.299  1.00  0.00     0.135 C 
BRANCH   9  10
HETATM   10  N2  UNL     1      -1.717  -1.944   0.675  1.00  0.00    -0.223 N 
BRANCH  10  11
HETATM   11  C5  UNL     1      -2.772  -1.255   0.128  1.00  0.00     0.146 C 
HETATM   12  C4  UNL     1      -3.512  -0.466   0.926  1.00  0.00     0.130 C 
HETATM   13 CL1  UNL     1      -3.180  -1.373  -1.583  1.00  0.00    -0.060 Cl
BRANCH  12  14
HETATM   14  N1  UNL     1      -4.586   0.233   0.355  1.00  0.00    -0.392 N 
HETATM   15  C3  UNL     1      -4.409   1.518  -0.324  1.00  0.00     0.148 C 
BRANCH  14  16
HETATM   16  C2  UNL     1      -5.963  -0.265   0.392  1.00  0.00     0.117 C 
HETATM   17  C1  UNL     1      -6.047  -1.588   1.107  1.00  0.00     0.026 C 
ENDBRANCH  14  16
ENDBRANCH  12  14
ENDBRANCH  10  11
BRANCH  10  18
HETATM   18  O1  UNL     1      -1.692  -3.248   0.477  1.00  0.00    -0.282 OA
ATOM     19  H1  UNL     1      -0.962  -3.724   0.855  1.00  0.00     0.245 HD
ENDBRANCH  10  18
ENDBRANCH   9  10
ENDBRANCH   1   9
BRANCH   7  20
HETATM   20  C13 UNL     1       4.680  -0.856  -0.395  1.00  0.00     0.003 C 
BRANCH  20  21
HETATM   21  C14 UNL     1       6.020  -0.527  -0.916  1.00  0.00     0.114 C 
BRANCH  21  22
HETATM   22  C15 UNL     1       6.017   0.804  -1.505  1.00  0.00     0.138 C 
HETATM   23  N3  UNL     1       6.580   1.799  -0.935  1.00  0.00    -0.251 N 
ATOM     24  H3  UNL     1       6.542   2.707  -1.397  1.00  0.00     0.196 HD
BRANCH  22  25
HETATM   25  O3  UNL     1       5.385   1.033  -2.732  1.00  0.00    -0.348 OA
ATOM     26  H3  UNL     1       5.383   1.902  -3.116  1.00  0.00     0.219 HD
ENDBRANCH  22  25
BRANCH  23  27
HETATM   27  O4  UNL     1       7.233   1.707   0.268  1.00  0.00    -0.288 OA
ATOM     28  H4  UNL     1       7.652   2.447   0.692  1.00  0.00     0.244 HD
ENDBRANCH  23  27
ENDBRANCH  21  22
ENDBRANCH  20  21
ENDBRANCH   7  20
TORSDOF 11
