REMARK  6 active torsions:
REMARK  status: ('A' for Active; 'I' for Inactive)
REMARK    1  A    between atoms: O1_1  and  C1_3 
REMARK    2  A    between atoms: C1_3  and  C2_4 
REMARK    3  A    between atoms: C1_3  and  C11_19 
REMARK    4  A    between atoms: C2_4  and  N1_5 
REMARK    5  A    between atoms: C4_7  and  C5_8 
REMARK    6  A    between atoms: C11_19  and  N4_20 
ROOT
HETATM    1  C1  UNL     1       0.267  -2.350  -0.416  1.00  0.00     0.156 C 
ENDROOT
BRANCH   1   2
HETATM    2  O1  UNL     1      -0.296  -3.576  -0.008  1.00  0.00    -0.392 OA
ATOM      3  H1  UNL     1       0.234  -3.984   0.666  1.00  0.00     0.210 HD
ENDBRANCH   1   2
BRANCH   1   4
HETATM    4  C2  UNL     1      -0.573  -1.704  -1.484  1.00  0.00     0.183 C 
BRANCH   4   5
HETATM    5  N1  UNL     1      -1.938  -1.453  -0.981  1.00  0.00    -0.284 N 
HETATM    6  C3  UNL     1      -2.292  -0.313  -0.370  1.00  0.00     0.143 A 
HETATM    7  C4  UNL     1      -3.623  -0.406  -0.029  1.00  0.00     0.076 A 
HETATM    8  N2  UNL     1      -4.000  -1.621  -0.464  1.00  0.00    -0.284 N 
HETATM    9  N3  UNL     1      -2.976  -2.232  -1.031  1.00  0.00    -0.240 N 
ATOM     10  H2  UNL     1      -4.937  -2.012  -0.370  1.00  0.00     0.188 HD
ATOM     11  H3  UNL     1      -2.997  -3.165  -1.442  1.00  0.00     0.208 HD
BRANCH   7  12
HETATM   12  C5  UNL     1      -4.456   0.578   0.649  1.00  0.00    -0.006 A 
HETATM   13  C6  UNL     1      -5.783   0.323   0.916  1.00  0.00     0.017 A 
HETATM   14  C7  UNL     1      -6.532   1.288   1.562  1.00  0.00     0.043 A 
HETATM   15  C8  UNL     1      -6.014   2.504   1.957  1.00  0.00     0.116 A 
HETATM   16  F1  UNL     1      -6.790   3.437   2.596  1.00  0.00    -0.206 F 
HETATM   17  C9  UNL     1      -4.683   2.748   1.684  1.00  0.00     0.043 A 
HETATM   18  C10 UNL     1      -3.925   1.789   1.038  1.00  0.00     0.017 A 
ENDBRANCH   7  12
ENDBRANCH   4   5
ENDBRANCH   1   4
BRANCH   1  19
HETATM   19  C11 UNL     1       1.642  -2.617  -0.953  1.00  0.00     0.164 C 
BRANCH  19  20
HETATM   20  N4  UNL     1       2.311  -1.419  -1.399  1.00  0.00    -0.325 N 
HETATM   21  C12 UNL     1       2.353  -0.846  -2.619  1.00  0.00     0.185 A 
HETATM   22  N5  UNL     1       3.123   0.252  -2.536  1.00  0.00    -0.348 N 
HETATM   23  C13 UNL     1       3.581   0.401  -1.287  1.00  0.00     0.092 A 
ATOM     24  H5  UNL     1       3.329   0.881  -3.312  1.00  0.00     0.167 HD
HETATM   25  C14 UNL     1       4.352   1.190  -0.464  1.00  0.00     0.039 A 
HETATM   26  C19 UNL     1       3.067  -0.654  -0.571  1.00  0.00     0.138 A 
HETATM   27  C15 UNL     1       5.093   2.343  -0.612  1.00  0.00     0.019 A 
HETATM   28  C18 UNL     1       4.297   0.587   0.780  1.00  0.00     0.119 A 
HETATM   29  C16 UNL     1       5.780   2.910   0.444  1.00  0.00     0.018 A 
HETATM   30  C17 UNL     1       5.697   2.274   1.666  1.00  0.00     0.090 A 
HETATM   31  N6  UNL     1       4.966   1.139   1.811  1.00  0.00    -0.352 N 
ATOM     32  H6  UNL     1       4.922   0.692   2.727  1.00  0.00     0.166 HD
HETATM   33  N7  UNL     1       3.511  -0.522   0.669  1.00  0.00    -0.326 N 
ATOM     34  H7  UNL     1       3.295  -1.161   1.435  1.00  0.00     0.169 HD
ENDBRANCH  19  20
ENDBRANCH   1  19
TORSDOF 6
