REMARK  9 active torsions:
REMARK  status: ('A' for Active; 'I' for Inactive)
REMARK    1  A    between atoms: C2_3  and  C3_4 
REMARK    2  A    between atoms: C4_5  and  C5_6 
REMARK    3  A    between atoms: N4_11  and  C6_12 
REMARK    4  A    between atoms: C7_13  and  C8_14 
REMARK    5  A    between atoms: C8_14  and  S1_15 
REMARK    6  A    between atoms: S1_15  and  N5_16 
REMARK    7  A    between atoms: C9_23  and  N7_24 
REMARK    8  A    between atoms: C11_31  and  N9_32 
REMARK    9  A    between atoms: N9_32  and  C12_34 
ROOT
HETATM    1  N1  UNL     1       7.124  -0.055   0.721  1.00  0.00    -0.197 NA
HETATM    2  C1  UNL     1       6.360   0.804   0.478  1.00  0.00     0.062 C 
HETATM    3  C2  UNL     1       5.411   1.880   0.196  1.00  0.00     0.151 C 
ENDROOT
BRANCH   3   4
HETATM    4  C3  UNL     1       4.027   1.304   0.128  1.00  0.00    -0.010 C 
HETATM    5  C4  UNL     1       3.276   1.376  -0.924  1.00  0.00     0.032 C 
BRANCH   5   6
HETATM    6  C5  UNL     1       1.938   0.885  -1.175  1.00  0.00     0.095 A 
HETATM    7  N2  UNL     1       1.224   1.463  -2.233  1.00  0.00    -0.282 N 
HETATM    8  N3  UNL     1       0.039   0.938  -2.268  1.00  0.00    -0.233 N 
ATOM      9  H2  UNL     1       1.577   2.177  -2.869  1.00  0.00     0.188 HD
HETATM   10  N4  UNL     1      -0.126   0.050  -1.332  1.00  0.00    -0.216 N 
ATOM     11  H3  UNL     1      -0.678   1.191  -2.948  1.00  0.00     0.209 HD
HETATM   12  C11 UNL     1       1.088   0.000  -0.625  1.00  0.00     0.159 A 
BRANCH  10  13
HETATM   13  C6  UNL     1      -1.224  -0.759  -0.992  1.00  0.00     0.152 A 
HETATM   14  C7  UNL     1      -2.156  -0.283  -0.071  1.00  0.00     0.076 A 
HETATM   15  N6  UNL     1      -3.205  -1.055   0.255  1.00  0.00    -0.192 N 
HETATM   16  C9  UNL     1      -3.358  -2.289  -0.307  1.00  0.00     0.679 A 
ATOM     17  H6  UNL     1      -3.893  -0.717   0.928  1.00  0.00     0.184 HD
HETATM   18  N8  UNL     1      -2.474  -2.764  -1.193  1.00  0.00    -0.154 N 
HETATM   19  C10 UNL     1      -1.413  -2.022  -1.544  1.00  0.00     0.290 A 
ATOM     20  H8  UNL     1      -2.607  -3.689  -1.601  1.00  0.00     0.187 HD
HETATM   21  O3  UNL     1      -0.547  -2.429  -2.381  1.00  0.00    -0.265 OA
BRANCH  14  22
HETATM   22  C8  UNL     1      -1.918   1.049   0.492  1.00  0.00     0.223 C 
BRANCH  22  23
HETATM   23  S1  UNL     1      -3.124   1.608   1.634  1.00  0.00     0.229 S 
HETATM   24  O1  UNL     1      -2.794   2.971   2.185  1.00  0.00    -0.206 OA
HETATM   25  O2  UNL     1      -3.160   0.680   2.826  1.00  0.00    -0.206 OA
BRANCH  23  26
HETATM   26  N5  UNL     1      -4.686   1.717   0.932  1.00  0.00    -0.328 N 
ATOM     27  H52 UNL     1      -4.875   1.480  -0.042  1.00  0.00     0.168 HD
ATOM     28  H51 UNL     1      -5.388   2.042   1.597  1.00  0.00     0.168 HD
ENDBRANCH  23  26
ENDBRANCH  22  23
ENDBRANCH  14  22
BRANCH  16  29
HETATM   29  N7  UNL     1      -4.399  -2.964   0.066  1.00  0.00    -0.234 N 
ATOM     30  H72 UNL     1      -5.073  -2.602   0.741  1.00  0.00     0.174 HD
ATOM     31  H71 UNL     1      -4.513  -3.886  -0.354  1.00  0.00     0.174 HD
ENDBRANCH  16  29
ENDBRANCH  10  13
BRANCH  12  32
HETATM   32  N9  UNL     1       1.306  -1.025   0.316  1.00  0.00    -0.317 N 
ATOM     33  H9  UNL     1       0.461  -1.250   0.841  1.00  0.00     0.169 HD
BRANCH  32  34
HETATM   34  C12 UNL     1       2.375  -1.798   0.703  1.00  0.00     0.354 C 
HETATM   35  O4  UNL     1       3.521  -1.910   0.226  1.00  0.00    -0.283 OA
ENDBRANCH  32  34
ENDBRANCH  12  32
ENDBRANCH   5   6
ENDBRANCH   3   4
TORSDOF 9
