REMARK  8 active torsions:
REMARK  status: ('A' for Active; 'I' for Inactive)
REMARK    1  A    between atoms: O1_2  and  C2_3 
REMARK    2  A    between atoms: C3_4  and  C4_5 
REMARK       I    between atoms: C4_5  and  N1_7 
REMARK    3  A    between atoms: C8_11  and  N2_12 
REMARK    4  A    between atoms: N2_12  and  C9_14 
REMARK    5  A    between atoms: C9_14  and  C10_15 
REMARK    6  A    between atoms: C11_24  and  N7_25 
REMARK    7  A    between atoms: N7_25  and  C12_27 
REMARK    8  A    between atoms: C14_36  and  O4_37 
ROOT
HETATM    1  C2  UNL     1      -1.136  -1.249  -0.419  1.00  0.00     0.119 A 
HETATM    2  C3  UNL     1      -1.291  -0.293   0.559  1.00  0.00     0.070 A 
HETATM    3  C7  UNL     1      -0.202   0.541   0.810  1.00  0.00     0.051 A 
HETATM    4  C8  UNL     1       0.980   0.434   0.127  1.00  0.00     0.060 A 
HETATM    5  C11 UNL     1       1.103  -0.533  -0.846  1.00  0.00     0.111 A 
HETATM    6  C14 UNL     1       0.058  -1.390  -1.141  1.00  0.00     0.132 A 
ENDROOT
BRANCH   4   7
HETATM    7  N2  UNL     1       2.045   1.310   0.439  1.00  0.00    -0.381 N 
ATOM      8  H2  UNL     1       2.922   1.173  -0.063  1.00  0.00     0.160 HD
BRANCH   7   9
HETATM    9  C9  UNL     1       2.002   2.372   1.397  1.00  0.00     0.199 C 
BRANCH   9  10
HETATM   10  C10 UNL     1       1.061   3.459   1.058  1.00  0.00     0.131 A 
HETATM   11  N3  UNL     1       0.367   3.693  -0.065  1.00  0.00    -0.271 N 
HETATM   12  N4  UNL     1      -0.334   4.787   0.119  1.00  0.00    -0.227 N 
ATOM     13  H3  UNL     1       0.381   3.123  -0.911  1.00  0.00     0.190 HD
HETATM   14  N5  UNL     1      -0.102   5.260   1.343  1.00  0.00    -0.227 N 
ATOM     15  H4  UNL     1      -0.959   5.209  -0.568  1.00  0.00     0.210 HD
HETATM   16  N6  UNL     1       0.748   4.448   1.911  1.00  0.00    -0.271 N 
ATOM     17  H5  UNL     1      -0.511   6.098   1.757  1.00  0.00     0.210 HD
ATOM     18  H6  UNL     1       1.117   4.549   2.856  1.00  0.00     0.190 HD
ENDBRANCH   9  10
ENDBRANCH   7   9
ENDBRANCH   4   7
BRANCH   5  19
HETATM   19  N7  UNL     1       2.354  -0.634  -1.555  1.00  0.00    -0.185 N 
ATOM     20  H7  UNL     1       2.455  -0.195  -2.470  1.00  0.00     0.184 HD
BRANCH  19  21
HETATM   21  C12 UNL     1       3.354  -1.282  -1.034  1.00  0.00     0.701 A 
HETATM   22  N8  UNL     1       3.378  -1.914   0.161  1.00  0.00    -0.128 N 
HETATM   23  N9  UNL     1       4.588  -2.466   0.346  1.00  0.00    -0.237 N 
ATOM     24  H8  UNL     1       2.600  -1.964   0.818  1.00  0.00     0.205 HD
HETATM   25  C13 UNL     1       5.360  -2.197  -0.726  1.00  0.00     0.353 A 
ATOM     26  H9  UNL     1       4.876  -3.002   1.165  1.00  0.00     0.192 HD
HETATM   27  O3  UNL     1       6.552  -2.575  -0.861  1.00  0.00    -0.245 OA
HETATM   28  N10 UNL     1       4.579  -1.475  -1.546  1.00  0.00    -0.139 N 
ATOM     29  H10 UNL     1       4.882  -1.116  -2.451  1.00  0.00     0.189 HD
ENDBRANCH  19  21
ENDBRANCH   5  19
BRANCH   2  30
HETATM   30  C4  UNL     1      -2.541  -0.129   1.311  1.00  0.00     0.256 C 
HETATM   31  O2  UNL     1      -2.696  -0.847   2.360  1.00  0.00    -0.267 OA
HETATM   32  N1  UNL     1      -3.567   0.753   0.964  1.00  0.00    -0.357 N 
HETATM   33  C5  UNL     1      -3.418   1.588  -0.210  1.00  0.00     0.152 C 
HETATM   34  C6  UNL     1      -4.762   0.823   1.774  1.00  0.00     0.152 C 
ENDBRANCH   2  30
BRANCH   6  35
HETATM   35  O4  UNL     1       0.194  -2.360  -2.124  1.00  0.00    -0.351 OA
HETATM   36  C15 UNL     1       0.668  -3.661  -1.834  1.00  0.00     0.210 C 
ENDBRANCH   6  35
BRANCH   1  37
HETATM   37  O1  UNL     1      -2.153  -2.126  -0.744  1.00  0.00    -0.352 OA
HETATM   38  C1  UNL     1      -3.134  -1.939  -1.718  1.00  0.00     0.210 C 
ENDBRANCH   1  37
TORSDOF 8
