REMARK  10 active torsions:
REMARK  status: ('A' for Active; 'I' for Inactive)
REMARK    1  A    between atoms: N1_2  and  C2_3 
REMARK    2  A    between atoms: N1_2  and  C18_21 
REMARK    3  A    between atoms: C2_3  and  C3_4 
REMARK    4  A    between atoms: C3_4  and  C4_5 
REMARK    5  A    between atoms: C4_5  and  N2_6 
REMARK    6  A    between atoms: N3_9  and  C7_10 
REMARK    7  A    between atoms: C7_10  and  C8_11 
REMARK    8  A    between atoms: C8_11  and  C11_14 
REMARK    9  A    between atoms: N4_24  and  C21_25 
REMARK   10  A    between atoms: C21_25  and  C22_26 
ROOT
HETATM    1  C2  UNL     1       2.057  -0.850   0.523  1.00  0.00     0.277 C 
ENDROOT
BRANCH   1   2
HETATM    2  N1  UNL     1       2.752  -0.579  -0.694  1.00  0.00     0.089 N 
HETATM    3  C1  UNL     1       2.506  -1.650  -1.620  1.00  0.00     0.310 C 
BRANCH   2   4
HETATM    4  C18 UNL     1       4.128  -0.352  -0.405  1.00  0.00     0.225 C 
HETATM    5  C19 UNL     1       4.937   0.063  -1.620  1.00  0.00     0.055 C 
HETATM    6  C20 UNL     1       6.223   0.693  -1.078  1.00  0.00     0.119 C 
HETATM    7  N4  UNL     1       6.421   0.305   0.274  1.00  0.00    -0.406 N 
HETATM    8  C26 UNL     1       6.281  -1.078   0.563  1.00  0.00     0.119 C 
HETATM    9  C27 UNL     1       4.851  -1.529   0.219  1.00  0.00     0.055 C 
BRANCH   7  10
HETATM   10  C21 UNL     1       7.382   1.038   1.005  1.00  0.00     0.193 C 
BRANCH  10  11
HETATM   11  C22 UNL     1       8.739   1.001   0.450  1.00  0.00     0.100 A 
HETATM   12  N5  UNL     1       9.202   1.836  -0.495  1.00  0.00    -0.353 N 
HETATM   13  C23 UNL     1      10.483   1.540  -0.792  1.00  0.00     0.106 A 
ATOM     14  H5  UNL     1       8.662   2.586  -0.926  1.00  0.00     0.166 HD
HETATM   15  C24 UNL     1      10.811   0.477   0.010  1.00  0.00     0.108 A 
HETATM   16  N6  UNL     1       9.736   0.156   0.765  1.00  0.00    -0.348 N 
HETATM   17  C25 UNL     1       9.704  -0.925   1.744  1.00  0.00     0.157 C 
ENDBRANCH  10  11
ENDBRANCH   7  10
ENDBRANCH   2   4
ENDBRANCH   1   2
BRANCH   1  18
HETATM   18  C3  UNL     1       0.577  -0.789   0.480  1.00  0.00     0.075 C 
BRANCH  18  19
HETATM   19  C4  UNL     1       0.004   0.554   0.078  1.00  0.00     0.065 C 
BRANCH  19  20
HETATM   20  N2  UNL     1      -1.405   0.553   0.060  1.00  0.00    -0.370 N 
HETATM   21  C5  UNL     1      -1.998   1.758  -0.283  1.00  0.00     0.093 C 
HETATM   22  C6  UNL     1      -3.483   1.859  -0.041  1.00  0.00     0.317 C 
HETATM   23  N3  UNL     1      -4.140   0.520  -0.209  1.00  0.00     0.095 N 
HETATM   24  C16 UNL     1      -3.476  -0.241   0.869  1.00  0.00     0.293 C 
HETATM   25  C17 UNL     1      -2.124  -0.626   0.236  1.00  0.00     0.157 C 
BRANCH  23  26
HETATM   26  C7  UNL     1      -5.533   0.730   0.034  1.00  0.00     0.282 C 
BRANCH  26  27
HETATM   27  C8  UNL     1      -6.380  -0.321  -0.552  1.00  0.00    -0.018 C 
HETATM   28  C9  UNL     1      -6.135  -0.301  -2.065  1.00  0.00     0.017 C 
HETATM   29  C10 UNL     1      -6.075  -1.719  -0.101  1.00  0.00     0.017 C 
BRANCH  27  30
HETATM   30  C11 UNL     1      -7.860  -0.119  -0.326  1.00  0.00    -0.005 C 
HETATM   31  C12 UNL     1      -8.420   1.143  -0.882  1.00  0.00     0.005 C 
HETATM   32  C13 UNL     1      -9.846   1.098  -0.312  1.00  0.00     0.000 C 
HETATM   33  C14 UNL     1      -9.686   0.480   1.054  1.00  0.00     0.000 C 
HETATM   34  C15 UNL     1      -8.238  -0.021   1.130  1.00  0.00     0.005 C 
ENDBRANCH  27  30
ENDBRANCH  26  27
ENDBRANCH  23  26
ENDBRANCH  19  20
ENDBRANCH  18  19
ENDBRANCH   1  18
TORSDOF 10
