REMARK  12 active torsions:
REMARK  status: ('A' for Active; 'I' for Inactive)
REMARK    1  A    between atoms: C2_2  and  N1_3 
REMARK    2  A    between atoms: N1_3  and  C3_4 
REMARK    3  A    between atoms: N1_3  and  C5_6 
REMARK    4  A    between atoms: C5_6  and  C6_7 
REMARK    5  A    between atoms: C6_7  and  O1_8 
REMARK    6  A    between atoms: O1_8  and  N2_9 
REMARK    7  A    between atoms: N3_17  and  C13_18 
REMARK    8  A    between atoms: C13_18  and  O2_19 
REMARK    9  A    between atoms: C13_18  and  C14_21 
REMARK   10  A    between atoms: C14_21  and  C15_22 
REMARK   11  A    between atoms: C19_26  and  O3_27 
REMARK   12  A    between atoms: C23_32  and  C24_33 
ROOT
HETATM    1  N2  UNL     1      -1.266   1.665  -0.910  1.00  0.00    -0.271 N 
ATOM      2  H2  UNL     1      -1.442   2.430  -1.561  1.00  0.00     0.193 HD
HETATM    3  C7  UNL     1      -0.513   1.925   0.099  1.00  0.00     0.053 C 
HETATM    4  C8  UNL     1      -0.118   1.009   1.154  1.00  0.00     0.078 C 
HETATM    5  C9  UNL     1       0.827   1.751   2.039  1.00  0.00     0.008 C 
HETATM    6  C10 UNL     1       2.123   1.065   1.800  1.00  0.00     0.015 C 
HETATM    7  C11 UNL     1       1.675  -0.403   1.686  1.00  0.00     0.041 C 
HETATM    8  C12 UNL     1       2.783  -1.129   0.961  1.00  0.00     0.132 C 
HETATM    9  N3  UNL     1       2.536  -0.964  -0.420  1.00  0.00    -0.359 N 
HETATM   10  C18 UNL     1       1.221  -0.243  -0.585  1.00  0.00     0.164 C 
HETATM   11  C19 UNL     1       0.538  -0.278   0.711  1.00  0.00     0.090 C 
HETATM   12  C21 UNL     1       0.795   3.200   1.651  1.00  0.00     0.055 C 
HETATM   13  C22 UNL     1       1.929   3.719   0.840  1.00  0.00     0.178 C 
HETATM   14  O4  UNL     1       1.229   3.526  -0.354  1.00  0.00    -0.373 OA
HETATM   15  C23 UNL     1       0.054   3.277   0.337  1.00  0.00     0.110 C 
ENDROOT
BRANCH   1  16
HETATM   16  O1  UNL     1      -1.850   0.472  -1.194  1.00  0.00    -0.279 OA
BRANCH  16  17
HETATM   17  C6  UNL     1      -3.138   0.397  -1.776  1.00  0.00     0.231 C 
BRANCH  17  18
HETATM   18  C5  UNL     1      -3.608  -1.014  -2.000  1.00  0.00     0.301 C 
BRANCH  18  19
HETATM   19  N1  UNL     1      -3.699  -1.804  -0.807  1.00  0.00     0.089 N 
BRANCH  19  20
HETATM   20  C2  UNL     1      -4.164  -3.118  -1.134  1.00  0.00     0.268 C 
HETATM   21  C1  UNL     1      -3.898  -4.118  -0.040  1.00  0.00     0.037 C 
ENDBRANCH  19  20
BRANCH  19  22
HETATM   22  C3  UNL     1      -4.417  -1.172   0.252  1.00  0.00     0.268 C 
HETATM   23  C4  UNL     1      -5.834  -0.807  -0.074  1.00  0.00     0.037 C 
ENDBRANCH  19  22
ENDBRANCH  18  19
ENDBRANCH  17  18
ENDBRANCH  16  17
ENDBRANCH   1  16
BRANCH  15  24
HETATM   24  C24 UNL     1      -0.966   4.392   0.259  1.00  0.00     0.018 C 
HETATM   25  C25 UNL     1      -2.065   4.231   1.271  1.00  0.00     0.013 C 
HETATM   26  C26 UNL     1      -0.355   5.760   0.432  1.00  0.00     0.013 C 
ENDBRANCH  15  24
BRANCH  11  27
HETATM   27  O3  UNL     1      -0.353  -1.310   0.888  1.00  0.00    -0.382 OA
HETATM   28  C20 UNL     1       0.050  -2.562   0.537  1.00  0.00     0.202 C 
ENDBRANCH  11  27
BRANCH   9  29
HETATM   29  C13 UNL     1       3.288  -1.346  -1.533  1.00  0.00     0.138 C 
BRANCH  29  30
HETATM   30  O2  UNL     1       2.717  -1.016  -2.713  1.00  0.00    -0.346 OA
ATOM     31  H2  UNL     1       3.229  -1.276  -3.470  1.00  0.00     0.219 HD
ENDBRANCH  29  30
BRANCH  29  32
HETATM   32  C14 UNL     1       4.524  -2.007  -1.733  1.00  0.00     0.057 C 
BRANCH  32  33
HETATM   33  C15 UNL     1       5.477  -2.530  -1.054  1.00  0.00    -0.084 C 
HETATM   34  C16 UNL     1       5.727  -2.689   0.378  1.00  0.00     0.043 C 
HETATM   35  C17 UNL     1       6.614  -3.126  -1.932  1.00  0.00     0.043 C 
ENDBRANCH  32  33
ENDBRANCH  29  32
ENDBRANCH   9  29
TORSDOF 12
