REMARK  12 active torsions:
REMARK  status: ('A' for Active; 'I' for Inactive)
REMARK    1  A    between atoms: C2_2  and  C3_3 
REMARK    2  A    between atoms: C3_3  and  N1_4 
REMARK    3  A    between atoms: C9_10  and  O1_11 
REMARK    4  A    between atoms: C13_15  and  C14_16 
REMARK    5  A    between atoms: C14_16  and  O2_17 
REMARK    6  A    between atoms: O2_17  and  C15_18 
REMARK    7  A    between atoms: C15_18  and  C16_20 
REMARK    8  A    between atoms: C18_22  and  C19_23 
REMARK    9  A    between atoms: C20_24  and  C21_25 
REMARK   10  A    between atoms: C22_26  and  C23_27 
REMARK   11  A    between atoms: C23_27  and  C24_29 
REMARK   12  A    between atoms: C24_29  and  C25_31 
ROOT
HETATM    1  O2  UNL     1      -0.209  -0.233   2.057  1.00  0.00    -0.317 OA
ENDROOT
BRANCH   1   2
HETATM    2  C14 UNL     1      -1.591  -0.125   2.091  1.00  0.00     0.189 C 
BRANCH   2   3
HETATM    3  C13 UNL     1      -2.355  -0.609   0.925  1.00  0.00    -0.008 A 
HETATM    4  C6  UNL     1      -3.880  -0.440   0.939  1.00  0.00     0.006 C 
HETATM    5  C5  UNL     1      -4.242   0.924   1.419  1.00  0.00     0.036 C 
HETATM    6  C7  UNL     1      -4.267  -0.728  -0.473  1.00  0.00     0.048 C 
HETATM    7  C4  UNL     1      -5.671   1.272   1.159  1.00  0.00     0.273 C 
HETATM    8  N1  UNL     1      -6.297   0.525   0.131  1.00  0.00     0.092 N 
HETATM    9  C8  UNL     1      -5.429   0.121  -0.945  1.00  0.00     0.280 C 
HETATM   10  C9  UNL     1      -3.061  -0.329  -1.273  1.00  0.00     0.132 C 
HETATM   11  C11 UNL     1      -1.884  -0.783  -0.418  1.00  0.00     0.027 A 
HETATM   12  C12 UNL     1      -2.020  -2.007   0.414  1.00  0.00     0.020 A 
BRANCH   8  13
HETATM   13  C3  UNL     1      -7.172  -0.501   0.600  1.00  0.00     0.299 C 
BRANCH  13  14
HETATM   14  C2  UNL     1      -7.782  -1.230  -0.548  1.00  0.00    -0.007 C 
HETATM   15  C1  UNL     1      -7.600  -2.533  -0.711  1.00  0.00     0.008 C 
ENDBRANCH  13  14
ENDBRANCH   8  13
BRANCH  10  16
HETATM   16  O1  UNL     1      -3.019  -0.899  -2.536  1.00  0.00    -0.390 OA
HETATM   17  C10 UNL     1      -2.918   0.135  -3.464  1.00  0.00     0.202 C 
ENDBRANCH  10  16
ENDBRANCH   2   3
ENDBRANCH   1   2
BRANCH   1  18
HETATM   18  C15 UNL     1       0.591   0.605   1.260  1.00  0.00     0.288 C 
HETATM   19  O3  UNL     1      -0.063   1.467   0.615  1.00  0.00    -0.260 OA
BRANCH  18  20
HETATM   20  C16 UNL     1       2.024   0.455   1.218  1.00  0.00     0.013 C 
HETATM   21  C17 UNL     1       2.594  -0.651   2.077  1.00  0.00     0.054 C 
HETATM   22  C18 UNL     1       2.833   1.171   0.521  1.00  0.00     0.013 C 
BRANCH  22  23
HETATM   23  C19 UNL     1       2.526   2.271  -0.364  1.00  0.00     0.010 C 
HETATM   24  C20 UNL     1       3.497   2.905  -1.009  1.00  0.00     0.065 C 
BRANCH  24  25
HETATM   25  C21 UNL     1       4.845   2.461  -0.796  1.00  0.00    -0.070 C 
HETATM   26  C22 UNL     1       5.985   2.093  -0.597  1.00  0.00    -0.016 C 
BRANCH  26  27
HETATM   27  C23 UNL     1       7.326   1.663  -0.337  1.00  0.00     0.271 C 
HETATM   28  O4  UNL     1       8.263   2.499  -0.115  1.00  0.00    -0.274 OA
BRANCH  27  29
HETATM   29  C24 UNL     1       7.660   0.248  -0.318  1.00  0.00     0.211 C 
HETATM   30  O5  UNL     1       6.746  -0.582  -0.535  1.00  0.00    -0.288 OA
BRANCH  29  31
HETATM   31  C25 UNL     1       9.057  -0.219  -0.048  1.00  0.00     0.056 C 
HETATM   32  C26 UNL     1       9.120  -1.714  -0.088  1.00  0.00     0.018 C 
HETATM   33  C27 UNL     1       9.963   0.434  -1.064  1.00  0.00     0.018 C 
ENDBRANCH  29  31
ENDBRANCH  27  29
ENDBRANCH  26  27
ENDBRANCH  24  25
ENDBRANCH  22  23
ENDBRANCH  18  20
ENDBRANCH   1  18
TORSDOF 12
