REMARK  10 active torsions:
REMARK  status: ('A' for Active; 'I' for Inactive)
REMARK    1  A    between atoms: C4_4  and  C5_5 
REMARK    2  A    between atoms: C5_5  and  C6_6 
REMARK    3  A    between atoms: C6_6  and  C7_7 
REMARK    4  A    between atoms: C7_7  and  C8_8 
REMARK    5  A    between atoms: C8_8  and  C9_9 
REMARK    6  A    between atoms: C9_9  and  C10_10 
REMARK    7  A    between atoms: C10_10  and  C11_11 
REMARK       I    between atoms: C11_11  and  N1_13 
REMARK    8  A    between atoms: N2_16  and  C14_17 
REMARK    9  A    between atoms: C17_20  and  N3_21 
REMARK   10  A    between atoms: C22_27  and  N4_28 
ROOT
HETATM    1  C1  UNL     1      11.488  -2.058   3.787  1.00  0.00     0.027 C 
HETATM    2  C2  UNL     1      10.864  -1.984   2.751  1.00  0.00    -0.026 C 
HETATM    3  C3  UNL     1      10.149  -1.894   1.532  1.00  0.00    -0.016 C 
HETATM    4  C4  UNL     1       9.556  -1.824   0.479  1.00  0.00    -0.093 C 
ENDROOT
BRANCH   4   5
HETATM    5  C5  UNL     1       8.864  -1.737  -0.805  1.00  0.00     0.095 C 
BRANCH   5   6
HETATM    6  C6  UNL     1       7.501  -1.075  -0.568  1.00  0.00     0.012 C 
BRANCH   6   7
HETATM    7  C7  UNL     1       6.833  -1.005  -1.905  1.00  0.00     0.001 C 
BRANCH   7   8
HETATM    8  C8  UNL     1       5.471  -0.383  -1.898  1.00  0.00     0.000 C 
BRANCH   8   9
HETATM    9  C9  UNL     1       4.537  -1.186  -0.998  1.00  0.00     0.009 C 
BRANCH   9  10
HETATM   10  C10 UNL     1       3.174  -0.531  -1.017  1.00  0.00     0.103 C 
BRANCH  10  11
HETATM   11  C11 UNL     1       2.216  -1.263  -0.168  1.00  0.00     0.219 C 
HETATM   12  O1  UNL     1       2.647  -2.289   0.448  1.00  0.00    -0.273 OA
HETATM   13  N1  UNL     1       0.861  -0.858  -0.029  1.00  0.00    -0.349 N 
HETATM   14  C12 UNL     1       0.426   0.318  -0.745  1.00  0.00     0.145 C 
HETATM   15  C25 UNL     1      -0.058  -1.591   0.790  1.00  0.00     0.145 C 
HETATM   16  C13 UNL     1      -0.276   1.212   0.260  1.00  0.00     0.143 C 
HETATM   17  N2  UNL     1      -1.330   0.407   0.828  1.00  0.00    -0.378 N 
HETATM   18  C24 UNL     1      -0.817  -0.668   1.683  1.00  0.00     0.143 C 
BRANCH  17  19
HETATM   19  C14 UNL     1      -2.700   0.620   0.586  1.00  0.00     0.032 A 
HETATM   20  C15 UNL     1      -3.646  -0.259   1.051  1.00  0.00     0.031 A 
HETATM   21  C16 UNL     1      -4.989  -0.047   0.814  1.00  0.00     0.034 A 
HETATM   22  C17 UNL     1      -5.461   1.061   0.096  1.00  0.00     0.064 A 
HETATM   23  C22 UNL     1      -4.511   1.929  -0.363  1.00  0.00     0.131 A 
HETATM   24  C23 UNL     1      -3.137   1.700  -0.112  1.00  0.00     0.067 A 
BRANCH  22  25
HETATM   25  N3  UNL     1      -6.833   1.250  -0.085  1.00  0.00    -0.375 N 
HETATM   26  C18 UNL     1      -7.572   2.312   0.613  1.00  0.00     0.149 C 
HETATM   27  C19 UNL     1      -8.518   1.564   1.541  1.00  0.00     0.187 C 
HETATM   28  O2  UNL     1      -9.138   0.513   0.917  1.00  0.00    -0.388 OA
HETATM   29  C20 UNL     1      -9.081   0.566  -0.471  1.00  0.00     0.187 C 
HETATM   30  C21 UNL     1      -7.658   0.425  -0.965  1.00  0.00     0.149 C 
ENDBRANCH  22  25
BRANCH  23  31
HETATM   31  N4  UNL     1      -4.853   3.071  -1.108  1.00  0.00    -0.113 N 
HETATM   32  O3  UNL     1      -4.119   4.069  -1.062  1.00  0.00    -0.532 OA
HETATM   33  O4  UNL     1      -5.972   3.094  -1.875  1.00  0.00    -0.532 OA
ENDBRANCH  23  31
ENDBRANCH  17  19
ENDBRANCH  10  11
ENDBRANCH   9  10
ENDBRANCH   8   9
ENDBRANCH   7   8
ENDBRANCH   6   7
ENDBRANCH   5   6
ENDBRANCH   4   5
TORSDOF 10
