REMARK  7 active torsions:
REMARK  status: ('A' for Active; 'I' for Inactive)
REMARK    1  A    between atoms: O1_2  and  C2_3 
REMARK    2  A    between atoms: C2_3  and  C3_5 
REMARK    3  A    between atoms: C3_5  and  O3_7 
REMARK    4  A    between atoms: O3_7  and  C5_8 
REMARK    5  A    between atoms: C5_8  and  C6_12 
REMARK    6  A    between atoms: C11_17  and  N2_18 
REMARK    7  A    between atoms: C15_25  and  C16_26 
ROOT
HETATM    1  C6  UNL     1       0.724  -0.838  -0.354  1.00  0.00     0.048 A 
HETATM    2  C7  UNL     1      -0.375  -0.156   0.222  1.00  0.00     0.027 A 
HETATM    3  C8  UNL     1      -1.633  -0.107  -0.340  1.00  0.00    -0.028 A 
HETATM    4  C9  UNL     1      -1.781  -0.773  -1.528  1.00  0.00     0.010 A 
HETATM    5  C10 UNL     1      -0.760  -1.443  -2.121  1.00  0.00     0.056 A 
HETATM    6  C11 UNL     1       0.531  -1.485  -1.526  1.00  0.00     0.118 A 
HETATM    7  S1  UNL     1      -3.402  -0.737  -2.307  1.00  0.00    -0.125 SA
HETATM    8  C12 UNL     1      -4.513   0.149  -1.203  1.00  0.00     0.049 C 
HETATM    9  C13 UNL     1      -5.586   0.833  -2.027  1.00  0.00     0.021 C 
HETATM   10  C14 UNL     1      -3.732   1.217  -0.483  1.00  0.00     0.033 C 
HETATM   11  C15 UNL     1      -2.656   0.643   0.391  1.00  0.00     0.110 C 
ENDROOT
BRANCH   1  12
HETATM   12  C5  UNL     1       2.002  -0.684   0.282  1.00  0.00     0.149 C 
HETATM   13  N1  UNL     1       2.073  -0.137   1.443  1.00  0.00    -0.379 N 
ATOM     14  H12 UNL     1       2.981  -0.028   1.895  1.00  0.00     0.158 HD
ATOM     15  H11 UNL     1       1.187   0.156   1.854  1.00  0.00     0.158 HD
BRANCH  12  16
HETATM   16  O3  UNL     1       3.211  -1.084  -0.279  1.00  0.00    -0.320 OA
BRANCH  16  17
HETATM   17  C3  UNL     1       4.459  -0.861   0.302  1.00  0.00     0.226 C 
HETATM   18  C4  UNL     1       4.679  -1.705   1.539  1.00  0.00     0.051 C 
BRANCH  17  19
HETATM   19  C2  UNL     1       4.803   0.541   0.507  1.00  0.00     0.287 C 
HETATM   20  O2  UNL     1       5.921   0.766   1.085  1.00  0.00    -0.262 OA
BRANCH  19  21
HETATM   21  O1  UNL     1       4.060   1.641   0.147  1.00  0.00    -0.324 OA
HETATM   22  C1  UNL     1       4.548   2.957   0.424  1.00  0.00     0.213 C 
ENDBRANCH  19  21
ENDBRANCH  17  19
ENDBRANCH  16  17
ENDBRANCH  12  16
ENDBRANCH   1  12
BRANCH   6  23
HETATM   23  N2  UNL     1       1.477  -2.248  -2.251  1.00  0.00    -0.115 N 
HETATM   24  O4  UNL     1       1.353  -2.213  -3.541  1.00  0.00    -0.532 OA
HETATM   25  O5  UNL     1       2.483  -2.980  -1.725  1.00  0.00    -0.532 OA
ENDBRANCH   6  23
BRANCH  11  26
HETATM   26  C16 UNL     1      -3.194  -0.167   1.506  1.00  0.00     0.239 C 
HETATM   27  N3  UNL     1      -4.213   0.261   2.388  1.00  0.00    -0.062 NA
HETATM   28  O6  UNL     1      -2.718  -1.314   1.688  1.00  0.00    -0.276 OA
ENDBRANCH  11  26
TORSDOF 7
