REMARK  5 active torsions:
REMARK  status: ('A' for Active; 'I' for Inactive)
REMARK    1  A    between atoms: O1_2  and  C2_3 
REMARK    2  A    between atoms: C10_13  and  O4_14 
REMARK    3  A    between atoms: C12_17  and  S1_18 
REMARK    4  A    between atoms: C14_20  and  O6_21 
REMARK    5  A    between atoms: C16_23  and  O7_24 
ROOT
HETATM    1  C2  UNL     1       3.992  -0.831   0.129  1.00  0.00     0.104 A 
HETATM    2  C3  UNL     1       3.247  -1.987   0.117  1.00  0.00     0.078 A 
HETATM    3  C4  UNL     1       1.879  -1.873  -0.039  1.00  0.00     0.095 A 
HETATM    4  O2  UNL     1       1.125  -2.954  -0.057  1.00  0.00    -0.274 OA
HETATM    5  C5  UNL     1      -0.162  -2.890  -0.202  1.00  0.00     0.297 A 
HETATM    6  O3  UNL     1      -0.885  -3.948  -0.217  1.00  0.00    -0.259 OA
HETATM    7  C6  UNL     1      -0.784  -1.665  -0.344  1.00  0.00     0.054 A 
HETATM    8  C7  UNL     1      -0.056  -0.497  -0.335  1.00  0.00     0.096 A 
HETATM    9  C8  UNL     1       1.308  -0.624  -0.177  1.00  0.00     0.035 A 
HETATM   10  C9  UNL     1       2.080   0.526  -0.162  1.00  0.00     0.056 A 
HETATM   11  C10 UNL     1       3.444   0.427  -0.007  1.00  0.00     0.102 A 
HETATM   12  O5  UNL     1      -0.494   0.809  -0.461  1.00  0.00    -0.331 OA
HETATM   13  C12 UNL     1      -1.706   1.381  -0.088  1.00  0.00     0.221 C 
HETATM   14  C14 UNL     1      -2.850   0.557  -0.607  1.00  0.00     0.189 C 
HETATM   15  C16 UNL     1      -3.040  -0.738   0.130  1.00  0.00     0.155 C 
HETATM   16  C17 UNL     1      -2.233  -1.851  -0.492  1.00  0.00     0.082 C 
ENDROOT
BRANCH   1  17
HETATM   17  O1  UNL     1       5.373  -0.886   0.284  1.00  0.00    -0.353 OA
HETATM   18  C1  UNL     1       6.029  -2.132   0.431  1.00  0.00     0.210 C 
ENDBRANCH   1  17
BRANCH  11  19
HETATM   19  O4  UNL     1       4.207   1.578   0.007  1.00  0.00    -0.353 OA
HETATM   20  C11 UNL     1       3.586   2.820  -0.136  1.00  0.00     0.210 C 
ENDBRANCH  11  19
BRANCH  13  21
HETATM   21  S1  UNL     1      -1.752   1.684   1.667  1.00  0.00    -0.139 SA
HETATM   22  C13 UNL     1      -3.283   2.421   2.233  1.00  0.00     0.092 C 
ENDBRANCH  13  21
BRANCH  15  23
HETATM   23  O7  UNL     1      -2.845  -0.655   1.485  1.00  0.00    -0.393 OA
ATOM     24  H7  UNL     1      -2.965  -1.474   1.951  1.00  0.00     0.210 HD
ENDBRANCH  15  23
BRANCH  14  25
HETATM   25  O6  UNL     1      -4.049   1.261  -0.623  1.00  0.00    -0.385 OA
HETATM   26  C15 UNL     1      -4.539   1.403  -1.937  1.00  0.00     0.202 C 
ENDBRANCH  14  25
TORSDOF 5
