REMARK  5 active torsions:
REMARK  status: ('A' for Active; 'I' for Inactive)
REMARK    1  A    between atoms: C2_2  and  C3_3 
REMARK    2  A    between atoms: C3_3  and  N1_4 
REMARK    3  A    between atoms: C4_5  and  S1_6 
REMARK    4  A    between atoms: S1_6  and  C5_7 
REMARK    5  A    between atoms: C5_7  and  C6_8 
REMARK       I    between atoms: C6_8  and  N2_10 
ROOT
HETATM    1  N1  UNL     1      -2.259  -1.008  -0.638  1.00  0.00    -0.321 N 
HETATM    2  C4  UNL     1      -1.125  -0.711   0.032  1.00  0.00     0.149 A 
HETATM    3  N3  UNL     1      -1.251   0.551   0.439  1.00  0.00    -0.321 N 
ATOM      4  H3  UNL     1      -0.550   1.062   0.975  1.00  0.00     0.169 HD
HETATM    5  C12 UNL     1      -2.460   1.067   0.034  1.00  0.00     0.136 A 
HETATM    6  C13 UNL     1      -3.096   0.077  -0.651  1.00  0.00     0.138 A 
HETATM    7  C14 UNL     1      -4.415   0.255  -1.243  1.00  0.00     0.241 C 
HETATM    8  O2  UNL     1      -4.943  -0.573  -1.982  1.00  0.00    -0.278 OA
HETATM    9  S2  UNL     1      -5.318   1.767  -0.868  1.00  0.00    -0.060 SA
HETATM   10  C15 UNL     1      -4.007   2.993  -0.501  1.00  0.00     0.149 C 
HETATM   11  C16 UNL     1      -4.689   4.085   0.297  1.00  0.00     0.044 C 
HETATM   12  N4  UNL     1      -3.000   2.354   0.281  1.00  0.00    -0.361 N 
ATOM     13  H4  UNL     1      -2.638   2.866   1.085  1.00  0.00     0.162 HD
ENDROOT
BRANCH   2  14
HETATM   14  S1  UNL     1       0.243  -1.834   0.305  1.00  0.00    -0.084 SA
BRANCH  14  15
HETATM   15  C5  UNL     1       1.564  -1.078   1.232  1.00  0.00     0.185 C 
BRANCH  15  16
HETATM   16  C6  UNL     1       2.843  -1.366   0.561  1.00  0.00     0.229 C 
HETATM   17  O1  UNL     1       3.237  -2.563   0.619  1.00  0.00    -0.273 OA
HETATM   18  N2  UNL     1       3.636  -0.431  -0.114  1.00  0.00    -0.351 N 
HETATM   19  C7  UNL     1       4.886  -0.870  -0.751  1.00  0.00     0.125 C 
HETATM   20  C11 UNL     1       3.355   0.984  -0.247  1.00  0.00     0.125 C 
HETATM   21  C8  UNL     1       5.769   0.346  -0.944  1.00  0.00     0.020 C 
HETATM   22  C9  UNL     1       5.754   1.271   0.247  1.00  0.00     0.003 C 
HETATM   23  C10 UNL     1       4.371   1.679   0.650  1.00  0.00     0.020 C 
ENDBRANCH  15  16
ENDBRANCH  14  15
ENDBRANCH   2  14
BRANCH   1  24
HETATM   24  C3  UNL     1      -2.598  -2.264  -1.227  1.00  0.00     0.131 C 
BRANCH  24  25
HETATM   25  C2  UNL     1      -3.456  -3.192  -0.464  1.00  0.00     0.016 C 
HETATM   26  C1  UNL     1      -3.002  -3.659   0.869  1.00  0.00     0.006 C 
ENDBRANCH  24  25
ENDBRANCH   1  24
TORSDOF 5
