REMARK  6 active torsions:
REMARK  status: ('A' for Active; 'I' for Inactive)
REMARK    1  A    between atoms: C3_7  and  S1_8 
REMARK    2  A    between atoms: S1_8  and  C4_9 
REMARK    3  A    between atoms: C4_9  and  C5_10 
REMARK       I    between atoms: C5_10  and  N3_12 
REMARK    4  A    between atoms: N3_12  and  C6_14 
REMARK    5  A    between atoms: C7_19  and  S2_20 
REMARK    6  A    between atoms: S2_20  and  C8_21 
ROOT
HETATM    1  C6  UNL     1       0.321  -0.069   0.185  1.00  0.00     0.168 A 
HETATM    2  N4  UNL     1      -0.614   0.038  -0.765  1.00  0.00    -0.278 N 
ATOM      3  H4  UNL     1      -0.356   0.267  -1.725  1.00  0.00     0.189 HD
HETATM    4  N5  UNL     1      -1.827  -0.151  -0.450  1.00  0.00    -0.286 N 
ATOM      5  H5  UNL     1      -2.553  -0.073  -1.162  1.00  0.00     0.188 HD
HETATM    6  C7  UNL     1      -2.158  -0.449   0.796  1.00  0.00     0.130 A 
HETATM    7  S3  UNL     1      -0.632  -0.457   1.558  1.00  0.00    -0.026 SA
ENDROOT
BRANCH   1   8
HETATM    8  N3  UNL     1       1.616   0.088   0.058  1.00  0.00    -0.305 N 
HETATM    9  C5  UNL     1       2.425  -0.075   1.211  1.00  0.00     0.233 C 
HETATM   10  O1  UNL     1       1.912  -0.130   2.370  1.00  0.00    -0.272 OA
ATOM     11  H3  UNL     1       2.030   0.321  -0.845  1.00  0.00     0.171 HD
BRANCH   9  12
HETATM   12  C4  UNL     1       3.885  -0.182   1.054  1.00  0.00     0.184 C 
BRANCH  12  13
HETATM   13  S1  UNL     1       4.316  -0.075  -0.701  1.00  0.00    -0.094 SA
BRANCH  13  14
HETATM   14  C3  UNL     1       6.114  -0.205  -0.846  1.00  0.00     0.128 A 
HETATM   15  N2  UNL     1       6.842  -1.307  -0.987  1.00  0.00    -0.287 N 
HETATM   16  N1  UNL     1       8.098  -1.227  -1.076  1.00  0.00    -0.297 N 
ATOM     17  H2  UNL     1       6.385  -2.218  -1.023  1.00  0.00     0.188 HD
HETATM   18  C2  UNL     1       8.691  -0.038  -1.028  1.00  0.00     0.065 A 
ATOM     19  H1  UNL     1       8.657  -2.073  -1.185  1.00  0.00     0.187 HD
HETATM   20  C1  UNL     1      10.152   0.289  -1.113  1.00  0.00     0.078 C 
HETATM   21  S4  UNL     1       7.330   0.995  -0.844  1.00  0.00    -0.050 SA
ENDBRANCH  13  14
ENDBRANCH  12  13
ENDBRANCH   9  12
ENDBRANCH   1   8
BRANCH   6  22
HETATM   22  S2  UNL     1      -3.811  -0.753   1.438  1.00  0.00    -0.098 SA
BRANCH  22  23
HETATM   23  C8  UNL     1      -4.995  -0.587   0.098  1.00  0.00     0.059 C 
HETATM   24  C9  UNL     1      -4.989   0.893  -0.344  1.00  0.00     0.020 C 
HETATM   25  C10 UNL     1      -6.427   1.223  -0.079  1.00  0.00    -0.013 C 
HETATM   26  C11 UNL     1      -6.634   0.601   1.303  1.00  0.00     0.010 C 
HETATM   27  C13 UNL     1      -7.148  -0.008  -0.607  1.00  0.00     0.010 C 
HETATM   28  C12 UNL     1      -6.409  -0.709   0.534  1.00  0.00     0.000 C 
ENDBRANCH  22  23
ENDBRANCH   6  22
TORSDOF 6
