REMARK  6 active torsions:
REMARK  status: ('A' for Active; 'I' for Inactive)
REMARK    1  A    between atoms: O1_2  and  C2_3 
REMARK    2  A    between atoms: C6_7  and  C7_8 
REMARK    3  A    between atoms: C9_12  and  N2_13 
REMARK    4  A    between atoms: N2_13  and  C10_15 
REMARK    5  A    between atoms: C10_15  and  C11_16 
REMARK    6  A    between atoms: C17_26  and  O2_27 
ROOT
HETATM    1  C7  UNL     1      -1.681  -0.501  -0.074  1.00  0.00     0.078 A 
HETATM    2  C8  UNL     1      -0.786  -0.287   0.954  1.00  0.00     0.138 A 
HETATM    3  N1  UNL     1       0.539  -0.229   0.691  1.00  0.00    -0.199 N 
ATOM      4  H1  UNL     1       1.187  -0.069   1.462  1.00  0.00     0.183 HD
HETATM    5  C9  UNL     1       1.036  -0.376  -0.561  1.00  0.00     0.692 A 
HETATM    6  N3  UNL     1       0.132  -0.582  -1.534  1.00  0.00    -0.132 N 
ATOM      7  H3  UNL     1       0.465  -0.696  -2.491  1.00  0.00     0.205 HD
HETATM    8  N4  UNL     1      -1.170  -0.644  -1.308  1.00  0.00    -0.284 N 
ATOM      9  H4  UNL     1      -1.803  -0.805  -2.092  1.00  0.00     0.187 HD
ENDROOT
BRANCH   1  10
HETATM   10  C6  UNL     1      -3.131  -0.570   0.173  1.00  0.00     0.033 A 
HETATM   11  C4  UNL     1      -3.771  -1.757   0.463  1.00  0.00    -0.044 A 
HETATM   12  C3  UNL     1      -5.150  -1.757   0.688  1.00  0.00     0.044 A 
HETATM   13  C5  UNL     1      -2.977  -3.011   0.531  1.00  0.00     0.049 C 
HETATM   14  C2  UNL     1      -5.897  -0.611   0.630  1.00  0.00     0.071 A 
HETATM   15  C19 UNL     1      -5.246   0.569   0.339  1.00  0.00     0.074 A 
HETATM   16  C17 UNL     1      -3.887   0.600   0.113  1.00  0.00     0.084 A 
BRANCH  14  17
HETATM   17  O1  UNL     1      -7.267  -0.551   0.843  1.00  0.00    -0.356 OA
HETATM   18  C1  UNL     1      -7.932  -1.773   1.143  1.00  0.00     0.210 C 
ENDBRANCH  14  17
BRANCH  16  19
HETATM   19  O2  UNL     1      -3.278   1.812  -0.177  1.00  0.00    -0.355 OA
HETATM   20  C18 UNL     1      -4.022   2.997  -0.241  1.00  0.00     0.210 C 
ENDBRANCH  16  19
ENDBRANCH   1  10
BRANCH   5  21
HETATM   21  N2  UNL     1       2.302  -0.317  -0.789  1.00  0.00    -0.224 N 
ATOM     22  H2  UNL     1       2.635  -0.432  -1.746  1.00  0.00     0.177 HD
BRANCH  21  23
HETATM   23  C10 UNL     1       3.269  -0.094   0.264  1.00  0.00     0.142 C 
BRANCH  23  24
HETATM   24  C11 UNL     1       4.688  -0.221  -0.250  1.00  0.00     0.004 C 
HETATM   25  C12 UNL     1       5.700   0.009   0.841  1.00  0.00     0.006 C 
HETATM   26  C13 UNL     1       5.988   1.495   0.909  1.00  0.00     0.000 C 
HETATM   27  C14 UNL     1       6.829   1.850  -0.317  1.00  0.00     0.000 C 
HETATM   28  C15 UNL     1       6.344   1.084  -1.517  1.00  0.00     0.000 C 
HETATM   29  C16 UNL     1       4.869   0.719  -1.396  1.00  0.00     0.006 C 
ENDBRANCH  23  24
ENDBRANCH  21  23
ENDBRANCH   5  21
TORSDOF 6
