REMARK  7 active torsions:
REMARK  status: ('A' for Active; 'I' for Inactive)
REMARK    1  A    between atoms: C7_7  and  C8_8 
REMARK    2  A    between atoms: C8_8  and  O1_9 
REMARK    3  A    between atoms: O1_9  and  C9_10 
REMARK    4  A    between atoms: C9_10  and  C10_11 
REMARK    5  A    between atoms: C10_11  and  C11_12 
REMARK    6  A    between atoms: C11_12  and  O2_13 
REMARK    7  A    between atoms: C11_12  and  C12_15 
ROOT
HETATM    1  C1  UNL     1       5.346   0.281   2.056  1.00  0.00     0.040 C 
HETATM    2  C2  UNL     1       5.782   0.440   0.620  1.00  0.00     0.127 C 
HETATM    3  C3  UNL     1       4.930   1.320  -0.191  1.00  0.00     0.032 C 
HETATM    4  C4  UNL     1       3.641   1.785   0.391  1.00  0.00     0.006 C 
HETATM    5  C5  UNL     1       2.625   1.715  -0.729  1.00  0.00     0.030 C 
HETATM    6  C6  UNL     1       1.304   1.207  -0.293  1.00  0.00     0.008 C 
HETATM    7  C7  UNL     1       0.758   0.022  -0.500  1.00  0.00     0.066 C 
HETATM    8  O3  UNL     1       1.330  -1.024  -1.193  1.00  0.00    -0.353 OA
HETATM    9  C16 UNL     1       2.529  -1.711  -1.029  1.00  0.00     0.176 C 
HETATM   10  C17 UNL     1       3.363  -1.851  -2.256  1.00  0.00     0.036 C 
HETATM   11  C18 UNL     1       4.845  -1.752  -2.073  1.00  0.00     0.113 C 
HETATM   12  C19 UNL     1       5.291  -1.715  -0.651  1.00  0.00     0.259 C 
HETATM   13  O4  UNL     1       4.916  -2.790  -0.044  1.00  0.00    -0.265 OA
HETATM   14  O5  UNL     1       5.974  -0.777  -0.001  1.00  0.00    -0.316 OA
ENDROOT
BRANCH   7  15
HETATM   15  C8  UNL     1      -0.633  -0.199   0.082  1.00  0.00     0.231 C 
BRANCH  15  16
HETATM   16  O1  UNL     1      -1.069   0.944   0.742  1.00  0.00    -0.385 OA
BRANCH  16  17
HETATM   17  C9  UNL     1      -2.308   0.827   1.298  1.00  0.00     0.170 C 
BRANCH  17  18
HETATM   18  C10 UNL     1      -3.419   0.529   0.349  1.00  0.00     0.058 C 
BRANCH  18  19
HETATM   19  C11 UNL     1      -4.764   0.422   1.073  1.00  0.00     0.127 C 
BRANCH  19  20
HETATM   20  O2  UNL     1      -4.717  -0.599   2.018  1.00  0.00    -0.395 OA
ATOM     21  H2  UNL     1      -5.551  -0.665   2.467  1.00  0.00     0.210 HD
ENDBRANCH  19  20
BRANCH  19  22
HETATM   22  C12 UNL     1      -5.839   0.052   0.068  1.00  0.00    -0.025 C 
HETATM   23  C13 UNL     1      -5.929   1.124  -1.016  1.00  0.00     0.017 C 
HETATM   24  C14 UNL     1      -7.177  -0.138   0.722  1.00  0.00     0.017 C 
HETATM   25  C15 UNL     1      -5.486  -1.237  -0.638  1.00  0.00     0.017 C 
ENDBRANCH  19  22
ENDBRANCH  18  19
ENDBRANCH  17  18
ENDBRANCH  16  17
ENDBRANCH  15  16
ENDBRANCH   7  15
TORSDOF 7
