REMARK  7 active torsions:
REMARK  status: ('A' for Active; 'I' for Inactive)
REMARK    1  A    between atoms: O1_2  and  C2_3 
REMARK    2  A    between atoms: C4_5  and  O2_6 
REMARK    3  A    between atoms: C6_8  and  C7_9 
REMARK    4  A    between atoms: C9_11  and  O3_13 
REMARK    5  A    between atoms: N1_16  and  C12_17 
REMARK    6  A    between atoms: C12_17  and  C13_18 
REMARK    7  A    between atoms: C18_23  and  O4_24 
ROOT
HETATM    1  C7  UNL     1      -0.185  -1.037  -0.186  1.00  0.00     0.262 C 
HETATM    2  C8  UNL     1      -0.913  -1.127  -1.512  1.00  0.00     0.080 C 
HETATM    3  C9  UNL     1      -1.951  -2.134  -1.067  1.00  0.00     0.083 C 
HETATM    4  C10 UNL     1      -1.379  -3.542  -0.910  1.00  0.00     0.047 C 
HETATM    5  C11 UNL     1      -2.293  -1.618   0.334  1.00  0.00     0.310 C 
HETATM    6  N1  UNL     1      -1.337  -0.492   0.571  1.00  0.00     0.101 N 
ENDROOT
BRANCH   1   7
HETATM    7  C6  UNL     1       1.058  -0.363  -0.175  1.00  0.00     0.011 A 
HETATM    8  C4  UNL     1       2.233  -1.051  -0.592  1.00  0.00     0.079 A 
HETATM    9  C3  UNL     1       3.472  -0.493  -0.548  1.00  0.00     0.077 A 
HETATM   10  C2  UNL     1       3.657   0.780  -0.089  1.00  0.00     0.104 A 
HETATM   11  C18 UNL     1       2.553   1.497   0.339  1.00  0.00     0.102 A 
HETATM   12  C17 UNL     1       1.277   0.906   0.281  1.00  0.00     0.051 A 
BRANCH   8  13
HETATM   13  O2  UNL     1       2.056  -2.319  -1.049  1.00  0.00    -0.355 OA
HETATM   14  C5  UNL     1       3.119  -3.128  -1.515  1.00  0.00     0.210 C 
ENDBRANCH   8  13
BRANCH  10  15
HETATM   15  O1  UNL     1       4.936   1.328  -0.075  1.00  0.00    -0.353 OA
HETATM   16  C1  UNL     1       6.109   0.730  -0.505  1.00  0.00     0.210 C 
ENDBRANCH  10  15
BRANCH  11  17
HETATM   17  O4  UNL     1       2.725   2.768   0.816  1.00  0.00    -0.353 OA
HETATM   18  C19 UNL     1       1.637   3.557   1.297  1.00  0.00     0.210 C 
ENDBRANCH  11  17
ENDBRANCH   1   7
BRANCH   6  19
HETATM   19  C12 UNL     1      -1.918   0.690   0.018  1.00  0.00     0.281 C 
BRANCH  19  20
HETATM   20  C13 UNL     1      -2.792   1.437   0.987  1.00  0.00    -0.025 C 
HETATM   21  C14 UNL     1      -2.109   1.893   2.253  1.00  0.00     0.016 C 
HETATM   22  C15 UNL     1      -3.209   2.779   0.280  1.00  0.00     0.016 C 
HETATM   23  C16 UNL     1      -4.115   0.834   1.318  1.00  0.00     0.016 C 
ENDBRANCH  19  20
ENDBRANCH   6  19
BRANCH   3  24
HETATM   24  O3  UNL     1      -3.078  -2.122  -1.859  1.00  0.00    -0.388 OA
ATOM     25  H3  UNL     1      -3.730  -2.754  -1.580  1.00  0.00     0.210 HD
ENDBRANCH   3  24
TORSDOF 7
