REMARK  4 active torsions:
REMARK  status: ('A' for Active; 'I' for Inactive)
REMARK    1  A    between atoms: C2_2  and  O1_3 
REMARK    2  A    between atoms: O1_3  and  C3_4 
REMARK    3  A    between atoms: C3_4  and  C4_5 
REMARK    4  A    between atoms: C12_14  and  O2_15 
ROOT
HETATM    1  C4  UNL     1       0.672  -0.248  -0.762  1.00  0.00     0.038 C 
HETATM    2  C5  UNL     1       0.369   0.611  -1.926  1.00  0.00     0.038 C 
HETATM    3  C6  UNL     1      -0.570   1.708  -1.576  1.00  0.00     0.103 C 
HETATM    4  N1  UNL     1      -1.771   1.195  -1.071  1.00  0.00    -0.267 NA
HETATM    5  C7  UNL     1      -2.625   1.965  -0.291  1.00  0.00     0.102 C 
HETATM    6  C8  UNL     1      -2.823   1.504   1.134  1.00  0.00     0.017 C 
HETATM    7  C9  UNL     1      -3.098   0.007   1.217  1.00  0.00     0.017 C 
HETATM    8  C10 UNL     1      -1.745  -0.723   1.267  1.00  0.00     0.055 C 
HETATM    9  C11 UNL     1      -1.767  -1.931   0.386  1.00  0.00     0.047 C 
HETATM   10  C12 UNL     1      -0.321  -2.371   0.141  1.00  0.00     0.120 C 
HETATM   11  C13 UNL     1       0.167  -1.643  -1.064  1.00  0.00     0.055 C 
HETATM   12  S1  UNL     1      -0.416   0.554   0.741  1.00  0.00    -0.133 SA
ENDROOT
BRANCH   1  13
HETATM   13  C3  UNL     1       2.110  -0.268  -0.343  1.00  0.00     0.188 C 
BRANCH  13  14
HETATM   14  O1  UNL     1       2.528   0.998  -0.000  1.00  0.00    -0.390 OA
BRANCH  14  15
HETATM   15  C2  UNL     1       3.864   0.989   0.391  1.00  0.00     0.163 C 
HETATM   16  C1  UNL     1       4.117   0.107   1.577  1.00  0.00     0.033 C 
ENDBRANCH  14  15
ENDBRANCH  13  14
ENDBRANCH   1  13
BRANCH  10  17
HETATM   17  O2  UNL     1      -0.365  -3.732  -0.165  1.00  0.00    -0.395 OA
ATOM     18  H2  UNL     1       0.532  -4.005  -0.317  1.00  0.00     0.210 HD
ENDBRANCH  10  17
TORSDOF 4
