REMARK  5 active torsions:
REMARK  status: ('A' for Active; 'I' for Inactive)
REMARK    1  A    between atoms: O1_2  and  C2_3 
REMARK    2  A    between atoms: C2_3  and  C3_5 
REMARK    3  A    between atoms: C3_5  and  N1_6 
REMARK       I    between atoms: N1_6  and  C4_8 
REMARK    4  A    between atoms: C4_8  and  O4_10 
REMARK    5  A    between atoms: O4_10  and  C5_11 
ROOT
HETATM    1  C3  UNL     1      -1.700   0.104   0.213  1.00  0.00     0.130 C 
HETATM    2  C9  UNL     1      -2.099  -0.711  -0.992  1.00  0.00     0.025 C 
HETATM    3  C10 UNL     1      -1.815  -2.114  -0.504  1.00  0.00     0.008 C 
HETATM    4  C11 UNL     1      -2.489  -2.031   0.882  1.00  0.00     0.008 C 
HETATM    5  C12 UNL     1      -2.889  -0.568   0.842  1.00  0.00     0.025 C 
HETATM    6  C13 UNL     1      -3.530  -0.538  -0.530  1.00  0.00     0.015 C 
ENDROOT
BRANCH   1   7
HETATM    7  C2  UNL     1      -1.808   1.553   0.072  1.00  0.00     0.287 C 
HETATM    8  O2  UNL     1      -0.818   2.257   0.506  1.00  0.00    -0.262 OA
BRANCH   7   9
HETATM    9  O1  UNL     1      -2.840   2.282  -0.471  1.00  0.00    -0.324 OA
HETATM   10  C1  UNL     1      -2.797   3.704  -0.538  1.00  0.00     0.213 C 
ENDBRANCH   7   9
ENDBRANCH   1   7
BRANCH   1  11
HETATM   11  N1  UNL     1      -0.424  -0.330   0.796  1.00  0.00    -0.317 N 
HETATM   12  C4  UNL     1       0.815  -0.102   0.173  1.00  0.00     0.362 C 
HETATM   13  O3  UNL     1       0.864   0.487  -0.924  1.00  0.00    -0.238 OA
ATOM     14  H1  UNL     1      -0.437  -0.818   1.692  1.00  0.00     0.166 HD
BRANCH  12  15
HETATM   15  O4  UNL     1       2.008  -0.511   0.733  1.00  0.00    -0.294 OA
BRANCH  15  16
HETATM   16  C5  UNL     1       3.245  -0.297   0.136  1.00  0.00     0.061 C 
HETATM   17  C6  UNL     1       4.293  -0.901   1.084  1.00  0.00     0.046 C 
HETATM   18  C7  UNL     1       3.614   1.144  -0.039  1.00  0.00     0.046 C 
HETATM   19  C8  UNL     1       3.413  -0.986  -1.195  1.00  0.00     0.046 C 
ENDBRANCH  15  16
ENDBRANCH  12  15
ENDBRANCH   1  11
TORSDOF 5
