REMARK  5 active torsions:
REMARK  status: ('A' for Active; 'I' for Inactive)
REMARK    1  A    between atoms: C2_2  and  O1_3 
REMARK    2  A    between atoms: O1_3  and  C3_4 
REMARK    3  A    between atoms: C3_4  and  O3_6 
REMARK    4  A    between atoms: O3_6  and  C4_7 
REMARK    5  A    between atoms: C12_15  and  C13_16 
ROOT
HETATM    1  C4  UNL     1       0.142  -0.192  -1.197  1.00  0.00     0.149 C 
HETATM    2  C5  UNL     1      -0.748   0.736  -1.981  1.00  0.00     0.034 C 
HETATM    3  C6  UNL     1      -2.204   0.538  -1.700  1.00  0.00     0.012 C 
HETATM    4  C7  UNL     1      -2.540   0.528  -0.232  1.00  0.00    -0.039 C 
HETATM    5  C8  UNL     1      -2.925   1.874   0.338  1.00  0.00     0.015 C 
HETATM    6  C9  UNL     1      -3.562  -0.513   0.173  1.00  0.00     0.010 C 
HETATM    7  C10 UNL     1      -2.656  -0.916   1.297  1.00  0.00     0.007 C 
HETATM    8  C11 UNL     1      -1.512  -0.221   0.587  1.00  0.00     0.010 C 
HETATM    9  C12 UNL     1      -0.735  -1.099  -0.367  1.00  0.00     0.121 C 
ENDROOT
BRANCH   1  10
HETATM   10  O3  UNL     1       1.013   0.576  -0.388  1.00  0.00    -0.292 OA
BRANCH  10  11
HETATM   11  C3  UNL     1       2.395   0.494  -0.494  1.00  0.00     0.406 C 
HETATM   12  O2  UNL     1       2.841  -0.312  -1.361  1.00  0.00    -0.229 OA
BRANCH  11  13
HETATM   13  O1  UNL     1       3.269   1.216   0.268  1.00  0.00    -0.298 OA
BRANCH  13  14
HETATM   14  C2  UNL     1       4.685   1.123   0.149  1.00  0.00     0.176 C 
HETATM   15  C1  UNL     1       5.206  -0.250   0.414  1.00  0.00     0.034 C 
ENDBRANCH  13  14
ENDBRANCH  11  13
ENDBRANCH  10  11
ENDBRANCH   1  10
BRANCH   9  16
HETATM   16  C13 UNL     1       0.038  -2.148   0.324  1.00  0.00     0.180 C 
HETATM   17  O4  UNL     1      -0.171  -3.373   0.124  1.00  0.00    -0.648 OA
HETATM   18  O5  UNL     1       1.022  -1.730   1.218  1.00  0.00    -0.648 OA
ENDBRANCH   9  16
TORSDOF 5
