REMARK  3 active torsions:
REMARK  status: ('A' for Active; 'I' for Inactive)
REMARK    1  A    between atoms: O1_2  and  C2_3 
REMARK    2  A    between atoms: C6_8  and  C7_9 
REMARK    3  A    between atoms: C7_9  and  O3_10 
ROOT
HETATM    1  C2  UNL     1      -2.731   0.103   0.534  1.00  0.00     0.152 C 
HETATM    2  C3  UNL     1      -1.937   0.724   1.694  1.00  0.00     0.040 C 
HETATM    3  C4  UNL     1      -0.753   1.398   1.018  1.00  0.00     0.071 C 
HETATM    4  C5  UNL     1       0.047   0.478   0.170  1.00  0.00     0.171 C 
HETATM    5  O2  UNL     1      -0.775  -0.138  -0.741  1.00  0.00    -0.345 OA
HETATM    6  C6  UNL     1      -1.748  -0.865  -0.092  1.00  0.00     0.177 C 
HETATM    7  O4  UNL     1       1.158   1.144  -0.342  1.00  0.00    -0.348 OA
HETATM    8  C8  UNL     1       1.866   0.726   0.766  1.00  0.00     0.138 C 
HETATM    9  C9  UNL     1       3.314   0.477   0.612  1.00  0.00     0.011 C 
HETATM   10  C10 UNL     1       3.968   1.782   0.153  1.00  0.00     0.012 C 
HETATM   11  C11 UNL     1       3.714  -0.646  -0.260  1.00  0.00     0.007 C 
HETATM   12  C12 UNL     1       2.556  -1.146  -1.040  1.00  0.00     0.001 C 
HETATM   13  C13 UNL     1       1.404  -1.559  -0.143  1.00  0.00     0.013 C 
HETATM   14  C14 UNL     1       0.987  -0.473   0.814  1.00  0.00     0.077 C 
ENDROOT
BRANCH   6  15
HETATM   15  C7  UNL     1      -2.535  -1.775  -0.994  1.00  0.00     0.198 C 
BRANCH  15  16
HETATM   16  O3  UNL     1      -3.474  -2.440  -0.207  1.00  0.00    -0.398 OA
ATOM     17  H3  UNL     1      -3.971  -3.015  -0.777  1.00  0.00     0.209 HD
ENDBRANCH  15  16
ENDBRANCH   6  15
BRANCH   1  18
HETATM   18  O1  UNL     1      -2.975   1.106  -0.376  1.00  0.00    -0.388 OA
HETATM   19  C1  UNL     1      -4.327   1.290  -0.637  1.00  0.00     0.202 C 
ENDBRANCH   1  18
TORSDOF 3
