REMARK  4 active torsions:
REMARK  status: ('A' for Active; 'I' for Inactive)
REMARK    1  A    between atoms: C2_2  and  O2_4 
REMARK    2  A    between atoms: O2_4  and  C3_5 
REMARK    3  A    between atoms: C13_16  and  C14_17 
REMARK    4  A    between atoms: C14_17  and  O4_18 
ROOT
HETATM    1  C3  UNL     1       1.583  -0.022  -0.109  1.00  0.00     0.276 C 
HETATM    2  O3  UNL     1       0.488  -0.267   0.708  1.00  0.00    -0.349 OA
HETATM    3  C4  UNL     1      -0.718   0.119   0.072  1.00  0.00     0.064 C 
HETATM    4  C5  UNL     1      -1.728   0.290   1.160  1.00  0.00     0.038 C 
HETATM    5  C6  UNL     1      -3.076   0.709   0.719  1.00  0.00     0.003 C 
HETATM    6  C7  UNL     1      -4.031  -0.480   0.618  1.00  0.00     0.000 C 
HETATM    7  C8  UNL     1      -3.293  -1.617  -0.022  1.00  0.00     0.000 C 
HETATM    8  C9  UNL     1      -2.529  -1.072  -1.201  1.00  0.00     0.003 C 
HETATM    9  C10 UNL     1      -1.058  -0.976  -0.890  1.00  0.00     0.038 C 
HETATM   10  C11 UNL     1      -0.418   1.432  -0.619  1.00  0.00     0.039 C 
HETATM   11  C12 UNL     1       0.635   2.200   0.174  1.00  0.00     0.014 C 
HETATM   12  C13 UNL     1       1.949   1.450   0.103  1.00  0.00     0.065 C 
ENDROOT
BRANCH   1  13
HETATM   13  O2  UNL     1       2.668  -0.866   0.158  1.00  0.00    -0.289 OA
BRANCH  13  14
HETATM   14  C2  UNL     1       3.163  -1.657  -0.879  1.00  0.00     0.257 C 
HETATM   15  C1  UNL     1       4.301  -2.583  -0.714  1.00  0.00     0.126 C 
HETATM   16  O1  UNL     1       2.625  -1.590  -2.014  1.00  0.00    -0.266 OA
ENDBRANCH  13  14
ENDBRANCH   1  13
BRANCH  12  17
HETATM   17  C14 UNL     1       2.741   1.626   1.380  1.00  0.00     0.173 C 
BRANCH  17  18
HETATM   18  O4  UNL     1       3.029   2.985   1.493  1.00  0.00    -0.400 OA
ATOM     19  H4  UNL     1       3.526   3.096   2.295  1.00  0.00     0.209 HD
ENDBRANCH  17  18
ENDBRANCH  12  17
TORSDOF 4
