REMARK  1 active torsions:
REMARK  status: ('A' for Active; 'I' for Inactive)
REMARK    1  A    between atoms: C4_4  and  C5_5 
ROOT
HETATM    1  C5  UNL     1      -0.571  -0.478   0.458  1.00  0.00     0.028 C 
HETATM    2  C6  UNL     1      -0.286  -1.981   0.493  1.00  0.00     0.011 C 
HETATM    3  C7  UNL     1       1.202  -2.133   0.543  1.00  0.00     0.014 C 
HETATM    4  C8  UNL     1       1.743  -0.769   0.693  1.00  0.00     0.066 C 
HETATM    5  C9  UNL     1       3.042  -0.525   0.073  1.00  0.00     0.085 C 
HETATM    6  S1  UNL     1       3.855  -1.766  -0.636  1.00  0.00    -0.065 SA
HETATM    7  N1  UNL     1       3.568   0.800   0.106  1.00  0.00    -0.331 N 
ATOM      8  H1  UNL     1       4.519   0.956  -0.227  1.00  0.00     0.168 HD
HETATM    9  C10 UNL     1       2.823   1.915   0.584  1.00  0.00     0.139 C 
HETATM   10  N2  UNL     1       3.439   2.959   0.963  1.00  0.00    -0.380 N 
ATOM     11  H21 UNL     1       2.905   3.758   1.305  1.00  0.00     0.158 HD
ATOM     12  H22 UNL     1       4.456   3.036   0.941  1.00  0.00     0.158 HD
HETATM   13  S2  UNL     1       1.018   1.778   0.623  1.00  0.00    -0.083 SA
HETATM   14  C11 UNL     1       0.712   0.097   0.011  1.00  0.00     0.029 C 
HETATM   15  C12 UNL     1       0.849   0.108  -1.482  1.00  0.00     0.029 C 
ENDROOT
BRANCH   1  16
HETATM   16  C4  UNL     1      -1.669  -0.301  -0.565  1.00  0.00    -0.019 C 
HETATM   17  C2  UNL     1      -2.770   0.370  -0.276  1.00  0.00    -0.091 C 
HETATM   18  C1  UNL     1      -2.918   0.957   1.082  1.00  0.00     0.042 C 
HETATM   19  C3  UNL     1      -3.823   0.520  -1.310  1.00  0.00     0.042 C 
ENDBRANCH   1  16
TORSDOF 1
