REMARK  3 active torsions:
REMARK  status: ('A' for Active; 'I' for Inactive)
REMARK    1  A    between atoms: C2_2  and  C5_5 
REMARK    2  A    between atoms: C6_8  and  N2_9 
REMARK    3  A    between atoms: C7_13  and  C8_14 
ROOT
HETATM    1  C5  UNL     1      -1.818  -0.427   0.504  1.00  0.00     0.032 A 
HETATM    2  N1  UNL     1      -2.625  -1.086   1.294  1.00  0.00    -0.339 N 
ATOM      3  H1  UNL     1      -3.637  -1.009   1.195  1.00  0.00     0.168 HD
HETATM    4  C6  UNL     1      -2.073  -1.876   2.249  1.00  0.00     0.142 A 
HETATM    5  S1  UNL     1      -0.411  -1.650   1.988  1.00  0.00    -0.057 SA
HETATM    6  C7  UNL     1      -0.465  -0.566   0.676  1.00  0.00     0.013 A 
ENDROOT
BRANCH   6   7
HETATM    7  C8  UNL     1       0.703  -0.107  -0.122  1.00  0.00     0.028 C 
HETATM    8  C9  UNL     1       1.397   1.050   0.578  1.00  0.00     0.010 C 
HETATM    9  C10 UNL     1       2.873   1.061   0.582  1.00  0.00     0.001 C 
HETATM   10  C11 UNL     1       3.403   0.934  -0.837  1.00  0.00     0.000 C 
HETATM   11  C12 UNL     1       3.911  -0.491  -0.924  1.00  0.00     0.000 C 
HETATM   12  C13 UNL     1       2.681  -1.340  -1.162  1.00  0.00     0.001 C 
HETATM   13  C14 UNL     1       1.714  -1.305  -0.037  1.00  0.00     0.010 C 
ENDBRANCH   6   7
BRANCH   1  14
HETATM   14  C2  UNL     1      -2.368   0.549  -0.539  1.00  0.00    -0.008 C 
HETATM   15  C1  UNL     1      -3.884   0.546  -0.507  1.00  0.00     0.021 C 
HETATM   16  C3  UNL     1      -1.959   1.952  -0.105  1.00  0.00     0.021 C 
HETATM   17  C4  UNL     1      -1.966   0.201  -1.928  1.00  0.00     0.021 C 
ENDBRANCH   1  14
BRANCH   4  18
HETATM   18  N2  UNL     1      -2.717  -2.612   3.125  1.00  0.00    -0.380 N 
ATOM     19  H22 UNL     1      -3.716  -2.748   3.282  1.00  0.00     0.158 HD
ATOM     20  H21 UNL     1      -2.302  -3.206   3.843  1.00  0.00     0.158 HD
ENDBRANCH   4  18
TORSDOF 3
