REMARK  2 active torsions:
REMARK  status: ('A' for Active; 'I' for Inactive)
REMARK    1  A    between atoms: C3_3  and  C4_4 
REMARK    2  A    between atoms: C4_4  and  O1_5 
ROOT
HETATM    1  C4  UNL     1       1.201  -0.614  -0.184  1.00  0.00     0.084 C 
HETATM    2  C5  UNL     1       0.709  -1.542   0.890  1.00  0.00     0.062 C 
HETATM    3  C6  UNL     1      -0.485  -2.338   0.533  1.00  0.00     0.100 C 
HETATM    4  C7  UNL     1      -0.984  -2.994   1.746  1.00  0.00     0.064 C 
HETATM    5  N1  UNL     1      -1.378  -3.535   2.705  1.00  0.00    -0.197 NA
HETATM    6  C8  UNL     1      -1.583  -1.626  -0.167  1.00  0.00     0.004 C 
HETATM    7  C9  UNL     1      -2.621  -1.019   0.713  1.00  0.00     0.006 C 
HETATM    8  C10 UNL     1      -2.325   0.291   1.338  1.00  0.00     0.000 C 
HETATM    9  C11 UNL     1      -2.620   1.474   0.480  1.00  0.00     0.000 C 
HETATM   10  C12 UNL     1      -1.546   1.948  -0.420  1.00  0.00     0.001 C 
HETATM   11  C13 UNL     1      -0.192   1.397  -0.232  1.00  0.00     0.012 C 
HETATM   12  C14 UNL     1       0.106   0.106  -0.920  1.00  0.00    -0.009 C 
HETATM   13  C15 UNL     1       0.699   0.463  -2.302  1.00  0.00     0.018 C 
HETATM   14  C16 UNL     1      -1.051  -0.757  -1.239  1.00  0.00     0.018 C 
ENDROOT
BRANCH   1  15
HETATM   15  C3  UNL     1       2.147   0.323   0.492  1.00  0.00     0.007 C 
HETATM   16  C2  UNL     1       3.181   0.883  -0.100  1.00  0.00    -0.032 C 
HETATM   17  C1  UNL     1       4.113   1.807   0.567  1.00  0.00     0.036 C 
ENDBRANCH   1  15
BRANCH   1  18
HETATM   18  O1  UNL     1       1.885  -1.401  -1.123  1.00  0.00    -0.385 OA
ATOM     19  H1  UNL     1       1.283  -1.997  -1.553  1.00  0.00     0.211 HD
ENDBRANCH   1  18
TORSDOF 2
