REMARK  1 active torsions:
REMARK  status: ('A' for Active; 'I' for Inactive)
REMARK       I    between atoms: C2_2  and  N1_4 
REMARK    1  A    between atoms: N1_4  and  N2_6 
ROOT
HETATM    1  N2  UNL     1       2.253   0.637   1.734  1.00  0.00    -0.306 N 
ATOM      2  H2  UNL     1       2.290   0.173   2.642  1.00  0.00     0.186 HD
HETATM    3  C3  UNL     1       1.108   0.942   1.225  1.00  0.00     0.004 C 
HETATM    4  C4  UNL     1       0.978   1.610  -0.076  1.00  0.00     0.054 C 
HETATM    5  C5  UNL     1       0.207   0.790  -1.108  1.00  0.00     0.006 C 
HETATM    6  C6  UNL     1      -0.801   1.684  -1.731  1.00  0.00     0.000 C 
HETATM    7  C7  UNL     1      -1.911   1.062  -2.484  1.00  0.00     0.000 C 
HETATM    8  C8  UNL     1      -2.277  -0.338  -2.123  1.00  0.00     0.000 C 
HETATM    9  C9  UNL     1      -2.981  -0.429  -0.783  1.00  0.00     0.006 C 
HETATM   10  C10 UNL     1      -3.050  -1.810  -0.234  1.00  0.00     0.052 C 
HETATM   11  C11 UNL     1      -2.053  -2.157   0.782  1.00  0.00    -0.020 C 
HETATM   12  N3  UNL     1      -1.412  -3.257   0.690  1.00  0.00    -0.406 N 
ATOM     13  H31 UNL     1      -0.718  -3.499   1.397  1.00  0.00     0.155 HD
ATOM     14  H32 UNL     1      -1.614  -3.871  -0.099  1.00  0.00     0.155 HD
HETATM   15  C12 UNL     1      -1.762  -1.272   1.918  1.00  0.00     0.052 C 
HETATM   16  C13 UNL     1      -0.317  -0.932   2.073  1.00  0.00     0.011 C 
HETATM   17  C14 UNL     1      -0.065   0.567   2.077  1.00  0.00     0.054 C 
ENDROOT
BRANCH   1  18
HETATM   18  N1  UNL     1       3.427   0.926   1.075  1.00  0.00    -0.271 N 
HETATM   19  C2  UNL     1       4.432  -0.045   0.787  1.00  0.00     0.232 C 
HETATM   20  C1  UNL     1       5.676   0.331   0.072  1.00  0.00     0.119 C 
HETATM   21  O1  UNL     1       4.284  -1.239   1.133  1.00  0.00    -0.272 OA
ATOM     22  H1  UNL     1       3.587   1.888   0.776  1.00  0.00     0.190 HD
ENDBRANCH   1  18
TORSDOF 1
