REMARK  1 active torsions:
REMARK  status: ('A' for Active; 'I' for Inactive)
REMARK    1  A    between atoms: N2_18  and  O2_20 
ROOT
HETATM    1  O1  UNL     1       4.502   0.398   1.007  1.00  0.00    -0.266 OA
HETATM    2  C1  UNL     1       3.306   0.382   0.541  1.00  0.00     0.265 C 
HETATM    3  N1  UNL     1       2.577   1.597   0.409  1.00  0.00    -0.356 N 
ATOM      4  H1  UNL     1       2.656   2.277   1.165  1.00  0.00     0.162 HD
HETATM    5  C2  UNL     1       1.744   1.940  -0.697  1.00  0.00     0.123 C 
HETATM    6  C3  UNL     1       0.665   2.891  -0.274  1.00  0.00     0.020 C 
HETATM    7  C4  UNL     1       0.017   2.561   1.020  1.00  0.00     0.002 C 
HETATM    8  C5  UNL     1      -1.495   2.340   0.879  1.00  0.00     0.000 C 
HETATM    9  C6  UNL     1      -1.825   1.416  -0.249  1.00  0.00     0.000 C 
HETATM   10  C7  UNL     1      -2.948   0.440   0.107  1.00  0.00     0.000 C 
HETATM   11  C8  UNL     1      -2.875  -0.684  -0.887  1.00  0.00     0.000 C 
HETATM   12  C9  UNL     1      -2.779  -2.043  -0.241  1.00  0.00     0.000 C 
HETATM   13  C10 UNL     1      -1.459  -2.147   0.523  1.00  0.00     0.000 C 
HETATM   14  C11 UNL     1      -0.409  -2.878  -0.239  1.00  0.00     0.000 C 
HETATM   15  C12 UNL     1       0.715  -2.016  -0.732  1.00  0.00     0.006 C 
HETATM   16  C13 UNL     1       1.352  -1.320   0.421  1.00  0.00     0.065 C 
HETATM   17  C14 UNL     1       2.764  -0.923   0.168  1.00  0.00     0.099 C 
HETATM   18  N2  UNL     1       3.524  -1.783  -0.406  1.00  0.00    -0.268 N 
ATOM     19  H2  UNL     1       3.111  -2.683  -0.652  1.00  0.00     0.194 HD
ENDROOT
BRANCH  18  20
HETATM   20  O2  UNL     1       4.829  -1.593  -0.712  1.00  0.00    -0.290 OA
ATOM     21  H2  UNL     1       5.392  -2.230  -1.137  1.00  0.00     0.244 HD
ENDBRANCH  18  20
TORSDOF 1
