REMARK  2 active torsions:
REMARK  status: ('A' for Active; 'I' for Inactive)
REMARK    1  A    between atoms: C3_3  and  C4_4 
REMARK    2  A    between atoms: N2_6  and  O1_8 
ROOT
HETATM    1  C1  UNL     1      -3.656   1.677  -1.415  1.00  0.00     0.013 C 
HETATM    2  C2  UNL     1      -2.845   0.931  -0.914  1.00  0.00    -0.100 C 
HETATM    3  C3  UNL     1      -1.830   0.001  -0.317  1.00  0.00     0.080 C 
HETATM    4  C5  UNL     1      -1.141  -0.650  -1.425  1.00  0.00     0.030 C 
HETATM    5  C6  UNL     1      -0.442  -1.919  -1.310  1.00  0.00     0.002 C 
HETATM    6  C7  UNL     1       0.582  -2.123  -0.260  1.00  0.00     0.000 C 
HETATM    7  C8  UNL     1       1.921  -1.452  -0.614  1.00  0.00     0.000 C 
HETATM    8  C9  UNL     1       2.597  -1.121   0.668  1.00  0.00     0.000 C 
HETATM    9  C10 UNL     1       3.495   0.053   0.680  1.00  0.00     0.000 C 
HETATM   10  C11 UNL     1       3.051   1.262  -0.061  1.00  0.00     0.000 C 
HETATM   11  C12 UNL     1       1.875   1.991   0.603  1.00  0.00     0.000 C 
HETATM   12  C13 UNL     1       0.840   2.341  -0.406  1.00  0.00     0.000 C 
HETATM   13  C14 UNL     1      -0.586   2.197   0.021  1.00  0.00     0.002 C 
HETATM   14  C15 UNL     1      -0.999   0.894   0.579  1.00  0.00     0.030 C 
ENDROOT
BRANCH   3  15
HETATM   15  C4  UNL     1      -2.629  -0.872   0.560  1.00  0.00     0.133 C 
HETATM   16  N1  UNL     1      -3.343  -0.229   1.612  1.00  0.00    -0.084 NA
HETATM   17  N2  UNL     1      -2.746  -2.136   0.477  1.00  0.00    -0.258 N 
ATOM     18  H2  UNL     1      -2.241  -2.614  -0.270  1.00  0.00     0.195 HD
BRANCH  17  19
HETATM   19  O1  UNL     1      -3.505  -2.896   1.324  1.00  0.00    -0.289 OA
ATOM     20  H1  UNL     1      -3.592  -3.840   1.262  1.00  0.00     0.244 HD
ENDBRANCH  17  19
ENDBRANCH   3  15
TORSDOF 2
