REMARK  11 active torsions:
REMARK  status: ('A' for Active; 'I' for Inactive)
REMARK    1  A    between atoms: O1_2  and  C2_3 
REMARK    2  A    between atoms: C2_3  and  C3_5 
REMARK    3  A    between atoms: C3_5  and  C4_6 
REMARK    4  A    between atoms: C3_5  and  C14_31 
REMARK    5  A    between atoms: C6_13  and  S1_14 
REMARK    6  A    between atoms: S1_14  and  C7_15 
REMARK    7  A    between atoms: C9_17  and  O3_18 
REMARK    8  A    between atoms: C11_22  and  O4_23 
REMARK    9  A    between atoms: N5_28  and  O5_29 
REMARK   10  A    between atoms: C14_31  and  O6_32 
REMARK   11  A    between atoms: C14_31  and  O7_34 
ROOT
HETATM    1  C4  UNL     1      -2.915  -0.304   0.217  1.00  0.00     0.129 A 
HETATM    2  N1  UNL     1      -2.436  -1.000   1.290  1.00  0.00    -0.329 N 
ATOM      3  H1  UNL     1      -3.006  -1.024   2.135  1.00  0.00     0.168 HD
HETATM    4  C5  UNL     1      -1.275  -1.649   1.306  1.00  0.00     0.119 A 
HETATM    5  N2  UNL     1      -0.855  -2.299   2.344  1.00  0.00    -0.384 N 
ATOM      6  H21 UNL     1       0.035  -2.797   2.356  1.00  0.00     0.157 HD
ATOM      7  H22 UNL     1      -1.437  -2.314   3.182  1.00  0.00     0.157 HD
HETATM    8  C6  UNL     1      -0.489  -1.629   0.174  1.00  0.00     0.068 A 
HETATM    9  C13 UNL     1      -0.932  -0.940  -0.929  1.00  0.00     0.147 A 
HETATM   10  N5  UNL     1      -2.144  -0.292  -0.874  1.00  0.00    -0.221 N 
ENDROOT
BRANCH   8  11
HETATM   11  S1  UNL     1       1.099  -2.489   0.125  1.00  0.00    -0.067 SA
BRANCH  11  12
HETATM   12  C7  UNL     1       2.506  -1.671   0.076  1.00  0.00     0.082 A 
HETATM   13  C8  UNL     1       3.677  -2.392   0.041  1.00  0.00     0.093 A 
HETATM   14  C9  UNL     1       4.923  -1.756  -0.002  1.00  0.00     0.147 A 
HETATM   15  N3  UNL     1       4.889  -0.412  -0.006  1.00  0.00    -0.302 N 
HETATM   16  C11 UNL     1       3.776   0.318   0.028  1.00  0.00     0.225 A 
ATOM     17  H3  UNL     1       5.780   0.084  -0.037  1.00  0.00     0.171 HD
HETATM   18  N4  UNL     1       2.591  -0.342   0.069  1.00  0.00    -0.316 N 
ATOM     19  H4  UNL     1       1.729   0.203   0.096  1.00  0.00     0.170 HD
BRANCH  14  20
HETATM   20  O3  UNL     1       6.109  -2.487  -0.038  1.00  0.00    -0.341 OA
HETATM   21  C10 UNL     1       7.310  -1.754  -0.079  1.00  0.00     0.211 C 
ENDBRANCH  14  20
BRANCH  16  22
HETATM   22  O4  UNL     1       3.852   1.689   0.021  1.00  0.00    -0.327 OA
HETATM   23  C12 UNL     1       5.094   2.332  -0.022  1.00  0.00     0.213 C 
ENDBRANCH  16  22
ENDBRANCH  11  12
ENDBRANCH   8  11
BRANCH  10  24
HETATM   24  O5  UNL     1      -2.543   0.378  -1.984  1.00  0.00    -0.282 OA
ATOM     25  H5  UNL     1      -1.995   0.387  -2.760  1.00  0.00     0.245 HD
ENDBRANCH  10  24
BRANCH   1  26
HETATM   26  C3  UNL     1      -4.202   0.360   0.345  1.00  0.00     0.210 C 
BRANCH  26  27
HETATM   27  C2  UNL     1      -4.278   1.792   0.104  1.00  0.00     0.275 C 
HETATM   28  O2  UNL     1      -4.610   2.549   1.098  1.00  0.00    -0.264 OA
BRANCH  27  29
HETATM   29  O1  UNL     1      -4.042   2.479  -1.068  1.00  0.00    -0.326 OA
HETATM   30  C1  UNL     1      -4.156   3.885  -1.158  1.00  0.00     0.213 C 
ENDBRANCH  27  29
ENDBRANCH  26  27
BRANCH  26  31
HETATM   31  C14 UNL     1      -5.274  -0.457  -0.361  1.00  0.00     0.275 C 
BRANCH  31  32
HETATM   32  O6  UNL     1      -6.546  -0.029   0.094  1.00  0.00    -0.370 OA
ATOM     33  H6  UNL     1      -7.215  -0.539  -0.347  1.00  0.00     0.212 HD
ENDBRANCH  31  32
BRANCH  31  34
HETATM   34  O7  UNL     1      -5.189  -0.387  -1.721  1.00  0.00    -0.370 OA
ATOM     35  H7  UNL     1      -5.858  -0.897  -2.162  1.00  0.00     0.212 HD
ENDBRANCH  31  34
ENDBRANCH  26  31
ENDBRANCH   1  26
TORSDOF 11
