REMARK  13 active torsions:
REMARK  status: ('A' for Active; 'I' for Inactive)
REMARK    1  A    between atoms: C2_2  and  C3_3 
REMARK    2  A    between atoms: C3_3  and  O1_4 
REMARK    3  A    between atoms: C3_3  and  C4_7 
REMARK    4  A    between atoms: O1_4  and  O2_5 
REMARK       I    between atoms: C4_7  and  N1_9 
REMARK    5  A    between atoms: N1_9  and  N2_11 
REMARK    6  A    between atoms: N2_11  and  C5_13 
REMARK    7  A    between atoms: C6_16  and  N4_17 
REMARK    8  A    between atoms: N4_17  and  N5_19 
REMARK    9  A    between atoms: C7_21  and  C8_22 
REMARK   10  A    between atoms: C14_31  and  C15_32 
REMARK   11  A    between atoms: C15_32  and  O5_33 
REMARK   12  A    between atoms: C15_32  and  N7_35 
REMARK   13  A    between atoms: N7_35  and  N8_37 
ROOT
HETATM    1  C5  UNL     1       0.218  -1.757  -0.047  1.00  0.00     0.152 A 
HETATM    2  N3  UNL     1       1.025  -0.786   0.400  1.00  0.00    -0.173 N 
ATOM      3  H3  UNL     1       0.749   0.191   0.304  1.00  0.00     0.186 HD
HETATM    4  C6  UNL     1       2.199  -1.100   0.976  1.00  0.00     0.698 A 
HETATM    5  N6  UNL     1       2.578  -2.384   1.112  1.00  0.00    -0.193 N 
ATOM      6  H6  UNL     1       3.473  -2.603   1.550  1.00  0.00     0.184 HD
HETATM    7  C12 UNL     1       1.769  -3.403   0.666  1.00  0.00     0.041 A 
HETATM    8  C13 UNL     1       2.230  -4.787   0.925  1.00  0.00     0.070 C 
HETATM    9  C14 UNL     1       0.587  -3.127   0.081  1.00  0.00     0.085 A 
ENDROOT
BRANCH   1  10
HETATM   10  N2  UNL     1      -0.907  -1.515  -0.626  1.00  0.00    -0.281 N 
ATOM     11  H2  UNL     1      -1.494  -2.282  -0.955  1.00  0.00     0.188 HD
BRANCH  10  12
HETATM   12  N1  UNL     1      -1.312  -0.194  -0.797  1.00  0.00    -0.266 N 
HETATM   13  C4  UNL     1      -2.329   0.460  -0.069  1.00  0.00     0.268 C 
HETATM   14  O3  UNL     1      -2.992  -0.104   0.838  1.00  0.00    -0.269 OA
ATOM     15  H1  UNL     1      -0.830   0.350  -1.513  1.00  0.00     0.190 HD
BRANCH  13  16
HETATM   16  C3  UNL     1      -2.653   1.877  -0.372  1.00  0.00     0.253 C 
BRANCH  16  17
HETATM   17  C2  UNL     1      -4.110   2.030  -0.787  1.00  0.00     0.040 C 
HETATM   18  C1  UNL     1      -4.423   3.468  -1.075  1.00  0.00     0.008 C 
ENDBRANCH  16  17
BRANCH  16  19
HETATM   19  O1  UNL     1      -1.814   2.333  -1.417  1.00  0.00    -0.228 OA
BRANCH  19  20
HETATM   20  O2  UNL     1      -1.098   3.352  -1.030  1.00  0.00    -0.250 OA
ATOM     21  H2  UNL     1      -0.535   3.658  -1.731  1.00  0.00     0.253 HD
ENDBRANCH  19  20
ENDBRANCH  16  19
ENDBRANCH  13  16
ENDBRANCH  10  12
ENDBRANCH   1  10
BRANCH   9  22
HETATM   22  C15 UNL     1      -0.378  -4.069  -0.401  1.00  0.00     0.170 C 
BRANCH  22  23
HETATM   23  O5  UNL     1      -1.640  -3.726  -0.402  1.00  0.00    -0.344 OA
ATOM     24  H5  UNL     1      -2.280  -4.351  -0.722  1.00  0.00     0.219 HD
ENDBRANCH  22  23
BRANCH  22  25
HETATM   25  N7  UNL     1      -0.095  -5.351  -0.890  1.00  0.00    -0.286 N 
ATOM     26  H7  UNL     1       0.872  -5.673  -0.929  1.00  0.00     0.188 HD
BRANCH  25  27
HETATM   27  N8  UNL     1      -1.150  -6.218  -1.338  1.00  0.00    -0.343 N 
ATOM     28  H82 UNL     1      -2.111  -5.880  -1.293  1.00  0.00     0.176 HD
ATOM     29  H81 UNL     1      -0.944  -7.151  -1.694  1.00  0.00     0.176 HD
ENDBRANCH  25  27
ENDBRANCH  22  25
ENDBRANCH   9  22
BRANCH   4  30
HETATM   30  N4  UNL     1       2.954  -0.175   1.421  1.00  0.00    -0.132 N 
ATOM     31  H4  UNL     1       3.846  -0.416   1.853  1.00  0.00     0.205 HD
BRANCH  30  32
HETATM   32  N5  UNL     1       2.577   1.153   1.325  1.00  0.00    -0.295 N 
HETATM   33  C7  UNL     1       3.187   2.028   0.631  1.00  0.00     0.144 C 
ATOM     34  H5  UNL     1       1.753   1.451   1.847  1.00  0.00     0.186 HD
BRANCH  33  35
HETATM   35  C8  UNL     1       2.631   3.400   0.655  1.00  0.00     0.091 A 
HETATM   36  C9  UNL     1       3.116   4.485  -0.020  1.00  0.00     0.040 A 
HETATM   37  C10 UNL     1       2.295   5.542   0.295  1.00  0.00     0.027 A 
HETATM   38  C11 UNL     1       1.347   5.060   1.144  1.00  0.00     0.142 A 
HETATM   39  O4  UNL     1       1.583   3.794   1.330  1.00  0.00    -0.321 OA
ENDBRANCH  33  35
ENDBRANCH  30  32
ENDBRANCH   4  30
TORSDOF 13
