REMARK  9 active torsions:
REMARK  status: ('A' for Active; 'I' for Inactive)
REMARK    1  A    between atoms: C2_2  and  N1_3 
REMARK    2  A    between atoms: C3_6  and  O1_7 
REMARK    3  A    between atoms: O1_7  and  C4_8 
REMARK    4  A    between atoms: C4_8  and  C5_9 
REMARK    5  A    between atoms: C5_9  and  O2_10 
REMARK    6  A    between atoms: C5_9  and  C6_12 
REMARK    7  A    between atoms: C7_13  and  O3_14 
REMARK    8  A    between atoms: C11_25  and  S1_26 
REMARK    9  A    between atoms: S1_26  and  N5_29 
ROOT
HETATM    1  C4  UNL     1       1.651   1.578  -1.123  1.00  0.00     0.214 C 
ENDROOT
BRANCH   1   2
HETATM    2  O1  UNL     1       0.787   0.903  -1.886  1.00  0.00    -0.332 OA
BRANCH   2   3
HETATM    3  C3  UNL     1      -0.433   0.399  -1.586  1.00  0.00     0.160 A 
HETATM    4  N2  UNL     1      -0.787   0.750  -0.180  1.00  0.00    -0.273 N 
HETATM    5  N1  UNL     1      -1.950   0.306   0.177  1.00  0.00    -0.257 N 
ATOM      6  H2  UNL     1      -0.176   1.285   0.437  1.00  0.00     0.189 HD
HETATM    7  C11 UNL     1      -2.481  -0.369  -0.906  1.00  0.00     0.174 A 
HETATM    8  C10 UNL     1      -1.507  -0.241  -1.852  1.00  0.00     0.103 A 
BRANCH   5   9
HETATM    9  C2  UNL     1      -2.565   0.555   1.436  1.00  0.00     0.086 C 
HETATM   10  C1  UNL     1      -2.373  -0.315   2.611  1.00  0.00     0.057 C 
ENDBRANCH   5   9
BRANCH   7  11
HETATM   11  S1  UNL     1      -3.986  -1.184  -1.020  1.00  0.00     0.276 S 
HETATM   12  O6  UNL     1      -4.104  -2.336  -0.028  1.00  0.00    -0.199 OA
HETATM   13  O7  UNL     1      -4.065  -1.831  -2.401  1.00  0.00    -0.199 OA
BRANCH  11  14
HETATM   14  N5  UNL     1      -5.369  -0.171  -0.861  1.00  0.00    -0.319 N 
HETATM   15  C12 UNL     1      -6.124  -0.577   0.342  1.00  0.00     0.159 C 
ATOM     16  H5  UNL     1      -5.625   0.586  -1.494  1.00  0.00     0.171 HD
ENDBRANCH  11  14
ENDBRANCH   7  11
ENDBRANCH   2   3
ENDBRANCH   1   2
BRANCH   1  17
HETATM   17  C5  UNL     1       2.477   1.211   0.010  1.00  0.00     0.185 C 
BRANCH  17  18
HETATM   18  O2  UNL     1       1.712   0.619   1.073  1.00  0.00    -0.388 OA
ATOM     19  H2  UNL     1       2.253   0.378   1.816  1.00  0.00     0.210 HD
ENDBRANCH  17  18
BRANCH  17  20
HETATM   20  C6  UNL     1       3.671   0.377  -0.213  1.00  0.00     0.091 A 
HETATM   21  C7  UNL     1       4.874   0.750   0.350  1.00  0.00     0.158 A 
HETATM   22  N3  UNL     1       5.953   0.003   0.345  1.00  0.00    -0.288 N 
HETATM   23  C8  UNL     1       5.919  -1.219  -0.227  1.00  0.00     0.329 A 
ATOM     24  H3  UNL     1       6.814   0.345   0.772  1.00  0.00     0.172 HD
HETATM   25  O4  UNL     1       6.934  -1.958  -0.207  1.00  0.00    -0.247 OA
HETATM   26  N4  UNL     1       4.776  -1.648  -0.806  1.00  0.00    -0.275 N 
HETATM   27  C9  UNL     1       3.639  -0.863  -0.810  1.00  0.00     0.262 A 
ATOM     28  H4  UNL     1       4.752  -2.567  -1.248  1.00  0.00     0.173 HD
HETATM   29  O5  UNL     1       2.604  -1.308  -1.365  1.00  0.00    -0.267 OA
BRANCH  21  30
HETATM   30  O3  UNL     1       4.945   2.015   0.966  1.00  0.00    -0.345 OA
ATOM     31  H3  UNL     1       5.773   2.272   1.354  1.00  0.00     0.219 HD
ENDBRANCH  21  30
ENDBRANCH  17  20
ENDBRANCH   1  17
TORSDOF 9
