REMARK  9 active torsions:
REMARK  status: ('A' for Active; 'I' for Inactive)
REMARK    1  A    between atoms: N1_1  and  N2_4 
REMARK       I    between atoms: N2_4  and  C1_6 
REMARK    2  A    between atoms: C1_6  and  C2_8 
REMARK    3  A    between atoms: C5_11  and  O2_12 
REMARK    4  A    between atoms: O2_12  and  N3_13 
REMARK    5  A    between atoms: C6_15  and  C7_16 
REMARK    6  A    between atoms: C6_15  and  C8_18 
REMARK    7  A    between atoms: C8_18  and  C9_19 
REMARK       I    between atoms: C9_19  and  N4_21 
REMARK    8  A    between atoms: N4_21  and  C10_23 
REMARK    9  A    between atoms: C11_24  and  O5_25 
ROOT
HETATM    1  N3  UNL     1       0.725   1.627  -0.634  1.00  0.00    -0.261 N 
ATOM      2  H3  UNL     1       1.262   2.490  -0.711  1.00  0.00     0.194 HD
HETATM    3  C6  UNL     1      -0.297   1.419  -1.386  1.00  0.00     0.079 C 
ENDROOT
BRANCH   3   4
HETATM    4  C7  UNL     1      -0.657   2.446  -2.340  1.00  0.00     0.285 C 
HETATM    5  O3  UNL     1      -1.643   2.265  -3.082  1.00  0.00    -0.300 OA
ENDBRANCH   3   4
BRANCH   3   6
HETATM    6  C8  UNL     1      -1.060   0.154  -1.242  1.00  0.00     0.165 C 
BRANCH   6   7
HETATM    7  C9  UNL     1      -2.470   0.369  -0.830  1.00  0.00     0.228 C 
HETATM    8  O4  UNL     1      -2.901   1.529  -0.614  1.00  0.00    -0.273 OA
HETATM    9  N4  UNL     1      -3.298  -0.777  -0.691  1.00  0.00    -0.319 N 
ATOM     10  H4  UNL     1      -2.940  -1.716  -0.868  1.00  0.00     0.169 HD
BRANCH   9  11
HETATM   11  C10 UNL     1      -4.655  -0.560  -0.293  1.00  0.00     0.155 A 
HETATM   12  C11 UNL     1      -5.012  -0.544   1.036  1.00  0.00     0.177 A 
HETATM   13  N5  UNL     1      -6.305  -0.335   1.366  1.00  0.00    -0.287 N 
HETATM   14  C12 UNL     1      -7.230  -0.145   0.407  1.00  0.00     0.329 A 
ATOM     15  H5  UNL     1      -6.582  -0.321   2.348  1.00  0.00     0.172 HD
HETATM   16  O6  UNL     1      -8.436   0.050   0.713  1.00  0.00    -0.247 OA
HETATM   17  N6  UNL     1      -6.901  -0.156  -0.909  1.00  0.00    -0.273 N 
HETATM   18  C13 UNL     1      -5.622  -0.362  -1.256  1.00  0.00     0.280 A 
ATOM     19  H6  UNL     1      -7.615  -0.010  -1.623  1.00  0.00     0.173 HD
HETATM   20  O7  UNL     1      -5.258  -0.383  -2.480  1.00  0.00    -0.265 OA
BRANCH  12  21
HETATM   21  O5  UNL     1      -4.022  -0.744   1.983  1.00  0.00    -0.344 OA
ATOM     22  H5  UNL     1      -4.268  -0.733   2.900  1.00  0.00     0.219 HD
ENDBRANCH  12  21
ENDBRANCH   9  11
ENDBRANCH   6   7
ENDBRANCH   3   6
BRANCH   1  23
HETATM   23  O2  UNL     1       1.075   0.664   0.272  1.00  0.00    -0.236 OA
BRANCH  23  24
HETATM   24  C5  UNL     1       2.402   0.234   0.280  1.00  0.00     0.114 A 
HETATM   25  C4  UNL     1       2.844  -0.815  -0.488  1.00  0.00     0.043 A 
HETATM   26  C3  UNL     1       4.176  -1.197  -0.437  1.00  0.00     0.038 A 
HETATM   27  C2  UNL     1       5.034  -0.500   0.398  1.00  0.00     0.102 A 
HETATM   28  N7  UNL     1       4.564   0.521   1.134  1.00  0.00    -0.359 N 
HETATM   29  C14 UNL     1       3.274   0.911   1.103  1.00  0.00     0.128 A 
ATOM     30  H7  UNL     1       5.211   1.023   1.742  1.00  0.00     0.165 HD
BRANCH  27  31
HETATM   31  C1  UNL     1       6.446  -0.839   0.507  1.00  0.00     0.286 C 
HETATM   32  N2  UNL     1       7.303  -0.118   1.363  1.00  0.00    -0.271 N 
ATOM     33  H2  UNL     1       6.925   0.653   1.913  1.00  0.00     0.189 HD
HETATM   34  O1  UNL     1       6.903  -1.780  -0.165  1.00  0.00    -0.264 OA
BRANCH  32  35
HETATM   35  N1  UNL     1       8.653  -0.436   1.473  1.00  0.00    -0.342 N 
ATOM     36  H12 UNL     1       9.014  -1.210   0.916  1.00  0.00     0.176 HD
ATOM     37  H11 UNL     1       9.273   0.086   2.092  1.00  0.00     0.176 HD
ENDBRANCH  32  35
ENDBRANCH  27  31
ENDBRANCH  23  24
ENDBRANCH   1  23
TORSDOF 9
