REMARK  7 active torsions:
REMARK  status: ('A' for Active; 'I' for Inactive)
REMARK    1  A    between atoms: C2_2  and  C3_3 
REMARK    2  A    between atoms: C3_3  and  N1_4 
REMARK    3  A    between atoms: N4_13  and  C9_14 
REMARK    4  A    between atoms: C10_17  and  N6_18 
REMARK    5  A    between atoms: N6_18  and  C11_20 
REMARK    6  A    between atoms: C11_20  and  C12_21 
REMARK    7  A    between atoms: C12_21  and  N7_22 
REMARK       I    between atoms: N9_28  and  C16_30 
REMARK       I    between atoms: C16_30  and  N10_31 
REMARK       I    between atoms: C16_30  and  N11_35 
ROOT
HETATM    1  C9  UNL     1      -0.672   0.372   0.205  1.00  0.00     0.728 A 
HETATM    2  N5  UNL     1       0.515  -0.166  -0.114  1.00  0.00    -0.020 N 
ATOM      3  H5  UNL     1       0.572  -1.172  -0.273  1.00  0.00     0.203 HD
HETATM    4  C10 UNL     1       1.630   0.571  -0.232  1.00  0.00     0.707 A 
HETATM    5  N8  UNL     1       1.563   1.900  -0.024  1.00  0.00    -0.021 N 
ATOM      6  H8  UNL     1       2.398   2.479  -0.108  1.00  0.00     0.203 HD
HETATM    7  C15 UNL     1       0.397   2.444   0.291  1.00  0.00     0.710 A 
HETATM    8  N9  UNL     1       0.268   3.699   0.498  1.00  0.00    -0.172 N 
ATOM      9  H9  UNL     1      -0.675   4.006   0.734  1.00  0.00     0.181 HD
HETATM   10  C16 UNL     1       1.249   4.731   0.447  1.00  0.00     0.494 C 
HETATM   11  N10 UNL     1       0.870   5.651  -0.617  1.00  0.00    -0.032 N 
ATOM     12 1H10 UNL     1       1.572   6.390  -0.654  1.00  0.00     0.278 HD
ATOM     13 2H10 UNL     1      -0.078   6.011  -0.511  1.00  0.00     0.278 HD
ATOM     14 3H10 UNL     1       0.738   5.185  -1.515  1.00  0.00     0.278 HD
HETATM   15  N11 UNL     1       1.174   5.503   1.705  1.00  0.00    -0.032 N 
ATOM     16 1H11 UNL     1       1.876   6.242   1.668  1.00  0.00     0.278 HD
ATOM     17 2H11 UNL     1       1.265   4.915   2.533  1.00  0.00     0.278 HD
ATOM     18 3H11 UNL     1       0.237   5.860   1.892  1.00  0.00     0.278 HD
HETATM   19  N12 UNL     1      -0.739   1.689   0.411  1.00  0.00    -0.020 N 
ATOM     20  H12 UNL     1      -1.627   2.128   0.655  1.00  0.00     0.203 HD
ENDROOT
BRANCH   1  21
HETATM   21  N4  UNL     1      -1.850  -0.450   0.314  1.00  0.00    -0.116 N 
HETATM   22  N1  UNL     1      -2.668  -0.567  -0.828  1.00  0.00    -0.245 N 
HETATM   23  C4  UNL     1      -3.937  -1.166  -0.625  1.00  0.00     0.206 C 
HETATM   24  N2  UNL     1      -4.823  -1.320  -1.724  1.00  0.00    -0.062 NA
HETATM   25  N3  UNL     1      -4.301  -1.566   0.524  1.00  0.00    -0.353 N 
HETATM   26  C5  UNL     1      -3.548  -1.494   1.740  1.00  0.00     0.044 C 
ATOM     27  H3  UNL     1      -5.229  -1.983   0.588  1.00  0.00     0.163 HD
HETATM   28  C6  UNL     1      -4.234  -0.492   2.673  1.00  0.00     0.039 C 
HETATM   29  C7  UNL     1      -3.640  -2.862   2.408  1.00  0.00     0.039 C 
HETATM   30  C8  UNL     1      -2.114  -1.099   1.557  1.00  0.00     0.198 C 
BRANCH  22  31
HETATM   31  C3  UNL     1      -2.204  -0.096  -2.133  1.00  0.00     0.179 C 
BRANCH  31  32
HETATM   32  C2  UNL     1      -1.974  -1.232  -3.036  1.00  0.00    -0.015 C 
HETATM   33  C1  UNL     1      -2.639  -1.335  -4.168  1.00  0.00     0.008 C 
ENDBRANCH  31  32
ENDBRANCH  22  31
ENDBRANCH   1  21
BRANCH   4  34
HETATM   34  N6  UNL     1       2.746   0.023  -0.532  1.00  0.00    -0.224 N 
ATOM     35  H6  UNL     1       3.595   0.581  -0.623  1.00  0.00     0.177 HD
BRANCH  34  36
HETATM   36  C11 UNL     1       2.772  -1.410  -0.739  1.00  0.00     0.157 C 
BRANCH  36  37
HETATM   37  C12 UNL     1       3.676  -2.071   0.307  1.00  0.00     0.136 C 
BRANCH  37  38
HETATM   38  N7  UNL     1       4.972  -1.518   0.134  1.00  0.00    -0.419 N 
HETATM   39  C13 UNL     1       5.669  -1.853  -1.055  1.00  0.00     0.142 C 
HETATM   40  C14 UNL     1       5.748  -1.296   1.300  1.00  0.00     0.142 C 
ENDBRANCH  37  38
ENDBRANCH  36  37
ENDBRANCH  34  36
ENDBRANCH   4  34
TORSDOF 7
