REMARK  6 active torsions:
REMARK  status: ('A' for Active; 'I' for Inactive)
REMARK    1  A    between atoms: C2_2  and  C3_3 
REMARK    2  A    between atoms: C3_3  and  C4_4 
REMARK       I    between atoms: C4_4  and  N1_6 
REMARK    3  A    between atoms: N1_6  and  C5_8 
REMARK    4  A    between atoms: C8_11  and  O2_12 
REMARK       I    between atoms: N2_15  and  C10_16 
REMARK       I    between atoms: C10_16  and  N3_18 
REMARK    5  A    between atoms: N3_18  and  C11_20 
REMARK    6  A    between atoms: C11_20  and  C13_22 
REMARK       I    between atoms: N4_34  and  C23_35 
ROOT
HETATM    1  C5  UNL     1      -1.495   0.817  -0.648  1.00  0.00     0.026 C 
HETATM    2  C6  UNL     1      -1.002   0.331  -2.031  1.00  0.00     0.025 C 
HETATM    3  C7  UNL     1      -0.741  -1.030  -2.359  1.00  0.00     0.016 C 
HETATM    4  C8  UNL     1      -0.570  -2.265  -1.579  1.00  0.00     0.113 C 
HETATM    5  C9  UNL     1       0.933  -2.424  -1.240  1.00  0.00     0.177 C 
HETATM    6  N2  UNL     1       1.173  -1.226  -0.530  1.00  0.00    -0.309 N 
HETATM    7  C10 UNL     1       2.559  -0.962  -0.391  1.00  0.00     0.322 C 
HETATM    8  O3  UNL     1       3.358  -1.824  -0.889  1.00  0.00    -0.247 OA
HETATM    9  N3  UNL     1       3.155   0.139   0.228  1.00  0.00    -0.334 N 
ATOM     10  H3  UNL     1       2.555   0.857   0.635  1.00  0.00     0.165 HD
HETATM   11  C19 UNL     1       0.312  -0.297   0.027  1.00  0.00     0.085 C 
HETATM   12  C20 UNL     1      -1.163  -0.347   0.181  1.00  0.00     0.046 C 
HETATM   13  C21 UNL     1      -1.193  -0.386   1.688  1.00  0.00     0.042 C 
HETATM   14  C22 UNL     1      -0.378  -1.683   1.926  1.00  0.00     0.128 C 
HETATM   15  N4  UNL     1      -0.715  -2.736   0.943  1.00  0.00    -0.344 N 
HETATM   16  C23 UNL     1      -0.436  -4.048   1.430  1.00  0.00     0.216 C 
HETATM   17  C24 UNL     1      -0.706  -5.300   0.672  1.00  0.00     0.117 C 
HETATM   18  O4  UNL     1       0.074  -4.234   2.579  1.00  0.00    -0.274 OA
HETATM   19  C25 UNL     1      -1.281  -2.551  -0.358  1.00  0.00     0.137 C 
HETATM   20  C26 UNL     1      -2.146  -1.350  -0.125  1.00  0.00     0.002 C 
HETATM   21  C27 UNL     1      -3.292  -1.191  -1.012  1.00  0.00     0.013 C 
HETATM   22  C28 UNL     1      -3.915  -2.610  -1.116  1.00  0.00     0.001 C 
HETATM   23  C29 UNL     1      -3.942  -2.915   0.312  1.00  0.00     0.001 C 
HETATM   24  C30 UNL     1      -3.073  -1.842   0.999  1.00  0.00     0.013 C 
ENDROOT
BRANCH   4  25
HETATM   25  O2  UNL     1      -0.669  -3.356  -2.475  1.00  0.00    -0.382 OA
ATOM     26  H2  UNL     1      -0.559  -4.154  -1.971  1.00  0.00     0.211 HD
ENDBRANCH   4  25
BRANCH   9  27
HETATM   27  C11 UNL     1       4.581   0.300   0.313  1.00  0.00     0.115 C 
HETATM   28  C12 UNL     1       4.984   0.236   1.772  1.00  0.00     0.037 C 
BRANCH  27  29
HETATM   29  C13 UNL     1       5.082   1.585  -0.218  1.00  0.00    -0.034 A 
HETATM   30  C14 UNL     1       4.495   2.795   0.047  1.00  0.00     0.011 A 
HETATM   31  C15 UNL     1       5.014   3.956  -0.475  1.00  0.00     0.026 A 
HETATM   32  C16 UNL     1       6.137   3.927  -1.276  1.00  0.00     0.055 A 
HETATM   33 CL1  UNL     1       6.800   5.419  -1.941  1.00  0.00    -0.083 Cl
HETATM   34  C17 UNL     1       6.740   2.713  -1.552  1.00  0.00     0.056 A 
HETATM   35 CL2  UNL     1       8.168   2.665  -2.572  1.00  0.00    -0.083 Cl
HETATM   36  C18 UNL     1       6.195   1.546  -1.012  1.00  0.00     0.034 A 
ENDBRANCH  27  29
ENDBRANCH   9  27
BRANCH   1  37
HETATM   37  N1  UNL     1      -2.630   1.583  -0.607  1.00  0.00    -0.330 N 
HETATM   38  C4  UNL     1      -2.654   2.831   0.137  1.00  0.00     0.221 C 
HETATM   39  O1  UNL     1      -1.609   3.192   0.741  1.00  0.00    -0.273 OA
ATOM     40  H1  UNL     1      -3.466   1.274  -1.103  1.00  0.00     0.168 HD
BRANCH  38  41
HETATM   41  C3  UNL     1      -3.845   3.682   0.211  1.00  0.00     0.103 C 
BRANCH  41  42
HETATM   42  C2  UNL     1      -3.524   4.909   1.033  1.00  0.00     0.005 C 
HETATM   43  C1  UNL     1      -2.381   5.659   0.349  1.00  0.00     0.005 C 
ENDBRANCH  41  42
ENDBRANCH  38  41
ENDBRANCH   1  37
TORSDOF 6
