REMARK  10 active torsions:
REMARK  status: ('A' for Active; 'I' for Inactive)
REMARK    1  A    between atoms: C2_2  and  C3_3 
REMARK    2  A    between atoms: C3_3  and  C4_4 
REMARK    3  A    between atoms: C4_4  and  O1_5 
REMARK    4  A    between atoms: C4_4  and  C5_7 
REMARK    5  A    between atoms: C5_7  and  O2_8 
REMARK    6  A    between atoms: C5_7  and  C6_10 
REMARK    7  A    between atoms: C7_11  and  N1_12 
REMARK       I    between atoms: N1_12  and  C8_14 
REMARK    8  A    between atoms: C8_14  and  C9_16 
REMARK    9  A    between atoms: N2_33  and  C24_34 
REMARK   10  A    between atoms: C24_34  and  O4_36 
ROOT
HETATM    1  C6  UNL     1      -0.692   0.259  -0.555  1.00  0.00     0.140 C 
HETATM    2  C7  UNL     1       0.480   0.232  -1.413  1.00  0.00     0.110 C 
HETATM    3  C15 UNL     1       1.520   1.316  -1.339  1.00  0.00     0.027 C 
HETATM    4  C16 UNL     1       1.205   2.344  -0.358  1.00  0.00     0.002 C 
HETATM    5  C17 UNL     1       2.252   3.230   0.193  1.00  0.00     0.000 C 
HETATM    6  C18 UNL     1       1.760   3.666   1.584  1.00  0.00     0.000 C 
HETATM    7  C19 UNL     1       0.927   4.858   1.624  1.00  0.00     0.000 C 
HETATM    8  C20 UNL     1      -0.470   4.858   1.197  1.00  0.00     0.000 C 
HETATM    9  C21 UNL     1      -1.390   3.797   1.688  1.00  0.00     0.002 C 
HETATM   10  C22 UNL     1      -2.324   3.312   0.549  1.00  0.00     0.020 C 
HETATM   11  C23 UNL     1      -2.396   1.788   0.521  1.00  0.00     0.125 C 
HETATM   12  N2  UNL     1      -1.732   1.238  -0.708  1.00  0.00    -0.356 N 
ENDROOT
BRANCH   2  13
HETATM   13  N1  UNL     1       1.214  -1.014  -1.174  1.00  0.00    -0.350 N 
HETATM   14  C8  UNL     1       2.161  -1.210  -0.154  1.00  0.00     0.252 C 
HETATM   15  O3  UNL     1       2.509  -0.351   0.705  1.00  0.00    -0.268 OA
ATOM     16  H1  UNL     1       1.023  -1.800  -1.796  1.00  0.00     0.163 HD
BRANCH  14  17
HETATM   17  C9  UNL     1       2.842  -2.506  -0.020  1.00  0.00     0.034 A 
HETATM   18  C10 UNL     1       2.863  -3.378  -1.069  1.00  0.00     0.036 A 
HETATM   19  C11 UNL     1       3.497  -4.626  -0.972  1.00  0.00     0.013 A 
HETATM   20 BR1  UNL     1       3.529  -5.847  -2.435  1.00  0.00    -0.051 Br
HETATM   21  C12 UNL     1       4.114  -4.981   0.210  1.00  0.00     0.038 A 
HETATM   22  C13 UNL     1       4.102  -4.110   1.282  1.00  0.00     0.013 A 
HETATM   23 BR2  UNL     1       4.943  -4.577   2.916  1.00  0.00    -0.051 Br
HETATM   24  C14 UNL     1       3.470  -2.890   1.156  1.00  0.00     0.036 A 
ENDBRANCH  14  17
ENDBRANCH   2  13
BRANCH   1  25
HETATM   25  C5  UNL     1      -1.369  -1.131  -0.627  1.00  0.00     0.171 C 
BRANCH  25  26
HETATM   26  C4  UNL     1      -2.203  -1.442   0.579  1.00  0.00     0.149 C 
BRANCH  26  27
HETATM   27  C3  UNL     1      -2.688  -2.883   0.551  1.00  0.00     0.034 C 
BRANCH  27  28
HETATM   28  C2  UNL     1      -1.578  -3.890   0.640  1.00  0.00    -0.002 C 
HETATM   29  C1  UNL     1      -2.241  -5.268   0.605  1.00  0.00     0.005 C 
ENDBRANCH  27  28
ENDBRANCH  26  27
BRANCH  26  30
HETATM   30  O1  UNL     1      -1.534  -1.297   1.791  1.00  0.00    -0.393 OA
ATOM     31  H1  UNL     1      -1.231  -0.397   1.808  1.00  0.00     0.210 HD
ENDBRANCH  26  30
ENDBRANCH  25  26
BRANCH  25  32
HETATM   32  O2  UNL     1      -2.052  -1.337  -1.790  1.00  0.00    -0.391 OA
ATOM     33  H2  UNL     1      -1.523  -1.140  -2.554  1.00  0.00     0.210 HD
ENDBRANCH  25  32
ENDBRANCH   1  25
BRANCH  12  34
HETATM   34  C24 UNL     1      -2.242   1.824  -1.880  1.00  0.00     0.109 C 
HETATM   35  C25 UNL     1      -1.783   1.690  -3.272  1.00  0.00     0.097 C 
BRANCH  34  36
HETATM   36  O4  UNL     1      -3.272   2.617  -1.795  1.00  0.00    -0.350 OA
ATOM     37  H4  UNL     1      -3.617   3.013  -2.587  1.00  0.00     0.219 HD
ENDBRANCH  34  36
ENDBRANCH  12  34
TORSDOF 10
