REMARK  2 active torsions:
REMARK  status: ('A' for Active; 'I' for Inactive)
REMARK    1  A    between atoms: C2_2  and  C3_3 
REMARK    2  A    between atoms: C6_6  and  N1_7 
ROOT
HETATM    1  C3  UNL     1       0.912  -0.161  -0.345  1.00  0.00     0.024 C 
HETATM    2  C4  UNL     1       0.034  -1.204   0.260  1.00  0.00     0.012 C 
HETATM    3  C5  UNL     1      -1.340  -1.276  -0.342  1.00  0.00     0.039 C 
HETATM    4  C6  UNL     1      -2.225  -0.152   0.137  1.00  0.00     0.221 C 
HETATM    5  C7  UNL     1      -1.677   1.195  -0.294  1.00  0.00     0.092 C 
HETATM    6  N2  UNL     1      -0.613   1.563   0.528  1.00  0.00    -0.380 N 
ATOM      7  H2  UNL     1      -0.786   2.080   1.390  1.00  0.00     0.164 HD
HETATM    8  C8  UNL     1       0.690   1.220   0.165  1.00  0.00     0.064 C 
ENDROOT
BRANCH   4   9
HETATM    9  N1  UNL     1      -3.562  -0.381  -0.373  1.00  0.00    -0.070 N 
ATOM     10  H13 UNL     1      -3.583  -0.494  -1.387  1.00  0.00     0.275 HD
ATOM     11  H12 UNL     1      -3.926  -1.301  -0.125  1.00  0.00     0.275 HD
ATOM     12  H11 UNL     1      -4.160   0.379  -0.049  1.00  0.00     0.275 HD
ENDBRANCH   4   9
BRANCH   1  13
HETATM   13  C2  UNL     1       2.358  -0.551  -0.036  1.00  0.00     0.005 C 
HETATM   14  C1  UNL     1       3.342   0.419  -0.592  1.00  0.00     0.006 C 
ENDBRANCH   1  13
TORSDOF 2
