REMARK  2 active torsions:
REMARK  status: ('A' for Active; 'I' for Inactive)
REMARK    1  A    between atoms: N1_2  and  C2_5 
REMARK    2  A    between atoms: C5_8  and  N2_9 
ROOT
HETATM    1  C2  UNL     1      -0.769  -0.273  -0.292  1.00  0.00     0.185 C 
HETATM    2  C3  UNL     1      -0.332   1.074   0.227  1.00  0.00     0.035 C 
HETATM    3  C4  UNL     1       0.676   0.801   1.323  1.00  0.00     0.034 C 
HETATM    4  C5  UNL     1       1.855   0.100   0.718  1.00  0.00     0.183 C 
HETATM    5  C6  UNL     1       1.426  -1.202   0.071  1.00  0.00     0.034 C 
HETATM    6  C7  UNL     1       0.381  -0.926  -1.017  1.00  0.00     0.035 C 
ENDROOT
BRANCH   1   7
HETATM    7  N1  UNL     1      -1.971  -0.166  -1.018  1.00  0.00    -0.075 N 
HETATM    8  C1  UNL     1      -3.056   0.191  -0.175  1.00  0.00     0.267 C 
ATOM      9  H12 UNL     1      -2.169  -1.019  -1.541  1.00  0.00     0.277 HD
ATOM     10  H11 UNL     1      -1.878   0.481  -1.801  1.00  0.00     0.277 HD
ENDBRANCH   1   7
BRANCH   4  11
HETATM   11  N2  UNL     1       2.629   0.917  -0.173  1.00  0.00    -0.075 N 
ATOM     12  H23 UNL     1       2.035   1.312  -0.902  1.00  0.00     0.274 HD
ATOM     13  H22 UNL     1       2.924   1.775   0.294  1.00  0.00     0.274 HD
ATOM     14  H21 UNL     1       3.431   0.440  -0.585  1.00  0.00     0.274 HD
ENDBRANCH   4  11
TORSDOF 2
