REMARK  1 active torsions:
REMARK  status: ('A' for Active; 'I' for Inactive)
REMARK    1  A    between atoms: N1_2  and  C2_5 
ROOT
HETATM    1  C2  UNL     1       0.759  -0.082  -0.173  1.00  0.00     0.418 C 
HETATM    2  C3  UNL     1      -0.165  -1.205   0.289  1.00  0.00     0.071 C 
HETATM    3  C4  UNL     1      -1.490  -0.705  -0.251  1.00  0.00     0.013 C 
HETATM    4  C5  UNL     1      -2.672  -1.272   0.487  1.00  0.00     0.012 C 
HETATM    5  C6  UNL     1      -1.401   0.757   0.086  1.00  0.00     0.279 C 
HETATM    6  N2  UNL     1      -0.015   1.106   0.015  1.00  0.00     0.115 N 
HETATM    7  C7  UNL     1       0.230   2.155  -0.924  1.00  0.00     0.312 C 
ENDROOT
BRANCH   1   8
HETATM    8  N1  UNL     1       1.868  -0.026   0.772  1.00  0.00    -0.047 N 
HETATM    9  C1  UNL     1       3.142  -0.262   0.152  1.00  0.00     0.269 C 
ATOM     10  H12 UNL     1       1.717  -0.667   1.551  1.00  0.00     0.279 HD
ATOM     11  H11 UNL     1       1.868   0.857   1.282  1.00  0.00     0.279 HD
ENDBRANCH   1   8
TORSDOF 1
