REMARK  2 active torsions:
REMARK  status: ('A' for Active; 'I' for Inactive)
REMARK    1  A    between atoms: C3_3  and  C4_4 
REMARK    2  A    between atoms: C6_6  and  N1_7 
ROOT
HETATM    1  C4  UNL     1       0.178  -0.461   0.281  1.00  0.00     0.210 C 
HETATM    2  C5  UNL     1      -0.605   0.262  -0.798  1.00  0.00     0.069 C 
HETATM    3  C6  UNL     1      -1.973   0.538  -0.256  1.00  0.00     0.187 C 
HETATM    4  C7  UNL     1      -2.330  -0.222   0.967  1.00  0.00     0.060 C 
HETATM    5  C8  UNL     1      -1.700  -1.547   1.132  1.00  0.00     0.235 C 
HETATM    6  N2  UNL     1      -0.465  -1.744   0.451  1.00  0.00    -0.068 N 
ATOM      7  H21 UNL     1       0.135  -2.423   0.919  1.00  0.00     0.277 HD
ATOM      8  H22 UNL     1      -0.580  -2.243  -0.431  1.00  0.00     0.277 HD
ENDROOT
BRANCH   3   9
HETATM    9  N1  UNL     1      -1.998   1.967   0.101  1.00  0.00    -0.075 N 
ATOM     10  H13 UNL     1      -1.248   2.238   0.737  1.00  0.00     0.274 HD
ATOM     11  H12 UNL     1      -1.737   2.581  -0.670  1.00  0.00     0.274 HD
ATOM     12  H11 UNL     1      -2.930   2.155   0.470  1.00  0.00     0.274 HD
ENDBRANCH   3   9
BRANCH   1  13
HETATM   13  C3  UNL     1       1.610  -0.537   0.008  1.00  0.00     0.001 C 
HETATM   14  C2  UNL     1       2.384   0.517   0.179  1.00  0.00    -0.033 C 
HETATM   15  C1  UNL     1       3.848   0.456  -0.095  1.00  0.00     0.036 C 
ENDBRANCH   1  13
TORSDOF 2
