REMARK  1 active torsions:
REMARK  status: ('A' for Active; 'I' for Inactive)
REMARK    1  A    between atoms: C2_2  and  N1_3 
ROOT
HETATM    1  N1  UNL     1      -1.718  -0.250  -1.458  1.00  0.00    -0.302 N 
ATOM      2  H1  UNL     1      -1.636  -0.902  -2.238  1.00  0.00     0.174 HD
HETATM    3  C3  UNL     1      -2.836   0.557  -1.343  1.00  0.00     0.179 C 
HETATM    4  N2  UNL     1      -3.768   1.242  -1.247  1.00  0.00    -0.172 NA
ENDROOT
BRANCH   1   5
HETATM    5  C2  UNL     1      -0.674  -0.166  -0.476  1.00  0.00     0.108 C 
HETATM    6  C1  UNL     1      -1.296  -0.520   0.881  1.00  0.00     0.064 C 
HETATM    7  C4  UNL     1       0.431  -1.128  -0.796  1.00  0.00     0.054 C 
HETATM    8  C5  UNL     1       1.584  -0.974   0.136  1.00  0.00     0.009 C 
HETATM    9  C6  UNL     1       2.019   0.440   0.348  1.00  0.00     0.044 C 
HETATM   10  C7  UNL     1       0.928   1.448   0.340  1.00  0.00     0.058 C 
HETATM   11  N3  UNL     1      -0.204   1.173  -0.429  1.00  0.00    -0.376 N 
ATOM     12  H3  UNL     1      -0.681   1.914  -0.943  1.00  0.00     0.161 HD
ENDBRANCH   1   5
TORSDOF 1
