REMARK  4 active torsions:
REMARK  status: ('A' for Active; 'I' for Inactive)
REMARK    1  A    between atoms: C2_2  and  O1_3 
REMARK    2  A    between atoms: O1_3  and  N1_4 
REMARK    3  A    between atoms: C5_8  and  C6_9 
REMARK    4  A    between atoms: C12_17  and  C14_19 
ROOT
HETATM    1  N1  UNL     1      -1.907   1.999  -0.553  1.00  0.00    -0.274 N 
ATOM      2  H1  UNL     1      -1.153   2.671  -0.697  1.00  0.00     0.193 HD
HETATM    3  C3  UNL     1      -1.635   0.774  -0.752  1.00  0.00     0.027 C 
HETATM    4  C4  UNL     1      -2.700  -0.246  -0.557  1.00  0.00     0.061 C 
HETATM    5  C5  UNL     1      -2.243  -1.556  -1.102  1.00  0.00    -0.001 C 
HETATM    6  C9  UNL     1      -0.978  -2.001  -0.450  1.00  0.00     0.059 C 
HETATM    7  C10 UNL     1       0.051  -0.892  -0.398  1.00  0.00     0.004 C 
HETATM    8  N2  UNL     1       1.021  -1.282   0.347  1.00  0.00    -0.360 N 
ATOM      9  H2  UNL     1       0.935  -2.217   0.747  1.00  0.00     0.165 HD
HETATM   10  C11 UNL     1       2.241  -0.538   0.691  1.00  0.00     0.066 C 
HETATM   11  C12 UNL     1       2.827  -0.796   1.817  1.00  0.00    -0.032 C 
HETATM   12  C13 UNL     1       2.120  -1.897   2.611  1.00  0.00     0.048 C 
HETATM   13  C17 UNL     1       2.839   0.391  -0.252  1.00  0.00     0.098 A 
HETATM   14  N3  UNL     1       4.135   0.586  -0.483  1.00  0.00    -0.258 N 
ATOM     15  H3  UNL     1       4.897   0.104  -0.005  1.00  0.00     0.195 HD
HETATM   16  O2  UNL     1       4.281   1.484  -1.410  1.00  0.00    -0.241 OA
HETATM   17  C18 UNL     1       3.122   1.922  -1.835  1.00  0.00     0.088 A 
HETATM   18  C19 UNL     1       2.794   2.945  -2.878  1.00  0.00     0.080 C 
HETATM   19  C20 UNL     1       2.160   1.235  -1.108  1.00  0.00     0.073 A 
HETATM   20  C21 UNL     1       0.708   1.363  -1.275  1.00  0.00     0.179 C 
HETATM   21  O3  UNL     1       0.371   2.557  -1.550  1.00  0.00    -0.291 OA
HETATM   22  C22 UNL     1      -0.277   0.299  -1.159  1.00  0.00     0.153 C 
ENDROOT
BRANCH  11  23
HETATM   23  C14 UNL     1       3.995  -0.243   2.497  1.00  0.00     0.055 C 
HETATM   24  C15 UNL     1       5.219  -1.071   2.187  1.00  0.00     0.037 C 
HETATM   25  C16 UNL     1       4.205   1.221   2.483  1.00  0.00     0.037 C 
HETATM   26 CL1  UNL     1       3.726  -0.653   4.307  1.00  0.00    -0.115 Cl
ENDBRANCH  11  23
BRANCH   5  27
HETATM   27  C6  UNL     1      -3.291  -2.638  -0.986  1.00  0.00    -0.018 C 
HETATM   28  C7  UNL     1      -2.839  -3.952  -1.522  1.00  0.00     0.010 C 
HETATM   29  C8  UNL     1      -3.819  -2.814   0.410  1.00  0.00     0.010 C 
ENDBRANCH   5  27
BRANCH   1  30
HETATM   30  O1  UNL     1      -3.103   2.492  -0.169  1.00  0.00    -0.281 OA
BRANCH  30  31
HETATM   31  C2  UNL     1      -3.636   3.654  -0.745  1.00  0.00     0.196 C 
HETATM   32  C1  UNL     1      -4.979   4.015  -0.138  1.00  0.00     0.036 C 
ENDBRANCH  30  31
ENDBRANCH   1  30
TORSDOF 4
