REMARK  4 active torsions:
REMARK  status: ('A' for Active; 'I' for Inactive)
REMARK    1  A    between atoms: O1_2  and  C2_3 
REMARK    2  A    between atoms: C4_6  and  O2_7 
REMARK    3  A    between atoms: C6_9  and  N1_10 
REMARK    4  A    between atoms: C10_17  and  C12_19 
ROOT
HETATM    1  C2  UNL     1      -2.546   1.418  -0.195  1.00  0.00     0.108 A 
HETATM    2  C3  UNL     1      -3.727   0.691  -0.411  1.00  0.00     0.081 A 
HETATM    3 BR1  UNL     1      -5.444   1.509  -0.356  1.00  0.00    -0.045 Br
HETATM    4  C4  UNL     1      -3.558  -0.640  -0.663  1.00  0.00     0.124 A 
HETATM    5  C6  UNL     1      -2.341  -1.256  -0.710  1.00  0.00     0.172 A 
HETATM    6  C7  UNL     1      -1.173  -0.510  -0.491  1.00  0.00     0.132 A 
HETATM    7  C8  UNL     1      -1.329   0.816  -0.239  1.00  0.00     0.078 A 
HETATM    8  S1  UNL     1       0.318   1.437  -0.015  1.00  0.00    -0.059 SA
HETATM    9  C9  UNL     1       1.129  -0.135  -0.274  1.00  0.00     0.120 A 
HETATM   10  C10 UNL     1       2.417  -0.449  -0.257  1.00  0.00    -0.035 C 
HETATM   11  C11 UNL     1       2.827  -1.886  -0.515  1.00  0.00     0.048 C 
HETATM   12  O5  UNL     1       0.079  -0.999  -0.510  1.00  0.00    -0.299 OA
ENDROOT
BRANCH  10  13
HETATM   13  C12 UNL     1       3.501   0.478  -0.008  1.00  0.00    -0.025 C 
HETATM   14  C13 UNL     1       4.232  -0.067   1.242  1.00  0.00     0.019 C 
HETATM   15  C14 UNL     1       4.464   0.368  -1.190  1.00  0.00     0.019 C 
HETATM   16  C15 UNL     1       3.176   1.893   0.300  1.00  0.00     0.019 C 
ENDBRANCH  10  13
BRANCH   1  17
HETATM   17  O1  UNL     1      -2.646   2.782   0.067  1.00  0.00    -0.353 OA
HETATM   18  C1  UNL     1      -2.768   3.172   1.422  1.00  0.00     0.210 C 
ENDBRANCH   1  17
BRANCH   5  19
HETATM   19  N1  UNL     1      -2.313  -2.649  -0.983  1.00  0.00    -0.110 N 
HETATM   20  O3  UNL     1      -2.555  -3.000  -2.154  1.00  0.00    -0.532 OA
HETATM   21  O4  UNL     1      -2.042  -3.618  -0.065  1.00  0.00    -0.532 OA
ENDBRANCH   5  19
BRANCH   4  22
HETATM   22  O2  UNL     1      -4.745  -1.379  -0.882  1.00  0.00    -0.352 OA
HETATM   23  C5  UNL     1      -5.349  -1.952   0.258  1.00  0.00     0.210 C 
ENDBRANCH   4  22
TORSDOF 4
