REMARK  4 active torsions:
REMARK  status: ('A' for Active; 'I' for Inactive)
REMARK    1  A    between atoms: C8_8  and  O1_9 
REMARK    2  A    between atoms: O1_9  and  C9_10 
REMARK    3  A    between atoms: C9_10  and  C10_11 
REMARK    4  A    between atoms: C10_11  and  C11_12 
ROOT
HETATM    1  C1  UNL     1      -2.859  -2.080  -2.097  1.00  0.00     0.010 C 
HETATM    2  C2  UNL     1      -1.502  -1.755  -1.451  1.00  0.00    -0.011 C 
HETATM    3  C3  UNL     1      -1.148  -2.937  -0.616  1.00  0.00     0.005 C 
HETATM    4  C4  UNL     1       0.050  -2.719   0.284  1.00  0.00     0.009 C 
HETATM    5  C5  UNL     1       0.635  -1.401  -0.052  1.00  0.00     0.037 C 
HETATM    6  C6  UNL     1       1.994  -1.107   0.499  1.00  0.00     0.044 C 
HETATM    7  C7  UNL     1       2.065  -1.129   1.993  1.00  0.00     0.015 C 
HETATM    8  C8  UNL     1       2.456   0.204  -0.102  1.00  0.00     0.267 C 
HETATM    9  O2  UNL     1       1.437   0.811  -0.882  1.00  0.00    -0.328 OA
HETATM   10  C12 UNL     1       0.402   0.983  -0.018  1.00  0.00     0.307 C 
HETATM   11  O3  UNL     1      -0.560   1.891  -0.327  1.00  0.00    -0.297 OA
HETATM   12  C13 UNL     1      -1.419   1.871   0.807  1.00  0.00     0.310 C 
HETATM   13  C14 UNL     1      -1.199   3.284   1.396  1.00  0.00     0.118 C 
HETATM   14  O4  UNL     1      -1.088   1.007   1.767  1.00  0.00    -0.171 OA
HETATM   15  O5  UNL     1      -0.796  -0.209   1.512  1.00  0.00    -0.218 OA
HETATM   16  C15 UNL     1      -0.372  -0.327   0.213  1.00  0.00     0.154 C 
HETATM   17  C16 UNL     1      -1.587  -0.458  -0.649  1.00  0.00     0.035 C 
HETATM   18  C17 UNL     1      -2.866  -0.550   0.194  1.00  0.00     0.045 C 
HETATM   19  C18 UNL     1      -3.461   0.780   0.500  1.00  0.00     0.060 C 
HETATM   20  C19 UNL     1      -4.019   0.815   1.923  1.00  0.00     0.045 C 
HETATM   21  C20 UNL     1      -4.697   0.970  -0.400  1.00  0.00     0.045 C 
HETATM   22  O6  UNL     1      -2.686   1.862   0.317  1.00  0.00    -0.321 OA
ENDROOT
BRANCH   8  23
HETATM   23  O1  UNL     1       3.639   0.113  -0.785  1.00  0.00    -0.361 OA
BRANCH  23  24
HETATM   24  C9  UNL     1       4.604   0.907  -0.173  1.00  0.00     0.172 C 
BRANCH  24  25
HETATM   25  C10 UNL     1       5.934   0.854  -0.874  1.00  0.00     0.041 C 
BRANCH  25  26
HETATM   26  C11 UNL     1       5.734   1.344  -2.291  1.00  0.00     0.116 C 
HETATM   27 CL1  UNL     1       7.317   1.278  -3.117  1.00  0.00    -0.130 Cl
ENDBRANCH  25  26
ENDBRANCH  24  25
ENDBRANCH  23  24
ENDBRANCH   8  23
TORSDOF 4
