REMARK  4 active torsions:
REMARK  status: ('A' for Active; 'I' for Inactive)
REMARK    1  A    between atoms: N1_2  and  C1_4 
REMARK    2  A    between atoms: C3_7  and  S2_8 
REMARK    3  A    between atoms: S2_8  and  C4_9 
REMARK    4  A    between atoms: C4_9  and  C5_10 
ROOT
HETATM    1  C1  UNL     1      -0.493   1.351  -1.029  1.00  0.00     0.115 C 
HETATM    2  C2  UNL     1       0.642   1.893  -0.539  1.00  0.00     0.086 C 
HETATM    3  S1  UNL     1       1.362   1.144   0.928  1.00  0.00    -0.075 SA
HETATM    4  C3  UNL     1       0.951  -0.616   0.727  1.00  0.00     0.109 C 
HETATM    5  N2  UNL     1      -0.176  -0.792   0.144  1.00  0.00    -0.364 N 
ATOM      6  H2  UNL     1      -0.465  -1.759  -0.001  1.00  0.00     0.162 HD
HETATM    7  C9  UNL     1      -1.074   0.217  -0.326  1.00  0.00     0.080 C 
HETATM    8  C10 UNL     1      -2.127  -0.533  -1.163  1.00  0.00     0.038 C 
HETATM    9  C11 UNL     1      -3.422   0.183  -1.141  1.00  0.00     0.003 C 
HETATM   10  C12 UNL     1      -4.320  -0.169   0.018  1.00  0.00     0.000 C 
HETATM   11  C13 UNL     1      -3.690  -1.082   1.006  1.00  0.00     0.000 C 
HETATM   12  C14 UNL     1      -2.380  -0.604   1.557  1.00  0.00     0.003 C 
HETATM   13  C15 UNL     1      -1.872   0.666   0.914  1.00  0.00     0.038 C 
ENDROOT
BRANCH   4  14
HETATM   14  S2  UNL     1       2.019  -1.850   1.292  1.00  0.00    -0.099 SA
BRANCH  14  15
HETATM   15  C4  UNL     1       3.599  -1.261   1.856  1.00  0.00     0.146 C 
BRANCH  15  16
HETATM   16  C5  UNL     1       4.458  -0.802   0.756  1.00  0.00     0.064 A 
HETATM   17  C6  UNL     1       4.714   0.458   0.333  1.00  0.00     0.037 A 
HETATM   18  C7  UNL     1       5.593   0.359  -0.751  1.00  0.00     0.048 A 
HETATM   19  C8  UNL     1       5.812  -0.972  -0.912  1.00  0.00     0.121 A 
HETATM   20 BR1  UNL     1       6.940  -1.744  -2.249  1.00  0.00    -0.023 Br
HETATM   21  O3  UNL     1       5.142  -1.629  -0.024  1.00  0.00    -0.307 OA
ENDBRANCH  15  16
ENDBRANCH  14  15
ENDBRANCH   4  14
BRANCH   1  22
HETATM   22  N1  UNL     1      -1.035   1.977  -2.204  1.00  0.00    -0.117 N 
HETATM   23  O1  UNL     1      -1.136   1.375  -3.263  1.00  0.00    -0.532 OA
HETATM   24  O2  UNL     1      -1.424   3.276  -2.097  1.00  0.00    -0.532 OA
ENDBRANCH   1  22
TORSDOF 4
