REMARK  12 active torsions:
REMARK  status: ('A' for Active; 'I' for Inactive)
REMARK    1  A    between atoms: C2_2  and  O1_3 
REMARK    2  A    between atoms: C4_6  and  O2_7 
REMARK    3  A    between atoms: O2_7  and  C5_8 
REMARK    4  A    between atoms: C5_8  and  C6_10 
REMARK    5  A    between atoms: C9_13  and  N1_14 
REMARK    6  A    between atoms: C11_19  and  O4_20 
REMARK    7  A    between atoms: C13_23  and  O5_24 
REMARK    8  A    between atoms: C14_26  and  O6_27 
REMARK    9  A    between atoms: O6_27  and  S1_28 
REMARK   10  A    between atoms: C15_31  and  N4_32 
REMARK   11  A    between atoms: N4_32  and  N5_34 
REMARK   12  A    between atoms: N5_34  and  N6_35 
ROOT
HETATM    1  C1  UNL     1      -4.114  -0.804   2.472  1.00  0.00     0.048 C 
HETATM    2  C2  UNL     1      -3.920  -1.019   1.002  1.00  0.00     0.082 C 
HETATM    3  C3  UNL     1      -2.506  -1.031   0.555  1.00  0.00     0.075 C 
HETATM    4  C4  UNL     1      -1.867   0.286   0.940  1.00  0.00     0.166 C 
HETATM    5  C13 UNL     1      -2.715   1.471   0.686  1.00  0.00     0.180 C 
HETATM    6  C14 UNL     1      -3.976   1.263  -0.053  1.00  0.00     0.202 C 
HETATM    7  C15 UNL     1      -4.687  -0.024   0.175  1.00  0.00     0.181 C 
ENDROOT
BRANCH   4   8
HETATM    8  O2  UNL     1      -0.613   0.337   0.273  1.00  0.00    -0.313 OA
BRANCH   8   9
HETATM    9  C5  UNL     1       0.603   0.258   0.910  1.00  0.00     0.263 C 
HETATM   10  O3  UNL     1       0.602   0.134   2.162  1.00  0.00    -0.265 OA
BRANCH   9  11
HETATM   11  C6  UNL     1       1.909   0.310   0.218  1.00  0.00     0.088 C 
HETATM   12  C7  UNL     1       1.976  -0.844  -0.755  1.00  0.00     0.017 C 
HETATM   13  C8  UNL     1       3.290  -0.783  -1.474  1.00  0.00     0.028 C 
HETATM   14  C9  UNL     1       4.462  -0.846  -0.537  1.00  0.00     0.112 C 
HETATM   15  C11 UNL     1       4.105  -0.698   0.899  1.00  0.00     0.141 C 
HETATM   16  C12 UNL     1       3.046   0.320   1.180  1.00  0.00     0.048 C 
BRANCH  14  17
HETATM   17  N1  UNL     1       5.405   0.178  -0.899  1.00  0.00    -0.360 N 
HETATM   18  C10 UNL     1       6.651   0.027  -0.606  1.00  0.00     0.197 C 
HETATM   19  N2  UNL     1       7.120  -1.131   0.069  1.00  0.00    -0.067 NA
HETATM   20  N3  UNL     1       7.581   1.029  -0.959  1.00  0.00    -0.067 NA
ATOM     21  H1  UNL     1       5.090   1.018  -1.384  1.00  0.00     0.162 HD
ENDBRANCH  14  17
BRANCH  15  22
HETATM   22  O4  UNL     1       3.759  -1.911   1.511  1.00  0.00    -0.393 OA
ATOM     23  H4  UNL     1       3.531  -1.816   2.428  1.00  0.00     0.210 HD
ENDBRANCH  15  22
ENDBRANCH   9  11
ENDBRANCH   8   9
ENDBRANCH   4   8
BRANCH   5  24
HETATM   24  O5  UNL     1      -1.984   2.481   0.015  1.00  0.00    -0.390 OA
ATOM     25  H5  UNL     1      -2.529   3.242  -0.148  1.00  0.00     0.210 HD
ENDBRANCH   5  24
BRANCH   2  26
HETATM   26  O1  UNL     1      -4.467  -2.289   0.704  1.00  0.00    -0.388 OA
ATOM     27  H1  UNL     1      -4.344  -2.425  -0.228  1.00  0.00     0.210 HD
ENDBRANCH   2  26
BRANCH   6  28
HETATM   28  O6  UNL     1      -4.858   2.303   0.278  1.00  0.00    -0.252 OA
BRANCH  28  29
HETATM   29  S1  UNL     1      -5.266   3.263  -1.037  1.00  0.00     0.401 S 
HETATM   30  O7  UNL     1      -6.726   3.682  -0.906  1.00  0.00    -0.179 OA
HETATM   31  O8  UNL     1      -5.050   2.490  -2.524  1.00  0.00    -0.179 OA
ENDBRANCH  28  29
ENDBRANCH   6  28
BRANCH   7  32
HETATM   32  N4  UNL     1      -4.979  -0.693  -1.102  1.00  0.00    -0.242 N 
ATOM     33  H4  UNL     1      -4.204  -1.110  -1.617  1.00  0.00     0.197 HD
BRANCH  32  34
HETATM   34  N5  UNL     1      -6.091  -0.774  -1.573  1.00  0.00    -0.248 NA
BRANCH  34  35
HETATM   35  N6  UNL     1      -7.213  -0.993  -2.019  1.00  0.00    -0.261 N 
ATOM     36  H62 UNL     1      -7.015  -1.950  -1.728  1.00  0.00     0.193 HD
ATOM     37  H61 UNL     1      -8.150  -1.061  -2.416  1.00  0.00     0.193 HD
ENDBRANCH  34  35
ENDBRANCH  32  34
ENDBRANCH   7  32
TORSDOF 12
