REMARK  13 active torsions:
REMARK  status: ('A' for Active; 'I' for Inactive)
REMARK    1  A    between atoms: C2_2  and  C3_3 
REMARK    2  A    between atoms: C3_3  and  O1_4 
REMARK    3  A    between atoms: C6_7  and  O2_9 
REMARK    4  A    between atoms: C8_11  and  O3_12 
REMARK    5  A    between atoms: C9_14  and  O4_15 
REMARK    6  A    between atoms: O4_15  and  C10_16 
REMARK    7  A    between atoms: C11_17  and  O5_18 
REMARK    8  A    between atoms: O5_18  and  C12_19 
REMARK    9  A    between atoms: C18_26  and  C19_27 
REMARK   10  A    between atoms: C19_27  and  O7_28 
REMARK   11  A    between atoms: C20_30  and  O8_31 
REMARK   12  A    between atoms: C21_33  and  N1_34 
REMARK   13  A    between atoms: C22_38  and  O9_39 
ROOT
HETATM    1  C10 UNL     1       0.596   1.166  -0.276  1.00  0.00     0.210 C 
HETATM    2  C11 UNL     1       1.835   0.945   0.552  1.00  0.00     0.291 C 
HETATM    3  O6  UNL     1       2.333   2.153   0.976  1.00  0.00    -0.349 OA
HETATM    4  C18 UNL     1       1.382   3.066   1.341  1.00  0.00     0.179 C 
HETATM    5  C20 UNL     1       0.752   3.630   0.077  1.00  0.00     0.182 C 
HETATM    6  C21 UNL     1       0.558   2.530  -0.946  1.00  0.00     0.248 C 
ENDROOT
BRANCH   1   7
HETATM    7  O4  UNL     1      -0.568   1.019   0.472  1.00  0.00    -0.368 OA
BRANCH   7   8
HETATM    8  C9  UNL     1      -1.402  -0.013  -0.020  1.00  0.00     0.185 C 
HETATM    9  C8  UNL     1      -1.480  -1.025   1.066  1.00  0.00     0.183 C 
HETATM   10  C6  UNL     1      -2.655  -1.950   0.975  1.00  0.00     0.086 C 
HETATM   11  C5  UNL     1      -3.904  -1.144   0.907  1.00  0.00     0.085 C 
HETATM   12  C7  UNL     1      -2.454  -2.954  -0.104  1.00  0.00     0.049 C 
HETATM   13  C3  UNL     1      -3.917  -0.294  -0.298  1.00  0.00     0.108 C 
HETATM   14  C22 UNL     1      -2.685   0.553  -0.480  1.00  0.00     0.188 C 
BRANCH   9  15
HETATM   15  O3  UNL     1      -0.325  -1.830   0.983  1.00  0.00    -0.390 OA
ATOM     16  H3  UNL     1       0.420  -1.243   1.041  1.00  0.00     0.210 HD
ENDBRANCH   9  15
BRANCH  10  17
HETATM   17  O2  UNL     1      -2.695  -2.656   2.202  1.00  0.00    -0.387 OA
ATOM     18  H2  UNL     1      -1.898  -3.171   2.245  1.00  0.00     0.210 HD
ENDBRANCH  10  17
BRANCH  13  19
HETATM   19  C2  UNL     1      -5.057   0.692  -0.197  1.00  0.00     0.003 C 
HETATM   20  C1  UNL     1      -5.040   1.539   0.814  1.00  0.00     0.010 C 
ENDBRANCH  13  19
BRANCH  13  21
HETATM   21  O1  UNL     1      -4.131  -1.039  -1.436  1.00  0.00    -0.378 OA
HETATM   22  C4  UNL     1      -5.300  -1.736  -1.519  1.00  0.00     0.203 C 
ENDBRANCH  13  21
BRANCH  14  23
HETATM   23  O9  UNL     1      -2.660   0.861  -1.863  1.00  0.00    -0.390 OA
ATOM     24  H9  UNL     1      -1.883   1.395  -1.978  1.00  0.00     0.210 HD
ENDBRANCH  14  23
ENDBRANCH   7   8
ENDBRANCH   1   7
BRANCH   2  25
HETATM   25  O5  UNL     1       2.773   0.294  -0.245  1.00  0.00    -0.353 OA
BRANCH  25  26
HETATM   26  C12 UNL     1       3.201  -0.922   0.231  1.00  0.00     0.124 C 
HETATM   27  C13 UNL     1       4.670  -0.921   0.605  1.00  0.00     0.032 C 
HETATM   28  C14 UNL     1       5.019  -2.360   0.960  1.00  0.00     0.002 C 
HETATM   29  C15 UNL     1       4.992  -3.257  -0.247  1.00  0.00     0.000 C 
HETATM   30  C16 UNL     1       4.185  -2.591  -1.312  1.00  0.00     0.002 C 
HETATM   31  C17 UNL     1       2.901  -2.066  -0.696  1.00  0.00     0.032 C 
ENDBRANCH  25  26
ENDBRANCH   2  25
BRANCH   6  32
HETATM   32  N1  UNL     1       1.533   2.653  -2.007  1.00  0.00    -0.070 N 
ATOM     33  H13 UNL     1       2.471   2.435  -1.671  1.00  0.00     0.274 HD
ATOM     34  H12 UNL     1       1.427   1.905  -2.692  1.00  0.00     0.274 HD
ATOM     35  H11 UNL     1       1.508   3.568  -2.457  1.00  0.00     0.274 HD
ENDBRANCH   6  32
BRANCH   5  36
HETATM   36  O8  UNL     1       1.634   4.557  -0.457  1.00  0.00    -0.391 OA
ATOM     37  H8  UNL     1       1.240   4.909  -1.247  1.00  0.00     0.210 HD
ENDBRANCH   5  36
BRANCH   4  38
HETATM   38  C19 UNL     1       2.085   4.169   2.133  1.00  0.00     0.198 C 
BRANCH  38  39
HETATM   39  O7  UNL     1       1.204   5.141   2.548  1.00  0.00    -0.398 OA
ATOM     40  H7  UNL     1       1.641   5.826   3.040  1.00  0.00     0.209 HD
ENDBRANCH  38  39
ENDBRANCH   4  38
TORSDOF 13
