REMARK  13 active torsions:
REMARK  status: ('A' for Active; 'I' for Inactive)
REMARK    1  A    between atoms: C2_2  and  C3_3 
REMARK    2  A    between atoms: C2_2  and  O1_5 
REMARK    3  A    between atoms: O1_5  and  C5_6 
REMARK    4  A    between atoms: C7_8  and  S1_9 
REMARK    5  A    between atoms: S1_9  and  C8_10 
REMARK    6  A    between atoms: C9_12  and  O3_13 
REMARK    7  A    between atoms: C11_15  and  N1_16 
REMARK    8  A    between atoms: N1_16  and  C12_18 
REMARK    9  A    between atoms: C13_21  and  O4_22 
REMARK   10  A    between atoms: C14_24  and  O5_25 
REMARK   11  A    between atoms: C15_28  and  C16_29 
REMARK   12  A    between atoms: C16_29  and  O7_30 
REMARK   13  A    between atoms: C17_32  and  O8_33 
ROOT
HETATM    1  C8  UNL     1      -1.770  -0.108  -0.968  1.00  0.00     0.219 C 
HETATM    2  O2  UNL     1      -2.263   1.046  -0.452  1.00  0.00    -0.341 OA
HETATM    3  C9  UNL     1      -3.462   0.856   0.261  1.00  0.00     0.285 C 
HETATM    4  C11 UNL     1      -4.517   0.619  -0.800  1.00  0.00     0.170 C 
HETATM    5  C13 UNL     1      -4.148  -0.576  -1.623  1.00  0.00     0.177 C 
HETATM    6  C14 UNL     1      -2.783  -1.135  -1.353  1.00  0.00     0.188 C 
ENDROOT
BRANCH   1   7
HETATM    7  S1  UNL     1      -0.591  -0.821   0.187  1.00  0.00    -0.103 SA
BRANCH   7   8
HETATM    8  C7  UNL     1       0.903   0.191   0.386  1.00  0.00     0.188 C 
HETATM    9  C6  UNL     1       1.718   0.267  -0.848  1.00  0.00     0.078 C 
HETATM   10  C5  UNL     1       3.188   0.297  -0.493  1.00  0.00     0.163 C 
HETATM   11  C17 UNL     1       3.532  -1.014   0.190  1.00  0.00     0.178 C 
HETATM   12  C15 UNL     1       2.418  -1.411   1.143  1.00  0.00     0.177 C 
HETATM   13  O6  UNL     1       1.602  -0.333   1.433  1.00  0.00    -0.365 OA
BRANCH  10  14
HETATM   14  O1  UNL     1       3.986   0.429  -1.645  1.00  0.00    -0.348 OA
BRANCH  14  15
HETATM   15  C2  UNL     1       5.358   0.489  -1.668  1.00  0.00     0.037 C 
HETATM   16  C1  UNL     1       6.060  -0.613  -1.849  1.00  0.00     0.046 C 
BRANCH  15  17
HETATM   17  C3  UNL     1       6.048   1.777  -1.490  1.00  0.00     0.059 C 
HETATM   18  C4  UNL     1       5.766   2.469  -0.198  1.00  0.00     0.012 C 
ENDBRANCH  15  17
ENDBRANCH  14  15
ENDBRANCH  10  14
BRANCH  11  19
HETATM   19  O8  UNL     1       4.700  -0.917   0.914  1.00  0.00    -0.390 OA
ATOM     20  H8  UNL     1       4.915  -1.738   1.342  1.00  0.00     0.210 HD
ENDBRANCH  11  19
BRANCH  12  21
HETATM   21  C16 UNL     1       2.965  -2.043   2.402  1.00  0.00     0.198 C 
BRANCH  21  22
HETATM   22  O7  UNL     1       1.896  -2.477   3.173  1.00  0.00    -0.398 OA
ATOM     23  H7  UNL     1       2.240  -2.874   3.964  1.00  0.00     0.209 HD
ENDBRANCH  21  22
ENDBRANCH  12  21
ENDBRANCH   7   8
ENDBRANCH   1   7
BRANCH   6  24
HETATM   24  O5  UNL     1      -2.766  -2.176  -0.427  1.00  0.00    -0.389 OA
ATOM     25  H5  UNL     1      -3.411  -2.829  -0.672  1.00  0.00     0.210 HD
ENDBRANCH   6  24
BRANCH   3  26
HETATM   26  O3  UNL     1      -3.795   2.046   0.907  1.00  0.00    -0.364 OA
HETATM   27  C10 UNL     1      -3.798   2.004   2.269  1.00  0.00     0.204 C 
ENDBRANCH   3  26
BRANCH   5  28
HETATM   28  O4  UNL     1      -5.062  -1.623  -1.569  1.00  0.00    -0.391 OA
ATOM     29  H4  UNL     1      -4.828  -2.381  -2.091  1.00  0.00     0.210 HD
ENDBRANCH   5  28
BRANCH   4  30
HETATM   30  N1  UNL     1      -5.857   0.699  -0.350  1.00  0.00    -0.357 N 
ATOM     31  H1  UNL     1      -6.420   1.429  -0.786  1.00  0.00     0.162 HD
BRANCH  30  32
HETATM   32  C12 UNL     1      -6.527  -0.082   0.612  1.00  0.00     0.181 C 
HETATM   33  N2  UNL     1      -7.884   0.156   0.934  1.00  0.00    -0.070 NA
HETATM   34  S2  UNL     1      -5.804  -1.302   1.410  1.00  0.00    -0.044 SA
ENDBRANCH  30  32
ENDBRANCH   4  30
TORSDOF 13
