REMARK  4 active torsions:
REMARK  status: ('A' for Active; 'I' for Inactive)
REMARK    1  A    between atoms: N1_1  and  C1_4 
REMARK    2  A    between atoms: C2_9  and  S1_10 
REMARK    3  A    between atoms: S1_10  and  N4_13 
REMARK    4  A    between atoms: N7_18  and  N8_19 
ROOT
HETATM    1  C1  UNL     1       2.749  -0.443  -0.818  1.00  0.00     0.713 A 
HETATM    2  N2  UNL     1       2.138  -1.601  -1.123  1.00  0.00    -0.128 N 
ATOM      3  H2  UNL     1       2.507  -2.316  -1.750  1.00  0.00     0.205 HD
HETATM    4  N3  UNL     1       0.971  -1.669  -0.476  1.00  0.00    -0.258 N 
ATOM      5  H3  UNL     1       0.298  -2.434  -0.519  1.00  0.00     0.190 HD
HETATM    6  C2  UNL     1       0.852  -0.555   0.232  1.00  0.00     0.276 A 
HETATM    7  N7  UNL     1       1.951   0.226   0.035  1.00  0.00    -0.061 N 
ENDROOT
BRANCH   6   8
HETATM    8  S1  UNL     1      -0.453  -0.044   1.292  1.00  0.00     0.300 S 
HETATM    9  O1  UNL     1       0.077   0.875   2.363  1.00  0.00    -0.197 OA
HETATM   10  O2  UNL     1      -1.086  -1.214   1.971  1.00  0.00    -0.197 OA
BRANCH   8  11
HETATM   11  N4  UNL     1      -1.564   0.830   0.306  1.00  0.00    -0.254 N 
HETATM   12  C3  UNL     1      -2.655   0.277  -0.054  1.00  0.00     0.210 C 
HETATM   13  N5  UNL     1      -2.960  -1.049   0.348  1.00  0.00    -0.066 NA
HETATM   14  N6  UNL     1      -3.543   1.031  -0.866  1.00  0.00    -0.066 NA
ATOM     15  H4  UNL     1      -1.350   1.783   0.012  1.00  0.00     0.181 HD
ENDBRANCH   8  11
ENDBRANCH   6   8
BRANCH   7  16
HETATM   16  N8  UNL     1       2.215   1.470   0.592  1.00  0.00    -0.322 N 
ATOM     17  H82 UNL     1       3.038   2.055   0.445  1.00  0.00     0.178 HD
ATOM     18  H81 UNL     1       1.610   1.977   1.238  1.00  0.00     0.178 HD
ENDBRANCH   7  16
BRANCH   1  19
HETATM   19  N1  UNL     1       3.888  -0.066  -1.271  1.00  0.00    -0.231 N 
ATOM     20  H12 UNL     1       4.493  -0.573  -1.917  1.00  0.00     0.174 HD
ATOM     21  H11 UNL     1       4.352   0.813  -1.040  1.00  0.00     0.174 HD
ENDBRANCH   1  19
TORSDOF 4
