REMARK  4 active torsions:
REMARK  status: ('A' for Active; 'I' for Inactive)
REMARK       I    between atoms: N1_1  and  C1_4 
REMARK    1  A    between atoms: N3_6  and  C2_8 
REMARK    2  A    between atoms: C3_9  and  C4_10 
REMARK    3  A    between atoms: C5_13  and  C6_14 
REMARK    4  A    between atoms: N6_20  and  N7_21 
ROOT
HETATM    1  C2  UNL     1       0.320   0.662  -0.119  1.00  0.00     0.151 A 
HETATM    2  C3  UNL     1      -0.839  -0.089   0.006  1.00  0.00     0.105 A 
HETATM    3  C5  UNL     1      -1.961   0.531   0.527  1.00  0.00     0.093 A 
HETATM    4  N5  UNL     1      -1.884   1.850   0.892  1.00  0.00    -0.303 N 
ATOM      5  H5  UNL     1      -2.708   2.313   1.275  1.00  0.00     0.171 HD
HETATM    6  C7  UNL     1      -0.748   2.539   0.755  1.00  0.00     0.347 A 
HETATM    7  O3  UNL     1      -0.779   3.758   1.123  1.00  0.00    -0.245 OA
HETATM    8  N6  UNL     1       0.351   1.990   0.264  1.00  0.00    -0.194 N 
ENDROOT
BRANCH   1   9
HETATM    9  N3  UNL     1       1.377   0.240  -0.569  1.00  0.00    -0.315 N 
HETATM   10  C1  UNL     1       1.971  -0.842  -1.078  1.00  0.00     0.187 C 
HETATM   11  N1  UNL     1       1.754  -1.278  -2.299  1.00  0.00    -0.373 N 
HETATM   12  N2  UNL     1       2.959  -1.621  -0.318  1.00  0.00    -0.064 NA
ATOM     13  H12 UNL     1       2.208  -2.105  -2.688  1.00  0.00     0.158 HD
ATOM     14  H11 UNL     1       1.068  -0.737  -2.826  1.00  0.00     0.158 HD
ATOM     15  H3  UNL     1       2.059   0.998  -0.547  1.00  0.00     0.170 HD
ENDBRANCH   1   9
BRANCH   2  16
HETATM   16  C4  UNL     1      -0.934  -1.499  -0.366  1.00  0.00     0.271 C 
HETATM   17  N4  UNL     1      -0.428  -2.584   0.352  1.00  0.00    -0.057 NA
HETATM   18  O1  UNL     1      -1.550  -1.757  -1.463  1.00  0.00    -0.271 OA
ENDBRANCH   2  16
BRANCH   8  19
HETATM   19  N7  UNL     1       1.519   2.749   0.138  1.00  0.00    -0.333 N 
ATOM     20  H72 UNL     1       2.366   2.326  -0.241  1.00  0.00     0.177 HD
ATOM     21  H71 UNL     1       1.542   3.729   0.421  1.00  0.00     0.177 HD
ENDBRANCH   8  19
BRANCH   3  22
HETATM   22  C6  UNL     1      -3.216  -0.171   0.728  1.00  0.00     0.289 C 
HETATM   23  O2  UNL     1      -3.416  -1.358   0.463  1.00  0.00    -0.300 OA
ENDBRANCH   3  22
TORSDOF 4
