REMARK  2 active torsions:
REMARK  status: ('A' for Active; 'I' for Inactive)
REMARK       I    between atoms: N1_1  and  C1_5 
REMARK       I    between atoms: C1_5  and  N2_6 
REMARK       I    between atoms: C1_5  and  N3_10 
REMARK    1  A    between atoms: N3_10  and  C2_12 
REMARK    2  A    between atoms: C3_15  and  N5_16 
ROOT
HETATM    1  C2  UNL     1       1.817   0.194   0.282  1.00  0.00     0.699 A 
HETATM    2  N4  UNL     1       0.530   0.441   0.002  1.00  0.00    -0.022 N 
ATOM      3  H4  UNL     1       0.253   1.405  -0.185  1.00  0.00     0.203 HD
HETATM    4  C3  UNL     1      -0.419  -0.515  -0.046  1.00  0.00     0.699 A 
HETATM    5  N7  UNL     1      -0.017  -1.773   0.205  1.00  0.00    -0.140 N 
ATOM      6  H7  UNL     1      -0.706  -2.524   0.178  1.00  0.00     0.189 HD
HETATM    7  C8  UNL     1       1.267  -2.078   0.492  1.00  0.00     0.352 A 
HETATM    8  O1  UNL     1       1.641  -3.256   0.727  1.00  0.00    -0.246 OA
HETATM    9  N8  UNL     1       2.176  -1.081   0.528  1.00  0.00    -0.140 N 
ATOM     10  H8  UNL     1       3.149  -1.296   0.745  1.00  0.00     0.189 HD
ENDROOT
BRANCH   1  11
HETATM   11  N3  UNL     1       2.661   1.154   0.310  1.00  0.00    -0.173 N 
HETATM   12  C1  UNL     1       4.062   0.952   0.606  1.00  0.00     0.494 C 
HETATM   13  N1  UNL     1       4.746   2.168   0.930  1.00  0.00    -0.032 N 
HETATM   14  N2  UNL     1       4.700   0.319  -0.507  1.00  0.00    -0.032 N 
ATOM     15  H13 UNL     1       5.741   2.016   1.094  1.00  0.00     0.278 HD
ATOM     16  H12 UNL     1       4.822   2.791   0.126  1.00  0.00     0.278 HD
ATOM     17  H11 UNL     1       4.291   2.619   1.724  1.00  0.00     0.278 HD
ATOM     18  H23 UNL     1       4.776   0.942  -1.311  1.00  0.00     0.278 HD
ATOM     19  H22 UNL     1       5.695   0.167  -0.343  1.00  0.00     0.278 HD
ATOM     20  H21 UNL     1       4.213  -0.547  -0.738  1.00  0.00     0.278 HD
ATOM     21  H3  UNL     1       2.333   2.100   0.116  1.00  0.00     0.181 HD
ENDBRANCH   1  11
BRANCH   4  22
HETATM   22  N5  UNL     1      -1.781  -0.203  -0.350  1.00  0.00    -0.214 N 
HETATM   23  C4  UNL     1      -2.234   1.127  -0.620  1.00  0.00     0.168 C 
HETATM   24  C5  UNL     1      -3.562   1.440   0.023  1.00  0.00     0.252 C 
HETATM   25  N6  UNL     1      -4.473   0.326   0.008  1.00  0.00    -0.072 N 
HETATM   26  C6  UNL     1      -4.050  -0.735  -0.879  1.00  0.00     0.252 C 
ATOM     27  H62 UNL     1      -4.631  -0.029   0.951  1.00  0.00     0.277 HD
ATOM     28  H61 UNL     1      -5.420   0.632  -0.215  1.00  0.00     0.277 HD
HETATM   29  C7  UNL     1      -2.743  -1.283  -0.385  1.00  0.00     0.168 C 
ENDBRANCH   4  22
TORSDOF 2
