REMARK  5 active torsions:
REMARK  status: ('A' for Active; 'I' for Inactive)
REMARK    1  A    between atoms: N1_1  and  C1_4 
REMARK    2  A    between atoms: C4_14  and  N5_15 
REMARK    3  A    between atoms: N5_15  and  C5_17 
REMARK    4  A    between atoms: C5_17  and  C6_18 
REMARK    5  A    between atoms: C6_18  and  N6_19 
ROOT
HETATM    1  C1  UNL     1      -3.718  -1.372  -0.246  1.00  0.00     0.681 A 
HETATM    2  N2  UNL     1      -4.133  -0.087  -0.274  1.00  0.00    -0.141 N 
ATOM      3  H2  UNL     1      -5.128   0.131  -0.324  1.00  0.00     0.189 HD
HETATM    4  C2  UNL     1      -3.225   0.901  -0.235  1.00  0.00     0.350 A 
HETATM    5  O1  UNL     1      -3.560   2.111  -0.258  1.00  0.00    -0.245 OA
HETATM    6  N3  UNL     1      -1.920   0.558  -0.168  1.00  0.00    -0.199 N 
HETATM    7  C3  UNL     1      -0.988   1.548  -0.127  1.00  0.00     0.338 A 
HETATM    8  O2  UNL     1      -1.404   2.731  -0.155  1.00  0.00    -0.246 OA
HETATM    9  N4  UNL     1       0.331   1.293  -0.060  1.00  0.00    -0.294 N 
ATOM     10  H4  UNL     1       1.005   2.058  -0.031  1.00  0.00     0.172 HD
HETATM   11  C4  UNL     1       0.748   0.015  -0.032  1.00  0.00     0.108 A 
HETATM   12  C7  UNL     1      -0.151  -1.029  -0.070  1.00  0.00     0.098 A 
HETATM   13  C8  UNL     1      -1.499  -0.721  -0.139  1.00  0.00     0.139 A 
HETATM   14  N7  UNL     1      -2.432  -1.720  -0.180  1.00  0.00    -0.176 N 
ATOM     15  H7  UNL     1      -2.153  -2.701  -0.161  1.00  0.00     0.186 HD
ENDROOT
BRANCH  11  16
HETATM   16  N5  UNL     1       2.007  -0.256   0.032  1.00  0.00    -0.374 N 
ATOM     17  H5  UNL     1       2.326  -1.224   0.053  1.00  0.00     0.161 HD
BRANCH  16  18
HETATM   18  C5  UNL     1       2.947   0.815   0.073  1.00  0.00     0.148 C 
BRANCH  18  19
HETATM   19  C6  UNL     1       4.376   0.364  -0.043  1.00  0.00     0.249 C 
BRANCH  19  20
HETATM   20  N6  UNL     1       4.781  -0.525   0.999  1.00  0.00    -0.078 N 
ATOM     21  H63 UNL     1       4.607  -0.111   1.915  1.00  0.00     0.274 HD
ATOM     22  H62 UNL     1       4.153  -1.327   1.053  1.00  0.00     0.274 HD
ATOM     23  H61 UNL     1       5.751  -0.831   0.920  1.00  0.00     0.274 HD
ENDBRANCH  19  20
ENDBRANCH  18  19
ENDBRANCH  16  18
ENDBRANCH  11  16
BRANCH   1  24
HETATM   24  N1  UNL     1      -4.599  -2.312  -0.284  1.00  0.00    -0.234 N 
ATOM     25  H12 UNL     1      -5.582  -2.046  -0.334  1.00  0.00     0.174 HD
ATOM     26  H11 UNL     1      -4.286  -3.282  -0.263  1.00  0.00     0.174 HD
ENDBRANCH   1  24
TORSDOF 5
