REMARK  4 active torsions:
REMARK  status: ('A' for Active; 'I' for Inactive)
REMARK    1  A    between atoms: C4_4  and  N1_5 
REMARK       I    between atoms: N1_5  and  C5_7 
REMARK    2  A    between atoms: C6_11  and  S2_12 
REMARK    3  A    between atoms: S2_12  and  N3_15 
REMARK       I    between atoms: N3_15  and  C7_17 
REMARK    4  A    between atoms: C7_17  and  C8_19 
ROOT
HETATM    1  C8  UNL     1       4.617   1.353  -0.992  1.00  0.00     0.227 C 
HETATM    2  C9  UNL     1       6.059   1.275  -0.683  1.00  0.00     0.068 C 
HETATM    3  N4  UNL     1       7.182   1.213  -0.424  1.00  0.00    -0.197 NA
ENDROOT
BRANCH   1   4
HETATM    4  C7  UNL     1       3.858   0.443  -0.103  1.00  0.00     0.244 C 
HETATM    5  N3  UNL     1       2.447   0.361  -0.229  1.00  0.00    -0.249 N 
ATOM      6  H3  UNL     1       1.957   0.923  -0.925  1.00  0.00     0.182 HD
HETATM    7  O4  UNL     1       4.464  -0.246   0.751  1.00  0.00    -0.272 OA
BRANCH   5   8
HETATM    8  S2  UNL     1       1.571  -0.703   0.812  1.00  0.00     0.272 S 
HETATM    9  O2  UNL     1       1.776  -0.286   2.238  1.00  0.00    -0.200 OA
HETATM   10  O3  UNL     1       2.125  -2.075   0.654  1.00  0.00    -0.200 OA
BRANCH   8  11
HETATM   11  C6  UNL     1      -0.144  -0.629   0.421  1.00  0.00     0.128 A 
HETATM   12  C2  UNL     1      -0.863  -1.380  -0.471  1.00  0.00    -0.029 A 
HETATM   13  C1  UNL     1      -0.155  -2.450  -1.277  1.00  0.00     0.050 C 
HETATM   14  C3  UNL     1      -2.171  -1.120  -0.579  1.00  0.00     0.046 A 
HETATM   15  C4  UNL     1      -2.679  -0.125   0.211  1.00  0.00     0.079 A 
HETATM   16  S1  UNL     1      -1.316   0.415   1.080  1.00  0.00    -0.058 SA
BRANCH  15  17
HETATM   17  N1  UNL     1      -4.043   0.343   0.281  1.00  0.00    -0.305 N 
HETATM   18  C5  UNL     1      -4.345   1.395   1.180  1.00  0.00     0.333 C 
HETATM   19  N2  UNL     1      -5.674   1.875   1.271  1.00  0.00    -0.040 NA
HETATM   20  O1  UNL     1      -3.446   1.895   1.887  1.00  0.00    -0.251 OA
ATOM     21  H1  UNL     1      -4.770  -0.073  -0.301  1.00  0.00     0.171 HD
ENDBRANCH  15  17
ENDBRANCH   8  11
ENDBRANCH   5   8
ENDBRANCH   1   4
TORSDOF 4
