REMARK  6 active torsions:
REMARK  status: ('A' for Active; 'I' for Inactive)
REMARK    1  A    between atoms: C2_2  and  O1_3 
REMARK    2  A    between atoms: O1_3  and  C3_4 
REMARK    3  A    between atoms: C5_7  and  C6_8 
REMARK    4  A    between atoms: C6_8  and  O3_10 
REMARK    5  A    between atoms: C8_12  and  C9_13 
REMARK       I    between atoms: C9_13  and  N1_15 
REMARK    6  A    between atoms: N1_15  and  N2_17 
REMARK       I    between atoms: N2_17  and  C10_19 
REMARK       I    between atoms: C10_19  and  N3_21 
ROOT
HETATM    1  C3  UNL     1      -2.425  -0.834   1.014  1.00  0.00     0.126 A 
HETATM    2  S1  UNL     1      -3.898  -0.027   1.113  1.00  0.00    -0.075 SA
HETATM    3  C4  UNL     1      -3.450   1.464   0.453  1.00  0.00     0.071 A 
HETATM    4  C5  UNL     1      -2.099   1.304   0.154  1.00  0.00     0.065 A 
HETATM    5  C8  UNL     1      -1.558   0.101   0.443  1.00  0.00     0.090 A 
ENDROOT
BRANCH   5   6
HETATM    6  C9  UNL     1      -0.138  -0.325   0.223  1.00  0.00     0.274 C 
HETATM    7  O4  UNL     1       0.453  -0.898   1.209  1.00  0.00    -0.266 OA
HETATM    8  N1  UNL     1       0.584  -0.164  -0.950  1.00  0.00    -0.262 N 
ATOM      9  H1  UNL     1       0.152   0.275  -1.763  1.00  0.00     0.190 HD
BRANCH   8  10
HETATM   10  N2  UNL     1       1.929  -0.615  -1.010  1.00  0.00    -0.249 N 
HETATM   11  C10 UNL     1       2.918  -0.019  -0.180  1.00  0.00     0.334 C 
HETATM   12  O5  UNL     1       2.628   0.901   0.606  1.00  0.00    -0.246 OA
HETATM   13  N3  UNL     1       4.248  -0.487  -0.259  1.00  0.00    -0.346 N 
HETATM   14  C11 UNL     1       5.278   0.093   0.564  1.00  0.00     0.151 C 
ATOM     15  H3  UNL     1       4.481  -1.242  -0.904  1.00  0.00     0.163 HD
ATOM     16  H2  UNL     1       2.186  -1.367  -1.649  1.00  0.00     0.192 HD
ENDBRANCH   8  10
ENDBRANCH   5   6
BRANCH   1  17
HETATM   17  O1  UNL     1      -2.078  -2.152   1.402  1.00  0.00    -0.343 OA
BRANCH  17  18
HETATM   18  C2  UNL     1      -2.129  -3.109   0.361  1.00  0.00     0.172 C 
HETATM   19  C1  UNL     1      -1.748  -4.487   0.845  1.00  0.00     0.034 C 
ENDBRANCH  17  18
ENDBRANCH   1  17
BRANCH   4  20
HETATM   20  C6  UNL     1      -1.363   2.510  -0.344  1.00  0.00     0.294 C 
HETATM   21  O2  UNL     1      -0.128   2.565  -0.486  1.00  0.00    -0.259 OA
BRANCH  20  22
HETATM   22  O3  UNL     1      -2.047   3.669  -0.685  1.00  0.00    -0.322 OA
HETATM   23  C7  UNL     1      -1.359   4.817  -1.159  1.00  0.00     0.213 C 
ENDBRANCH  20  22
ENDBRANCH   4  20
TORSDOF 6
