REMARK  7 active torsions:
REMARK  status: ('A' for Active; 'I' for Inactive)
REMARK    1  A    between atoms: C2_2  and  C3_3 
REMARK    2  A    between atoms: C3_3  and  C4_4 
REMARK    3  A    between atoms: C4_4  and  C5_5 
REMARK       I    between atoms: C5_5  and  N1_7 
REMARK    4  A    between atoms: N1_7  and  C6_9 
REMARK    5  A    between atoms: C6_9  and  N2_11 
REMARK    6  A    between atoms: N2_11  and  N3_13 
REMARK       I    between atoms: N3_13  and  C7_15 
REMARK    7  A    between atoms: C7_15  and  C8_17 
ROOT
HETATM    1  N3  UNL     1       2.126   1.084  -0.325  1.00  0.00    -0.262 N 
ATOM      2  H3  UNL     1       2.672   1.442  -1.109  1.00  0.00     0.190 HD
HETATM    3  C7  UNL     1       2.728   0.233   0.615  1.00  0.00     0.288 C 
HETATM    4  O2  UNL     1       2.079  -0.213   1.578  1.00  0.00    -0.264 OA
ENDROOT
BRANCH   1   5
HETATM    5  N2  UNL     1       0.792   1.441  -0.193  1.00  0.00    -0.273 N 
ATOM      6  H2  UNL     1       0.558   2.409   0.026  1.00  0.00     0.189 HD
BRANCH   5   7
HETATM    7  C6  UNL     1      -0.249   0.507  -0.352  1.00  0.00     0.193 C 
HETATM    8  S1  UNL     1       0.068  -1.041  -0.693  1.00  0.00    -0.039 SA
BRANCH   7   9
HETATM    9  N1  UNL     1      -1.593   0.928  -0.208  1.00  0.00    -0.303 N 
HETATM   10  C5  UNL     1      -2.707   0.067  -0.346  1.00  0.00     0.223 C 
HETATM   11  O1  UNL     1      -2.499  -1.155  -0.609  1.00  0.00    -0.273 OA
ATOM     12  H1  UNL     1      -1.768   1.909   0.008  1.00  0.00     0.171 HD
BRANCH  10  13
HETATM   13  C4  UNL     1      -4.071   0.609  -0.179  1.00  0.00     0.103 C 
BRANCH  13  14
HETATM   14  C3  UNL     1      -5.136  -0.468  -0.305  1.00  0.00     0.009 C 
BRANCH  14  15
HETATM   15  C2  UNL     1      -6.481   0.235  -0.124  1.00  0.00    -0.004 C 
HETATM   16  C1  UNL     1      -7.635  -0.730  -0.228  1.00  0.00     0.005 C 
ENDBRANCH  14  15
ENDBRANCH  13  14
ENDBRANCH  10  13
ENDBRANCH   7   9
ENDBRANCH   5   7
ENDBRANCH   1   5
BRANCH   3  17
HETATM   17  C8  UNL     1       4.126  -0.130   0.460  1.00  0.00     0.127 A 
HETATM   18  N4  UNL     1       4.836   0.366  -0.584  1.00  0.00    -0.339 N 
HETATM   19  C9  UNL     1       6.114   0.074  -0.789  1.00  0.00     0.092 A 
ATOM     20  H4  UNL     1       4.367   0.991  -1.240  1.00  0.00     0.167 HD
HETATM   21  C10 UNL     1       6.897   0.629  -1.949  1.00  0.00     0.090 C 
HETATM   22  N5  UNL     1       6.722  -0.763   0.101  1.00  0.00    -0.289 N 
HETATM   23  N6  UNL     1       6.038  -1.246   1.115  1.00  0.00    -0.301 N 
ATOM     24  H5  UNL     1       7.703  -1.013  -0.020  1.00  0.00     0.188 HD
HETATM   25  C11 UNL     1       4.744  -0.975   1.357  1.00  0.00     0.054 A 
ATOM     26  H6  UNL     1       6.522  -1.869   1.762  1.00  0.00     0.186 HD
HETATM   27  C12 UNL     1       4.063  -1.568   2.535  1.00  0.00     0.072 C 
ENDBRANCH   3  17
TORSDOF 7
