REMARK  2 active torsions:
REMARK  status: ('A' for Active; 'I' for Inactive)
REMARK    1  A    between atoms: C2_2  and  C3_3 
REMARK    2  A    between atoms: C5_5  and  C6_6 
ROOT
HETATM    1  C3  UNL     1       2.191  -0.817   0.626  1.00  0.00     0.017 C 
HETATM    2  C4  UNL     1       1.110  -0.930  -0.452  1.00  0.00     0.045 C 
HETATM    3  C5  UNL     1       0.136   0.056   0.212  1.00  0.00     0.068 C 
HETATM    4  C11 UNL     1       1.033   1.279   0.290  1.00  0.00     0.071 C 
HETATM    5  C12 UNL     1       1.657   0.395   1.314  1.00  0.00     0.129 C 
HETATM    6  O1  UNL     1       0.328  -0.054   1.569  1.00  0.00    -0.374 OA
ENDROOT
BRANCH   3   7
HETATM    7  C6  UNL     1      -1.185   0.199  -0.361  1.00  0.00     0.023 C 
HETATM    8  C7  UNL     1      -1.940  -1.089  -0.359  1.00  0.00     0.035 C 
HETATM    9  C8  UNL     1      -3.306  -0.823  -0.973  1.00  0.00     0.232 C 
HETATM   10  N1  UNL     1      -4.021   0.227  -0.316  1.00  0.00    -0.075 N 
HETATM   11  C9  UNL     1      -3.291   0.807   0.796  1.00  0.00     0.232 C 
ATOM     12  H12 UNL     1      -4.301   0.947  -0.982  1.00  0.00     0.277 HD
ATOM     13  H11 UNL     1      -4.943  -0.093  -0.018  1.00  0.00     0.277 HD
HETATM   14  C10 UNL     1      -1.929   1.299   0.366  1.00  0.00     0.035 C 
ENDBRANCH   3   7
BRANCH   1  15
HETATM   15  C2  UNL     1       3.569  -0.787   0.134  1.00  0.00     0.002 C 
HETATM   16  C1  UNL     1       3.939   0.319  -0.784  1.00  0.00     0.005 C 
ENDBRANCH   1  15
TORSDOF 2
