REMARK  3 active torsions:
REMARK  status: ('A' for Active; 'I' for Inactive)
REMARK    1  A    between atoms: C2_3  and  C3_4 
REMARK    2  A    between atoms: C3_4  and  N2_5 
REMARK    3  A    between atoms: N2_5  and  C4_7 
ROOT
HETATM    1  N1  UNL     1       4.649   1.814  -0.249  1.00  0.00    -0.197 NA
HETATM    2  C1  UNL     1       4.326   0.735  -0.025  1.00  0.00     0.060 C 
HETATM    3  C2  UNL     1       3.919  -0.658   0.292  1.00  0.00     0.143 C 
ENDROOT
BRANCH   3   4
HETATM    4  C3  UNL     1       2.440  -0.657   0.666  1.00  0.00     0.128 C 
BRANCH   4   5
HETATM    5  N2  UNL     1       1.708  -0.186  -0.450  1.00  0.00    -0.412 N 
ATOM      6  H2  UNL     1       2.155   0.004  -1.347  1.00  0.00     0.154 HD
BRANCH   5   7
HETATM    7  C4  UNL     1       0.318   0.006  -0.249  1.00  0.00     0.026 C 
HETATM    8  C5  UNL     1      -0.014   1.096   0.742  1.00  0.00     0.035 C 
HETATM    9  C6  UNL     1      -1.513   1.236   0.830  1.00  0.00    -0.012 C 
HETATM   10  C7  UNL     1      -2.135   1.509  -0.520  1.00  0.00     0.009 C 
HETATM   11  C11 UNL     1      -2.155  -0.032   1.365  1.00  0.00     0.009 C 
HETATM   12  C8  UNL     1      -1.842   0.362  -1.447  1.00  0.00    -0.012 C 
HETATM   13  C9  UNL     1      -2.315  -0.961  -0.900  1.00  0.00     0.009 C 
HETATM   14  C13 UNL     1      -0.335   0.293  -1.571  1.00  0.00     0.035 C 
HETATM   15  C10 UNL     1      -1.740  -1.181   0.481  1.00  0.00    -0.012 C 
HETATM   16  C12 UNL     1      -0.254  -1.273   0.392  1.00  0.00     0.035 C 
ENDBRANCH   5   7
ENDBRANCH   4   5
ENDBRANCH   3   4
TORSDOF 3
