REMARK  10 active torsions:
REMARK  status: ('A' for Active; 'I' for Inactive)
REMARK    1  A    between atoms: C2_2  and  C4_4 
REMARK    2  A    between atoms: C4_4  and  C5_5 
REMARK    3  A    between atoms: C9_10  and  C10_11 
REMARK    4  A    between atoms: C10_11  and  C11_12 
REMARK    5  A    between atoms: C11_12  and  N1_13 
REMARK       I    between atoms: N1_13  and  C12_15 
REMARK    6  A    between atoms: C12_15  and  C13_17 
REMARK    7  A    between atoms: C13_17  and  C14_18 
REMARK    8  A    between atoms: C14_18  and  C16_20 
REMARK    9  A    between atoms: C16_20  and  C18_22 
REMARK   10  A    between atoms: C19_23  and  C20_24 
ROOT
HETATM    1  N1  UNL     1       0.468  -0.514   0.120  1.00  0.00    -0.361 N 
ATOM      2  H1  UNL     1       0.421   0.483   0.332  1.00  0.00     0.162 HD
HETATM    3  C12 UNL     1      -0.645  -1.160  -0.468  1.00  0.00     0.218 C 
HETATM    4  O2  UNL     1      -0.572  -2.385  -0.719  1.00  0.00    -0.274 OA
ENDROOT
BRANCH   1   5
HETATM    5  C11 UNL     1       1.671  -1.256   0.423  1.00  0.00     0.125 C 
BRANCH   5   6
HETATM    6  C10 UNL     1       2.740  -0.398   1.041  1.00  0.00     0.052 C 
BRANCH   6   7
HETATM    7  C9  UNL     1       3.179   0.747   0.187  1.00  0.00     0.133 C 
HETATM    8  C8  UNL     1       3.739   0.386  -1.129  1.00  0.00     0.040 C 
HETATM    9  C7  UNL     1       5.120  -0.244  -1.081  1.00  0.00     0.081 C 
HETATM   10  C6  UNL     1       6.162   0.780  -0.825  1.00  0.00     0.140 C 
HETATM   11  C5  UNL     1       6.507   1.421   0.453  1.00  0.00     0.155 C 
HETATM   12  O1  UNL     1       6.792   1.118  -1.796  1.00  0.00    -0.297 OA
HETATM   13  C26 UNL     1       5.307   1.679   1.312  1.00  0.00     0.270 C 
HETATM   14  O3  UNL     1       3.991   1.600   0.943  1.00  0.00    -0.315 OA
HETATM   15  O4  UNL     1       5.510   2.005   2.505  1.00  0.00    -0.264 OA
BRANCH  11  16
HETATM   16  C4  UNL     1       7.497   0.700   1.300  1.00  0.00     0.026 C 
BRANCH  16  17
HETATM   17  C2  UNL     1       8.845   0.474   0.716  1.00  0.00    -0.021 C 
HETATM   18  C1  UNL     1       9.531   1.779   0.352  1.00  0.00     0.009 C 
HETATM   19  C3  UNL     1       8.942  -0.570  -0.350  1.00  0.00     0.009 C 
ENDBRANCH  16  17
ENDBRANCH  11  16
ENDBRANCH   6   7
ENDBRANCH   5   6
ENDBRANCH   1   5
BRANCH   3  20
HETATM   20  C13 UNL     1      -1.910  -0.423  -0.802  1.00  0.00     0.111 C 
BRANCH  20  21
HETATM   21  C14 UNL     1      -2.920  -1.318  -1.424  1.00  0.00     0.019 C 
HETATM   22  C15 UNL     1      -3.315  -2.462  -0.503  1.00  0.00     0.015 C 
BRANCH  21  23
HETATM   23  C16 UNL     1      -4.126  -0.722  -2.006  1.00  0.00    -0.080 C 
HETATM   24  C17 UNL     1      -3.824   0.300  -3.096  1.00  0.00     0.044 C 
BRANCH  23  25
HETATM   25  C18 UNL     1      -5.222  -0.335  -1.111  1.00  0.00    -0.001 C 
HETATM   26  C19 UNL     1      -5.234  -0.173   0.182  1.00  0.00    -0.022 C 
BRANCH  26  27
HETATM   27  C20 UNL     1      -6.454   0.228   0.916  1.00  0.00     0.008 C 
HETATM   28  C21 UNL     1      -6.809  -0.777   1.997  1.00  0.00     0.008 C 
HETATM   29  C22 UNL     1      -7.733  -0.067   2.970  1.00  0.00     0.001 C 
HETATM   30  C23 UNL     1      -8.407   1.105   2.307  1.00  0.00     0.000 C 
HETATM   31  C24 UNL     1      -8.817   0.811   0.884  1.00  0.00     0.001 C 
HETATM   32  C25 UNL     1      -7.624   0.418   0.018  1.00  0.00     0.008 C 
ENDBRANCH  26  27
ENDBRANCH  23  25
ENDBRANCH  21  23
ENDBRANCH  20  21
ENDBRANCH   3  20
TORSDOF 10
