REMARK  12 active torsions:
REMARK  status: ('A' for Active; 'I' for Inactive)
REMARK    1  A    between atoms: N1_4  and  C4_5 
REMARK    2  A    between atoms: C4_5  and  C5_6 
REMARK    3  A    between atoms: C5_6  and  C6_7 
REMARK    4  A    between atoms: C6_7  and  C7_8 
REMARK    5  A    between atoms: C7_8  and  C8_9 
REMARK    6  A    between atoms: C8_9  and  C9_10 
REMARK    7  A    between atoms: C9_10  and  C10_11 
REMARK    8  A    between atoms: C10_11  and  C11_12 
REMARK    9  A    between atoms: C11_12  and  O1_13 
REMARK   10  A    between atoms: O1_13  and  C12_14 
REMARK   11  A    between atoms: C12_14  and  C13_16 
REMARK   12  A    between atoms: C20_23  and  O3_24 
ROOT
HETATM    1  C10 UNL     1       1.697   1.467  -1.296  1.00  0.00     0.027 C 
ENDROOT
BRANCH   1   2
HETATM    2  C9  UNL     1       0.247   1.871  -1.421  1.00  0.00     0.002 C 
BRANCH   2   3
HETATM    3  C8  UNL     1      -0.512   1.512  -0.200  1.00  0.00     0.000 C 
BRANCH   3   4
HETATM    4  C7  UNL     1      -1.962   1.975  -0.372  1.00  0.00     0.000 C 
BRANCH   4   5
HETATM    5  C6  UNL     1      -2.637   1.337  -1.542  1.00  0.00     0.002 C 
BRANCH   5   6
HETATM    6  C5  UNL     1      -2.715  -0.150  -1.506  1.00  0.00     0.020 C 
BRANCH   6   7
HETATM    7  C4  UNL     1      -3.492  -0.742  -0.381  1.00  0.00     0.122 C 
BRANCH   7   8
HETATM    8  N1  UNL     1      -4.861  -0.405  -0.333  1.00  0.00    -0.392 N 
HETATM    9  C3  UNL     1      -5.712  -0.893  -1.348  1.00  0.00     0.126 C 
HETATM   10  C2  UNL     1      -7.142  -0.508  -1.009  1.00  0.00     0.000 C 
HETATM   11  C1  UNL     1      -8.143  -1.285  -1.798  1.00  0.00     0.011 C 
HETATM   12  C27 UNL     1      -7.317  -0.802   0.466  1.00  0.00     0.020 C 
HETATM   13  C24 UNL     1      -6.528   0.176   1.281  1.00  0.00    -0.015 C 
HETATM   14  C23 UNL     1      -5.309   0.623   0.508  1.00  0.00     0.067 C 
HETATM   15  C25 UNL     1      -6.164  -0.497   2.597  1.00  0.00     0.020 C 
HETATM   16  C26 UNL     1      -7.404   1.389   1.514  1.00  0.00     0.020 C 
ENDBRANCH   7   8
ENDBRANCH   6   7
ENDBRANCH   5   6
ENDBRANCH   4   5
ENDBRANCH   3   4
ENDBRANCH   2   3
ENDBRANCH   1   2
BRANCH   1  17
HETATM   17  C11 UNL     1       1.812  -0.016  -1.099  1.00  0.00     0.178 C 
BRANCH  17  18
HETATM   18  O1  UNL     1       3.152  -0.422  -1.024  1.00  0.00    -0.321 OA
BRANCH  18  19
HETATM   19  C12 UNL     1       3.982   0.005  -0.026  1.00  0.00     0.268 C 
HETATM   20  O2  UNL     1       3.633   0.777   0.899  1.00  0.00    -0.264 OA
BRANCH  19  21
HETATM   21  C13 UNL     1       5.410  -0.443   0.023  1.00  0.00     0.055 C 
HETATM   22  C14 UNL     1       6.146  -0.037  -1.255  1.00  0.00     0.025 C 
HETATM   23  C15 UNL     1       7.609  -0.270  -1.002  1.00  0.00    -0.010 C 
HETATM   24  C16 UNL     1       8.090   0.850  -0.086  1.00  0.00     0.005 C 
HETATM   25  C21 UNL     1       7.933  -1.623  -0.458  1.00  0.00     0.042 C 
HETATM   26  C17 UNL     1       7.052   1.196   0.955  1.00  0.00     0.006 C 
HETATM   27  C18 UNL     1       6.124   0.034   1.245  1.00  0.00     0.007 C 
HETATM   28  C19 UNL     1       6.993  -1.104   1.739  1.00  0.00     0.043 C 
HETATM   29  C20 UNL     1       6.968  -2.087   0.610  1.00  0.00     0.060 C 
HETATM   30  C22 UNL     1       5.521  -1.950   0.120  1.00  0.00     0.058 C 
BRANCH  29  31
HETATM   31  O3  UNL     1       7.273  -3.374   0.984  1.00  0.00    -0.390 OA
ATOM     32  H3  UNL     1       7.257  -3.998   0.268  1.00  0.00     0.210 HD
ENDBRANCH  29  31
ENDBRANCH  19  21
ENDBRANCH  18  19
ENDBRANCH  17  18
ENDBRANCH   1  17
TORSDOF 12
