REMARK  0 active torsions:
REMARK  status: ('A' for Active; 'I' for Inactive)
REMARK       I    between atoms: C1_2  and  N2_4 
ROOT
HETATM    1  N1  UNL     1      -0.948   3.735  -0.727  1.00  0.00    -0.040 NA
HETATM    2  C1  UNL     1      -1.130   2.515  -1.430  1.00  0.00     0.333 C 
HETATM    3  O1  UNL     1      -1.808   2.443  -2.487  1.00  0.00    -0.251 OA
HETATM    4  N2  UNL     1      -0.534   1.356  -0.929  1.00  0.00    -0.314 N 
ATOM      5  H2  UNL     1       0.458   1.220  -1.121  1.00  0.00     0.170 HD
HETATM    6  C2  UNL     1      -1.130   0.449  -0.248  1.00  0.00     0.025 C 
HETATM    7  C3  UNL     1      -2.573   0.562   0.080  1.00  0.00     0.058 C 
HETATM    8  C4  UNL     1      -3.169  -0.769  -0.414  1.00  0.00     0.011 C 
HETATM    9  C5  UNL     1      -2.726  -1.794   0.564  1.00  0.00     0.047 C 
HETATM   10  C6  UNL     1      -1.216  -1.824   0.633  1.00  0.00    -0.002 A 
HETATM   11  S1  UNL     1      -0.088  -3.003   1.135  1.00  0.00    -0.075 SA
HETATM   12  C7  UNL     1       1.356  -2.142   0.858  1.00  0.00     0.088 A 
HETATM   13  N3  UNL     1       2.726  -2.180   0.926  1.00  0.00    -0.335 N 
ATOM     14  H3  UNL     1       3.287  -2.967   1.253  1.00  0.00     0.168 HD
HETATM   15  C8  UNL     1       3.212  -0.978   0.479  1.00  0.00     0.126 A 
HETATM   16  N4  UNL     1       4.405  -0.437   0.316  1.00  0.00    -0.326 N 
ATOM     17  H4  UNL     1       5.251  -0.956   0.551  1.00  0.00     0.169 HD
HETATM   18  C9  UNL     1       4.477   0.805  -0.164  1.00  0.00     0.145 A 
HETATM   19  S2  UNL     1       5.829   1.715  -0.464  1.00  0.00    -0.052 SA
HETATM   20  S3  UNL     1       2.841   1.223  -0.391  1.00  0.00    -0.056 SA
HETATM   21  C10 UNL     1       2.129  -0.233   0.147  1.00  0.00     0.066 A 
HETATM   22  C11 UNL     1       0.921  -0.948   0.377  1.00  0.00     0.032 A 
HETATM   23  C12 UNL     1      -0.428  -0.773   0.255  1.00  0.00     0.014 A 
ENDROOT
TORSDOF 0
