REMARK  3 active torsions:
REMARK  status: ('A' for Active; 'I' for Inactive)
REMARK    1  A    between atoms: C3_5  and  N2_6 
REMARK    2  A    between atoms: C4_10  and  C5_11 
REMARK    3  A    between atoms: C6_12  and  C7_13 
ROOT
HETATM    1  C7  UNL     1       0.479   0.045   0.599  1.00  0.00     0.067 A 
HETATM    2  S2  UNL     1      -0.580   0.020   1.925  1.00  0.00    -0.083 SA
HETATM    3  C8  UNL     1      -2.037  -0.360   1.107  1.00  0.00     0.012 A 
HETATM    4  C9  UNL     1      -1.637  -0.456  -0.199  1.00  0.00     0.049 A 
HETATM    5  C10 UNL     1      -0.332  -0.246  -0.462  1.00  0.00    -0.009 A 
HETATM    6  C11 UNL     1       0.278  -0.320  -1.861  1.00  0.00     0.052 C 
HETATM    7  N3  UNL     1      -2.729  -0.774  -1.106  1.00  0.00    -0.388 N 
ATOM      8  H3  UNL     1      -2.527  -1.324  -1.941  1.00  0.00     0.159 HD
HETATM    9  C12 UNL     1      -4.066  -0.350  -0.876  1.00  0.00     0.129 C 
HETATM   10  C13 UNL     1      -4.436  -0.063   0.525  1.00  0.00    -0.027 C 
HETATM   11  C14 UNL     1      -4.594   1.440   0.690  1.00  0.00     0.016 C 
HETATM   12  C15 UNL     1      -5.800  -0.668   0.863  1.00  0.00     0.016 C 
HETATM   13  C16 UNL     1      -3.468  -0.576   1.548  1.00  0.00     0.059 C 
ENDROOT
BRANCH   1  14
HETATM   14  C6  UNL     1       1.911   0.313   0.599  1.00  0.00    -0.053 C 
HETATM   15  C5  UNL     1       3.100   0.515   0.595  1.00  0.00    -0.051 C 
BRANCH  15  16
HETATM   16  C4  UNL     1       4.537   0.763   0.566  1.00  0.00     0.084 A 
HETATM   17  C2  UNL     1       5.541  -0.092   0.218  1.00  0.00     0.033 A 
HETATM   18  C1  UNL     1       5.220  -1.514  -0.211  1.00  0.00     0.070 C 
HETATM   19  N1  UNL     1       6.771   0.356   0.268  1.00  0.00    -0.339 N 
HETATM   20  C3  UNL     1       6.970   1.618   0.656  1.00  0.00     0.143 A 
ATOM     21  H1  UNL     1       7.557  -0.244   0.017  1.00  0.00     0.168 HD
HETATM   22  S1  UNL     1       5.390   2.184   0.955  1.00  0.00    -0.043 SA
BRANCH  20  23
HETATM   23  N2  UNL     1       8.126   2.237   0.766  1.00  0.00    -0.380 N 
ATOM     24  H22 UNL     1       9.071   1.898   0.587  1.00  0.00     0.158 HD
ATOM     25  H21 UNL     1       8.278   3.201   1.062  1.00  0.00     0.158 HD
ENDBRANCH  20  23
ENDBRANCH  15  16
ENDBRANCH   1  14
TORSDOF 3
