REMARK  1 active torsions:
REMARK  status: ('A' for Active; 'I' for Inactive)
REMARK    1  A    between atoms: O1_1  and  C1_3 
ROOT
HETATM    1  C1  UNL     1      -1.249   1.323  -1.385  1.00  0.00     0.247 A 
HETATM    2  N1  UNL     1      -2.251   0.317  -1.580  1.00  0.00    -0.337 N 
ATOM      3  H1  UNL     1      -2.382  -0.044  -2.525  1.00  0.00     0.164 HD
HETATM    4  C2  UNL     1      -3.072  -0.212  -0.555  1.00  0.00     0.058 A 
HETATM    5  C3  UNL     1      -3.767  -1.413  -0.728  1.00  0.00     0.031 A 
HETATM    6  C4  UNL     1      -4.548  -1.864   0.318  1.00  0.00     0.002 A 
HETATM    7  C5  UNL     1      -4.627  -1.137   1.490  1.00  0.00     0.002 A 
HETATM    8  C6  UNL     1      -3.959   0.034   1.678  1.00  0.00     0.031 A 
HETATM    9  C7  UNL     1      -3.166   0.495   0.622  1.00  0.00     0.055 A 
HETATM   10  N2  UNL     1      -2.437   1.703   0.730  1.00  0.00    -0.372 N 
ATOM     11  H2  UNL     1      -2.668   2.319   1.509  1.00  0.00     0.160 HD
HETATM   12  C8  UNL     1      -1.406   2.132  -0.159  1.00  0.00     0.211 A 
HETATM   13  C9  UNL     1      -0.081   1.575   0.221  1.00  0.00     0.047 A 
HETATM   14  C10 UNL     1       1.033   1.376   1.002  1.00  0.00     0.043 A 
HETATM   15  C11 UNL     1       1.824   0.498   0.296  1.00  0.00     0.020 A 
HETATM   16  C12 UNL     1       3.070  -0.075   0.571  1.00  0.00     0.055 A 
HETATM   17  N3  UNL     1       3.650   0.260   1.728  1.00  0.00    -0.364 N 
ATOM     18  H3  UNL     1       3.189   0.906   2.369  1.00  0.00     0.165 HD
HETATM   19  C13 UNL     1       4.849  -0.266   2.036  1.00  0.00     0.088 A 
HETATM   20  C14 UNL     1       5.528  -1.142   1.220  1.00  0.00     0.018 A 
HETATM   21  C15 UNL     1       4.937  -1.493   0.025  1.00  0.00     0.015 A 
HETATM   22  C16 UNL     1       3.694  -0.947  -0.293  1.00  0.00    -0.008 A 
HETATM   23  C17 UNL     1       3.051  -1.257  -1.469  1.00  0.00     0.016 A 
HETATM   24  C18 UNL     1       1.822  -0.705  -1.763  1.00  0.00     0.031 A 
HETATM   25  C19 UNL     1       1.188   0.182  -0.883  1.00  0.00     0.051 A 
HETATM   26  N4  UNL     1       0.033   0.845  -0.912  1.00  0.00    -0.295 N 
ENDROOT
BRANCH   1  27
HETATM   27  O1  UNL     1      -1.097   2.110  -2.522  1.00  0.00    -0.352 OA
ATOM     28  H1  UNL     1      -0.433   2.777  -2.393  1.00  0.00     0.214 HD
ENDBRANCH   1  27
TORSDOF 1
