REMARK  0 active torsions:
REMARK  status: ('A' for Active; 'I' for Inactive)
ROOT
HETATM    1  N1  UNL     1       6.453  -1.643   0.843  1.00  0.00    -0.191 NA
HETATM    2  C1  UNL     1       5.333  -1.502   0.614  1.00  0.00     0.102 C 
HETATM    3  C2  UNL     1       3.917  -1.327   0.347  1.00  0.00     0.073 A 
HETATM    4  C3  UNL     1       3.033  -2.378   0.476  1.00  0.00     0.027 A 
HETATM    5  C4  UNL     1       1.684  -2.240   0.229  1.00  0.00     0.032 A 
HETATM    6  C5  UNL     1       1.221  -1.007  -0.157  1.00  0.00     0.047 A 
HETATM    7  C6  UNL     1       2.079   0.079  -0.299  1.00  0.00     0.053 A 
HETATM    8  C7  UNL     1       1.715   1.375  -0.689  1.00  0.00     0.117 A 
HETATM    9  C8  UNL     1       2.669   2.381  -0.799  1.00  0.00     0.287 A 
HETATM   10  O1  UNL     1       2.295   3.527  -1.152  1.00  0.00    -0.264 OA
HETATM   11  N2  UNL     1       3.965   2.144  -0.535  1.00  0.00    -0.264 N 
ATOM     12  H2  UNL     1       4.663   2.883  -0.616  1.00  0.00     0.190 HD
HETATM   13  N3  UNL     1       4.299   0.941  -0.173  1.00  0.00    -0.295 N 
ATOM     14  H3  UNL     1       5.283   0.762   0.028  1.00  0.00     0.187 HD
HETATM   15  C9  UNL     1       3.436  -0.087  -0.044  1.00  0.00     0.083 A 
HETATM   16  N4  UNL     1       0.431   1.902  -1.021  1.00  0.00    -0.349 N 
ATOM     17  H4  UNL     1       0.410   2.736  -1.608  1.00  0.00     0.166 HD
HETATM   18  C10 UNL     1      -0.838   1.364  -0.602  1.00  0.00     0.060 A 
HETATM   19  C11 UNL     1      -1.813   2.327  -0.516  1.00  0.00     0.033 A 
HETATM   20  C12 UNL     1      -3.060   1.916  -0.102  1.00  0.00     0.014 A 
HETATM   21  C13 UNL     1      -3.327   0.603   0.214  1.00  0.00    -0.024 A 
HETATM   22  C14 UNL     1      -4.600   0.265   0.629  1.00  0.00     0.012 A 
HETATM   23  C15 UNL     1      -4.882  -1.022   0.954  1.00  0.00     0.001 A 
HETATM   24  C16 UNL     1      -3.905  -2.001   0.873  1.00  0.00     0.001 A 
HETATM   25  C17 UNL     1      -2.615  -1.686   0.456  1.00  0.00     0.014 A 
HETATM   26  C18 UNL     1      -2.351  -0.387   0.133  1.00  0.00     0.003 A 
HETATM   27  C19 UNL     1      -1.103   0.018  -0.282  1.00  0.00     0.070 A 
HETATM   28  N5  UNL     1      -0.202  -1.077  -0.372  1.00  0.00    -0.353 N 
ATOM     29  H5  UNL     1      -0.595  -1.988  -0.608  1.00  0.00     0.166 HD
ENDROOT
TORSDOF 0
