REMARK  9 active torsions:
REMARK  status: ('A' for Active; 'I' for Inactive)
REMARK    1  A    between atoms: O1_2  and  C2_3 
REMARK    2  A    between atoms: C2_3  and  C3_5 
REMARK    3  A    between atoms: C3_5  and  C4_6 
REMARK       I    between atoms: N1_7  and  C5_9 
REMARK    4  A    between atoms: C5_9  and  C6_11 
REMARK    5  A    between atoms: C9_14  and  C10_15 
REMARK    6  A    between atoms: C10_15  and  S1_16 
REMARK    7  A    between atoms: S1_16  and  N2_18 
REMARK    8  A    between atoms: N2_18  and  C11_20 
REMARK    9  A    between atoms: C11_20  and  C12_21 
ROOT
HETATM    1  C6  UNL     1       2.223  -0.084  -0.765  1.00  0.00     0.277 C 
HETATM    2  C7  UNL     1       1.660  -0.786   0.448  1.00  0.00     0.043 C 
HETATM    3  C8  UNL     1       0.209  -1.116   0.176  1.00  0.00     0.010 C 
HETATM    4  C9  UNL     1      -0.518   0.067  -0.394  1.00  0.00     0.025 C 
HETATM    5  C16 UNL     1       0.326   1.286  -0.184  1.00  0.00     0.238 C 
HETATM    6  N3  UNL     1       1.584   1.205  -0.856  1.00  0.00    -0.062 N 
ATOM      7  H31 UNL     1       1.486   1.486  -1.832  1.00  0.00     0.278 HD
ATOM      8  H32 UNL     1       2.212   1.938  -0.526  1.00  0.00     0.278 HD
ENDROOT
BRANCH   4   9
HETATM    9  C10 UNL     1      -1.864   0.241   0.274  1.00  0.00     0.138 C 
BRANCH   9  10
HETATM   10  S1  UNL     1      -2.680   1.651  -0.436  1.00  0.00     0.110 S 
HETATM   11  O4  UNL     1      -2.915   1.451  -2.086  1.00  0.00    -0.236 OA
BRANCH  10  12
HETATM   12  N2  UNL     1      -4.234   1.841   0.294  1.00  0.00    -0.338 N 
ATOM     13  H2  UNL     1      -4.444   2.386   1.130  1.00  0.00     0.169 HD
BRANCH  12  14
HETATM   14  C11 UNL     1      -5.185   1.086  -0.498  1.00  0.00     0.161 C 
BRANCH  14  15
HETATM   15  C12 UNL     1      -6.563   1.248   0.140  1.00  0.00     0.139 C 
HETATM   16  C13 UNL     1      -7.498   0.336  -0.627  1.00  0.00     0.035 C 
HETATM   17  C14 UNL     1      -7.176  -0.997   0.039  1.00  0.00     0.029 C 
HETATM   18  C15 UNL     1      -6.857  -0.554   1.442  1.00  0.00     0.168 C 
HETATM   19  O5  UNL     1      -6.567   0.779   1.426  1.00  0.00    -0.384 OA
ENDBRANCH  14  15
ENDBRANCH  12  14
ENDBRANCH  10  12
ENDBRANCH   9  10
ENDBRANCH   4   9
BRANCH   1  20
HETATM   20  C5  UNL     1       3.679   0.091  -0.698  1.00  0.00     0.252 C 
HETATM   21  N1  UNL     1       4.594  -1.003  -0.600  1.00  0.00    -0.339 N 
HETATM   22  C4  UNL     1       5.724  -0.903  -1.217  1.00  0.00     0.073 C 
ATOM     23  H1  UNL     1       4.362  -1.836  -0.060  1.00  0.00     0.167 HD
HETATM   24  O3  UNL     1       4.139   1.263  -0.728  1.00  0.00    -0.271 OA
BRANCH  22  25
HETATM   25  C3  UNL     1       6.755  -1.962  -1.195  1.00  0.00     0.155 C 
BRANCH  25  26
HETATM   26  C2  UNL     1       8.040  -1.375  -0.791  1.00  0.00     0.263 C 
HETATM   27  O2  UNL     1       9.109  -2.046  -0.687  1.00  0.00    -0.265 OA
BRANCH  26  28
HETATM   28  O1  UNL     1       8.148  -0.019  -0.496  1.00  0.00    -0.326 OA
HETATM   29  C1  UNL     1       9.380   0.545  -0.109  1.00  0.00     0.213 C 
ENDBRANCH  26  28
ENDBRANCH  25  26
ENDBRANCH  22  25
ENDBRANCH   1  20
TORSDOF 9
