REMARK  9 active torsions:
REMARK  status: ('A' for Active; 'I' for Inactive)
REMARK    1  A    between atoms: C2_2  and  N1_3 
REMARK    2  A    between atoms: C2_2  and  C8_13 
REMARK       I    between atoms: N1_3  and  C3_5 
REMARK    3  A    between atoms: C3_5  and  C4_7 
REMARK    4  A    between atoms: C5_8  and  C6_9 
REMARK       I    between atoms: C8_13  and  N2_15 
REMARK    5  A    between atoms: N2_15  and  C9_17 
REMARK    6  A    between atoms: C9_17  and  C10_18 
REMARK    7  A    between atoms: C9_17  and  C13_24 
REMARK    8  A    between atoms: C10_18  and  C11_20 
REMARK    9  A    between atoms: C11_20  and  S3_21 
ROOT
HETATM    1  C8  UNL     1      -0.146  -0.167  -0.413  1.00  0.00     0.240 C 
HETATM    2  O2  UNL     1       0.087  -0.778   0.661  1.00  0.00    -0.271 OA
HETATM    3  N2  UNL     1      -1.443   0.207  -0.814  1.00  0.00    -0.348 N 
ATOM      4  H2  UNL     1      -1.573   0.698  -1.698  1.00  0.00     0.163 HD
ENDROOT
BRANCH   1   5
HETATM    5  C2  UNL     1       1.031   0.158  -1.273  1.00  0.00     0.172 C 
HETATM    6  C1  UNL     1       0.901  -0.359  -2.669  1.00  0.00     0.042 C 
BRANCH   5   7
HETATM    7  N1  UNL     1       2.258  -0.344  -0.699  1.00  0.00    -0.345 N 
HETATM    8  C3  UNL     1       3.291   0.502  -0.233  1.00  0.00     0.241 C 
HETATM    9  O1  UNL     1       3.137   1.767  -0.322  1.00  0.00    -0.269 OA
ATOM     10  H1  UNL     1       2.385  -1.353  -0.627  1.00  0.00     0.163 HD
BRANCH   8  11
HETATM   11  C4  UNL     1       4.509  -0.047   0.336  1.00  0.00     0.071 C 
HETATM   12  C5  UNL     1       5.482   0.706   0.779  1.00  0.00    -0.005 C 
BRANCH  12  13
HETATM   13  C6  UNL     1       6.720   0.132   1.358  1.00  0.00     0.091 C 
HETATM   14  C7  UNL     1       7.417  -0.749   0.343  1.00  0.00     0.106 C 
HETATM   15  S1  UNL     1       7.883   0.677  -0.679  1.00  0.00    -0.095 SA
HETATM   16  S2  UNL     1       8.137   1.230   1.367  1.00  0.00    -0.088 SA
ENDBRANCH  12  13
ENDBRANCH   8  11
ENDBRANCH   5   7
ENDBRANCH   1   5
BRANCH   3  17
HETATM   17  C9  UNL     1      -2.622  -0.102   0.028  1.00  0.00     0.158 C 
BRANCH  17  18
HETATM   18  C10 UNL     1      -3.492  -0.947  -0.786  1.00  0.00     0.161 C 
HETATM   19  O3  UNL     1      -3.523  -0.673  -2.007  1.00  0.00    -0.295 OA
BRANCH  18  20
HETATM   20  C11 UNL     1      -4.337  -2.072  -0.400  1.00  0.00     0.188 C 
BRANCH  20  21
HETATM   21  S3  UNL     1      -4.282  -2.608   1.243  1.00  0.00     0.018 S 
HETATM   22  C12 UNL     1      -4.743  -1.429   2.452  1.00  0.00     0.127 C 
HETATM   23  O4  UNL     1      -5.259  -3.964   1.410  1.00  0.00    -0.258 OA
ENDBRANCH  20  21
ENDBRANCH  18  20
ENDBRANCH  17  18
BRANCH  17  24
HETATM   24  C13 UNL     1      -3.236   1.276   0.303  1.00  0.00     0.007 C 
HETATM   25  C14 UNL     1      -2.218   2.156   1.026  1.00  0.00     0.012 C 
HETATM   26  C15 UNL     1      -3.626   2.006  -0.941  1.00  0.00     0.012 C 
ENDBRANCH  17  24
ENDBRANCH   3  17
TORSDOF 9
