REMARK  8 active torsions:
REMARK  status: ('A' for Active; 'I' for Inactive)
REMARK    1  A    between atoms: C1_2  and  C2_3 
REMARK       I    between atoms: C1_2  and  N2_20 
REMARK    2  A    between atoms: C2_3  and  N1_4 
REMARK    3  A    between atoms: N1_4  and  C3_7 
REMARK    4  A    between atoms: C3_7  and  C4_8 
REMARK    5  A    between atoms: C4_8  and  C5_9 
REMARK    6  A    between atoms: C8_13  and  O3_14 
REMARK    7  A    between atoms: O3_14  and  C9_15 
REMARK    8  A    between atoms: N2_20  and  C14_22 
ROOT
HETATM    1  N1  UNL     1       0.392   0.814   1.043  1.00  0.00    -0.067 N 
ATOM      2  H11 UNL     1      -0.289   1.324   1.606  1.00  0.00     0.277 HD
ATOM      3  H12 UNL     1       0.218  -0.136   1.372  1.00  0.00     0.277 HD
ENDROOT
BRANCH   1   4
HETATM    4  C2  UNL     1       1.708   1.217   1.381  1.00  0.00     0.334 C 
BRANCH   4   5
HETATM    5  C1  UNL     1       2.749   0.309   0.898  1.00  0.00     0.243 C 
HETATM    6  O1  UNL     1       2.500  -0.740   0.264  1.00  0.00    -0.272 OA
HETATM    7  N2  UNL     1       4.138   0.594   1.137  1.00  0.00    -0.354 N 
ATOM      8  H2  UNL     1       4.394   1.439   1.648  1.00  0.00     0.162 HD
BRANCH   7   9
HETATM    9  C14 UNL     1       5.180  -0.293   0.668  1.00  0.00     0.099 C 
HETATM   10  C15 UNL     1       6.016   0.486  -0.318  1.00  0.00     0.041 C 
HETATM   11  C16 UNL     1       7.239  -0.359  -0.606  1.00  0.00     0.142 C 
HETATM   12  S1  UNL     1       7.612  -0.971   1.046  1.00  0.00     0.146 S 
HETATM   13  O4  UNL     1       7.943  -2.446   1.015  1.00  0.00    -0.228 OA
HETATM   14  O5  UNL     1       8.706  -0.160   1.669  1.00  0.00    -0.228 OA
HETATM   15  C17 UNL     1       6.035  -0.674   1.830  1.00  0.00     0.165 C 
ENDBRANCH   7   9
ENDBRANCH   4   5
ENDBRANCH   1   4
BRANCH   1  16
HETATM   16  C3  UNL     1       0.070   0.924  -0.344  1.00  0.00     0.235 C 
BRANCH  16  17
HETATM   17  C4  UNL     1      -1.354   0.472  -0.579  1.00  0.00     0.062 C 
BRANCH  17  18
HETATM   18  C5  UNL     1      -1.610  -0.950  -0.182  1.00  0.00     0.152 C 
HETATM   19  O2  UNL     1      -0.832  -1.872  -0.860  1.00  0.00    -0.383 OA
HETATM   20  C6  UNL     1      -1.346  -2.056  -2.120  1.00  0.00     0.171 C 
HETATM   21  C7  UNL     1      -2.810  -1.723  -2.059  1.00  0.00     0.061 C 
HETATM   22  C8  UNL     1      -3.021  -1.286  -0.608  1.00  0.00     0.153 C 
BRANCH  22  23
HETATM   23  O3  UNL     1      -3.845  -0.183  -0.548  1.00  0.00    -0.378 OA
BRANCH  23  24
HETATM   24  C9  UNL     1      -4.961  -0.356   0.230  1.00  0.00     0.122 C 
HETATM   25  C10 UNL     1      -6.169  -0.026  -0.649  1.00  0.00     0.032 C 
HETATM   26  C11 UNL     1      -6.471   1.429  -0.374  1.00  0.00     0.002 C 
HETATM   27  C12 UNL     1      -5.439   1.938   0.597  1.00  0.00     0.002 C 
HETATM   28  C13 UNL     1      -5.028   0.687   1.348  1.00  0.00     0.032 C 
ENDBRANCH  23  24
ENDBRANCH  22  23
ENDBRANCH  17  18
ENDBRANCH  16  17
ENDBRANCH   1  16
TORSDOF 8
