REMARK  6 active torsions:
REMARK  status: ('A' for Active; 'I' for Inactive)
REMARK    1  A    between atoms: C2_2  and  C4_4 
REMARK    2  A    between atoms: C4_4  and  C5_5 
REMARK    3  A    between atoms: C5_5  and  O1_6 
REMARK    4  A    between atoms: C5_5  and  C6_8 
REMARK    5  A    between atoms: C6_8  and  C8_10 
REMARK    6  A    between atoms: C12_16  and  C13_17 
ROOT
HETATM    1  C8  UNL     1       0.904  -0.344   0.085  1.00  0.00     0.167 C 
HETATM    2  O2  UNL     1       1.663   0.357  -0.845  1.00  0.00    -0.347 OA
HETATM    3  C9  UNL     1       2.959   0.430  -0.419  1.00  0.00     0.158 C 
HETATM    4  C10 UNL     1       3.900  -0.442  -1.225  1.00  0.00     0.078 C 
HETATM    5  C11 UNL     1       3.430   1.861  -0.636  1.00  0.00     0.078 C 
HETATM    6  O3  UNL     1       3.014   0.064   0.912  1.00  0.00    -0.341 OA
HETATM    7  C12 UNL     1       1.931  -0.804   1.078  1.00  0.00     0.215 C 
ENDROOT
BRANCH   1   8
HETATM    8  C6  UNL     1      -0.089   0.560   0.796  1.00  0.00     0.042 C 
HETATM    9  C7  UNL     1      -0.664  -0.179   1.929  1.00  0.00     0.015 C 
BRANCH   8  10
HETATM   10  C5  UNL     1      -1.036   1.201  -0.189  1.00  0.00     0.124 C 
BRANCH  10  11
HETATM   11  C4  UNL     1      -1.944   0.299  -0.923  1.00  0.00     0.036 C 
BRANCH  11  12
HETATM   12  C2  UNL     1      -2.993  -0.448  -0.209  1.00  0.00    -0.020 C 
HETATM   13  C1  UNL     1      -4.012   0.478   0.478  1.00  0.00     0.009 C 
HETATM   14  C3  UNL     1      -3.846  -1.150  -1.290  1.00  0.00     0.009 C 
ENDBRANCH  11  12
ENDBRANCH  10  11
BRANCH  10  15
HETATM   15  O1  UNL     1      -0.178   1.834  -1.160  1.00  0.00    -0.395 OA
ATOM     16  H1  UNL     1       0.407   2.415  -0.687  1.00  0.00     0.210 HD
ENDBRANCH  10  15
ENDBRANCH   8  10
ENDBRANCH   1   8
BRANCH   7  17
HETATM   17  C13 UNL     1       2.314  -2.209   0.762  1.00  0.00     0.265 C 
HETATM   18  O4  UNL     1       1.503  -3.109   0.845  1.00  0.00    -0.304 OA
ENDBRANCH   7  17
TORSDOF 6
