REMARK  0 active torsions:
REMARK  status: ('A' for Active; 'I' for Inactive)
REMARK       I    between atoms: N1_1  and  C1_4 
ROOT
HETATM    1  N1  UNL     1      -1.094   2.390   0.053  1.00  0.00    -0.234 N 
ATOM      2  H11 UNL     1      -2.088   2.615   0.094  1.00  0.00     0.174 HD
ATOM      3  H12 UNL     1      -0.317   3.049   0.105  1.00  0.00     0.174 HD
HETATM    4  C1  UNL     1      -0.722   1.161  -0.079  1.00  0.00     0.681 C 
HETATM    5  N2  UNL     1       0.578   0.867  -0.133  1.00  0.00    -0.163 N 
ATOM      6  H2  UNL     1       1.181   1.677  -0.277  1.00  0.00     0.187 HD
HETATM    7  C2  UNL     1       1.241  -0.296  -0.033  1.00  0.00     0.209 C 
HETATM    8  N3  UNL     1       2.657  -0.244   0.117  1.00  0.00    -0.062 NA
HETATM    9  N4  UNL     1       0.663  -1.529  -0.064  1.00  0.00    -0.292 N 
ATOM     10  H4  UNL     1       1.298  -2.305  -0.251  1.00  0.00     0.172 HD
HETATM   11  C3  UNL     1      -0.630  -1.870   0.118  1.00  0.00     0.316 C 
HETATM   12  O1  UNL     1      -0.900  -3.044   0.483  1.00  0.00    -0.262 OA
HETATM   13  C4  UNL     1      -1.729  -1.064  -0.052  1.00  0.00     0.328 C 
HETATM   14  O2  UNL     1      -2.833  -1.665  -0.124  1.00  0.00    -0.261 OA
HETATM   15  N5  UNL     1      -1.747   0.292  -0.148  1.00  0.00    -0.152 N 
ATOM     16  H5  UNL     1      -2.666   0.709  -0.293  1.00  0.00     0.188 HD
ENDROOT
TORSDOF 0
