REMARK  1 active torsions:
REMARK  status: ('A' for Active; 'I' for Inactive)
REMARK    1  A    between atoms: N1_1  and  C1_4 
ROOT
HETATM    1  C1  UNL     1       1.415  -0.416   0.437  1.00  0.00     0.118 C 
HETATM    2  C2  UNL     1       0.691  -1.410  -0.187  1.00  0.00     0.154 C 
HETATM    3  N2  UNL     1      -0.565  -1.367  -0.725  1.00  0.00    -0.198 N 
ATOM      4  H2  UNL     1      -0.848  -2.173  -1.283  1.00  0.00     0.183 HD
HETATM    5  C3  UNL     1      -1.470  -0.378  -0.600  1.00  0.00     0.679 C 
HETATM    6  N3  UNL     1      -2.722  -0.694  -0.740  1.00  0.00    -0.234 N 
ATOM      7  H31 UNL     1      -3.408   0.055  -0.645  1.00  0.00     0.174 HD
ATOM      8  H32 UNL     1      -2.929  -1.673  -0.936  1.00  0.00     0.174 HD
HETATM    9  N4  UNL     1      -1.199   0.906  -0.343  1.00  0.00    -0.141 N 
ATOM     10  H4  UNL     1      -1.985   1.541  -0.479  1.00  0.00     0.189 HD
HETATM   11  C4  UNL     1      -0.048   1.508   0.070  1.00  0.00     0.340 C 
HETATM   12  O1  UNL     1      -0.008   2.762   0.075  1.00  0.00    -0.246 OA
HETATM   13  N5  UNL     1       1.077   0.893   0.483  1.00  0.00    -0.293 N 
ATOM     14  H5  UNL     1       1.781   1.507   0.892  1.00  0.00     0.172 HD
ENDROOT
BRANCH   1  15
HETATM   15  N1  UNL     1       2.500  -0.785   1.020  1.00  0.00    -0.384 N 
ATOM     16  H12 UNL     1       2.755  -1.772   0.985  1.00  0.00     0.157 HD
ATOM     17  H11 UNL     1       3.036  -0.050   1.482  1.00  0.00     0.157 HD
ENDBRANCH   1  15
TORSDOF 1
