REMARK  3 active torsions:
REMARK  status: ('A' for Active; 'I' for Inactive)
REMARK    1  A    between atoms: C3_6  and  N3_7 
REMARK    2  A    between atoms: N3_7  and  N4_9 
REMARK    3  A    between atoms: C4_14  and  N6_15 
ROOT
HETATM    1  C1  UNL     1      -2.616  -0.819   0.336  1.00  0.00     0.176 C 
HETATM    2  N1  UNL     1      -1.229  -0.418   0.144  1.00  0.00    -0.183 N 
HETATM    3  C2  UNL     1      -0.321  -1.257  -0.387  1.00  0.00     0.218 A 
HETATM    4  N2  UNL     1       0.960  -0.869  -0.557  1.00  0.00    -0.185 N 
ATOM      5  H2  UNL     1       1.625  -1.527  -0.962  1.00  0.00     0.185 HD
HETATM    6  C3  UNL     1       1.388   0.358  -0.209  1.00  0.00     0.711 A 
HETATM    7  N5  UNL     1       0.482   1.198   0.322  1.00  0.00    -0.021 N 
ATOM      8  H5  UNL     1       0.765   2.138   0.599  1.00  0.00     0.203 HD
HETATM    9  C4  UNL     1      -0.799   0.808   0.492  1.00  0.00     0.693 A 
ENDROOT
BRANCH   6  10
HETATM   10  N3  UNL     1       2.611   0.752  -0.363  1.00  0.00    -0.138 N 
ATOM     11  H3  UNL     1       2.881   1.694  -0.081  1.00  0.00     0.205 HD
BRANCH  10  12
HETATM   12  N4  UNL     1       3.562  -0.110  -0.914  1.00  0.00    -0.331 N 
ATOM     13  H42 UNL     1       3.275  -1.049  -1.190  1.00  0.00     0.177 HD
ATOM     14  H41 UNL     1       4.526   0.201  -1.035  1.00  0.00     0.177 HD
ENDBRANCH  10  12
ENDBRANCH   6  10
BRANCH   9  15
HETATM   15  N6  UNL     1      -1.682   1.605   1.001  1.00  0.00    -0.234 N 
ATOM     16  H62 UNL     1      -2.650   1.310   1.129  1.00  0.00     0.174 HD
ATOM     17  H61 UNL     1      -1.356   2.535   1.265  1.00  0.00     0.174 HD
ENDBRANCH   9  15
TORSDOF 3
