REMARK  4 active torsions:
REMARK  status: ('A' for Active; 'I' for Inactive)
REMARK    1  A    between atoms: C8_9  and  C9_10 
REMARK       I    between atoms: C9_10  and  N1_12 
REMARK    2  A    between atoms: N1_12  and  C10_14 
REMARK    3  A    between atoms: C10_14  and  N2_16 
REMARK    4  A    between atoms: N2_16  and  N3_18 
ROOT
HETATM    1  C9  UNL     1       0.701   0.353  -1.033  1.00  0.00     0.228 C 
HETATM    2  O1  UNL     1       0.743   0.468  -2.267  1.00  0.00    -0.273 OA
HETATM    3  N1  UNL     1       1.884  -0.042  -0.357  1.00  0.00    -0.302 N 
ATOM      4  H1  UNL     1       1.858  -0.140   0.658  1.00  0.00     0.171 HD
ENDROOT
BRANCH   1   5
HETATM    5  C8  UNL     1      -0.519   0.612  -0.297  1.00  0.00     0.086 C 
HETATM    6  C2  UNL     1      -1.065  -0.536   0.485  1.00  0.00    -0.035 C 
HETATM    7  C1  UNL     1      -0.824  -1.877  -0.114  1.00  0.00     0.015 C 
HETATM    8  C3  UNL     1      -0.485  -0.514   1.882  1.00  0.00     0.015 C 
HETATM    9  C4  UNL     1      -2.584  -0.356   0.596  1.00  0.00     0.025 C 
HETATM   10  C5  UNL     1      -2.943   1.102   0.786  1.00  0.00     0.058 C 
HETATM   11 BR1  UNL     1      -4.850   1.186   1.092  1.00  0.00    -0.091 Br
HETATM   12  C6  UNL     1      -2.655   1.902  -0.482  1.00  0.00     0.017 C 
HETATM   13  C7  UNL     1      -1.537   1.222  -1.234  1.00  0.00     0.016 C 
ENDBRANCH   1   5
BRANCH   3  14
HETATM   14  C10 UNL     1       3.102  -0.307  -1.036  1.00  0.00     0.194 C 
HETATM   15  S1  UNL     1       3.211  -0.169  -2.667  1.00  0.00    -0.039 SA
BRANCH  14  16
HETATM   16  N2  UNL     1       4.238  -0.696  -0.280  1.00  0.00    -0.262 N 
ATOM     17  H2  UNL     1       4.174  -0.782   0.734  1.00  0.00     0.191 HD
BRANCH  16  18
HETATM   18  N3  UNL     1       5.460  -0.964  -0.942  1.00  0.00    -0.247 N 
HETATM   19  N4  UNL     1       6.552  -0.809  -0.315  1.00  0.00    -0.331 N 
ATOM     20  H42 UNL     1       6.532  -0.494   0.655  1.00  0.00     0.178 HD
ATOM     21  H41 UNL     1       7.433  -1.002  -0.792  1.00  0.00     0.178 HD
ATOM     22  H3  UNL     1       5.463  -1.278  -1.912  1.00  0.00     0.207 HD
ENDBRANCH  16  18
ENDBRANCH  14  16
ENDBRANCH   3  14
TORSDOF 4
