REMARK  4 active torsions:
REMARK  status: ('A' for Active; 'I' for Inactive)
REMARK    1  A    between atoms: S1_2  and  N1_5 
REMARK    2  A    between atoms: N1_5  and  C1_7 
REMARK    3  A    between atoms: C1_7  and  C2_8 
REMARK    4  A    between atoms: C5_11  and  O4_12 
ROOT
HETATM    1  C2  UNL     1       0.408  -0.025  -0.482  1.00  0.00     0.011 C 
HETATM    2  C3  UNL     1       0.037   0.269  -1.943  1.00  0.00     0.010 C 
HETATM    3  C4  UNL     1      -1.473   0.499  -1.938  1.00  0.00     0.038 C 
HETATM    4  C5  UNL     1      -1.701   0.768  -0.504  1.00  0.00     0.063 C 
HETATM    5  C6  UNL     1      -3.010   0.447   0.095  1.00  0.00     0.054 C 
HETATM    6  C7  UNL     1      -2.588   0.256   1.550  1.00  0.00     0.061 C 
HETATM    7 BR1  UNL     1      -3.733  -0.953   2.488  1.00  0.00    -0.091 Br
HETATM    8  C8  UNL     1      -1.138  -0.218   1.508  1.00  0.00     0.024 C 
HETATM    9  C9  UNL     1      -0.898  -0.409   0.067  1.00  0.00     0.027 C 
ENDROOT
BRANCH   1  10
HETATM   10  C1  UNL     1       1.517  -1.042  -0.388  1.00  0.00     0.139 C 
BRANCH  10  11
HETATM   11  N1  UNL     1       2.072  -0.897   0.943  1.00  0.00    -0.300 N 
ATOM     12  H1  UNL     1       1.521  -0.774   1.792  1.00  0.00     0.174 HD
BRANCH  11  13
HETATM   13  S1  UNL     1       3.813  -0.962   0.890  1.00  0.00     0.204 S 
HETATM   14  O1  UNL     1       4.254  -1.742   2.092  1.00  0.00    -0.578 OA
HETATM   15  O2  UNL     1       4.330  -1.511  -0.389  1.00  0.00    -0.578 OA
HETATM   16  O3  UNL     1       4.444   0.607   1.113  1.00  0.00    -0.578 OA
ENDBRANCH  11  13
ENDBRANCH  10  11
ENDBRANCH   1  10
BRANCH   4  17
HETATM   17  O4  UNL     1      -1.152   1.962  -0.094  1.00  0.00    -0.389 OA
ATOM     18  H4  UNL     1      -1.299   2.135   0.829  1.00  0.00     0.210 HD
ENDBRANCH   4  17
TORSDOF 4
