REMARK  4 active torsions:
REMARK  status: ('A' for Active; 'I' for Inactive)
REMARK    1  A    between atoms: C5_5  and  N1_6 
REMARK       I    between atoms: N1_6  and  C7_8 
REMARK       I    between atoms: C7_8  and  N2_10 
REMARK    2  A    between atoms: N2_10  and  N3_12 
REMARK       I    between atoms: N3_12  and  C8_14 
REMARK    3  A    between atoms: C8_14  and  C9_16 
REMARK    4  A    between atoms: C12_20  and  O3_21 
ROOT
HETATM    1  C1  UNL     1      -4.241   0.530   1.100  1.00  0.00     0.011 C 
HETATM    2  C2  UNL     1      -2.739   0.837   0.946  1.00  0.00    -0.007 C 
HETATM    3  C3  UNL     1      -2.020  -0.004   1.938  1.00  0.00     0.007 C 
HETATM    4  C4  UNL     1      -0.590  -0.334   1.594  1.00  0.00     0.026 C 
HETATM    5  C5  UNL     1      -0.198   0.608   0.444  1.00  0.00     0.093 C 
HETATM    6  C10 UNL     1      -0.965   0.292  -0.781  1.00  0.00     0.022 A 
HETATM    7  C11 UNL     1      -1.349  -1.100  -1.098  1.00  0.00     0.040 A 
HETATM    8  C12 UNL     1      -2.825  -0.808  -0.878  1.00  0.00     0.127 A 
HETATM    9  C13 UNL     1      -2.425   0.582  -0.492  1.00  0.00    -0.009 A 
HETATM   10  C14 UNL     1      -2.914   1.676  -1.393  1.00  0.00     0.018 C 
ENDROOT
BRANCH   5  11
HETATM   11  N1  UNL     1       1.195   0.817   0.338  1.00  0.00    -0.332 N 
HETATM   12  C6  UNL     1       1.756   2.130   0.714  1.00  0.00     0.155 C 
HETATM   13  C7  UNL     1       2.166  -0.161  -0.115  1.00  0.00     0.337 C 
HETATM   14  O1  UNL     1       1.767  -1.279  -0.465  1.00  0.00    -0.245 OA
HETATM   15  N2  UNL     1       3.533   0.165  -0.150  1.00  0.00    -0.249 N 
ATOM     16  H2  UNL     1       3.744   1.114   0.159  1.00  0.00     0.192 HD
BRANCH  15  17
HETATM   17  N3  UNL     1       4.627  -0.556  -0.522  1.00  0.00    -0.265 N 
HETATM   18  C8  UNL     1       4.761  -1.911  -0.844  1.00  0.00     0.249 C 
HETATM   19  O2  UNL     1       3.859  -2.783  -0.865  1.00  0.00    -0.271 OA
ATOM     20  H3  UNL     1       5.493  -0.019  -0.575  1.00  0.00     0.190 HD
BRANCH  18  21
HETATM   21  C9  UNL     1       6.142  -2.452  -1.222  1.00  0.00     0.219 C 
HETATM   22 CL1  UNL     1       7.295  -1.144  -1.087  1.00  0.00    -0.121 Cl
ENDBRANCH  18  21
ENDBRANCH  15  17
ENDBRANCH   5  11
BRANCH   8  23
HETATM   23  O3  UNL     1      -3.643  -0.948  -1.968  1.00  0.00    -0.395 OA
ATOM     24  H3  UNL     1      -4.565  -0.766  -1.831  1.00  0.00     0.210 HD
ENDBRANCH   8  23
TORSDOF 4
