REMARK  7 active torsions:
REMARK  status: ('A' for Active; 'I' for Inactive)
REMARK    1  A    between atoms: N1_4  and  N2_6 
REMARK    2  A    between atoms: C4_8  and  C5_9 
REMARK    3  A    between atoms: C4_8  and  N3_11 
REMARK    4  A    between atoms: N3_11  and  N4_13 
REMARK    5  A    between atoms: N4_13  and  C6_15 
REMARK    6  A    between atoms: C6_15  and  N5_17 
REMARK    7  A    between atoms: N5_17  and  C7_19 
ROOT
HETATM    1  N3  UNL     1       0.678   0.300   0.216  1.00  0.00    -0.285 N 
ATOM      2  H3  UNL     1       0.359  -0.500   0.762  1.00  0.00     0.188 HD
ENDROOT
BRANCH   1   3
HETATM    3  C4  UNL     1       1.802   1.029   0.648  1.00  0.00     0.120 C 
HETATM    4  N2  UNL     1       2.973   0.626   0.349  1.00  0.00    -0.287 N 
ATOM      5  H2  UNL     1       3.763   1.181   0.679  1.00  0.00     0.188 HD
BRANCH   4   6
HETATM    6  N1  UNL     1       3.253  -0.515  -0.395  1.00  0.00    -0.308 N 
HETATM    7  C2  UNL     1       4.428  -1.005  -0.369  1.00  0.00    -0.004 C 
HETATM    8  C1  UNL     1       5.476  -0.364   0.444  1.00  0.00     0.064 C 
HETATM    9  C3  UNL     1       4.755  -2.215  -1.149  1.00  0.00     0.064 C 
ATOM     10  H1  UNL     1       2.524  -0.955  -0.956  1.00  0.00     0.186 HD
ENDBRANCH   4   6
BRANCH   3  11
HETATM   11  C5  UNL     1       1.622   2.254   1.443  1.00  0.00     0.164 C 
HETATM   12 BR1  UNL     1       0.588   3.531   0.405  1.00  0.00    -0.088 Br
ENDBRANCH   3  11
ENDBRANCH   1   3
BRANCH   1  13
HETATM   13  N4  UNL     1      -0.018   0.659  -0.964  1.00  0.00    -0.275 N 
ATOM     14  H4  UNL     1       0.488   1.022  -1.772  1.00  0.00     0.189 HD
BRANCH  13  15
HETATM   15  C6  UNL     1      -1.431   0.507  -1.009  1.00  0.00     0.187 C 
HETATM   16  S1  UNL     1      -2.166   0.948  -2.420  1.00  0.00    -0.040 SA
BRANCH  15  17
HETATM   17  N5  UNL     1      -2.162   0.010   0.085  1.00  0.00    -0.358 N 
ATOM     18  H5  UNL     1      -1.665  -0.249   0.937  1.00  0.00     0.162 HD
BRANCH  17  19
HETATM   19  C7  UNL     1      -3.584  -0.142   0.035  1.00  0.00     0.021 C 
HETATM   20  C8  UNL     1      -4.100  -0.699   1.357  1.00  0.00     0.037 C 
HETATM   21  C9  UNL     1      -4.043  -1.095  -1.039  1.00  0.00     0.037 C 
HETATM   22  C10 UNL     1      -4.284   1.212  -0.141  1.00  0.00     0.037 C 
ENDBRANCH  17  19
ENDBRANCH  15  17
ENDBRANCH  13  15
ENDBRANCH   1  13
TORSDOF 7
