REMARK  2 active torsions:
REMARK  status: ('A' for Active; 'I' for Inactive)
REMARK    1  A    between atoms: C5_5  and  N1_6 
REMARK       I    between atoms: N1_6  and  C6_8 
REMARK       I    between atoms: C6_8  and  N2_10 
REMARK    2  A    between atoms: C9_13  and  N3_14 
REMARK       I    between atoms: N3_14  and  C10_16 
REMARK       I    between atoms: C10_16  and  N5_20 
ROOT
HETATM    1  N3  UNL     1       3.298  -0.148   0.840  1.00  0.00    -0.220 N 
ATOM      2  H3  UNL     1       2.799   0.178   1.668  1.00  0.00     0.178 HD
HETATM    3  C10 UNL     1       4.225  -1.217   1.007  1.00  0.00     0.698 C 
HETATM    4  N4  UNL     1       3.794  -2.423   1.096  1.00  0.00    -0.131 N 
ATOM      5  H4  UNL     1       2.787  -2.578   1.043  1.00  0.00     0.199 HD
HETATM    6 CL1  UNL     1       4.810  -3.786   1.298  1.00  0.00     0.026 Cl
HETATM    7  N5  UNL     1       5.625  -1.021   1.083  1.00  0.00    -0.125 N 
ATOM      8  H5  UNL     1       6.124  -1.215   1.951  1.00  0.00     0.197 HD
HETATM    9  C11 UNL     1       6.317  -0.562  -0.034  1.00  0.00     0.196 C 
HETATM   10  N6  UNL     1       6.895  -0.193  -0.960  1.00  0.00    -0.171 NA
ENDROOT
BRANCH   1  11
HETATM   11  C9  UNL     1       3.018   0.496  -0.393  1.00  0.00     0.102 C 
HETATM   12  C8  UNL     1       2.479  -0.411  -1.458  1.00  0.00     0.045 C 
HETATM   13  C7  UNL     1       1.139   0.096  -1.997  1.00  0.00     0.129 C 
HETATM   14  N2  UNL     1       0.229   0.429  -0.951  1.00  0.00    -0.334 N 
HETATM   15  C6  UNL     1      -1.146   0.153  -1.073  1.00  0.00     0.318 C 
HETATM   16  C13 UNL     1       0.718   1.054   0.240  1.00  0.00     0.129 C 
HETATM   17  N1  UNL     1      -2.102   0.454  -0.071  1.00  0.00    -0.338 N 
HETATM   18  O1  UNL     1      -1.606  -0.402  -2.134  1.00  0.00    -0.247 OA
ATOM     19  H1  UNL     1      -1.787   0.896   0.793  1.00  0.00     0.164 HD
HETATM   20  C12 UNL     1       2.068   1.666  -0.129  1.00  0.00     0.045 C 
BRANCH  17  21
HETATM   21  C5  UNL     1      -3.494   0.160  -0.228  1.00  0.00     0.089 C 
HETATM   22  C2  UNL     1      -4.039  -0.620   0.965  1.00  0.00     0.004 C 
HETATM   23  C1  UNL     1      -5.359  -1.246   0.596  1.00  0.00     0.012 C 
HETATM   24  C3  UNL     1      -4.262   0.732   1.635  1.00  0.00     0.008 C 
HETATM   25  C4  UNL     1      -4.391   1.314   0.238  1.00  0.00     0.026 C 
ENDBRANCH  17  21
ENDBRANCH   1  11
TORSDOF 2
