REMARK  6 active torsions:
REMARK  status: ('A' for Active; 'I' for Inactive)
REMARK    1  A    between atoms: C4_8  and  N3_9 
REMARK    2  A    between atoms: N3_9  and  C5_11 
REMARK    3  A    between atoms: C5_11  and  C6_12 
REMARK    4  A    between atoms: C9_15  and  N4_16 
REMARK    5  A    between atoms: C12_24  and  N6_25 
REMARK    6  A    between atoms: N6_25  and  C13_27 
ROOT
HETATM    1  N1  UNL     1      -1.781  -3.455   4.391  1.00  0.00    -0.191 NA
HETATM    2  C1  UNL     1      -1.261  -2.660   3.715  1.00  0.00     0.106 C 
HETATM    3  C2  UNL     1      -0.606  -1.685   2.884  1.00  0.00     0.127 A 
HETATM    4  C3  UNL     1       0.706  -1.343   3.123  1.00  0.00     0.143 A 
HETATM    5 CL1  UNL     1       1.525  -2.129   4.454  1.00  0.00    -0.062 Cl
HETATM    6  N2  UNL     1       1.307  -0.430   2.340  1.00  0.00    -0.180 N 
ATOM      7  H2  UNL     1       2.279  -0.194   2.539  1.00  0.00     0.185 HD
HETATM    8  C4  UNL     1       0.704   0.191   1.311  1.00  0.00     0.680 A 
HETATM    9  N5  UNL     1      -0.593  -0.150   1.077  1.00  0.00    -0.175 N 
ATOM     10  H5  UNL     1      -1.091   0.295   0.306  1.00  0.00     0.186 HD
HETATM   11  C12 UNL     1      -1.237  -1.057   1.833  1.00  0.00     0.141 A 
ENDROOT
BRANCH  11  12
HETATM   12  N6  UNL     1      -2.443  -1.339   1.575  1.00  0.00    -0.368 N 
ATOM     13  H6  UNL     1      -2.885  -2.032   2.179  1.00  0.00     0.161 HD
BRANCH  12  14
HETATM   14  C13 UNL     1      -3.257  -0.794   0.531  1.00  0.00     0.117 C 
HETATM   15  C14 UNL     1      -3.762   0.583   0.797  1.00  0.00     0.297 C 
HETATM   16  N7  UNL     1      -5.185   0.597   0.523  1.00  0.00     0.090 N 
HETATM   17  C15 UNL     1      -5.499   0.794  -0.868  1.00  0.00     0.272 C 
HETATM   18  C19 UNL     1      -5.613  -0.705   0.952  1.00  0.00     0.279 C 
HETATM   19  C16 UNL     1      -5.666  -0.475  -1.643  1.00  0.00     0.031 C 
HETATM   20  C17 UNL     1      -4.814  -1.610  -1.153  1.00  0.00     0.010 C 
HETATM   21  C18 UNL     1      -4.528  -1.581   0.309  1.00  0.00     0.038 C 
ENDBRANCH  12  14
ENDBRANCH  11  12
BRANCH   8  22
HETATM   22  N3  UNL     1       1.265   1.053   0.566  1.00  0.00    -0.226 N 
ATOM     23  H3  UNL     1       0.680   1.437  -0.176  1.00  0.00     0.177 HD
BRANCH  22  24
HETATM   24  C5  UNL     1       2.586   1.556   0.619  1.00  0.00     0.142 C 
BRANCH  24  25
HETATM   25  C6  UNL     1       3.227   1.663  -0.775  1.00  0.00     0.004 C 
HETATM   26  C7  UNL     1       4.604   2.202  -0.568  1.00  0.00     0.008 C 
HETATM   27  C8  UNL     1       5.675   1.133  -0.815  1.00  0.00     0.033 C 
HETATM   28  C9  UNL     1       5.476   0.780  -2.292  1.00  0.00     0.183 C 
HETATM   29  C10 UNL     1       4.217  -0.005  -2.399  1.00  0.00     0.033 C 
HETATM   30  C11 UNL     1       3.147   0.340  -1.442  1.00  0.00     0.008 C 
BRANCH  28  31
HETATM   31  N4  UNL     1       6.613  -0.024  -2.703  1.00  0.00    -0.075 N 
ATOM     32  H43 UNL     1       7.508   0.429  -2.519  1.00  0.00     0.274 HD
ATOM     33  H42 UNL     1       6.755  -0.844  -2.113  1.00  0.00     0.274 HD
ATOM     34  H41 UNL     1       6.480  -0.259  -3.687  1.00  0.00     0.274 HD
ENDBRANCH  28  31
ENDBRANCH  24  25
ENDBRANCH  22  24
ENDBRANCH   8  22
TORSDOF 6
