REMARK  5 active torsions:
REMARK  status: ('A' for Active; 'I' for Inactive)
REMARK    1  A    between atoms: C2_2  and  C3_4 
REMARK    2  A    between atoms: N2_6  and  C4_7 
REMARK    3  A    between atoms: C11_16  and  O3_17 
REMARK    4  A    between atoms: N3_19  and  C12_20 
REMARK    5  A    between atoms: C16_24  and  O4_25 
ROOT
HETATM    1  C3  UNL     1      -1.145  -1.039   0.577  1.00  0.00     0.176 C 
HETATM    2  N1  UNL     1      -2.069  -0.336  -0.314  1.00  0.00    -0.121 NA
HETATM    3  N2  UNL     1      -2.479   0.867   0.229  1.00  0.00    -0.255 N 
HETATM    4  C7  UNL     1      -1.714   1.929   0.749  1.00  0.00     0.240 C 
HETATM    5  O2  UNL     1      -2.203   3.084   0.625  1.00  0.00    -0.272 OA
HETATM    6  C8  UNL     1      -0.401   1.922   1.435  1.00  0.00     0.148 C 
HETATM    7  C9  UNL     1       0.498   0.875   0.898  1.00  0.00     0.014 A 
HETATM    8  C10 UNL     1       0.195  -0.432   0.509  1.00  0.00     0.030 A 
HETATM    9  C11 UNL     1       1.324  -1.002   0.070  1.00  0.00     0.153 A 
HETATM   10  N3  UNL     1       2.352  -0.103   0.163  1.00  0.00    -0.303 N 
HETATM   11  C16 UNL     1       1.833   1.042   0.671  1.00  0.00     0.152 A 
ENDROOT
BRANCH   3  12
HETATM   12  C4  UNL     1      -3.912   1.070   0.269  1.00  0.00     0.155 C 
HETATM   13  C5  UNL     1      -4.708  -0.112   0.745  1.00  0.00     0.197 C 
HETATM   14  O1  UNL     1      -5.564   0.071  -0.345  1.00  0.00    -0.387 OA
HETATM   15  C6  UNL     1      -4.581   0.719  -1.057  1.00  0.00     0.197 C 
ENDBRANCH   3  12
BRANCH   1  16
HETATM   16  C2  UNL     1      -1.220  -2.472   0.250  1.00  0.00     0.005 C 
HETATM   17  C1  UNL     1      -1.753  -2.922  -0.870  1.00  0.00     0.029 C 
HETATM   18 BR1  UNL     1      -0.525  -3.762   1.475  1.00  0.00    -0.054 Br
ENDBRANCH   1  16
BRANCH   9  19
HETATM   19  O3  UNL     1       1.507  -2.310  -0.426  1.00  0.00    -0.345 OA
ATOM     20  H3  UNL     1       2.308  -2.714  -0.738  1.00  0.00     0.219 HD
ENDBRANCH   9  19
BRANCH  11  21
HETATM   21  O4  UNL     1       2.584   2.185   0.908  1.00  0.00    -0.345 OA
ATOM     22  H4  UNL     1       3.514   2.301   0.750  1.00  0.00     0.219 HD
ENDBRANCH  11  21
BRANCH  10  23
HETATM   23  C12 UNL     1       3.685  -0.399  -0.224  1.00  0.00     0.094 C 
HETATM   24  C13 UNL     1       4.606   0.710  -0.561  1.00  0.00     0.026 C 
HETATM   25  C14 UNL     1       5.198  -0.176  -1.649  1.00  0.00     0.004 C 
HETATM   26  C15 UNL     1       3.865  -0.920  -1.645  1.00  0.00     0.026 C 
ENDBRANCH  10  23
TORSDOF 5
