REMARK  7 active torsions:
REMARK  status: ('A' for Active; 'I' for Inactive)
REMARK    1  A    between atoms: C5_6  and  N2_7 
REMARK    2  A    between atoms: N2_7  and  C6_9 
REMARK    3  A    between atoms: C7_12  and  N4_13 
REMARK    4  A    between atoms: N4_13  and  C8_15 
REMARK    5  A    between atoms: C8_15  and  C9_16 
REMARK    6  A    between atoms: C14_21  and  C15_22 
REMARK    7  A    between atoms: C15_22  and  O1_23 
ROOT
HETATM    1  N1  UNL     1       8.103  -2.803  -1.839  1.00  0.00    -0.191 NA
HETATM    2  C1  UNL     1       7.317  -2.079  -1.431  1.00  0.00     0.101 C 
HETATM    3  C2  UNL     1       6.344  -1.198  -0.907  1.00  0.00     0.060 A 
HETATM    4  C3  UNL     1       5.086  -1.700  -0.550  1.00  0.00     0.028 A 
HETATM    5  C4  UNL     1       4.130  -0.848  -0.038  1.00  0.00     0.050 A 
HETATM    6  C5  UNL     1       4.373   0.493   0.136  1.00  0.00     0.106 A 
HETATM    7  N6  UNL     1       5.585   0.947  -0.214  1.00  0.00    -0.351 N 
ATOM      8  H6  UNL     1       5.784   1.940  -0.093  1.00  0.00     0.166 HD
HETATM    9  C18 UNL     1       6.559   0.151  -0.721  1.00  0.00     0.112 A 
ENDROOT
BRANCH   6  10
HETATM   10  N2  UNL     1       3.443   1.243   0.618  1.00  0.00    -0.327 N 
ATOM     11  H2  UNL     1       3.642   2.236   0.739  1.00  0.00     0.169 HD
BRANCH  10  12
HETATM   12  C6  UNL     1       2.172   0.775   0.986  1.00  0.00     0.141 A 
HETATM   13  N3  UNL     1       1.097   0.793   0.176  1.00  0.00    -0.175 N 
HETATM   14  C7  UNL     1      -0.115   0.340   0.545  1.00  0.00     0.679 A 
ATOM     15  H3  UNL     1       1.207   1.169  -0.766  1.00  0.00     0.186 HD
HETATM   16  N5  UNL     1      -0.227  -0.153   1.798  1.00  0.00    -0.201 N 
HETATM   17  C16 UNL     1       0.796  -0.202   2.655  1.00  0.00     0.129 A 
ATOM     18  H5  UNL     1      -1.135  -0.504   2.103  1.00  0.00     0.183 HD
HETATM   19  C17 UNL     1       2.040   0.262   2.280  1.00  0.00     0.071 A 
HETATM   20 BR1  UNL     1       3.542   0.222   3.451  1.00  0.00    -0.046 Br
BRANCH  14  21
HETATM   21  N4  UNL     1      -1.126   0.377  -0.273  1.00  0.00    -0.222 N 
ATOM     22  H4  UNL     1      -1.009   0.754  -1.213  1.00  0.00     0.178 HD
BRANCH  21  23
HETATM   23  C8  UNL     1      -2.406  -0.114   0.151  1.00  0.00     0.177 C 
BRANCH  23  24
HETATM   24  C9  UNL     1      -3.525   0.440  -0.648  1.00  0.00    -0.032 A 
HETATM   25  C10 UNL     1      -3.327   1.333  -1.685  1.00  0.00     0.009 A 
HETATM   26  C11 UNL     1      -4.405   1.817  -2.395  1.00  0.00     0.001 A 
HETATM   27  C12 UNL     1      -5.696   1.433  -2.101  1.00  0.00     0.001 A 
HETATM   28  C13 UNL     1      -5.867   0.533  -1.053  1.00  0.00     0.010 A 
HETATM   29  C14 UNL     1      -4.794   0.039  -0.332  1.00  0.00    -0.027 A 
BRANCH  29  30
HETATM   30  C15 UNL     1      -5.058  -0.932   0.790  1.00  0.00     0.203 C 
BRANCH  30  31
HETATM   31  O1  UNL     1      -6.401  -1.188   0.926  1.00  0.00    -0.396 OA
ATOM     32  H1  UNL     1      -6.567  -1.800   1.633  1.00  0.00     0.209 HD
ENDBRANCH  30  31
ENDBRANCH  29  30
ENDBRANCH  23  24
ENDBRANCH  21  23
ENDBRANCH  14  21
ENDBRANCH  10  12
ENDBRANCH   6  10
TORSDOF 7
