REMARK  7 active torsions:
REMARK  status: ('A' for Active; 'I' for Inactive)
REMARK    1  A    between atoms: C2_2  and  O1_3 
REMARK    2  A    between atoms: C4_6  and  O2_7 
REMARK    3  A    between atoms: C5_9  and  N1_10 
REMARK    4  A    between atoms: N2_13  and  C8_14 
REMARK    5  A    between atoms: C11_17  and  C12_18 
REMARK    6  A    between atoms: C13_19  and  C14_20 
REMARK    7  A    between atoms: C24_31  and  O3_32 
ROOT
HETATM    1  N1  UNL     1      -3.243   0.313   0.658  1.00  0.00     0.101 N 
HETATM    2  C6  UNL     1      -2.536  -0.918   0.395  1.00  0.00     0.293 C 
HETATM    3  C7  UNL     1      -1.264  -0.886   1.264  1.00  0.00     0.153 C 
HETATM    4  N2  UNL     1      -0.402   0.061   0.611  1.00  0.00    -0.378 N 
HETATM    5  C22 UNL     1      -1.028   1.202  -0.002  1.00  0.00     0.153 C 
HETATM    6  C23 UNL     1      -2.414   1.451   0.570  1.00  0.00     0.293 C 
ENDROOT
BRANCH   4   7
HETATM    7  C8  UNL     1       0.985  -0.090   0.559  1.00  0.00     0.030 A 
HETATM    8  C9  UNL     1       1.763   0.767  -0.185  1.00  0.00     0.030 A 
HETATM    9  C10 UNL     1       3.147   0.609  -0.227  1.00  0.00     0.013 A 
HETATM   10  C11 UNL     1       3.767  -0.396   0.464  1.00  0.00    -0.036 A 
HETATM   11  C20 UNL     1       2.999  -1.252   1.206  1.00  0.00     0.013 A 
HETATM   12  C21 UNL     1       1.602  -1.102   1.257  1.00  0.00     0.030 A 
BRANCH  10  13
HETATM   13  C12 UNL     1       5.200  -0.561   0.416  1.00  0.00     0.012 C 
HETATM   14  C13 UNL     1       6.025   0.184  -0.263  1.00  0.00     0.012 C 
BRANCH  14  15
HETATM   15  C14 UNL     1       7.469  -0.009  -0.290  1.00  0.00    -0.036 A 
HETATM   16  C15 UNL     1       8.284   0.827  -1.048  1.00  0.00     0.014 A 
HETATM   17  C16 UNL     1       9.647   0.707  -1.120  1.00  0.00     0.043 A 
HETATM   18  C17 UNL     1      10.281  -0.287  -0.415  1.00  0.00     0.116 A 
HETATM   19  F1  UNL     1      11.631  -0.414  -0.480  1.00  0.00    -0.206 F 
HETATM   20  C18 UNL     1       9.502  -1.132   0.345  1.00  0.00     0.043 A 
HETATM   21  C19 UNL     1       8.115  -1.002   0.412  1.00  0.00     0.014 A 
ENDBRANCH  14  15
ENDBRANCH  10  13
ENDBRANCH   4   7
BRANCH   1  22
HETATM   22  C5  UNL     1      -4.413   0.327  -0.176  1.00  0.00     0.283 C 
HETATM   23  C4  UNL     1      -5.235   1.580  -0.086  1.00  0.00     0.157 C 
HETATM   24  C3  UNL     1      -6.679   1.129  -0.325  1.00  0.00     0.074 C 
HETATM   25  C2  UNL     1      -6.672  -0.362  -0.304  1.00  0.00     0.084 C 
HETATM   26  C1  UNL     1      -6.660  -1.005  -1.661  1.00  0.00     0.049 C 
HETATM   27  C24 UNL     1      -5.366  -0.708   0.381  1.00  0.00     0.188 C 
BRANCH  23  28
HETATM   28  O2  UNL     1      -4.957   2.499  -1.107  1.00  0.00    -0.393 OA
ATOM     29  H2  UNL     1      -4.061   2.779  -0.959  1.00  0.00     0.210 HD
ENDBRANCH  23  28
BRANCH  25  30
HETATM   30  O1  UNL     1      -7.701  -0.906   0.457  1.00  0.00    -0.387 OA
ATOM     31  H1  UNL     1      -7.709  -0.499   1.315  1.00  0.00     0.210 HD
ENDBRANCH  25  30
BRANCH  27  32
HETATM   32  O3  UNL     1      -5.508  -0.437   1.751  1.00  0.00    -0.390 OA
ATOM     33  H3  UNL     1      -4.689  -0.654   2.181  1.00  0.00     0.210 HD
ENDBRANCH  27  32
ENDBRANCH   1  22
TORSDOF 7
