REMARK  7 active torsions:
REMARK  status: ('A' for Active; 'I' for Inactive)
REMARK    1  A    between atoms: C2_2  and  O1_3 
REMARK    2  A    between atoms: O1_3  and  C3_4 
REMARK    3  A    between atoms: C6_7  and  C7_8 
REMARK       I    between atoms: C7_8  and  N1_10 
REMARK    4  A    between atoms: N1_10  and  C8_12 
REMARK    5  A    between atoms: C8_12  and  N2_14 
REMARK    6  A    between atoms: N2_14  and  N3_16 
REMARK       I    between atoms: N3_16  and  C9_18 
REMARK    7  A    between atoms: C9_18  and  C10_20 
ROOT
HETATM    1  C8  UNL     1       1.908  -0.267   0.293  1.00  0.00     0.193 C 
HETATM    2  S1  UNL     1       2.638  -1.678   0.766  1.00  0.00    -0.039 SA
ENDROOT
BRANCH   1   3
HETATM    3  N1  UNL     1       0.510  -0.235   0.243  1.00  0.00    -0.298 N 
HETATM    4  C7  UNL     1      -0.333   0.841  -0.119  1.00  0.00     0.257 C 
HETATM    5  O2  UNL     1       0.086   1.956  -0.455  1.00  0.00    -0.267 OA
ATOM      6  H1  UNL     1       0.037  -1.101   0.501  1.00  0.00     0.171 HD
BRANCH   4   7
HETATM    7  C6  UNL     1      -1.796   0.578  -0.079  1.00  0.00     0.032 A 
HETATM    8  C5  UNL     1      -2.377  -0.464  -0.759  1.00  0.00     0.020 A 
HETATM    9  C4  UNL     1      -3.726  -0.729  -0.712  1.00  0.00     0.038 A 
HETATM   10  C3  UNL     1      -4.547   0.075   0.046  1.00  0.00     0.068 A 
HETATM   11  C15 UNL     1      -3.972   1.137   0.741  1.00  0.00     0.038 A 
HETATM   12  C14 UNL     1      -2.616   1.382   0.677  1.00  0.00     0.020 A 
BRANCH  10  13
HETATM   13  O1  UNL     1      -5.909  -0.185   0.097  1.00  0.00    -0.352 OA
BRANCH  13  14
HETATM   14  C2  UNL     1      -6.708   0.656   0.897  1.00  0.00     0.171 C 
HETATM   15  C1  UNL     1      -8.155   0.252   0.870  1.00  0.00     0.034 C 
ENDBRANCH  13  14
ENDBRANCH  10  13
ENDBRANCH   4   7
ENDBRANCH   1   3
BRANCH   1  16
HETATM   16  N2  UNL     1       2.728   0.821  -0.050  1.00  0.00    -0.273 N 
ATOM     17  H2  UNL     1       2.309   1.696  -0.363  1.00  0.00     0.189 HD
BRANCH  16  18
HETATM   18  N3  UNL     1       4.138   0.703   0.039  1.00  0.00    -0.262 N 
HETATM   19  C9  UNL     1       4.882  -0.137  -0.847  1.00  0.00     0.293 C 
HETATM   20  O3  UNL     1       4.265  -0.773  -1.715  1.00  0.00    -0.264 OA
ATOM     21  H3  UNL     1       4.636   1.232   0.755  1.00  0.00     0.190 HD
BRANCH  19  22
HETATM   22  C10 UNL     1       6.309  -0.243  -0.735  1.00  0.00     0.146 A 
HETATM   23  C11 UNL     1       7.128  -1.036  -1.506  1.00  0.00     0.046 A 
HETATM   24  C12 UNL     1       8.416  -0.837  -1.067  1.00  0.00     0.048 A 
HETATM   25  C13 UNL     1       8.321   0.072  -0.045  1.00  0.00     0.122 A 
HETATM   26 BR1  UNL     1       9.807   0.727   0.945  1.00  0.00    -0.023 Br
HETATM   27  O4  UNL     1       7.073   0.382   0.103  1.00  0.00    -0.298 OA
ENDBRANCH  19  22
ENDBRANCH  16  18
ENDBRANCH   1  16
TORSDOF 7
