REMARK  4 active torsions:
REMARK  status: ('A' for Active; 'I' for Inactive)
REMARK    1  A    between atoms: N1_7  and  C7_8 
REMARK    2  A    between atoms: C7_8  and  C8_9 
REMARK    3  A    between atoms: C9_10  and  C10_11 
REMARK    4  A    between atoms: C10_11  and  N2_12 
ROOT
HETATM    1  N2  UNL     1       1.618  -0.749   0.238  1.00  0.00     0.117 N 
HETATM    2  C11 UNL     1       1.879   0.095  -0.910  1.00  0.00     0.441 C 
HETATM    3  O1  UNL     1       3.248   0.356  -0.900  1.00  0.00    -0.349 OA
HETATM    4  C12 UNL     1       3.719   0.140   0.380  1.00  0.00     0.091 C 
HETATM    5  C13 UNL     1       4.548   1.277   0.863  1.00  0.00     0.041 C 
HETATM    6  C14 UNL     1       5.861   0.872   1.484  1.00  0.00     0.030 C 
HETATM    7  C15 UNL     1       6.766   0.232   0.462  1.00  0.00     0.232 C 
HETATM    8  N3  UNL     1       6.097   0.050  -0.792  1.00  0.00    -0.075 N 
ATOM      9  H31 UNL     1       6.755   0.115  -1.569  1.00  0.00     0.277 HD
ATOM     10  H32 UNL     1       5.504   0.851  -1.009  1.00  0.00     0.277 HD
HETATM   11  C16 UNL     1       5.339  -1.190  -0.855  1.00  0.00     0.235 C 
HETATM   12  C17 UNL     1       4.446  -1.187   0.384  1.00  0.00     0.067 C 
HETATM   13  C18 UNL     1       2.460  -0.073   1.235  1.00  0.00     0.313 C 
ENDROOT
BRANCH   1  14
HETATM   14  C10 UNL     1       0.208  -0.638   0.567  1.00  0.00     0.302 C 
BRANCH  14  15
HETATM   15  C9  UNL     1      -0.554  -1.270  -0.520  1.00  0.00     0.005 C 
HETATM   16  C8  UNL     1      -1.436  -0.725  -1.301  1.00  0.00     0.015 C 
BRANCH  16  17
HETATM   17  C7  UNL     1      -1.822   0.669  -1.212  1.00  0.00     0.095 C 
BRANCH  17  18
HETATM   18  N1  UNL     1      -3.189   0.933  -0.926  1.00  0.00    -0.350 N 
HETATM   19  C6  UNL     1      -4.153   0.623  -1.898  1.00  0.00     0.072 C 
HETATM   20  C4  UNL     1      -5.263  -0.290  -1.502  1.00  0.00     0.021 C 
HETATM   21  C3  UNL     1      -5.346  -0.407   0.008  1.00  0.00     0.019 C 
HETATM   22  C5  UNL     1      -5.206  -1.616  -2.192  1.00  0.00     0.015 C 
HETATM   23  C2  UNL     1      -5.011   0.953   0.618  1.00  0.00     0.021 C 
HETATM   24  C1  UNL     1      -5.340   0.897   2.085  1.00  0.00     0.015 C 
HETATM   25  C19 UNL     1      -3.552   1.267   0.374  1.00  0.00     0.072 C 
ENDBRANCH  17  18
ENDBRANCH  16  17
ENDBRANCH  14  15
ENDBRANCH   1  14
TORSDOF 4
