REMARK  7 active torsions:
REMARK  status: ('A' for Active; 'I' for Inactive)
REMARK    1  A    between atoms: N1_2  and  C2_3 
REMARK    2  A    between atoms: C3_4  and  C4_5 
REMARK    3  A    between atoms: C4_5  and  C5_6 
REMARK    4  A    between atoms: C10_13  and  N3_14 
REMARK    5  A    between atoms: N3_14  and  C11_16 
REMARK    6  A    between atoms: C11_16  and  C12_17 
REMARK    7  A    between atoms: N4_22  and  C16_23 
ROOT
HETATM    1  C2  UNL     1      -1.539   0.929   0.105  1.00  0.00     0.203 A 
HETATM    2  C3  UNL     1      -2.044  -0.194  -0.588  1.00  0.00     0.024 A 
HETATM    3  C8  UNL     1      -1.232  -0.975  -1.375  1.00  0.00     0.034 A 
HETATM    4  C9  UNL     1      -1.702  -2.125  -2.180  1.00  0.00     0.069 C 
HETATM    5  N2  UNL     1       0.062  -0.622  -1.446  1.00  0.00    -0.195 N 
ATOM      6  H2  UNL     1       0.695  -1.178  -2.020  1.00  0.00     0.184 HD
HETATM    7  C10 UNL     1       0.548   0.442  -0.783  1.00  0.00     0.683 A 
HETATM    8  N4  UNL     1      -0.189   1.236  -0.011  1.00  0.00    -0.146 N 
ENDROOT
BRANCH   7   9
HETATM    9  N3  UNL     1       1.808   0.693  -0.925  1.00  0.00    -0.223 N 
ATOM     10  H3  UNL     1       2.163   1.504  -0.418  1.00  0.00     0.177 HD
BRANCH   9  11
HETATM   11  C11 UNL     1       2.757  -0.021  -1.700  1.00  0.00     0.170 C 
BRANCH  11  12
HETATM   12  C12 UNL     1       3.315  -1.203  -0.895  1.00  0.00     0.139 C 
HETATM   13  C13 UNL     1       4.289  -1.942  -1.744  1.00  0.00     0.035 C 
HETATM   14  C14 UNL     1       5.481  -2.092  -0.827  1.00  0.00     0.029 C 
HETATM   15  C15 UNL     1       5.275  -0.981   0.155  1.00  0.00     0.168 C 
HETATM   16  O1  UNL     1       3.920  -0.734   0.235  1.00  0.00    -0.384 OA
ENDBRANCH  11  12
ENDBRANCH   9  11
ENDBRANCH   7   9
BRANCH   8  17
HETATM   17  C16 UNL     1       0.272   2.381   0.729  1.00  0.00     0.046 C 
HETATM   18  C17 UNL     1      -0.377   3.683   0.302  1.00  0.00     0.039 C 
HETATM   19  C18 UNL     1       1.761   2.648   0.634  1.00  0.00     0.039 C 
HETATM   20  C19 UNL     1       0.041   2.207   2.235  1.00  0.00     0.039 C 
ENDBRANCH   8  17
BRANCH   1  21
HETATM   21  N1  UNL     1      -2.254   1.710   0.692  1.00  0.00    -0.410 NA
HETATM   22  C1  UNL     1      -3.273   2.389   1.241  1.00  0.00     0.231 C 
ENDBRANCH   1  21
BRANCH   2  23
HETATM   23  C4  UNL     1      -3.437  -0.636  -0.415  1.00  0.00     0.049 C 
BRANCH  23  24
HETATM   24  C5  UNL     1      -3.774  -1.542   0.697  1.00  0.00    -0.018 C 
HETATM   25  C6  UNL     1      -3.489  -1.143   2.095  1.00  0.00     0.010 C 
HETATM   26  C7  UNL     1      -3.319  -2.990   0.552  1.00  0.00     0.010 C 
ENDBRANCH  23  24
ENDBRANCH   2  23
TORSDOF 7
