REMARK  4 active torsions:
REMARK  status: ('A' for Active; 'I' for Inactive)
REMARK    1  A    between atoms: C2_2  and  C3_3 
REMARK    2  A    between atoms: C3_3  and  N1_6 
REMARK       I    between atoms: N1_6  and  C6_8 
REMARK    3  A    between atoms: C6_8  and  C7_10 
REMARK    4  A    between atoms: N2_15  and  C12_16 
ROOT
HETATM    1  C7  UNL     1       0.047  -0.513   0.846  1.00  0.00     0.177 C 
HETATM    2  C8  UNL     1      -1.103   0.247   0.186  1.00  0.00     0.047 C 
HETATM    3  C9  UNL     1      -2.308  -0.634   0.028  1.00  0.00    -0.006 C 
HETATM    4  C10 UNL     1      -2.317  -1.785   1.031  1.00  0.00     0.032 C 
HETATM    5  C11 UNL     1      -1.097  -2.635   1.039  1.00  0.00     0.125 C 
HETATM    6  N2  UNL     1       0.010  -1.871   0.435  1.00  0.00    -0.364 N 
HETATM    7  C13 UNL     1      -2.355  -1.264  -1.350  1.00  0.00     0.181 C 
HETATM    8  O2  UNL     1      -3.469  -0.747  -2.006  1.00  0.00    -0.360 OA
HETATM    9  C14 UNL     1      -4.438  -0.450  -1.090  1.00  0.00     0.264 C 
HETATM   10  O3  UNL     1      -5.227   0.636  -1.432  1.00  0.00    -0.360 OA
HETATM   11  C15 UNL     1      -5.249   1.512  -0.345  1.00  0.00     0.175 C 
HETATM   12  C16 UNL     1      -3.751   1.466   0.034  1.00  0.00     0.015 C 
HETATM   13  C17 UNL     1      -3.054   2.188  -1.043  1.00  0.00     0.012 C 
HETATM   14  C18 UNL     1      -3.611   0.013   0.121  1.00  0.00     0.057 C 
ENDROOT
BRANCH   1  15
HETATM   15  C6  UNL     1       1.327   0.198   0.763  1.00  0.00     0.241 C 
HETATM   16  N1  UNL     1       2.590  -0.396   0.762  1.00  0.00    -0.351 N 
ATOM     17  H1  UNL     1       2.631  -1.412   0.836  1.00  0.00     0.163 HD
HETATM   18  O1  UNL     1       1.327   1.490   0.686  1.00  0.00    -0.271 OA
BRANCH  16  19
HETATM   19  C3  UNL     1       3.846   0.315   0.664  1.00  0.00     0.025 C 
HETATM   20  C4  UNL     1       3.905   1.320   1.820  1.00  0.00     0.038 C 
HETATM   21  C5  UNL     1       5.008  -0.648   0.885  1.00  0.00     0.038 C 
BRANCH  19  22
HETATM   22  C2  UNL     1       3.990   1.043  -0.639  1.00  0.00     0.026 C 
HETATM   23  C1  UNL     1       5.311   1.779  -0.706  1.00  0.00     0.007 C 
ENDBRANCH  19  22
ENDBRANCH  16  19
ENDBRANCH   1  15
BRANCH   6  24
HETATM   24  C12 UNL     1       0.816  -2.577  -0.454  1.00  0.00     0.172 C 
HETATM   25  N3  UNL     1       1.056  -3.836  -0.320  1.00  0.00    -0.395 N 
ATOM     26  H32 UNL     1       0.632  -4.318   0.472  1.00  0.00     0.156 HD
ATOM     27  H31 UNL     1       1.646  -4.353  -0.971  1.00  0.00     0.156 HD
ENDBRANCH   6  24
TORSDOF 4
