REMARK  9 active torsions:
REMARK  status: ('A' for Active; 'I' for Inactive)
REMARK    1  A    between atoms: C2_2  and  C3_3 
REMARK    2  A    between atoms: C3_3  and  C4_4 
REMARK    3  A    between atoms: C3_3  and  N2_12 
REMARK    4  A    between atoms: C4_4  and  N1_5 
REMARK       I    between atoms: N2_12  and  C11_14 
REMARK    5  A    between atoms: C11_14  and  C12_16 
REMARK    6  A    between atoms: C12_16  and  O2_17 
REMARK    7  A    between atoms: O2_17  and  C13_18 
REMARK    8  A    between atoms: C13_18  and  C14_20 
REMARK    9  A    between atoms: C14_20  and  O4_21 
ROOT
HETATM    1  N2  UNL     1      -0.309  -0.561  -1.238  1.00  0.00    -0.353 N 
ATOM      2  H2  UNL     1      -0.577  -0.169  -2.141  1.00  0.00     0.163 HD
HETATM    3  C11 UNL     1       1.037  -0.490  -0.812  1.00  0.00     0.242 C 
HETATM    4  O1  UNL     1       1.352  -0.980   0.307  1.00  0.00    -0.271 OA
ENDROOT
BRANCH   1   5
HETATM    5  C3  UNL     1      -1.341  -1.208  -0.372  1.00  0.00     0.112 C 
BRANCH   5   6
HETATM    6  C2  UNL     1      -1.742  -2.437  -1.067  1.00  0.00     0.022 C 
HETATM    7  C1  UNL     1      -2.681  -3.334  -0.316  1.00  0.00     0.007 C 
ENDBRANCH   5   6
BRANCH   5   8
HETATM    8  C4  UNL     1      -2.268  -0.137  -0.003  1.00  0.00     0.297 C 
BRANCH   8   9
HETATM    9  N1  UNL     1      -3.401  -0.319   0.826  1.00  0.00     0.094 N 
HETATM   10  C5  UNL     1      -3.587   1.038   1.460  1.00  0.00     0.273 C 
HETATM   11  C6  UNL     1      -3.604   2.112   0.445  1.00  0.00     0.030 C 
HETATM   12  C7  UNL     1      -4.661   1.946  -0.620  1.00  0.00     0.004 C 
HETATM   13  C8  UNL     1      -4.847   0.512  -1.016  1.00  0.00     0.035 C 
HETATM   14  C9  UNL     1      -4.671  -0.463   0.112  1.00  0.00     0.219 C 
HETATM   15  C10 UNL     1      -5.788  -0.253   1.148  1.00  0.00     0.043 C 
ENDBRANCH   8   9
ENDBRANCH   5   8
ENDBRANCH   1   5
BRANCH   3  16
HETATM   16  C12 UNL     1       2.049   0.151  -1.673  1.00  0.00     0.281 C 
BRANCH  16  17
HETATM   17  O2  UNL     1       3.341   0.176  -1.165  1.00  0.00    -0.310 OA
BRANCH  17  18
HETATM   18  C13 UNL     1       3.673   0.812  -0.004  1.00  0.00     0.294 C 
HETATM   19  O3  UNL     1       2.851   1.422   0.693  1.00  0.00    -0.262 OA
BRANCH  18  20
HETATM   20  C14 UNL     1       5.083   0.791   0.479  1.00  0.00     0.145 C 
HETATM   21  C15 UNL     1       5.575  -0.636   0.649  1.00  0.00     0.048 C 
HETATM   22  C16 UNL     1       7.057  -0.549   0.442  1.00  0.00     0.004 C 
HETATM   23  C17 UNL     1       7.369   0.826  -0.069  1.00  0.00     0.004 C 
HETATM   24  C18 UNL     1       6.029   1.326  -0.562  1.00  0.00     0.048 C 
BRANCH  20  25
HETATM   25  O4  UNL     1       5.263   1.465   1.663  1.00  0.00    -0.380 OA
ATOM     26  H4  UNL     1       6.162   1.452   1.971  1.00  0.00     0.211 HD
ENDBRANCH  20  25
ENDBRANCH  18  20
ENDBRANCH  17  18
ENDBRANCH  16  17
ENDBRANCH   3  16
TORSDOF 9
