REMARK  8 active torsions:
REMARK  status: ('A' for Active; 'I' for Inactive)
REMARK    1  A    between atoms: C2_2  and  C3_3 
REMARK    2  A    between atoms: C3_3  and  C5_5 
REMARK       I    between atoms: C5_5  and  N1_7 
REMARK    3  A    between atoms: N1_7  and  C6_9 
REMARK    4  A    between atoms: C6_9  and  C7_10 
REMARK    5  A    between atoms: C6_9  and  C15_24 
REMARK       I    between atoms: C7_10  and  N2_12 
REMARK    6  A    between atoms: N2_12  and  C8_14 
REMARK    7  A    between atoms: C8_14  and  C9_15 
REMARK    8  A    between atoms: C11_17  and  C12_18 
ROOT
HETATM    1  C7  UNL     1       0.060   0.100  -1.279  1.00  0.00     0.241 C 
HETATM    2  O2  UNL     1       0.361   1.182  -0.680  1.00  0.00    -0.271 OA
HETATM    3  N2  UNL     1       1.085  -0.498  -2.055  1.00  0.00    -0.354 N 
ATOM      4  H2  UNL     1       0.888  -1.367  -2.552  1.00  0.00     0.162 HD
ENDROOT
BRANCH   1   5
HETATM    5  C6  UNL     1      -1.298  -0.411  -1.113  1.00  0.00     0.181 C 
BRANCH   5   6
HETATM    6  N1  UNL     1      -2.092   0.513  -0.309  1.00  0.00    -0.347 N 
HETATM    7  C5  UNL     1      -3.180   1.240  -0.819  1.00  0.00     0.222 C 
HETATM    8  O1  UNL     1      -3.533   1.131  -2.022  1.00  0.00    -0.273 OA
ATOM      9  H1  UNL     1      -1.844   0.637   0.673  1.00  0.00     0.163 HD
BRANCH   7  10
HETATM   10  C3  UNL     1      -3.939   2.160   0.062  1.00  0.00     0.073 C 
HETATM   11  C4  UNL     1      -4.519   1.381   1.207  1.00  0.00     0.020 C 
BRANCH  10  12
HETATM   12  C2  UNL     1      -5.060   2.843  -0.723  1.00  0.00     0.009 C 
HETATM   13  C1  UNL     1      -5.773   3.763   0.234  1.00  0.00     0.006 C 
ENDBRANCH  10  12
ENDBRANCH   7  10
ENDBRANCH   5   6
BRANCH   5  14
HETATM   14  C15 UNL     1      -1.427  -1.812  -0.626  1.00  0.00     0.021 A 
HETATM   15  C16 UNL     1      -0.971  -1.974   0.829  1.00  0.00     0.012 A 
HETATM   16  C17 UNL     1      -0.339  -2.746  -0.367  1.00  0.00    -0.012 A 
HETATM   17  C18 UNL     1      -0.663  -4.243  -0.399  1.00  0.00     0.010 C 
ENDBRANCH   5  14
ENDBRANCH   1   5
BRANCH   3  18
HETATM   18  C8  UNL     1       2.380   0.080  -2.160  1.00  0.00     0.181 C 
BRANCH  18  19
HETATM   19  C9  UNL     1       3.175  -0.132  -0.925  1.00  0.00     0.052 A 
HETATM   20  C10 UNL     1       4.552   0.083  -0.804  1.00  0.00     0.064 A 
HETATM   21  C11 UNL     1       4.924  -0.216   0.491  1.00  0.00     0.082 A 
HETATM   22  O3  UNL     1       3.837  -0.584   1.096  1.00  0.00    -0.242 OA
HETATM   23  N3  UNL     1       2.814  -0.543   0.299  1.00  0.00    -0.264 N 
ATOM     24  H3  UNL     1       1.862  -0.791   0.568  1.00  0.00     0.194 HD
BRANCH  21  25
HETATM   25  C12 UNL     1       6.293  -0.130   1.058  1.00  0.00     0.045 A 
HETATM   26  C13 UNL     1       6.644  -1.187   2.082  1.00  0.00     0.012 A 
HETATM   27  C14 UNL     1       6.513   0.264   2.474  1.00  0.00     0.012 A 
ENDBRANCH  21  25
ENDBRANCH  18  19
ENDBRANCH   3  18
TORSDOF 8
