REMARK  10 active torsions:
REMARK  status: ('A' for Active; 'I' for Inactive)
REMARK    1  A    between atoms: C2_2  and  O1_3 
REMARK    2  A    between atoms: O1_3  and  C3_4 
REMARK    3  A    between atoms: C3_4  and  C4_5 
REMARK       I    between atoms: C4_5  and  N1_7 
REMARK    4  A    between atoms: N1_7  and  C5_9 
REMARK    5  A    between atoms: C5_9  and  C6_10 
REMARK    6  A    between atoms: C5_9  and  C13_17 
REMARK    7  A    between atoms: C6_10  and  C7_11 
REMARK    8  A    between atoms: C13_17  and  O3_18 
REMARK    9  A    between atoms: C13_17  and  N2_20 
REMARK   10  A    between atoms: N2_20  and  C15_22 
ROOT
HETATM    1  C5  UNL     1       0.005   0.189  -0.698  1.00  0.00     0.048 C 
ENDROOT
BRANCH   1   2
HETATM    2  N1  UNL     1      -0.726   1.392  -0.656  1.00  0.00    -0.328 N 
HETATM    3  C4  UNL     1      -1.421   2.067   0.336  1.00  0.00     0.245 C 
HETATM    4  O2  UNL     1      -1.470   1.628   1.493  1.00  0.00    -0.271 OA
ATOM      5  H1  UNL     1      -0.749   1.874  -1.555  1.00  0.00     0.168 HD
BRANCH   3   6
HETATM    6  C3  UNL     1      -2.127   3.333   0.056  1.00  0.00     0.270 C 
BRANCH   6   7
HETATM    7  O1  UNL     1      -2.826   3.872   1.088  1.00  0.00    -0.382 OA
BRANCH   7   8
HETATM    8  C2  UNL     1      -3.870   3.180   1.608  1.00  0.00     0.163 C 
HETATM    9  C1  UNL     1      -4.959   2.885   0.583  1.00  0.00     0.033 C 
ENDBRANCH   7   8
ENDBRANCH   6   7
ENDBRANCH   3   6
ENDBRANCH   1   2
BRANCH   1  10
HETATM   10  C6  UNL     1      -0.353  -0.803   0.381  1.00  0.00     0.061 C 
BRANCH  10  11
HETATM   11  C7  UNL     1      -1.733  -1.354   0.370  1.00  0.00    -0.009 C 
HETATM   12  C8  UNL     1      -2.116  -2.129  -0.868  1.00  0.00     0.005 C 
HETATM   13  C9  UNL     1      -1.707  -3.584  -0.797  1.00  0.00     0.000 C 
HETATM   14  C10 UNL     1      -2.685  -4.241   0.177  1.00  0.00     0.000 C 
HETATM   15  C11 UNL     1      -3.018  -3.228   1.278  1.00  0.00     0.000 C 
HETATM   16  C12 UNL     1      -1.769  -2.416   1.505  1.00  0.00     0.005 C 
ENDBRANCH  10  11
ENDBRANCH   1  10
BRANCH   1  17
HETATM   17  C13 UNL     1       1.446   0.238  -1.020  1.00  0.00     0.403 C 
BRANCH  17  18
HETATM   18  O3  UNL     1       1.678   0.797  -2.278  1.00  0.00    -0.363 OA
ATOM     19  H3  UNL     1       2.605   0.829  -2.485  1.00  0.00     0.212 HD
ENDBRANCH  17  18
BRANCH  17  20
HETATM   20  N2  UNL     1       2.323   0.739   0.006  1.00  0.00     0.123 N 
HETATM   21  C14 UNL     1       2.090   2.090   0.374  1.00  0.00     0.314 C 
BRANCH  20  22
HETATM   22  C15 UNL     1       3.678   0.600  -0.519  1.00  0.00     0.226 C 
HETATM   23  C16 UNL     1       4.004  -0.861  -0.778  1.00  0.00     0.036 C 
HETATM   24  C17 UNL     1       5.499  -0.958  -0.694  1.00  0.00     0.002 C 
HETATM   25  C18 UNL     1       5.996   0.363  -0.170  1.00  0.00     0.002 C 
HETATM   26  C19 UNL     1       4.740   0.995   0.444  1.00  0.00     0.036 C 
ENDBRANCH  20  22
ENDBRANCH  17  20
ENDBRANCH   1  17
TORSDOF 10
