REMARK  10 active torsions:
REMARK  status: ('A' for Active; 'I' for Inactive)
REMARK    1  A    between atoms: N4_14  and  C7_15 
REMARK    2  A    between atoms: C7_15  and  C8_16 
REMARK    3  A    between atoms: C8_16  and  N5_17 
REMARK    4  A    between atoms: N5_17  and  C9_18 
REMARK    5  A    between atoms: N5_17  and  C15_24 
REMARK    6  A    between atoms: C9_18  and  C10_19 
REMARK    7  A    between atoms: C11_20  and  C12_21 
REMARK    8  A    between atoms: C12_21  and  C13_22 
REMARK    9  A    between atoms: C15_24  and  C16_25 
REMARK   10  A    between atoms: C16_25  and  C17_26 
ROOT
HETATM    1  C1  UNL     1       7.526   0.181   1.146  1.00  0.00     0.045 C 
HETATM    2  C2  UNL     1       6.492   0.606   0.461  1.00  0.00     0.057 A 
HETATM    3  N1  UNL     1       6.544   1.804  -0.295  1.00  0.00    -0.307 N 
ATOM      4  H1  UNL     1       7.400   2.358  -0.319  1.00  0.00     0.170 HD
HETATM    5  C3  UNL     1       5.389   2.232  -1.024  1.00  0.00     0.326 A 
HETATM    6  O1  UNL     1       5.450   3.304  -1.697  1.00  0.00    -0.247 OA
HETATM    7  N2  UNL     1       4.183   1.492  -1.017  1.00  0.00    -0.292 N 
ATOM      8  H2  UNL     1       3.369   1.811  -1.543  1.00  0.00     0.172 HD
HETATM    9  C4  UNL     1       4.136   0.287  -0.254  1.00  0.00     0.142 A 
HETATM   10  C5  UNL     1       5.227  -0.140   0.450  1.00  0.00     0.104 A 
HETATM   11  N3  UNL     1       4.916  -1.292   1.076  1.00  0.00    -0.347 N 
ATOM     12  H3  UNL     1       5.529  -1.846   1.674  1.00  0.00     0.167 HD
HETATM   13  C6  UNL     1       3.637  -1.570   0.758  1.00  0.00     0.185 A 
HETATM   14  N4  UNL     1       3.154  -0.618  -0.049  1.00  0.00    -0.326 N 
ENDROOT
BRANCH  14  15
HETATM   15  C7  UNL     1       1.802  -0.555  -0.624  1.00  0.00     0.161 C 
BRANCH  15  16
HETATM   16  C8  UNL     1       0.976   0.233   0.339  1.00  0.00     0.293 C 
BRANCH  16  17
HETATM   17  N5  UNL     1      -0.378   0.408  -0.081  1.00  0.00     0.100 N 
BRANCH  17  18
HETATM   18  C9  UNL     1      -1.099   1.239   0.875  1.00  0.00     0.365 C 
BRANCH  18  19
HETATM   19  C10 UNL     1      -2.454   1.411   0.349  1.00  0.00    -0.076 C 
HETATM   20  C11 UNL     1      -3.558   1.571  -0.102  1.00  0.00    -0.105 C 
BRANCH  20  21
HETATM   21  C12 UNL     1      -4.904   1.793  -0.671  1.00  0.00     0.093 C 
BRANCH  21  22
HETATM   22  C13 UNL     1      -5.287   3.266  -0.469  1.00  0.00     0.007 C 
HETATM   23  C14 UNL     1      -6.649   3.538  -1.046  1.00  0.00     0.006 C 
ENDBRANCH  21  22
ENDBRANCH  20  21
ENDBRANCH  18  19
ENDBRANCH  17  18
BRANCH  17  24
HETATM   24  C15 UNL     1      -1.097  -0.787  -0.396  1.00  0.00     0.274 C 
BRANCH  24  25
HETATM   25  C16 UNL     1      -1.396  -1.673   0.792  1.00  0.00     0.034 C 
BRANCH  25  26
HETATM   26  C17 UNL     1      -2.167  -2.864   0.232  1.00  0.00    -0.021 C 
HETATM   27  C18 UNL     1      -2.547  -3.853   1.295  1.00  0.00     0.009 C 
HETATM   28  C19 UNL     1      -1.265  -3.608  -0.757  1.00  0.00     0.009 C 
ENDBRANCH  25  26
ENDBRANCH  24  25
ENDBRANCH  17  24
ENDBRANCH  16  17
ENDBRANCH  15  16
ENDBRANCH  14  15
TORSDOF 10
