REMARK  8 active torsions:
REMARK  status: ('A' for Active; 'I' for Inactive)
REMARK    1  A    between atoms: C2_2  and  C3_3 
REMARK    2  A    between atoms: C3_3  and  C4_4 
REMARK    3  A    between atoms: C4_4  and  C5_5 
REMARK    4  A    between atoms: C5_5  and  C6_6 
REMARK    5  A    between atoms: C5_5  and  C12_16 
REMARK    6  A    between atoms: C6_6  and  N1_7 
REMARK       I    between atoms: N1_7  and  C7_9 
REMARK    7  A    between atoms: C7_9  and  C8_11 
REMARK       I    between atoms: C12_16  and  N2_18 
REMARK    8  A    between atoms: N2_18  and  C13_20 
ROOT
HETATM    1  C5  UNL     1      -0.488   0.132   1.237  1.00  0.00     0.027 C 
ENDROOT
BRANCH   1   2
HETATM    2  C4  UNL     1      -0.485   1.561   1.075  1.00  0.00     0.010 C 
BRANCH   2   3
HETATM    3  C3  UNL     1       0.172   2.416   0.116  1.00  0.00    -0.026 C 
BRANCH   3   4
HETATM    4  C2  UNL     1       1.648   2.594   0.096  1.00  0.00     0.022 C 
HETATM    5  C1  UNL     1       1.982   3.613  -1.039  1.00  0.00     0.009 C 
ENDBRANCH   3   4
ENDBRANCH   2   3
ENDBRANCH   1   2
BRANCH   1   6
HETATM    6  C6  UNL     1       0.663  -0.738   1.462  1.00  0.00     0.166 C 
BRANCH   6   7
HETATM    7  N1  UNL     1       1.663  -0.877   0.451  1.00  0.00    -0.354 N 
HETATM    8  C7  UNL     1       2.830  -1.673   0.616  1.00  0.00     0.246 C 
HETATM    9  O1  UNL     1       2.981  -2.277   1.704  1.00  0.00    -0.271 OA
ATOM     10  H1  UNL     1       1.534  -0.382  -0.431  1.00  0.00     0.162 HD
BRANCH   8  11
HETATM   11  C8  UNL     1       3.866  -1.819  -0.430  1.00  0.00     0.213 C 
HETATM   12  C9  UNL     1       4.434  -0.457  -0.730  1.00  0.00     0.043 C 
HETATM   13  C10 UNL     1       5.908  -0.678  -0.743  1.00  0.00     0.029 C 
HETATM   14  C11 UNL     1       6.083  -2.054  -0.207  1.00  0.00     0.168 C 
HETATM   15  O2  UNL     1       4.871  -2.635  -0.014  1.00  0.00    -0.376 OA
ENDBRANCH   8  11
ENDBRANCH   6   7
ENDBRANCH   1   6
BRANCH   1  16
HETATM   16  C12 UNL     1      -1.414  -0.514   0.187  1.00  0.00     0.249 C 
HETATM   17  O3  UNL     1      -0.995  -1.326  -0.642  1.00  0.00    -0.268 OA
HETATM   18  N2  UNL     1      -2.763  -0.134   0.218  1.00  0.00    -0.352 N 
ATOM     19  H2  UNL     1      -3.070   0.540   0.920  1.00  0.00     0.163 HD
BRANCH  18  20
HETATM   20  C13 UNL     1      -3.751  -0.675  -0.729  1.00  0.00     0.086 C 
HETATM   21  C14 UNL     1      -4.731  -1.471   0.099  1.00  0.00     0.035 C 
HETATM   22  C15 UNL     1      -5.593  -2.375  -0.755  1.00  0.00     0.076 C 
HETATM   23  S1  UNL     1      -6.248  -1.319  -2.105  1.00  0.00    -0.169 SA
HETATM   24  C16 UNL     1      -5.856   0.396  -1.585  1.00  0.00     0.076 C 
HETATM   25  C17 UNL     1      -4.358   0.470  -1.453  1.00  0.00     0.035 C 
ENDBRANCH  18  20
ENDBRANCH   1  16
TORSDOF 8
