REMARK  7 active torsions:
REMARK  status: ('A' for Active; 'I' for Inactive)
REMARK    1  A    between atoms: C2_2  and  C3_3 
REMARK    2  A    between atoms: C3_3  and  C4_4 
REMARK    3  A    between atoms: C4_4  and  N1_5 
REMARK       I    between atoms: N1_5  and  C5_7 
REMARK    4  A    between atoms: C5_7  and  C6_9 
REMARK    5  A    between atoms: C6_9  and  C7_10 
REMARK       I    between atoms: C7_10  and  N2_12 
REMARK    6  A    between atoms: N2_12  and  C8_14 
REMARK    7  A    between atoms: N3_20  and  C13_21 
ROOT
HETATM    1  C6  UNL     1      -0.551   0.680   0.213  1.00  0.00     0.130 C 
HETATM    2  C11 UNL     1       0.044  -0.073  -0.944  1.00  0.00     0.074 C 
HETATM    3  C12 UNL     1       1.479   0.234  -1.205  1.00  0.00     0.065 C 
HETATM    4  N3  UNL     1       2.272   0.490  -0.075  1.00  0.00    -0.369 N 
HETATM    5  C19 UNL     1       1.790   1.534   0.720  1.00  0.00     0.065 C 
HETATM    6  C20 UNL     1       0.382   1.308   1.159  1.00  0.00     0.074 C 
ENDROOT
BRANCH   1   7
HETATM    7  C5  UNL     1      -1.378  -0.332   0.972  1.00  0.00     0.236 C 
HETATM    8  N1  UNL     1      -2.189  -1.270   0.283  1.00  0.00    -0.360 N 
ATOM      9  H1  UNL     1      -2.223  -1.269  -0.736  1.00  0.00     0.162 HD
HETATM   10  O1  UNL     1      -1.320  -0.311   2.225  1.00  0.00    -0.272 OA
BRANCH   8  11
HETATM   11  C4  UNL     1      -2.960  -2.219   1.029  1.00  0.00     0.122 C 
BRANCH  11  12
HETATM   12  C3  UNL     1      -3.740  -3.158   0.140  1.00  0.00     0.019 C 
BRANCH  12  13
HETATM   13  C2  UNL     1      -4.515  -4.123   1.008  1.00  0.00    -0.003 C 
HETATM   14  C1  UNL     1      -5.317  -5.098   0.146  1.00  0.00     0.005 C 
ENDBRANCH  12  13
ENDBRANCH  11  12
ENDBRANCH   8  11
ENDBRANCH   1   7
BRANCH   1  15
HETATM   15  C7  UNL     1      -1.489   1.711  -0.302  1.00  0.00     0.237 C 
HETATM   16  O2  UNL     1      -2.738   1.586  -0.091  1.00  0.00    -0.272 OA
HETATM   17  N2  UNL     1      -1.004   2.835  -1.029  1.00  0.00    -0.338 N 
ATOM     18  H2  UNL     1       0.001   2.905  -1.186  1.00  0.00     0.164 HD
BRANCH  17  19
HETATM   19  C8  UNL     1      -1.842   3.877  -1.555  1.00  0.00     0.102 C 
HETATM   20  C9  UNL     1      -2.626   4.589  -0.471  1.00  0.00     0.056 C 
HETATM   21  C10 UNL     1      -2.787   3.371  -2.619  1.00  0.00     0.056 C 
HETATM   22 CL1  UNL     1      -0.831   5.127  -2.345  1.00  0.00    -0.096 Cl
ENDBRANCH  17  19
ENDBRANCH   1  15
BRANCH   4  23
HETATM   23  C13 UNL     1       3.646   0.297  -0.287  1.00  0.00     0.088 C 
HETATM   24  C14 UNL     1       3.931  -1.156  -0.544  1.00  0.00     0.026 C 
HETATM   25  C15 UNL     1       4.543  -1.889   0.624  1.00  0.00     0.002 C 
HETATM   26  C16 UNL     1       5.727  -1.090   1.108  1.00  0.00     0.000 C 
HETATM   27  C17 UNL     1       5.103   0.152   1.777  1.00  0.00     0.002 C 
HETATM   28  C18 UNL     1       4.589   0.987   0.632  1.00  0.00     0.026 C 
ENDBRANCH   4  23
TORSDOF 7
