REMARK  8 active torsions:
REMARK  status: ('A' for Active; 'I' for Inactive)
REMARK    1  A    between atoms: C2_2  and  C3_3 
REMARK    2  A    between atoms: C3_3  and  C5_5 
REMARK    3  A    between atoms: C5_5  and  C6_6 
REMARK    4  A    between atoms: C5_5  and  N2_9 
REMARK    5  A    between atoms: C10_13  and  C12_15 
REMARK       I    between atoms: C12_15  and  N3_17 
REMARK    6  A    between atoms: N3_17  and  C13_19 
REMARK    7  A    between atoms: C13_19  and  C18_25 
REMARK    8  A    between atoms: C14_20  and  C15_21 
ROOT
HETATM    1  N2  UNL     1       1.597  -0.512   0.868  1.00  0.00    -0.362 N 
HETATM    2  C7  UNL     1       1.786   0.384   1.915  1.00  0.00     0.060 C 
HETATM    3  C8  UNL     1       1.202  -0.245   3.141  1.00  0.00     0.047 C 
HETATM    4  C9  UNL     1       0.597  -1.528   2.673  1.00  0.00     0.046 C 
HETATM    5  C10 UNL     1       0.665  -1.505   1.137  1.00  0.00     0.110 C 
HETATM    6  C11 UNL     1       1.001  -2.915   0.727  1.00  0.00     0.049 C 
ENDROOT
BRANCH   5   7
HETATM    7  C12 UNL     1      -0.734  -1.238   0.689  1.00  0.00     0.250 C 
HETATM    8  O2  UNL     1      -1.552  -2.155   0.932  1.00  0.00    -0.270 OA
HETATM    9  N3  UNL     1      -1.137  -0.072   0.049  1.00  0.00    -0.329 N 
ATOM     10  H3  UNL     1      -0.436   0.649  -0.122  1.00  0.00     0.168 HD
BRANCH   9  11
HETATM   11  C13 UNL     1      -2.530   0.184  -0.400  1.00  0.00     0.013 C 
HETATM   12  C14 UNL     1      -3.058   1.186   0.204  1.00  0.00     0.023 C 
BRANCH  12  13
HETATM   13  C15 UNL     1      -4.314   1.901   0.211  1.00  0.00     0.049 C 
HETATM   14  C16 UNL     1      -4.213   2.985   1.349  1.00  0.00     0.036 C 
HETATM   15  C17 UNL     1      -5.539   1.124   0.589  1.00  0.00     0.036 C 
HETATM   16 CL1  UNL     1      -4.659   2.861  -1.244  1.00  0.00    -0.116 Cl
ENDBRANCH  12  13
BRANCH  11  17
HETATM   17  C18 UNL     1      -3.001  -0.721  -1.409  1.00  0.00     0.027 C 
HETATM   18  C19 UNL     1      -4.381  -0.803  -1.886  1.00  0.00     0.016 C 
HETATM   19  C20 UNL     1      -2.120  -0.606  -2.699  1.00  0.00     0.016 C 
ENDBRANCH  11  17
ENDBRANCH   9  11
ENDBRANCH   5   7
BRANCH   1  20
HETATM   20  C5  UNL     1       2.530  -0.625  -0.178  1.00  0.00     0.177 C 
BRANCH  20  21
HETATM   21  C3  UNL     1       2.688   0.619  -1.003  1.00  0.00     0.013 C 
HETATM   22  C4  UNL     1       3.267   0.274  -2.373  1.00  0.00     0.012 C 
BRANCH  21  23
HETATM   23  C2  UNL     1       3.435   1.751  -0.440  1.00  0.00     0.002 C 
HETATM   24  C1  UNL     1       4.901   1.585  -0.207  1.00  0.00     0.005 C 
ENDBRANCH  21  23
ENDBRANCH  20  21
BRANCH  20  25
HETATM   25  C6  UNL     1       3.804  -1.277   0.196  1.00  0.00     0.254 C 
HETATM   26  N1  UNL     1       4.819  -1.631  -0.732  1.00  0.00    -0.060 NA
HETATM   27  O1  UNL     1       4.078  -1.573   1.411  1.00  0.00    -0.275 OA
ENDBRANCH  20  25
ENDBRANCH   1  20
TORSDOF 8
