REMARK  8 active torsions:
REMARK  status: ('A' for Active; 'I' for Inactive)
REMARK    1  A    between atoms: C1_2  and  C2_3 
REMARK       I    between atoms: C1_2  and  N1_7 
REMARK    2  A    between atoms: C2_3  and  C3_4 
REMARK    3  A    between atoms: C3_4  and  C4_5 
REMARK    4  A    between atoms: N1_7  and  C5_9 
REMARK    5  A    between atoms: C8_12  and  C9_13 
REMARK    6  A    between atoms: C9_13  and  C10_14 
REMARK    7  A    between atoms: C10_14  and  N2_15 
REMARK    8  A    between atoms: C12_17  and  O2_18 
ROOT
HETATM    1  C5  UNL     1       3.258   0.020  -0.357  1.00  0.00     0.084 C 
HETATM    2  C6  UNL     1       2.629  -0.306  -1.687  1.00  0.00     0.025 C 
HETATM    3  C7  UNL     1       1.124  -0.161  -1.657  1.00  0.00     0.007 C 
HETATM    4  C8  UNL     1       0.640  -1.147  -0.602  1.00  0.00    -0.013 C 
HETATM    5  C20 UNL     1       1.059  -0.597   0.722  1.00  0.00     0.007 C 
HETATM    6  C21 UNL     1       2.550  -0.599   0.803  1.00  0.00     0.025 C 
ENDROOT
BRANCH   4   7
HETATM    7  C9  UNL     1      -0.843  -1.383  -0.712  1.00  0.00     0.024 C 
BRANCH   7   8
HETATM    8  C10 UNL     1      -1.639  -0.105  -0.525  1.00  0.00     0.117 C 
BRANCH   8   9
HETATM    9  N2  UNL     1      -3.017  -0.416  -0.650  1.00  0.00    -0.405 N 
HETATM   10  C11 UNL     1      -3.601  -1.217   0.360  1.00  0.00     0.155 C 
HETATM   11  C12 UNL     1      -5.009  -0.877   0.723  1.00  0.00     0.077 C 
HETATM   12  C13 UNL     1      -4.939   0.246   1.752  1.00  0.00     0.044 C 
HETATM   13  C18 UNL     1      -5.883  -0.425  -0.388  1.00  0.00     0.024 C 
HETATM   14  C14 UNL     1      -5.251   1.443   0.857  1.00  0.00    -0.009 C 
HETATM   15  C15 UNL     1      -4.118   1.705  -0.071  1.00  0.00     0.029 C 
HETATM   16  C19 UNL     1      -6.488   0.884   0.140  1.00  0.00     0.012 C 
HETATM   17  C16 UNL     1      -3.845   0.673  -1.100  1.00  0.00     0.080 C 
HETATM   18  C17 UNL     1      -5.117   0.006  -1.643  1.00  0.00     0.032 C 
BRANCH  11  19
HETATM   19  O2  UNL     1      -5.539  -1.996   1.402  1.00  0.00    -0.388 OA
ATOM     20  H2  UNL     1      -6.435  -1.780   1.633  1.00  0.00     0.210 HD
ENDBRANCH  11  19
ENDBRANCH   8   9
ENDBRANCH   7   8
ENDBRANCH   4   7
BRANCH   1  21
HETATM   21  N1  UNL     1       4.611  -0.501  -0.398  1.00  0.00    -0.356 N 
HETATM   22  C1  UNL     1       5.726   0.407  -0.294  1.00  0.00     0.217 C 
HETATM   23  O1  UNL     1       5.454   1.648  -0.167  1.00  0.00    -0.274 OA
ATOM     24  H1  UNL     1       4.773  -1.503  -0.500  1.00  0.00     0.162 HD
BRANCH  22  25
HETATM   25  C2  UNL     1       7.074  -0.153  -0.341  1.00  0.00     0.104 C 
BRANCH  25  26
HETATM   26  C3  UNL     1       8.142   0.855  -0.053  1.00  0.00     0.024 C 
BRANCH  26  27
HETATM   27  C4  UNL     1       8.014   1.383   1.336  1.00  0.00     0.115 C 
HETATM   28 CL1  UNL     1       9.311   2.589   1.650  1.00  0.00    -0.130 Cl
ENDBRANCH  26  27
ENDBRANCH  25  26
ENDBRANCH  22  25
ENDBRANCH   1  21
TORSDOF 8
