REMARK  7 active torsions:
REMARK  status: ('A' for Active; 'I' for Inactive)
REMARK    1  A    between atoms: C4_7  and  C5_8 
REMARK    2  A    between atoms: C5_8  and  C6_9 
REMARK    3  A    between atoms: C6_9  and  N2_10 
REMARK    4  A    between atoms: C9_13  and  C10_14 
REMARK    5  A    between atoms: C10_14  and  C11_15 
REMARK    6  A    between atoms: C11_15  and  C12_16 
REMARK    7  A    between atoms: C12_16  and  C13_17 
ROOT
HETATM    1  N2  UNL     1       2.403  -0.697  -0.210  1.00  0.00    -0.343 N 
HETATM    2  C7  UNL     1       2.043   0.642  -0.381  1.00  0.00     0.066 C 
HETATM    3  C8  UNL     1       0.671   0.769  -0.943  1.00  0.00     0.049 C 
HETATM    4  C9  UNL     1      -0.265  -0.403  -0.488  1.00  0.00    -0.005 C 
HETATM    5  C21 UNL     1       0.288  -0.699   0.893  1.00  0.00     0.064 C 
HETATM    6  C22 UNL     1       1.591  -1.487   0.642  1.00  0.00     0.274 C 
HETATM    7  F1  UNL     1       1.235  -2.641  -0.072  1.00  0.00    -0.227 F 
ENDROOT
BRANCH   4   8
HETATM    8  C10 UNL     1      -1.642   0.138  -0.544  1.00  0.00     0.014 C 
BRANCH   8   9
HETATM    9  C11 UNL     1      -2.834  -0.650  -0.283  1.00  0.00    -0.037 C 
HETATM   10  C17 UNL     1      -3.030  -1.772  -1.344  1.00  0.00     0.037 C 
HETATM   11  C18 UNL     1      -3.386  -3.092  -0.760  1.00  0.00     0.233 C 
HETATM   12  N3  UNL     1      -4.487  -2.985   0.148  1.00  0.00    -0.075 N 
HETATM   13  C19 UNL     1      -4.256  -2.053   1.188  1.00  0.00     0.233 C 
ATOM     14  H32 UNL     1      -5.350  -2.769  -0.350  1.00  0.00     0.277 HD
ATOM     15  H31 UNL     1      -4.738  -3.899   0.526  1.00  0.00     0.277 HD
HETATM   16  C20 UNL     1      -2.889  -1.371   1.025  1.00  0.00     0.037 C 
BRANCH   9  17
HETATM   17  C12 UNL     1      -4.078   0.192  -0.450  1.00  0.00     0.014 C 
BRANCH  17  18
HETATM   18  C13 UNL     1      -4.327   1.368   0.350  1.00  0.00    -0.014 C 
HETATM   19  C14 UNL     1      -3.466   2.577   0.348  1.00  0.00     0.005 C 
HETATM   20  C15 UNL     1      -4.716   3.482   0.230  1.00  0.00     0.001 C 
HETATM   21  C16 UNL     1      -5.409   2.247  -0.324  1.00  0.00     0.005 C 
ENDBRANCH  17  18
ENDBRANCH   9  17
ENDBRANCH   8   9
ENDBRANCH   4   8
BRANCH   1  22
HETATM   22  C6  UNL     1       3.713  -1.140  -0.455  1.00  0.00     0.067 C 
BRANCH  22  23
HETATM   23  C5  UNL     1       4.811  -0.726   0.421  1.00  0.00     0.059 C 
BRANCH  23  24
HETATM   24  C4  UNL     1       5.175   0.676   0.592  1.00  0.00     0.084 C 
HETATM   25  C1  UNL     1       6.341   0.712   1.563  1.00  0.00     0.222 C 
HETATM   26  O1  UNL     1       6.296   0.812   2.810  1.00  0.00    -0.273 OA
HETATM   27  N1  UNL     1       7.529   0.610   0.800  1.00  0.00    -0.361 N 
HETATM   28  C2  UNL     1       7.269   1.042  -0.557  1.00  0.00     0.123 C 
ATOM     29  H1  UNL     1       8.429   0.283   1.152  1.00  0.00     0.162 HD
HETATM   30  C3  UNL     1       5.806   1.376  -0.562  1.00  0.00     0.034 C 
ENDBRANCH  23  24
ENDBRANCH  22  23
ENDBRANCH   1  22
TORSDOF 7
