REMARK  4 active torsions:
REMARK  status: ('A' for Active; 'I' for Inactive)
REMARK    1  A    between atoms: C2_2  and  N1_3 
REMARK    2  A    between atoms: C2_2  and  C3_7 
REMARK    3  A    between atoms: C3_7  and  C4_8 
REMARK    4  A    between atoms: C4_8  and  N2_9 
ROOT
HETATM    1  N2  UNL     1       1.282  -0.436   0.204  1.00  0.00    -0.217 N 
HETATM    2  C5  UNL     1       2.212   0.251   1.092  1.00  0.00     0.161 C 
HETATM    3  C6  UNL     1       3.398   0.613   0.250  1.00  0.00     0.158 C 
HETATM    4  N3  UNL     1       3.140   0.115  -1.094  1.00  0.00    -0.225 N 
ATOM      5  H3  UNL     1       3.648   0.346  -1.948  1.00  0.00     0.177 HD
HETATM    6  C7  UNL     1       2.029  -0.761  -0.962  1.00  0.00     0.669 C 
HETATM    7  N4  UNL     1       1.768  -1.718  -1.820  1.00  0.00    -0.235 N 
ATOM      8  H41 UNL     1       2.304  -1.951  -2.656  1.00  0.00     0.174 HD
ATOM      9  H42 UNL     1       0.970  -2.347  -1.725  1.00  0.00     0.174 HD
ENDROOT
BRANCH   1  10
HETATM   10  C4  UNL     1      -0.089  -0.727   0.453  1.00  0.00     0.143 C 
BRANCH  10  11
HETATM   11  C3  UNL     1      -0.920   0.539   0.491  1.00  0.00     0.052 C 
BRANCH  11  12
HETATM   12  C2  UNL     1      -2.366   0.259   0.760  1.00  0.00     0.181 C 
HETATM   13  C1  UNL     1      -3.035  -0.615  -0.264  1.00  0.00     0.039 C 
BRANCH  12  14
HETATM   14  N1  UNL     1      -3.089   1.516   0.801  1.00  0.00    -0.075 N 
ATOM     15  H13 UNL     1      -3.164   1.961  -0.114  1.00  0.00     0.274 HD
ATOM     16  H12 UNL     1      -4.087   1.395   0.973  1.00  0.00     0.274 HD
ATOM     17  H11 UNL     1      -2.635   2.109   1.496  1.00  0.00     0.274 HD
ENDBRANCH  12  14
ENDBRANCH  11  12
ENDBRANCH  10  11
ENDBRANCH   1  10
TORSDOF 4
