REMARK  4 active torsions:
REMARK  status: ('A' for Active; 'I' for Inactive)
REMARK    1  A    between atoms: C2_2  and  C3_3 
REMARK    2  A    between atoms: C3_3  and  N1_4 
REMARK    3  A    between atoms: N1_4  and  C4_6 
REMARK    4  A    between atoms: C6_12  and  N4_13 
ROOT
HETATM    1  C4  UNL     1      -0.406  -0.311  -0.370  1.00  0.00     0.693 A 
HETATM    2  N2  UNL     1      -1.126  -0.882  -1.361  1.00  0.00    -0.187 N 
ATOM      3  H2  UNL     1      -0.629  -1.276  -2.160  1.00  0.00     0.185 HD
HETATM    4  C5  UNL     1      -2.471  -0.954  -1.339  1.00  0.00     0.215 A 
HETATM    5  N3  UNL     1      -3.144  -0.442  -0.293  1.00  0.00    -0.187 N 
ATOM      6  H3  UNL     1      -4.162  -0.486  -0.253  1.00  0.00     0.185 HD
HETATM    7  C6  UNL     1      -2.442   0.127   0.695  1.00  0.00     0.691 A 
HETATM    8  N5  UNL     1      -1.088   0.194   0.661  1.00  0.00    -0.023 N 
ATOM      9  H5  UNL     1      -0.585   0.635   1.431  1.00  0.00     0.203 HD
ENDROOT
BRANCH   1  10
HETATM   10  N1  UNL     1       0.859  -0.277  -0.457  1.00  0.00    -0.222 N 
ATOM     11  H1  UNL     1       1.276  -0.692  -1.290  1.00  0.00     0.178 HD
BRANCH  10  12
HETATM   12  C3  UNL     1       1.755   0.288   0.502  1.00  0.00     0.164 C 
BRANCH  12  13
HETATM   13  C2  UNL     1       3.088   0.606  -0.078  1.00  0.00    -0.017 C 
HETATM   14  C1  UNL     1       4.188   0.039   0.401  1.00  0.00     0.008 C 
ENDBRANCH  12  13
ENDBRANCH  10  12
ENDBRANCH   1  10
BRANCH   7  15
HETATM   15  N4  UNL     1      -3.072   0.631   1.719  1.00  0.00    -0.234 N 
ATOM     16  H42 UNL     1      -4.090   0.581   1.745  1.00  0.00     0.174 HD
ATOM     17  H41 UNL     1      -2.537   1.064   2.472  1.00  0.00     0.174 HD
ENDBRANCH   7  15
TORSDOF 4
