REMARK  4 active torsions:
REMARK  status: ('A' for Active; 'I' for Inactive)
REMARK    1  A    between atoms: C2_2  and  C3_3 
REMARK    2  A    between atoms: C3_3  and  N1_4 
REMARK    3  A    between atoms: N1_4  and  C4_6 
REMARK    4  A    between atoms: C6_12  and  N4_13 
ROOT
HETATM    1  C4  UNL     1      -0.488  -0.792   0.134  1.00  0.00     0.693 A 
HETATM    2  N2  UNL     1      -1.275  -1.622  -0.550  1.00  0.00    -0.187 N 
ATOM      3  H2  UNL     1      -0.899  -2.512  -0.875  1.00  0.00     0.185 HD
HETATM    4  C5  UNL     1      -2.577  -1.305  -0.825  1.00  0.00     0.215 A 
HETATM    5  N3  UNL     1      -3.053  -0.135  -0.392  1.00  0.00    -0.187 N 
ATOM      6  H3  UNL     1      -4.022   0.114  -0.590  1.00  0.00     0.185 HD
HETATM    7  C6  UNL     1      -2.282   0.720   0.299  1.00  0.00     0.691 A 
HETATM    8  N5  UNL     1      -0.994   0.368   0.552  1.00  0.00    -0.023 N 
ATOM      9  H5  UNL     1      -0.398   1.009   1.076  1.00  0.00     0.203 HD
ENDROOT
BRANCH   1  10
HETATM   10  N1  UNL     1       0.721  -1.099   0.383  1.00  0.00    -0.222 N 
ATOM     11  H1  UNL     1       1.051  -2.000   0.037  1.00  0.00     0.178 HD
BRANCH  10  12
HETATM   12  C3  UNL     1       1.659  -0.296   1.104  1.00  0.00     0.164 C 
BRANCH  12  13
HETATM   13  C2  UNL     1       2.242   0.700   0.147  1.00  0.00    -0.017 C 
HETATM   14  C1  UNL     1       3.558   0.719  -0.088  1.00  0.00     0.008 C 
ENDBRANCH  12  13
ENDBRANCH  10  12
ENDBRANCH   1  10
BRANCH   7  15
HETATM   15  N4  UNL     1      -2.733   1.872   0.731  1.00  0.00    -0.234 N 
ATOM     16  H42 UNL     1      -3.700   2.136   0.541  1.00  0.00     0.174 HD
ATOM     17  H41 UNL     1      -2.147   2.521   1.256  1.00  0.00     0.174 HD
ENDBRANCH   7  15
TORSDOF 4
