REMARK  5 active torsions:
REMARK  status: ('A' for Active; 'I' for Inactive)
REMARK    1  A    between atoms: C2_2  and  O1_3 
REMARK    2  A    between atoms: O1_3  and  C3_4 
REMARK    3  A    between atoms: C3_4  and  C4_6 
REMARK    4  A    between atoms: C5_7  and  O3_8 
REMARK    5  A    between atoms: O3_8  and  C6_9 
REMARK       I    between atoms: C6_9  and  N1_11 
ROOT
HETATM    1  C4  UNL     1       2.644   1.822  -0.643  1.00  0.00     0.123 A 
HETATM    2  C5  UNL     1       1.399   2.189  -1.059  1.00  0.00     0.178 A 
HETATM    3  N2  UNL     1       1.179   3.485  -1.227  1.00  0.00    -0.304 N 
ATOM      4  H2  UNL     1       0.314   3.932  -1.530  1.00  0.00     0.176 HD
HETATM    5  S1  UNL     1       2.625   4.230  -0.835  1.00  0.00     0.004 SA
HETATM    6  C13 UNL     1       3.532   2.849  -0.446  1.00  0.00     0.124 A 
HETATM    7  N3  UNL     1       4.906   2.719  -0.009  1.00  0.00    -0.092 NA
ENDROOT
BRANCH   2   8
HETATM    8  O3  UNL     1       0.335   1.266  -1.318  1.00  0.00    -0.242 OA
BRANCH   8   9
HETATM    9  C6  UNL     1      -0.532   0.905  -0.302  1.00  0.00     0.371 C 
HETATM   10  O4  UNL     1      -0.335   1.419   0.824  1.00  0.00    -0.238 OA
HETATM   11  N1  UNL     1      -1.606   0.005  -0.466  1.00  0.00    -0.291 N 
HETATM   12  C7  UNL     1      -2.521  -0.384   0.584  1.00  0.00     0.140 C 
HETATM   13  C12 UNL     1      -2.003  -0.692  -1.682  1.00  0.00     0.193 C 
HETATM   14  C8  UNL     1      -3.811  -0.750  -0.114  1.00  0.00    -0.027 C 
HETATM   15  C9  UNL     1      -4.631   0.524  -0.262  1.00  0.00     0.016 C 
HETATM   16  C10 UNL     1      -4.569  -1.731   0.720  1.00  0.00     0.016 C 
HETATM   17  C11 UNL     1      -3.350  -1.280  -1.429  1.00  0.00     0.076 C 
HETATM   18 CL1  UNL     1      -2.106   0.429  -3.058  1.00  0.00    -0.078 Cl
HETATM   19 CL2  UNL     1      -0.837  -1.994  -2.007  1.00  0.00    -0.078 Cl
ENDBRANCH   8   9
ENDBRANCH   2   8
BRANCH   1  20
HETATM   20  C3  UNL     1       3.033   0.393  -0.412  1.00  0.00     0.300 C 
HETATM   21  O2  UNL     1       2.222  -0.548  -0.591  1.00  0.00    -0.259 OA
BRANCH  20  22
HETATM   22  O1  UNL     1       4.301   0.061   0.009  1.00  0.00    -0.318 OA
BRANCH  22  23
HETATM   23  C2  UNL     1       4.722  -1.269   0.243  1.00  0.00     0.174 C 
HETATM   24  C1  UNL     1       3.916  -1.957   1.299  1.00  0.00     0.034 C 
ENDBRANCH  22  23
ENDBRANCH  20  22
ENDBRANCH   1  20
TORSDOF 5
