REMARK  5 active torsions:
REMARK  status: ('A' for Active; 'I' for Inactive)
REMARK    1  A    between atoms: C2_2  and  O1_5 
REMARK    2  A    between atoms: O1_5  and  C5_6 
REMARK       I    between atoms: C5_6  and  N1_8 
REMARK    3  A    between atoms: N2_11  and  C8_12 
REMARK    4  A    between atoms: C9_15  and  S1_16 
REMARK    5  A    between atoms: S1_16  and  C10_17 
ROOT
HETATM    1  C8  UNL     1       2.501   0.935   0.470  1.00  0.00     0.684 A 
HETATM    2  N3  UNL     1       3.569   0.155   0.133  1.00  0.00    -0.170 N 
ATOM      3  H3  UNL     1       3.413  -0.802  -0.184  1.00  0.00     0.186 HD
HETATM    4  C9  UNL     1       4.829   0.632   0.213  1.00  0.00     0.167 A 
HETATM    5  N4  UNL     1       4.972   1.913   0.642  1.00  0.00    -0.313 N 
ATOM      6  H4  UNL     1       5.911   2.305   0.714  1.00  0.00     0.170 HD
HETATM    7  C12 UNL     1       3.926   2.679   0.973  1.00  0.00     0.204 A 
HETATM    8  C13 UNL     1       4.068   4.036   1.426  1.00  0.00     0.137 C 
HETATM    9  N5  UNL     1       4.163   5.122   1.794  1.00  0.00    -0.188 NA
HETATM   10  N6  UNL     1       2.678   2.193   0.888  1.00  0.00    -0.166 N 
ATOM     11  H6  UNL     1       1.878   2.774   1.138  1.00  0.00     0.186 HD
ENDROOT
BRANCH   4  12
HETATM   12  S1  UNL     1       6.123  -0.277  -0.180  1.00  0.00    -0.017 SA
BRANCH  12  13
HETATM   13  C10 UNL     1       5.840  -1.990  -0.743  1.00  0.00     0.295 C 
HETATM   14  C11 UNL     1       5.924  -1.984  -2.273  1.00  0.00     0.103 C 
HETATM   15  F1  UNL     1       4.556  -2.380  -0.423  1.00  0.00    -0.194 F 
HETATM   16  F2  UNL     1       6.783  -2.848  -0.213  1.00  0.00    -0.194 F 
ENDBRANCH  12  13
ENDBRANCH   4  12
BRANCH   1  17
HETATM   17  N2  UNL     1       1.177   0.431   0.381  1.00  0.00    -0.214 N 
HETATM   18  C7  UNL     1       0.651  -0.276   1.526  1.00  0.00     0.161 C 
HETATM   19  C6  UNL     1      -0.761   0.290   1.740  1.00  0.00     0.148 C 
HETATM   20  N1  UNL     1      -1.554   0.014   0.576  1.00  0.00    -0.325 N 
HETATM   21  C5  UNL     1      -2.959  -0.055   0.675  1.00  0.00     0.363 C 
HETATM   22  C15 UNL     1      -0.935  -0.196  -0.700  1.00  0.00     0.148 C 
HETATM   23  O2  UNL     1      -3.586   0.113   1.754  1.00  0.00    -0.238 OA
HETATM   24  C14 UNL     1       0.348   0.596  -0.789  1.00  0.00     0.161 C 
BRANCH  21  25
HETATM   25  O1  UNL     1      -3.747  -0.318  -0.433  1.00  0.00    -0.294 OA
BRANCH  25  26
HETATM   26  C2  UNL     1      -5.121  -0.389  -0.361  1.00  0.00     0.061 C 
HETATM   27  C1  UNL     1      -5.529  -1.478   0.592  1.00  0.00     0.046 C 
HETATM   28  C3  UNL     1      -5.842   0.871   0.003  1.00  0.00     0.046 C 
HETATM   29  C4  UNL     1      -5.614  -0.813  -1.749  1.00  0.00     0.046 C 
ENDBRANCH  25  26
ENDBRANCH  21  25
ENDBRANCH   1  17
TORSDOF 5
