REMARK  2 active torsions:
REMARK  status: ('A' for Active; 'I' for Inactive)
REMARK    1  A    between atoms: N1_6  and  C4_7 
REMARK    2  A    between atoms: C6_12  and  N3_13 
ROOT
HETATM    1  C4  UNL     1       2.905   0.612   0.095  1.00  0.00     0.138 A 
HETATM    2  N2  UNL     1       2.402   1.818  -0.147  1.00  0.00    -0.310 N 
ATOM      3  H2  UNL     1       2.910   2.686  -0.314  1.00  0.00     0.176 HD
HETATM    4  S1  UNL     1       0.740   1.587  -0.115  1.00  0.00    -0.007 SA
HETATM    5  C5  UNL     1       0.699  -0.084   0.214  1.00  0.00     0.096 A 
HETATM    6  C6  UNL     1      -0.315  -1.035   0.393  1.00  0.00     0.125 A 
HETATM    7  N5  UNL     1      -0.024  -2.324   0.650  1.00  0.00    -0.337 N 
ATOM      8  H5  UNL     1      -0.743  -3.035   0.784  1.00  0.00     0.168 HD
HETATM    9  C15 UNL     1       1.303  -2.603   0.716  1.00  0.00     0.182 A 
HETATM   10  N6  UNL     1       2.278  -1.731   0.552  1.00  0.00    -0.348 N 
ATOM     11  H6  UNL     1       3.245  -2.048   0.623  1.00  0.00     0.167 HD
HETATM   12  C16 UNL     1       2.026  -0.404   0.288  1.00  0.00     0.100 A 
ENDROOT
BRANCH   6  13
HETATM   13  N3  UNL     1      -1.638  -0.540   0.284  1.00  0.00    -0.365 N 
HETATM   14  C7  UNL     1      -2.206   0.492   1.123  1.00  0.00     0.125 C 
HETATM   15  C8  UNL     1      -3.667   0.036   1.188  1.00  0.00     0.031 C 
HETATM   16  C9  UNL     1      -3.934  -0.337  -0.242  1.00  0.00    -0.020 C 
HETATM   17  C10 UNL     1      -4.314   0.838  -1.086  1.00  0.00     0.030 C 
HETATM   18  C13 UNL     1      -5.094  -1.326  -0.300  1.00  0.00     0.030 C 
HETATM   19  C14 UNL     1      -2.638  -0.973  -0.672  1.00  0.00     0.134 C 
HETATM   20  C11 UNL     1      -5.553   1.480  -0.572  1.00  0.00     0.114 C 
HETATM   21  N4  UNL     1      -6.642   0.579  -0.350  1.00  0.00    -0.421 N 
HETATM   22  C12 UNL     1      -6.289  -0.654   0.278  1.00  0.00     0.114 C 
ATOM     23  H4  UNL     1      -7.600   0.801  -0.620  1.00  0.00     0.153 HD
ENDBRANCH   6  13
BRANCH   1  24
HETATM   24  N1  UNL     1       4.341   0.448   0.140  1.00  0.00    -0.365 N 
HETATM   25  C3  UNL     1       4.943  -0.027   1.335  1.00  0.00     0.130 C 
HETATM   26  C2  UNL     1       6.368   0.417   1.532  1.00  0.00     0.099 C 
HETATM   27  C1  UNL     1       7.130   0.220   0.244  1.00  0.00     0.246 C 
HETATM   28  F1  UNL     1       8.445   0.550   0.411  1.00  0.00    -0.206 F 
HETATM   29  F2  UNL     1       6.936  -1.057  -0.204  1.00  0.00    -0.206 F 
HETATM   30  C18 UNL     1       6.506   1.171  -0.778  1.00  0.00     0.099 C 
HETATM   31  C17 UNL     1       5.084   0.778  -1.037  1.00  0.00     0.130 C 
ENDBRANCH   1  24
TORSDOF 2
