REMARK  2 active torsions:
REMARK  status: ('A' for Active; 'I' for Inactive)
REMARK    1  A    between atoms: C9_12  and  C10_13 
REMARK    2  A    between atoms: C13_20  and  C14_21 
ROOT
HETATM    1  N1  UNL     1      -1.035  -0.130   3.576  1.00  0.00    -0.197 NA
HETATM    2  C1  UNL     1      -1.017  -0.391   2.446  1.00  0.00     0.071 C 
HETATM    3  C2  UNL     1      -1.009  -0.741   1.009  1.00  0.00     0.181 C 
HETATM    4  C3  UNL     1      -1.933  -1.890   0.806  1.00  0.00     0.261 C 
HETATM    5  F1  UNL     1      -1.664  -2.685  -0.279  1.00  0.00    -0.205 F 
HETATM    6  F2  UNL     1      -1.673  -2.736   1.909  1.00  0.00    -0.205 F 
HETATM    7  C4  UNL     1      -3.335  -1.446   0.914  1.00  0.00     0.087 C 
HETATM    8  C5  UNL     1      -4.018  -0.849  -0.232  1.00  0.00     0.020 A 
HETATM    9  C6  UNL     1      -3.564  -0.248  -1.443  1.00  0.00     0.014 A 
HETATM   10  C7  UNL     1      -2.242  -0.197  -2.082  1.00  0.00     0.008 C 
HETATM   11  C8  UNL     1      -1.047   0.078  -1.268  1.00  0.00     0.019 C 
HETATM   12  C9  UNL     1      -1.265   0.467   0.158  1.00  0.00     0.043 C 
HETATM   13  C18 UNL     1      -2.584   1.123   0.422  1.00  0.00     0.044 C 
HETATM   14  C19 UNL     1      -3.767   0.621  -0.276  1.00  0.00     0.058 A 
HETATM   15  C20 UNL     1      -4.912   1.567  -0.258  1.00  0.00     0.070 C 
HETATM   16  N6  UNL     1      -5.817   2.288  -0.238  1.00  0.00    -0.196 NA
ENDROOT
BRANCH  12  17
HETATM   17  C10 UNL     1      -0.226   1.459   0.586  1.00  0.00     0.131 A 
HETATM   18  N2  UNL     1      -0.167   2.613   1.133  1.00  0.00    -0.178 N 
HETATM   19  C11 UNL     1       1.247   2.685   1.110  1.00  0.00     0.691 A 
ATOM     20  H2  UNL     1      -0.885   3.255   1.468  1.00  0.00     0.185 HD
HETATM   21  N3  UNL     1       2.545   3.007   1.210  1.00  0.00    -0.199 N 
HETATM   22  N5  UNL     1       1.206   1.467   0.533  1.00  0.00    -0.137 N 
HETATM   23  C12 UNL     1       3.304   2.018   0.709  1.00  0.00     0.132 A 
ATOM     24  H3  UNL     1       2.903   3.875   1.608  1.00  0.00     0.183 HD
HETATM   25  C13 UNL     1       2.438   1.031   0.275  1.00  0.00     0.057 A 
BRANCH  25  26
HETATM   26  C14 UNL     1       2.820  -0.263  -0.357  1.00  0.00     0.065 C 
HETATM   27  C15 UNL     1       3.711  -1.078   0.550  1.00  0.00     0.040 C 
HETATM   28  C16 UNL     1       5.096  -0.767   0.103  1.00  0.00     0.233 C 
HETATM   29  N4  UNL     1       5.026  -0.235  -1.218  1.00  0.00    -0.074 N 
HETATM   30  C17 UNL     1       3.655  -0.067  -1.575  1.00  0.00     0.243 C 
ATOM     31  H42 UNL     1       5.563   0.626  -1.320  1.00  0.00     0.277 HD
ATOM     32  H41 UNL     1       5.538  -0.802  -1.894  1.00  0.00     0.277 HD
ENDBRANCH  25  26
ENDBRANCH  12  17
TORSDOF 2
