REMARK  5 active torsions:
REMARK  status: ('A' for Active; 'I' for Inactive)
REMARK    1  A    between atoms: C4_5  and  C5_6 
REMARK    2  A    between atoms: C9_10  and  N1_11 
REMARK    3  A    between atoms: N2_14  and  C12_15 
REMARK    4  A    between atoms: C14_25  and  C15_26 
REMARK    5  A    between atoms: C15_26  and  C16_27 
ROOT
HETATM    1  N1  UNL     1      -0.321   1.131  -1.268  1.00  0.00    -0.359 N 
HETATM    2  C10 UNL     1      -0.968   2.056  -2.148  1.00  0.00     0.145 C 
HETATM    3  C11 UNL     1      -2.383   2.371  -1.740  1.00  0.00     0.161 C 
HETATM    4  N2  UNL     1      -2.402   2.412  -0.297  1.00  0.00    -0.212 N 
HETATM    5  C13 UNL     1      -2.111   1.184   0.412  1.00  0.00     0.167 C 
HETATM    6  C14 UNL     1      -0.991   0.411  -0.191  1.00  0.00     0.108 C 
ENDROOT
BRANCH   1   7
HETATM    7  C9  UNL     1       1.073   0.888  -1.447  1.00  0.00     0.104 A 
HETATM    8  C8  UNL     1       1.761   1.501  -2.472  1.00  0.00     0.048 A 
HETATM    9  C7  UNL     1       3.099   1.280  -2.656  1.00  0.00     0.006 A 
HETATM   10  C6  UNL     1       3.746   0.420  -1.777  1.00  0.00     0.030 A 
HETATM   11  C5  UNL     1       3.074  -0.198  -0.750  1.00  0.00     0.043 A 
HETATM   12  N7  UNL     1       1.762   0.070  -0.638  1.00  0.00    -0.342 N 
ATOM     13  H7  UNL     1       1.251  -0.383   0.120  1.00  0.00     0.167 HD
BRANCH  11  14
HETATM   14  C4  UNL     1       3.745  -1.108   0.186  1.00  0.00    -0.009 A 
HETATM   15  C3  UNL     1       3.028  -1.709   1.208  1.00  0.00     0.015 A 
HETATM   16  C2  UNL     1       3.625  -2.558   2.094  1.00  0.00     0.024 A 
HETATM   17  C1  UNL     1       4.976  -2.864   2.022  1.00  0.00     0.034 A 
HETATM   18 CL1  UNL     1       5.760  -3.947   3.147  1.00  0.00    -0.084 Cl
HETATM   19  C23 UNL     1       5.683  -2.276   1.022  1.00  0.00     0.024 A 
HETATM   20  C22 UNL     1       5.079  -1.407   0.112  1.00  0.00     0.015 A 
ENDBRANCH  11  14
ENDBRANCH   1   7
BRANCH   6  21
HETATM   21  C15 UNL     1      -1.298  -0.939  -0.709  1.00  0.00     0.065 C 
BRANCH  21  22
HETATM   22  C16 UNL     1      -1.983  -1.871   0.203  1.00  0.00    -0.056 A 
HETATM   23  C17 UNL     1      -1.293  -2.680   1.097  1.00  0.00     0.007 A 
HETATM   24  C18 UNL     1      -1.944  -3.558   1.931  1.00  0.00     0.001 A 
HETATM   25  C19 UNL     1      -3.310  -3.675   1.916  1.00  0.00     0.000 A 
HETATM   26  C20 UNL     1      -4.025  -2.879   1.032  1.00  0.00     0.001 A 
HETATM   27  C21 UNL     1      -3.351  -2.004   0.204  1.00  0.00     0.007 A 
ENDBRANCH  21  22
ENDBRANCH   6  21
BRANCH   4  28
HETATM   28  C12 UNL     1      -2.694   3.590   0.393  1.00  0.00     0.712 A 
HETATM   29  N3  UNL     1      -2.720   3.740   1.722  1.00  0.00    -0.115 N 
HETATM   30  N4  UNL     1      -3.030   4.975   2.006  1.00  0.00    -0.213 N 
ATOM     31  H3  UNL     1      -2.528   3.006   2.404  1.00  0.00     0.207 HD
HETATM   32  N5  UNL     1      -3.210   5.648   0.903  1.00  0.00    -0.213 N 
ATOM     33  H4  UNL     1      -3.118   5.357   2.948  1.00  0.00     0.210 HD
HETATM   34  N6  UNL     1      -3.008   4.815  -0.100  1.00  0.00    -0.115 N 
ATOM     35  H5  UNL     1      -3.460   6.634   0.830  1.00  0.00     0.210 HD
ATOM     36  H6  UNL     1      -3.077   5.054  -1.089  1.00  0.00     0.207 HD
ENDBRANCH   4  28
TORSDOF 5
