REMARK  5 active torsions:
REMARK  status: ('A' for Active; 'I' for Inactive)
REMARK       I    between atoms: C1_2  and  N1_3 
REMARK    1  A    between atoms: C1_2  and  C11_18 
REMARK    2  A    between atoms: N2_8  and  C5_9 
REMARK    3  A    between atoms: C14_21  and  C15_22 
REMARK    4  A    between atoms: C15_22  and  S1_23 
REMARK    5  A    between atoms: S1_23  and  C16_24 
ROOT
HETATM    1  C11 UNL     1       0.917  -0.219   0.693  1.00  0.00     0.101 A 
HETATM    2  C12 UNL     1       1.539  -1.160  -0.060  1.00  0.00     0.036 A 
HETATM    3  C13 UNL     1       2.247  -0.792  -1.200  1.00  0.00     0.012 A 
HETATM    4  C14 UNL     1       2.308   0.535  -1.553  1.00  0.00    -0.033 A 
HETATM    5  C20 UNL     1       1.652   1.477  -0.751  1.00  0.00     0.096 A 
HETATM    6  N6  UNL     1       0.991   1.053   0.330  1.00  0.00    -0.361 N 
ATOM      7  H6  UNL     1       0.517   1.747   0.908  1.00  0.00     0.165 HD
ENDROOT
BRANCH   1   8
HETATM    8  C1  UNL     1       0.163  -0.588   1.898  1.00  0.00     0.273 C 
HETATM    9  O1  UNL     1       0.079  -1.790   2.266  1.00  0.00    -0.266 OA
HETATM   10  N1  UNL     1      -0.503   0.387   2.701  1.00  0.00    -0.307 N 
HETATM   11  C2  UNL     1      -1.758   0.635   2.503  1.00  0.00     0.124 A 
ATOM     12  H1  UNL     1       0.009   0.887   3.428  1.00  0.00     0.170 HD
HETATM   13  C3  UNL     1      -2.465   1.557   3.234  1.00  0.00     0.069 A 
HETATM   14  N3  UNL     1      -2.596   0.091   1.606  1.00  0.00    -0.279 N 
HETATM   15  C4  UNL     1      -3.750   1.512   2.709  1.00  0.00     0.120 A 
HETATM   16  N2  UNL     1      -3.802   0.608   1.716  1.00  0.00    -0.266 N 
ATOM     17  H3  UNL     1      -2.334  -0.626   0.930  1.00  0.00     0.189 HD
BRANCH  16  18
HETATM   18  C5  UNL     1      -4.953   0.264   0.918  1.00  0.00     0.056 A 
HETATM   19  C6  UNL     1      -6.222   0.326   1.432  1.00  0.00     0.033 A 
HETATM   20  C7  UNL     1      -7.317  -0.014   0.630  1.00  0.00     0.026 A 
HETATM   21  C8  UNL     1      -7.133  -0.412  -0.677  1.00  0.00     0.034 A 
HETATM   22 CL1  UNL     1      -8.488  -0.842  -1.700  1.00  0.00    -0.084 Cl
HETATM   23  C9  UNL     1      -5.860  -0.481  -1.212  1.00  0.00     0.026 A 
HETATM   24  C10 UNL     1      -4.807  -0.139  -0.395  1.00  0.00     0.033 A 
ENDBRANCH  16  18
ENDBRANCH   1   8
BRANCH   4  25
HETATM   25  C15 UNL     1       3.038   1.074  -2.709  1.00  0.00     0.122 C 
BRANCH  25  26
HETATM   26  S1  UNL     1       4.618   1.745  -2.205  1.00  0.00    -0.089 SA
BRANCH  26  27
HETATM   27  C16 UNL     1       5.791   0.534  -1.639  1.00  0.00     0.144 A 
HETATM   28  N4  UNL     1       7.020   0.966  -1.223  1.00  0.00    -0.347 N 
HETATM   29  C17 UNL     1       7.907   0.070  -0.805  1.00  0.00     0.091 A 
ATOM     30  H4  UNL     1       7.252   1.959  -1.234  1.00  0.00     0.167 HD
HETATM   31  C18 UNL     1       7.645  -1.294  -0.769  1.00  0.00     0.034 A 
HETATM   32  C19 UNL     1       6.415  -1.711  -1.187  1.00  0.00     0.091 A 
HETATM   33  N5  UNL     1       5.554  -0.775  -1.600  1.00  0.00    -0.347 N 
ATOM     34  H5  UNL     1       4.636  -1.092  -1.912  1.00  0.00     0.167 HD
ENDBRANCH  26  27
ENDBRANCH  25  26
ENDBRANCH   4  25
TORSDOF 5
