REMARK  5 active torsions:
REMARK  status: ('A' for Active; 'I' for Inactive)
REMARK    1  A    between atoms: N1_4  and  C4_5 
REMARK    2  A    between atoms: N3_14  and  C11_15 
REMARK    3  A    between atoms: C11_15  and  C12_16 
REMARK    4  A    between atoms: C13_17  and  C14_18 
REMARK    5  A    between atoms: C23_30  and  O1_31 
ROOT
HETATM    1  C12 UNL     1      -1.771  -0.101  -0.362  1.00  0.00     0.025 A 
HETATM    2  C13 UNL     1      -2.635  -1.158  -0.040  1.00  0.00     0.004 A 
HETATM    3  C20 UNL     1      -3.847  -0.580   0.205  1.00  0.00     0.105 A 
HETATM    4  N4  UNL     1      -3.794   0.742   0.059  1.00  0.00    -0.347 N 
HETATM    5  C21 UNL     1      -2.519   1.046  -0.291  1.00  0.00     0.084 A 
HETATM    6  S1  UNL     1      -2.226   2.799  -0.589  1.00  0.00    -0.109 SA
HETATM    7  C22 UNL     1      -3.216   3.771   0.564  1.00  0.00     0.114 C 
HETATM    8  C23 UNL     1      -4.224   2.825   1.201  1.00  0.00     0.146 C 
HETATM    9  C24 UNL     1      -4.733   1.840   0.185  1.00  0.00     0.161 C 
ENDROOT
BRANCH   1  10
HETATM   10  C11 UNL     1      -0.390  -0.266  -0.763  1.00  0.00     0.101 C 
BRANCH  10  11
HETATM   11  N3  UNL     1       0.459   0.801  -1.001  1.00  0.00    -0.382 N 
HETATM   12  C2  UNL     1       0.965   1.559   0.096  1.00  0.00     0.097 C 
HETATM   13  C1  UNL     1       1.600   2.863  -0.238  1.00  0.00     0.034 C 
HETATM   14  C3  UNL     1       2.088   0.689   0.710  1.00  0.00     0.149 C 
HETATM   15  N1  UNL     1       2.932   0.103  -0.305  1.00  0.00    -0.364 N 
HETATM   16  C9  UNL     1       2.422  -0.368  -1.579  1.00  0.00     0.144 C 
HETATM   17  C10 UNL     1       1.412   0.643  -2.073  1.00  0.00     0.142 C 
BRANCH  15  18
HETATM   18  C4  UNL     1       4.326  -0.040  -0.056  1.00  0.00     0.102 A 
HETATM   19  C5  UNL     1       4.897   0.160   1.192  1.00  0.00     0.048 A 
HETATM   20  C6  UNL     1       6.258   0.010   1.326  1.00  0.00     0.005 A 
HETATM   21  C7  UNL     1       7.019  -0.332   0.235  1.00  0.00     0.017 A 
HETATM   22  C8  UNL     1       6.435  -0.530  -1.008  1.00  0.00     0.089 A 
HETATM   23  N2  UNL     1       5.116  -0.377  -1.107  1.00  0.00    -0.352 N 
ATOM     24  H2  UNL     1       4.678  -0.520  -2.017  1.00  0.00     0.166 HD
ENDBRANCH  15  18
ENDBRANCH  10  11
ENDBRANCH   1  10
BRANCH   2  25
HETATM   25  C14 UNL     1      -2.380  -2.597   0.058  1.00  0.00    -0.024 A 
HETATM   26  C15 UNL     1      -3.159  -3.479  -0.686  1.00  0.00     0.015 A 
HETATM   27  C16 UNL     1      -2.959  -4.828  -0.600  1.00  0.00     0.043 A 
HETATM   28  C17 UNL     1      -1.987  -5.375   0.219  1.00  0.00     0.116 A 
HETATM   29  F1  UNL     1      -1.832  -6.708   0.267  1.00  0.00    -0.206 F 
HETATM   30  C18 UNL     1      -1.233  -4.476   0.942  1.00  0.00     0.043 A 
HETATM   31  C19 UNL     1      -1.414  -3.116   0.874  1.00  0.00     0.015 A 
ENDBRANCH   2  25
BRANCH   8  32
HETATM   32  O1  UNL     1      -5.299   3.586   1.655  1.00  0.00    -0.393 OA
ATOM     33  H1  UNL     1      -5.928   2.996   2.053  1.00  0.00     0.210 HD
ENDBRANCH   8  32
TORSDOF 5
