REMARK  6 active torsions:
REMARK  status: ('A' for Active; 'I' for Inactive)
REMARK    1  A    between atoms: N3_7  and  C3_8 
REMARK    2  A    between atoms: C3_8  and  C4_9 
REMARK    3  A    between atoms: C7_12  and  C8_13 
REMARK    4  A    between atoms: C8_13  and  O2_14 
REMARK    5  A    between atoms: C8_13  and  C9_16 
REMARK    6  A    between atoms: C17_27  and  C18_28 
ROOT
HETATM    1  C1  UNL     1       6.121  -1.842   0.005  1.00  0.00     0.163 C 
HETATM    2  N1  UNL     1       4.699  -1.688  -0.220  1.00  0.00    -0.287 N 
HETATM    3  C2  UNL     1       3.991  -2.838  -0.682  1.00  0.00     0.343 A 
HETATM    4  O1  UNL     1       4.597  -3.936  -0.864  1.00  0.00    -0.245 OA
HETATM    5  N2  UNL     1       2.599  -2.697  -0.923  1.00  0.00    -0.234 N 
ATOM      6  H2  UNL     1       2.076  -3.508  -1.253  1.00  0.00     0.193 HD
HETATM    7  N3  UNL     1       1.907  -1.483  -0.726  1.00  0.00    -0.228 N 
HETATM    8  N4  UNL     1       2.677  -0.420  -0.275  1.00  0.00    -0.268 N 
ATOM      9  H4  UNL     1       2.214   0.475  -0.119  1.00  0.00     0.190 HD
HETATM   10  C17 UNL     1       3.965  -0.497  -0.037  1.00  0.00     0.137 A 
ENDROOT
BRANCH   7  11
HETATM   11  C3  UNL     1       0.504  -1.411  -1.013  1.00  0.00     0.174 C 
BRANCH  11  12
HETATM   12  C4  UNL     1      -0.187  -0.151  -0.643  1.00  0.00     0.007 C 
HETATM   13  C5  UNL     1      -0.201   0.230   0.783  1.00  0.00     0.007 C 
HETATM   14  C6  UNL     1      -1.366  -0.161   1.581  1.00  0.00     0.008 C 
HETATM   15  C7  UNL     1      -2.688  -0.316   0.909  1.00  0.00     0.019 C 
HETATM   16  C15 UNL     1      -2.466  -0.991  -0.429  1.00  0.00     0.008 C 
HETATM   17  C16 UNL     1      -1.555  -0.158  -1.285  1.00  0.00     0.007 C 
BRANCH  15  18
HETATM   18  C8  UNL     1      -3.444   0.972   0.812  1.00  0.00     0.157 C 
BRANCH  18  19
HETATM   19  O2  UNL     1      -3.601   1.411   2.164  1.00  0.00    -0.390 OA
ATOM     20  H2  UNL     1      -4.081   2.229   2.102  1.00  0.00     0.210 HD
ENDBRANCH  18  19
BRANCH  18  21
HETATM   21  C9  UNL     1      -4.825   0.864   0.313  1.00  0.00    -0.008 A 
HETATM   22  C10 UNL     1      -5.566  -0.268   0.188  1.00  0.00     0.011 A 
HETATM   23  C11 UNL     1      -6.871  -0.279  -0.279  1.00  0.00     0.001 A 
HETATM   24  C12 UNL     1      -7.480   0.900  -0.643  1.00  0.00     0.002 A 
HETATM   25  C13 UNL     1      -6.743   2.073  -0.523  1.00  0.00     0.024 A 
HETATM   26  C14 UNL     1      -5.445   2.061  -0.056  1.00  0.00     0.042 A 
HETATM   27 CL1  UNL     1      -4.595   3.577   0.063  1.00  0.00    -0.084 Cl
ENDBRANCH  18  21
ENDBRANCH  15  18
ENDBRANCH  11  12
ENDBRANCH   7  11
BRANCH  10  28
HETATM   28  C18 UNL     1       4.637   0.705   0.415  1.00  0.00     0.012 A 
HETATM   29  C19 UNL     1       5.525   0.700   1.465  1.00  0.00     0.032 A 
HETATM   30  C20 UNL     1       6.163   1.879   1.868  1.00  0.00     0.088 A 
HETATM   31  N5  UNL     1       5.907   3.028   1.224  1.00  0.00    -0.375 N 
HETATM   32  C21 UNL     1       5.051   3.095   0.192  1.00  0.00     0.088 A 
ATOM     33  H5  UNL     1       6.379   3.879   1.529  1.00  0.00     0.164 HD
HETATM   34  C22 UNL     1       4.432   1.937  -0.194  1.00  0.00     0.032 A 
ENDBRANCH  10  28
TORSDOF 6
