REMARK  6 active torsions:
REMARK  status: ('A' for Active; 'I' for Inactive)
REMARK    1  A    between atoms: C4_5  and  C5_6 
REMARK    2  A    between atoms: C7_10  and  N2_11 
REMARK    3  A    between atoms: N2_11  and  C8_13 
REMARK    4  A    between atoms: C8_13  and  C9_14 
REMARK    5  A    between atoms: N3_17  and  C12_18 
REMARK    6  A    between atoms: C12_18  and  C13_19 
ROOT
HETATM    1  C5  UNL     1       4.124  -0.336   0.054  1.00  0.00     0.117 A 
HETATM    2  N1  UNL     1       2.825  -0.548   0.284  1.00  0.00    -0.336 N 
ATOM      3  H1  UNL     1       2.088   0.156   0.327  1.00  0.00     0.168 HD
HETATM    4  C6  UNL     1       2.681  -1.889   0.449  1.00  0.00     0.122 A 
HETATM    5  C7  UNL     1       1.602  -2.711   0.709  1.00  0.00     0.133 A 
HETATM    6  N5  UNL     1       1.786  -4.041   0.821  1.00  0.00    -0.337 N 
ATOM      7  H5  UNL     1       0.976  -4.631   1.013  1.00  0.00     0.168 HD
HETATM    8  C18 UNL     1       2.983  -4.620   0.692  1.00  0.00     0.183 A 
HETATM    9  N6  UNL     1       4.041  -3.841   0.440  1.00  0.00    -0.337 N 
ATOM     10  H6  UNL     1       4.963  -4.264   0.338  1.00  0.00     0.168 HD
HETATM   11  C19 UNL     1       3.907  -2.506   0.319  1.00  0.00     0.139 A 
HETATM   12  N7  UNL     1       4.789  -1.499   0.071  1.00  0.00    -0.326 N 
ATOM     13  H7  UNL     1       5.792  -1.612  -0.078  1.00  0.00     0.169 HD
ENDROOT
BRANCH   5  14
HETATM   14  N2  UNL     1       0.429  -2.254   0.848  1.00  0.00    -0.374 N 
ATOM     15  H2  UNL     1      -0.309  -2.931   1.038  1.00  0.00     0.161 HD
BRANCH  14  16
HETATM   16  C8  UNL     1       0.039  -0.881   0.764  1.00  0.00     0.126 C 
BRANCH  16  17
HETATM   17  C9  UNL     1      -1.449  -0.698   1.086  1.00  0.00     0.007 C 
HETATM   18  C10 UNL     1      -1.796   0.742   0.984  1.00  0.00     0.036 C 
HETATM   19  C11 UNL     1      -3.114   1.056   0.372  1.00  0.00     0.273 C 
HETATM   20  N3  UNL     1      -3.556   0.190  -0.668  1.00  0.00     0.094 N 
HETATM   21  C16 UNL     1      -2.668  -0.881  -1.001  1.00  0.00     0.273 C 
HETATM   22  C17 UNL     1      -2.291  -1.611   0.246  1.00  0.00     0.036 C 
BRANCH  20  23
HETATM   23  C12 UNL     1      -4.878  -0.328  -0.514  1.00  0.00     0.337 C 
BRANCH  23  24
HETATM   24  C13 UNL     1      -5.841   0.822  -0.466  1.00  0.00     0.079 A 
HETATM   25  N4  UNL     1      -5.596   2.121  -0.552  1.00  0.00    -0.362 N 
HETATM   26  C14 UNL     1      -6.568   2.967  -0.489  1.00  0.00     0.096 A 
ATOM     27  H4  UNL     1      -4.638   2.453  -0.668  1.00  0.00     0.165 HD
HETATM   28  C15 UNL     1      -7.839   2.476  -0.333  1.00  0.00     0.068 A 
HETATM   29  S1  UNL     1      -7.538   0.785  -0.286  1.00  0.00    -0.086 SA
ENDBRANCH  23  24
ENDBRANCH  20  23
ENDBRANCH  16  17
ENDBRANCH  14  16
ENDBRANCH   5  14
BRANCH   1  30
HETATM   30  C4  UNL     1       4.726   0.986  -0.183  1.00  0.00     0.008 A 
HETATM   31  C3  UNL     1       6.079   1.104  -0.412  1.00  0.00     0.018 A 
HETATM   32  C2  UNL     1       6.698   2.309  -0.639  1.00  0.00     0.043 A 
HETATM   33  C1  UNL     1       5.921   3.445  -0.636  1.00  0.00     0.116 A 
HETATM   34  F1  UNL     1       6.475   4.661  -0.854  1.00  0.00    -0.206 F 
HETATM   35  C21 UNL     1       4.556   3.335  -0.406  1.00  0.00     0.043 A 
HETATM   36  C20 UNL     1       3.962   2.125  -0.183  1.00  0.00     0.018 A 
ENDBRANCH   1  30
TORSDOF 6
