REMARK  6 active torsions:
REMARK  status: ('A' for Active; 'I' for Inactive)
REMARK    1  A    between atoms: C2_2  and  N1_3 
REMARK       I    between atoms: N1_3  and  C3_5 
REMARK    2  A    between atoms: C3_5  and  C4_7 
REMARK    3  A    between atoms: C5_10  and  C6_11 
REMARK    4  A    between atoms: N3_15  and  C10_16 
REMARK    5  A    between atoms: C10_16  and  C11_17 
REMARK    6  A    between atoms: C11_17  and  O2_20 
ROOT
HETATM    1  C4  UNL     1       3.209   0.575  -0.068  1.00  0.00     0.120 A 
HETATM    2  N2  UNL     1       1.904   0.808   0.296  1.00  0.00    -0.353 N 
ATOM      3  H2  UNL     1       1.646   1.659   0.795  1.00  0.00     0.166 HD
HETATM    4  C5  UNL     1       0.988  -0.099  -0.017  1.00  0.00     0.019 A 
HETATM    5  C17 UNL     1       1.286  -1.259  -0.689  1.00  0.00     0.056 A 
HETATM    6  C18 UNL     1       2.609  -1.529  -1.076  1.00  0.00     0.054 A 
HETATM    7  N4  UNL     1       3.028  -2.591  -1.719  1.00  0.00    -0.353 N 
ATOM      8  H4  UNL     1       2.362  -3.317  -1.983  1.00  0.00     0.166 HD
HETATM    9  C19 UNL     1       4.283  -2.729  -2.023  1.00  0.00     0.048 A 
HETATM   10  C20 UNL     1       4.926  -3.868  -2.747  1.00  0.00     0.076 C 
HETATM   11  S1  UNL     1       4.958  -1.295  -1.385  1.00  0.00    -0.073 SA
HETATM   12  C21 UNL     1       3.540  -0.582  -0.744  1.00  0.00     0.065 A 
ENDROOT
BRANCH   4  13
HETATM   13  C6  UNL     1      -0.434   0.188   0.410  1.00  0.00     0.077 C 
HETATM   14  C7  UNL     1      -0.955  -0.949   1.261  1.00  0.00     0.012 C 
HETATM   15  C8  UNL     1      -0.078  -1.081   2.504  1.00  0.00     0.012 C 
HETATM   16  C9  UNL     1      -2.315  -0.529   1.748  1.00  0.00     0.127 C 
HETATM   17  N3  UNL     1      -3.191  -0.062   0.731  1.00  0.00    -0.383 N 
HETATM   18  C14 UNL     1      -2.740  -0.007  -0.567  1.00  0.00     0.114 C 
HETATM   19  C15 UNL     1      -2.829  -1.395  -1.225  1.00  0.00     0.035 C 
HETATM   20  C16 UNL     1      -1.320   0.499  -0.747  1.00  0.00     0.202 C 
HETATM   21  F1  UNL     1      -0.791  -0.063  -1.887  1.00  0.00    -0.246 F 
BRANCH  17  22
HETATM   22  C10 UNL     1      -4.461   0.214   1.194  1.00  0.00     0.095 C 
BRANCH  22  23
HETATM   23  C11 UNL     1      -5.522   0.747   0.302  1.00  0.00     0.082 C 
HETATM   24  C12 UNL     1      -6.003  -0.197  -0.769  1.00  0.00     0.051 C 
HETATM   25  C13 UNL     1      -5.262   2.125  -0.250  1.00  0.00     0.051 C 
BRANCH  23  26
HETATM   26  O2  UNL     1      -6.671   0.901   1.159  1.00  0.00    -0.385 OA
ATOM     27  H2  UNL     1      -7.350   1.242   0.588  1.00  0.00     0.211 HD
ENDBRANCH  23  26
ENDBRANCH  22  23
ENDBRANCH  17  22
ENDBRANCH   4  13
BRANCH   1  28
HETATM   28  C3  UNL     1       4.224   1.560   0.263  1.00  0.00     0.269 C 
HETATM   29  N1  UNL     1       5.598   1.514   0.039  1.00  0.00    -0.356 N 
ATOM     30  H1  UNL     1       6.012   0.701  -0.417  1.00  0.00     0.162 HD
HETATM   31  O1  UNL     1       3.794   2.618   0.843  1.00  0.00    -0.266 OA
BRANCH  29  32
HETATM   32  C2  UNL     1       6.458   2.638   0.459  1.00  0.00     0.118 C 
HETATM   33  C1  UNL     1       6.354   2.853   1.963  1.00  0.00     0.026 C 
ENDBRANCH  29  32
ENDBRANCH   1  28
TORSDOF 6
