REMARK  7 active torsions:
REMARK  status: ('A' for Active; 'I' for Inactive)
REMARK    1  A    between atoms: C2_2  and  O1_3 
REMARK    2  A    between atoms: O1_3  and  C3_4 
REMARK    3  A    between atoms: C3_4  and  C4_6 
REMARK    4  A    between atoms: N1_8  and  C6_9 
REMARK    5  A    between atoms: N2_15  and  C12_16 
REMARK    6  A    between atoms: C12_16  and  C13_17 
REMARK       I    between atoms: C13_17  and  N3_19 
REMARK    7  A    between atoms: N3_19  and  C14_21 
ROOT
HETATM    1  C4  UNL     1      -0.923   1.702   0.545  1.00  0.00     0.101 A 
HETATM    2  C5  UNL     1      -1.160   0.542  -0.177  1.00  0.00     0.132 A 
HETATM    3  N1  UNL     1      -0.690  -0.466   0.552  1.00  0.00    -0.293 N 
HETATM    4  N2  UNL     1      -0.166  -0.076   1.685  1.00  0.00    -0.265 N 
HETATM    5  C18 UNL     1      -0.303   1.284   1.699  1.00  0.00     0.134 A 
HETATM    6  N5  UNL     1       0.094   2.026   2.652  1.00  0.00    -0.383 N 
ATOM      7  H51 UNL     1       0.554   1.716   3.508  1.00  0.00     0.157 HD
ATOM      8  H52 UNL     1      -0.008   3.041   2.662  1.00  0.00     0.157 HD
ENDROOT
BRANCH   4   9
HETATM    9  C12 UNL     1       0.437  -0.815   2.768  1.00  0.00     0.254 C 
BRANCH   9  10
HETATM   10  C13 UNL     1       1.902  -0.905   2.616  1.00  0.00     0.243 C 
HETATM   11  O3  UNL     1       2.656   0.010   3.034  1.00  0.00    -0.271 OA
HETATM   12  N3  UNL     1       2.482  -2.027   1.998  1.00  0.00    -0.306 N 
ATOM     13  H3  UNL     1       2.380  -2.952   2.416  1.00  0.00     0.171 HD
BRANCH  12  14
HETATM   14  C14 UNL     1       3.156  -1.880   0.879  1.00  0.00     0.153 A 
HETATM   15  N4  UNL     1       3.386  -0.759   0.201  1.00  0.00    -0.338 N 
HETATM   16  C15 UNL     1       4.089  -0.827  -0.901  1.00  0.00     0.036 A 
ATOM     17  H4  UNL     1       3.022   0.134   0.533  1.00  0.00     0.168 HD
HETATM   18  C16 UNL     1       4.411   0.386  -1.755  1.00  0.00     0.070 C 
HETATM   19  C17 UNL     1       4.546  -2.056  -1.288  1.00  0.00     0.100 A 
HETATM   20 CL1  UNL     1       5.512  -2.463  -2.713  1.00  0.00    -0.074 Cl
HETATM   21  S1  UNL     1       3.946  -3.069  -0.050  1.00  0.00    -0.040 SA
ENDBRANCH  12  14
ENDBRANCH   9  10
ENDBRANCH   4   9
BRANCH   3  22
HETATM   22  C6  UNL     1      -0.798  -1.857   0.082  1.00  0.00     0.107 C 
HETATM   23  C7  UNL     1      -0.399  -1.863  -1.357  1.00  0.00     0.027 C 
HETATM   24  C8  UNL     1      -1.512  -2.249  -2.286  1.00  0.00     0.002 C 
HETATM   25  C9  UNL     1      -2.191  -3.525  -1.862  1.00  0.00     0.000 C 
HETATM   26  C10 UNL     1      -2.636  -3.489  -0.423  1.00  0.00     0.002 C 
HETATM   27  C11 UNL     1      -2.253  -2.227   0.284  1.00  0.00     0.027 C 
ENDBRANCH   3  22
BRANCH   1  28
HETATM   28  C3  UNL     1      -1.278   3.053   0.116  1.00  0.00     0.298 C 
HETATM   29  O2  UNL     1      -1.856   3.199  -0.997  1.00  0.00    -0.259 OA
BRANCH  28  30
HETATM   30  O1  UNL     1      -1.018   4.176   0.854  1.00  0.00    -0.318 OA
BRANCH  30  31
HETATM   31  C2  UNL     1      -1.336   5.501   0.491  1.00  0.00     0.174 C 
HETATM   32  C1  UNL     1      -2.835   5.619   0.308  1.00  0.00     0.034 C 
ENDBRANCH  30  31
ENDBRANCH  28  30
ENDBRANCH   1  28
TORSDOF 7
