REMARK  6 active torsions:
REMARK  status: ('A' for Active; 'I' for Inactive)
REMARK    1  A    between atoms: C2_3  and  C3_4 
REMARK    2  A    between atoms: C3_4  and  N2_5 
REMARK    3  A    between atoms: C4_6  and  N3_7 
REMARK    4  A    between atoms: C5_10  and  C6_11 
REMARK    5  A    between atoms: C15_23  and  C16_24 
REMARK    6  A    between atoms: C16_24  and  N5_25 
ROOT
HETATM    1  N1  UNL     1       1.796  -1.049  -3.679  1.00  0.00    -0.197 NA
HETATM    2  C1  UNL     1       2.014  -1.622  -2.695  1.00  0.00     0.061 C 
HETATM    3  C2  UNL     1       2.303  -2.315  -1.456  1.00  0.00     0.155 C 
ENDROOT
BRANCH   3   4
HETATM    4  C3  UNL     1       1.369  -1.920  -0.310  1.00  0.00     0.052 C 
HETATM    5  C22 UNL     1       1.897  -2.727   0.888  1.00  0.00     0.032 C 
HETATM    6  C23 UNL     1       0.644  -3.182   1.613  1.00  0.00     0.002 C 
HETATM    7  C24 UNL     1      -0.357  -3.438   0.506  1.00  0.00     0.002 C 
HETATM    8  C25 UNL     1       0.069  -2.597  -0.662  1.00  0.00     0.032 C 
BRANCH   4   9
HETATM    9  N2  UNL     1       1.360  -0.549   0.035  1.00  0.00    -0.305 N 
HETATM   10  C4  UNL     1       2.578   0.101   0.096  1.00  0.00     0.131 A 
HETATM   11  C5  UNL     1       2.583   1.426   0.429  1.00  0.00     0.087 A 
HETATM   12  N4  UNL     1       1.423   2.102   0.696  1.00  0.00    -0.349 N 
HETATM   13  C12 UNL     1       0.249   1.480   0.639  1.00  0.00     0.077 A 
ATOM     14  H4  UNL     1       1.459   3.092   0.941  1.00  0.00     0.166 HD
HETATM   15  C13 UNL     1      -0.887   2.198   0.929  1.00  0.00     0.035 A 
HETATM   16  C21 UNL     1       0.226   0.121   0.300  1.00  0.00     0.137 A 
HETATM   17  C14 UNL     1      -2.120   1.578   0.892  1.00  0.00     0.029 A 
HETATM   18  C15 UNL     1      -2.124   0.241   0.558  1.00  0.00     0.039 A 
HETATM   19  N6  UNL     1      -1.005  -0.399   0.290  1.00  0.00    -0.342 N 
ATOM     20  H6  UNL     1      -1.086  -1.387   0.052  1.00  0.00     0.167 HD
BRANCH  10  21
HETATM   21  N3  UNL     1       3.634  -0.558  -0.163  1.00  0.00    -0.383 N 
ATOM     22  H32 UNL     1       3.630  -1.547  -0.412  1.00  0.00     0.157 HD
ATOM     23  H31 UNL     1       4.533  -0.078  -0.118  1.00  0.00     0.157 HD
ENDBRANCH  10  21
BRANCH  11  24
HETATM   24  C6  UNL     1       3.851   2.159   0.494  1.00  0.00    -0.005 A 
HETATM   25  C7  UNL     1       3.958   3.333  -0.225  1.00  0.00     0.017 A 
HETATM   26  C8  UNL     1       5.110   4.072  -0.158  1.00  0.00     0.043 A 
HETATM   27  C9  UNL     1       6.145   3.596   0.649  1.00  0.00     0.116 A 
HETATM   28  F1  UNL     1       7.291   4.285   0.745  1.00  0.00    -0.206 F 
HETATM   29  C10 UNL     1       6.023   2.426   1.359  1.00  0.00     0.043 A 
HETATM   30  C11 UNL     1       4.858   1.691   1.283  1.00  0.00     0.017 A 
ENDBRANCH  11  24
BRANCH  18  31
HETATM   31  C16 UNL     1      -3.449  -0.439   0.511  1.00  0.00     0.329 C 
BRANCH  31  32
HETATM   32  N5  UNL     1      -4.506   0.539   0.293  1.00  0.00     0.094 N 
HETATM   33  C17 UNL     1      -5.739  -0.221   0.294  1.00  0.00     0.273 C 
HETATM   34  C18 UNL     1      -6.584   0.305  -0.835  1.00  0.00     0.032 C 
HETATM   35  C19 UNL     1      -5.618   0.945  -1.788  1.00  0.00     0.032 C 
HETATM   36  C20 UNL     1      -4.378   1.187  -0.990  1.00  0.00     0.273 C 
ENDBRANCH  31  32
ENDBRANCH  18  31
ENDBRANCH   4   9
ENDBRANCH   3   4
TORSDOF 6
