REMARK  5 active torsions:
REMARK  status: ('A' for Active; 'I' for Inactive)
REMARK    1  A    between atoms: C2_2  and  C4_4 
REMARK    2  A    between atoms: C4_4  and  C5_5 
REMARK    3  A    between atoms: C6_6  and  C7_7 
REMARK    4  A    between atoms: C8_8  and  C9_9 
REMARK    5  A    between atoms: C20_23  and  O4_24 
ROOT
HETATM    1  C9  UNL     1      -0.563  -0.684  -0.067  1.00  0.00     0.072 C 
HETATM    2  C10 UNL     1      -0.427  -1.050   1.333  1.00  0.00     0.099 C 
HETATM    3  C11 UNL     1      -1.463  -0.554   2.339  1.00  0.00     0.194 C 
HETATM    4  O1  UNL     1      -1.290  -0.939   3.471  1.00  0.00    -0.292 OA
HETATM    5  C12 UNL     1      -2.555   0.298   1.978  1.00  0.00     0.285 C 
HETATM    6  C13 UNL     1      -2.048   1.688   1.767  1.00  0.00     0.094 C 
HETATM    7  O2  UNL     1      -3.751   0.445   2.632  1.00  0.00    -0.187 OA
HETATM    8  O3  UNL     1      -4.604   0.875   1.658  1.00  0.00    -0.195 OA
HETATM    9  C14 UNL     1      -4.933  -0.129   0.736  1.00  0.00     0.226 C 
HETATM   10  C15 UNL     1      -6.364  -0.520   0.753  1.00  0.00     0.085 C 
HETATM   11  C16 UNL     1      -4.405   0.123  -0.696  1.00  0.00     0.078 C 
HETATM   12  C17 UNL     1      -3.761  -1.102  -1.318  1.00  0.00     0.042 C 
HETATM   13  C18 UNL     1      -2.382  -0.998  -1.875  1.00  0.00    -0.054 C 
HETATM   14  C19 UNL     1      -2.039   0.324  -2.471  1.00  0.00     0.046 C 
HETATM   15  C20 UNL     1      -1.231  -1.585  -1.072  1.00  0.00     0.053 C 
HETATM   16  O5  UNL     1      -4.074  -1.193   1.148  1.00  0.00    -0.195 OA
HETATM   17  O6  UNL     1      -3.002  -0.437   0.962  1.00  0.00    -0.187 OA
ENDROOT
BRANCH   1  18
HETATM   18  C8  UNL     1       0.827  -0.360  -0.579  1.00  0.00    -0.015 C 
HETATM   19  C7  UNL     1       1.924  -0.687   0.012  1.00  0.00    -0.004 C 
BRANCH  19  20
HETATM   20  C6  UNL     1       3.224  -0.312  -0.583  1.00  0.00    -0.004 C 
HETATM   21  C5  UNL     1       4.369  -0.623  -0.019  1.00  0.00    -0.026 C 
BRANCH  21  22
HETATM   22  C4  UNL     1       5.642  -0.225  -0.654  1.00  0.00     0.031 C 
BRANCH  22  23
HETATM   23  C2  UNL     1       6.443   0.679   0.281  1.00  0.00    -0.019 C 
HETATM   24  C1  UNL     1       5.601   1.906   0.565  1.00  0.00     0.010 C 
HETATM   25  C3  UNL     1       7.704   1.112  -0.432  1.00  0.00     0.010 C 
ENDBRANCH  22  23
ENDBRANCH  21  22
ENDBRANCH  19  20
ENDBRANCH   1  18
BRANCH  15  26
HETATM   26  O4  UNL     1      -1.448  -2.884  -0.658  1.00  0.00    -0.364 OA
ATOM     27  H4  UNL     1      -1.869  -3.452  -1.292  1.00  0.00     0.217 HD
ENDBRANCH  15  26
TORSDOF 5
