REMARK  4 active torsions:
REMARK  status: ('A' for Active; 'I' for Inactive)
REMARK    1  A    between atoms: C4_7  and  C5_8 
REMARK    2  A    between atoms: C15_18  and  S1_19 
REMARK    3  A    between atoms: S1_19  and  C16_20 
REMARK    4  A    between atoms: N6_27  and  C17_28 
ROOT
HETATM    1  N1  UNL     1       3.123  -3.823   2.794  1.00  0.00    -0.190 NA
HETATM    2  C1  UNL     1       2.123  -3.426   2.364  1.00  0.00     0.119 C 
HETATM    3  C2  UNL     1       0.861  -2.951   1.833  1.00  0.00     0.131 A 
HETATM    4  N2  UNL     1      -0.284  -3.648   1.784  1.00  0.00    -0.356 N 
ATOM      5  H2  UNL     1      -0.411  -4.604   2.116  1.00  0.00     0.166 HD
HETATM    6  C3  UNL     1      -1.233  -2.883   1.228  1.00  0.00     0.098 A 
HETATM    7  C4  UNL     1      -0.701  -1.624   0.892  1.00  0.00    -0.014 A 
HETATM    8  C15 UNL     1       0.608  -1.689   1.279  1.00  0.00     0.054 A 
ENDROOT
BRANCH   8   9
HETATM    9  S1  UNL     1       1.815  -0.406   1.131  1.00  0.00    -0.048 SA
BRANCH   9  10
HETATM   10  C16 UNL     1       2.733  -0.552  -0.413  1.00  0.00     0.183 A 
HETATM   11  N3  UNL     1       2.594  -1.462  -1.367  1.00  0.00    -0.263 N 
HETATM   12  N4  UNL     1       3.461  -1.210  -2.327  1.00  0.00    -0.226 N 
ATOM     13  H3  UNL     1       1.925  -2.232  -1.359  1.00  0.00     0.190 HD
HETATM   14  N5  UNL     1       4.131  -0.138  -1.951  1.00  0.00    -0.224 N 
ATOM     15  H4  UNL     1       3.589  -1.739  -3.190  1.00  0.00     0.210 HD
HETATM   16  N6  UNL     1       3.699   0.284  -0.776  1.00  0.00    -0.249 N 
ATOM     17  H5  UNL     1       4.876   0.302  -2.490  1.00  0.00     0.210 HD
BRANCH  16  18
HETATM   18  C17 UNL     1       4.219   1.453  -0.054  1.00  0.00     0.112 A 
HETATM   19  C18 UNL     1       5.053   2.437  -0.794  1.00  0.00     0.029 A 
HETATM   20  C19 UNL     1       5.668   1.509   0.227  1.00  0.00     0.029 A 
ENDBRANCH  16  18
ENDBRANCH   9  10
ENDBRANCH   8   9
BRANCH   7  21
HETATM   21  C5  UNL     1      -1.454  -0.532   0.284  1.00  0.00    -0.009 C 
HETATM   22  C6  UNL     1      -2.889  -1.032   0.067  1.00  0.00     0.019 C 
HETATM   23  C7  UNL     1      -3.770  -0.017  -0.576  1.00  0.00    -0.013 C 
HETATM   24  C8  UNL     1      -3.145   0.345  -1.897  1.00  0.00     0.009 C 
HETATM   25  C12 UNL     1      -3.923   1.142   0.363  1.00  0.00     0.009 C 
HETATM   26  C9  UNL     1      -1.847   1.013  -1.612  1.00  0.00    -0.013 C 
HETATM   27  C10 UNL     1      -1.995   2.194  -0.662  1.00  0.00     0.009 C 
HETATM   28  C14 UNL     1      -0.858   0.068  -0.945  1.00  0.00     0.019 C 
HETATM   29  C11 UNL     1      -2.527   1.665   0.656  1.00  0.00    -0.013 C 
HETATM   30  C13 UNL     1      -1.629   0.643   1.268  1.00  0.00     0.019 C 
ENDBRANCH   7  21
TORSDOF 4
