REMARK  6 active torsions:
REMARK  status: ('A' for Active; 'I' for Inactive)
REMARK    1  A    between atoms: C2_2  and  O1_3 
REMARK    2  A    between atoms: O1_3  and  C3_4 
REMARK    3  A    between atoms: C3_4  and  C4_6 
REMARK    4  A    between atoms: C4_6  and  S1_7 
REMARK    5  A    between atoms: S1_7  and  C5_8 
REMARK    6  A    between atoms: C19_25  and  O3_26 
ROOT
HETATM    1  C5  UNL     1       1.605  -0.525   1.489  1.00  0.00     0.091 A 
HETATM    2  N1  UNL     1       2.009  -1.361   0.517  1.00  0.00    -0.359 N 
ATOM      3  H1  UNL     1       2.979  -1.677   0.505  1.00  0.00     0.166 HD
HETATM    4  C6  UNL     1       1.170  -1.792  -0.439  1.00  0.00     0.099 A 
HETATM    5  C7  UNL     1      -0.173  -1.398  -0.483  1.00  0.00    -0.006 A 
HETATM    6  C8  UNL     1      -0.633  -0.543   0.487  1.00  0.00    -0.016 A 
HETATM    7  C9  UNL     1       0.284  -0.123   1.466  1.00  0.00     0.085 A 
HETATM    8  C10 UNL     1      -0.133   0.732   2.532  1.00  0.00     0.103 C 
HETATM    9  N2  UNL     1      -0.451   1.416   3.420  1.00  0.00    -0.191 NA
HETATM   10  C11 UNL     1      -2.033  -0.063   0.514  1.00  0.00    -0.011 C 
HETATM   11  C12 UNL     1      -2.776  -0.579   1.734  1.00  0.00     0.021 C 
HETATM   12  C13 UNL     1      -2.043   1.448   0.474  1.00  0.00     0.014 C 
HETATM   13  C14 UNL     1      -2.882   2.020  -0.651  1.00  0.00     0.001 C 
HETATM   14  C15 UNL     1      -4.229   1.399  -0.795  1.00  0.00     0.000 C 
HETATM   15  C16 UNL     1      -4.178  -0.119  -0.780  1.00  0.00     0.006 C 
HETATM   16  C17 UNL     1      -2.720  -0.507  -0.752  1.00  0.00     0.001 C 
HETATM   17  C18 UNL     1      -2.460  -1.948  -1.029  1.00  0.00     0.042 C 
HETATM   18  C19 UNL     1      -1.012  -1.969  -1.567  1.00  0.00     0.153 C 
ENDROOT
BRANCH   1  19
HETATM   19  S1  UNL     1       2.719   0.050   2.762  1.00  0.00    -0.101 SA
BRANCH  19  20
HETATM   20  C4  UNL     1       3.570   1.561   2.320  1.00  0.00     0.191 C 
BRANCH  20  21
HETATM   21  C3  UNL     1       4.487   1.284   1.186  1.00  0.00     0.268 C 
HETATM   22  O2  UNL     1       5.173   2.254   0.734  1.00  0.00    -0.264 OA
BRANCH  21  23
HETATM   23  O1  UNL     1       4.658   0.063   0.583  1.00  0.00    -0.321 OA
BRANCH  23  24
HETATM   24  C2  UNL     1       5.512  -0.229  -0.485  1.00  0.00     0.174 C 
HETATM   25  C1  UNL     1       5.221   0.550  -1.732  1.00  0.00     0.034 C 
ENDBRANCH  23  24
ENDBRANCH  21  23
ENDBRANCH  20  21
ENDBRANCH  19  20
ENDBRANCH   1  19
BRANCH  18  26
HETATM   26  O3  UNL     1      -0.713  -3.310  -1.804  1.00  0.00    -0.391 OA
ATOM     27  H3  UNL     1      -1.250  -3.675  -2.498  1.00  0.00     0.210 HD
ENDBRANCH  18  26
TORSDOF 6
