REMARK  3 active torsions:
REMARK  status: ('A' for Active; 'I' for Inactive)
REMARK    1  A    between atoms: C1_4  and  C2_6 
REMARK    2  A    between atoms: N3_7  and  N4_9 
REMARK    3  A    between atoms: N4_9  and  C3_11 
ROOT
HETATM    1  N4  UNL     1      -0.402  -1.245  -0.205  1.00  0.00    -0.332 N 
ATOM      2  H4  UNL     1      -0.191  -2.242  -0.251  1.00  0.00     0.180 HD
ENDROOT
BRANCH   1   3
HETATM    3  N3  UNL     1      -1.660  -0.798  -0.615  1.00  0.00    -0.313 N 
HETATM    4  C2  UNL     1      -2.632  -0.618   0.203  1.00  0.00     0.151 C 
ATOM      5  H3  UNL     1      -1.812  -0.607  -1.605  1.00  0.00     0.185 HD
BRANCH   4   6
HETATM    6  C1  UNL     1      -3.924  -0.150  -0.275  1.00  0.00     0.126 C 
HETATM    7  N1  UNL     1      -4.077   0.081  -1.530  1.00  0.00    -0.387 N 
ATOM      8  H12 UNL     1      -4.983   0.409  -1.865  1.00  0.00     0.157 HD
ATOM      9  H11 UNL     1      -3.297  -0.066  -2.170  1.00  0.00     0.157 HD
HETATM   10  N2  UNL     1      -5.003   0.054   0.611  1.00  0.00    -0.082 NA
ENDBRANCH   4   6
ENDBRANCH   1   3
BRANCH   1  11
HETATM   11  C3  UNL     1       0.616  -0.330   0.285  1.00  0.00     0.099 C 
HETATM   12  C4  UNL     1       1.877  -1.016   0.667  1.00  0.00     0.028 C 
HETATM   13  C5  UNL     1       3.099  -0.574  -0.034  1.00  0.00     0.022 C 
HETATM   14  C6  UNL     1       3.269   0.892  -0.192  1.00  0.00     0.082 C 
HETATM   15 CL1  UNL     1       4.563   1.550   0.863  1.00  0.00    -0.125 Cl
HETATM   16  C7  UNL     1       1.979   1.641   0.004  1.00  0.00     0.022 C 
HETATM   17  C8  UNL     1       0.899   0.788  -0.679  1.00  0.00     0.028 C 
ENDBRANCH   1  11
TORSDOF 3
