REMARK  4 active torsions:
REMARK  status: ('A' for Active; 'I' for Inactive)
REMARK    1  A    between atoms: C3_3  and  O1_4 
REMARK    2  A    between atoms: O1_4  and  C4_5 
REMARK    3  A    between atoms: C4_5  and  C5_6 
REMARK    4  A    between atoms: C5_6  and  C6_7 
ROOT
HETATM    1  O1  UNL     1       0.395   0.764  -1.256  1.00  0.00    -0.385 OA
ENDROOT
BRANCH   1   2
HETATM    2  C3  UNL     1      -0.690   0.168  -0.680  1.00  0.00     0.124 C 
HETATM    3  C2  UNL     1      -0.750   0.514   0.784  1.00  0.00     0.059 C 
HETATM    4  C1  UNL     1      -2.174   0.570   1.297  1.00  0.00     0.235 C 
HETATM    5  N4  UNL     1      -2.878  -0.551   0.707  1.00  0.00    -0.075 N 
HETATM    6  C8  UNL     1      -3.063  -0.400  -0.700  1.00  0.00     0.235 C 
ATOM      7  H42 UNL     1      -2.412  -1.432   0.924  1.00  0.00     0.277 HD
ATOM      8  H41 UNL     1      -3.767  -0.716   1.179  1.00  0.00     0.277 HD
HETATM    9  C7  UNL     1      -2.002   0.455  -1.363  1.00  0.00     0.059 C 
ENDBRANCH   1   2
BRANCH   1  10
HETATM   10  C4  UNL     1       1.346   0.002  -1.798  1.00  0.00     0.175 C 
BRANCH  10  11
HETATM   11  C5  UNL     1       2.012  -0.880  -0.778  1.00  0.00     0.105 C 
BRANCH  11  12
HETATM   12  C6  UNL     1       2.710  -0.127   0.292  1.00  0.00     0.114 A 
HETATM   13  N1  UNL     1       2.925   1.189   0.557  1.00  0.00    -0.273 N 
HETATM   14  N2  UNL     1       3.598   0.827   1.652  1.00  0.00    -0.240 N 
ATOM     15  H1  UNL     1       2.678   2.073   0.111  1.00  0.00     0.190 HD
HETATM   16  N3  UNL     1       3.387  -0.442   1.388  1.00  0.00    -0.273 N 
ATOM     17  H2  UNL     1       4.081   1.333   2.394  1.00  0.00     0.208 HD
ATOM     18  H3  UNL     1       3.642  -1.318   1.843  1.00  0.00     0.190 HD
ENDBRANCH  11  12
ENDBRANCH  10  11
ENDBRANCH   1  10
TORSDOF 4
