REMARK  4 active torsions:
REMARK  status: ('A' for Active; 'I' for Inactive)
REMARK    1  A    between atoms: C2_2  and  N1_3 
REMARK    2  A    between atoms: N1_3  and  C3_6 
REMARK    3  A    between atoms: C3_6  and  C4_7 
REMARK    4  A    between atoms: C8_15  and  O1_16 
ROOT
HETATM    1  C4  UNL     1      -0.556  -0.732   0.480  1.00  0.00     0.112 C 
HETATM    2 CL1  UNL     1      -0.875  -1.726   1.907  1.00  0.00    -0.113 Cl
HETATM    3  C5  UNL     1      -1.340  -1.289  -0.734  1.00  0.00     0.033 C 
HETATM    4  C6  UNL     1      -2.801  -0.865  -0.591  1.00  0.00     0.030 C 
HETATM    5  C7  UNL     1      -2.814   0.622  -0.918  1.00  0.00     0.235 C 
HETATM    6  N2  UNL     1      -1.521   1.201  -0.575  1.00  0.00    -0.047 N 
ATOM      7  H21 UNL     1      -1.534   2.221  -0.580  1.00  0.00     0.280 HD
ATOM      8  H22 UNL     1      -0.825   1.068  -1.308  1.00  0.00     0.280 HD
HETATM    9  C8  UNL     1      -1.098   0.653   0.705  1.00  0.00     0.344 C 
ENDROOT
BRANCH   1  10
HETATM   10  C3  UNL     1       0.894  -0.715   0.078  1.00  0.00     0.262 C 
BRANCH  10  11
HETATM   11  N1  UNL     1       1.760  -0.228   1.114  1.00  0.00    -0.073 N 
ATOM     12  H12 UNL     1       1.667  -0.755   1.982  1.00  0.00     0.277 HD
ATOM     13  H11 UNL     1       1.470   0.682   1.472  1.00  0.00     0.277 HD
BRANCH  11  14
HETATM   14  C2  UNL     1       3.121  -0.221   0.609  1.00  0.00     0.228 C 
HETATM   15  C1  UNL     1       3.345   0.851  -0.438  1.00  0.00     0.034 C 
ENDBRANCH  11  14
ENDBRANCH  10  11
ENDBRANCH   1  10
BRANCH   9  16
HETATM   16  O1  UNL     1      -0.114   1.522   1.191  1.00  0.00    -0.368 OA
ATOM     17  H1  UNL     1      -0.456   2.397   1.333  1.00  0.00     0.212 HD
ENDBRANCH   9  16
TORSDOF 4
