REMARK  5 active torsions:
REMARK  status: ('A' for Active; 'I' for Inactive)
REMARK    1  A    between atoms: N1_2  and  C2_5 
REMARK    2  A    between atoms: C2_5  and  C3_6 
REMARK    3  A    between atoms: C3_6  and  C4_7 
REMARK    4  A    between atoms: C4_7  and  N2_8 
REMARK    5  A    between atoms: C8_16  and  N3_17 
ROOT
HETATM    1  C3  UNL     1      -0.446   0.432  -0.032  1.00  0.00     0.009 C 
HETATM    2  C5  UNL     1       0.018   0.339   1.378  1.00  0.00     0.014 C 
HETATM    3  C6  UNL     1       1.072  -0.696   1.603  1.00  0.00     0.023 C 
HETATM    4  C7  UNL     1       2.351  -0.218   0.917  1.00  0.00     0.112 C 
HETATM    5 CL1  UNL     1       3.040   1.123   1.865  1.00  0.00    -0.123 Cl
HETATM    6  C8  UNL     1       2.028   0.156  -0.485  1.00  0.00     0.202 C 
HETATM    7  C9  UNL     1       0.636  -0.095  -0.929  1.00  0.00     0.047 C 
ENDROOT
BRANCH   1   8
HETATM    8  C2  UNL     1      -1.775  -0.262  -0.271  1.00  0.00     0.242 C 
BRANCH   8   9
HETATM    9  N1  UNL     1      -1.777  -1.651   0.031  1.00  0.00    -0.078 N 
HETATM   10  C1  UNL     1      -3.126  -2.146  -0.266  1.00  0.00     0.267 C 
ATOM     11  H12 UNL     1      -1.474  -1.856   0.983  1.00  0.00     0.276 HD
ATOM     12  H11 UNL     1      -1.043  -2.169  -0.452  1.00  0.00     0.276 HD
ENDBRANCH   8   9
ENDBRANCH   1   8
BRANCH   1  13
HETATM   13  C4  UNL     1      -0.746   1.886  -0.437  1.00  0.00     0.240 C 
BRANCH  13  14
HETATM   14  N2  UNL     1       0.357   2.762  -0.302  1.00  0.00    -0.079 N 
ATOM     15  H23 UNL     1       0.729   2.725   0.647  1.00  0.00     0.274 HD
ATOM     16  H22 UNL     1       1.162   2.406  -0.818  1.00  0.00     0.274 HD
ATOM     17  H21 UNL     1       0.158   3.726  -0.570  1.00  0.00     0.274 HD
ENDBRANCH  13  14
ENDBRANCH   1  13
BRANCH   6  18
HETATM   18  N3  UNL     1       2.901  -0.648  -1.355  1.00  0.00    -0.074 N 
ATOM     19  H33 UNL     1       3.891  -0.549  -1.131  1.00  0.00     0.274 HD
ATOM     20  H32 UNL     1       2.828  -1.650  -1.180  1.00  0.00     0.274 HD
ATOM     21  H31 UNL     1       2.679  -0.391  -2.317  1.00  0.00     0.274 HD
ENDBRANCH   6  18
TORSDOF 5
