REMARK  3 active torsions:
REMARK  status: ('A' for Active; 'I' for Inactive)
REMARK    1  A    between atoms: N1_1  and  N2_4 
REMARK    2  A    between atoms: N2_4  and  C1_5 
REMARK    3  A    between atoms: C3_8  and  C4_10 
ROOT
HETATM    1  C1  UNL     1      -0.308  -0.255   0.272  1.00  0.00     0.188 A 
HETATM    2  C2  UNL     1       0.150   1.089  -0.322  1.00  0.00     0.245 A 
HETATM    3  F1  UNL     1       0.584   2.053   0.581  1.00  0.00    -0.244 F 
HETATM    4  C3  UNL     1       0.908  -0.156  -0.536  1.00  0.00     0.253 A 
HETATM    5  F2  UNL     1       0.919  -0.651  -1.847  1.00  0.00    -0.228 F 
ENDROOT
BRANCH   4   6
HETATM    6  C4  UNL     1       2.257  -0.304   0.139  1.00  0.00     0.428 C 
HETATM    7  F3  UNL     1       2.475   0.634   1.107  1.00  0.00    -0.167 F 
HETATM    8  F4  UNL     1       2.280  -1.548   0.741  1.00  0.00    -0.167 F 
HETATM    9  F5  UNL     1       3.289  -0.189  -0.786  1.00  0.00    -0.167 F 
ENDBRANCH   4   6
BRANCH   1  10
HETATM   10  N2  UNL     1      -1.563  -0.707  -0.243  1.00  0.00    -0.137 NA
BRANCH  10  11
HETATM   11  N1  UNL     1      -2.552   0.238   0.045  1.00  0.00    -0.348 N 
ATOM     12  H12 UNL     1      -2.388   1.111   0.546  1.00  0.00     0.172 HD
ATOM     13  H11 UNL     1      -3.447  -0.084  -0.322  1.00  0.00     0.172 HD
ENDBRANCH  10  11
ENDBRANCH   1  10
TORSDOF 3
