REMARK  1 active torsions:
REMARK  status: ('A' for Active; 'I' for Inactive)
REMARK    1  A    between atoms: C1_2  and  C2_5 
ROOT
HETATM    1  C2  UNL     1       0.183  -0.422  -0.137  1.00  0.00     0.276 C 
HETATM    2  N1  UNL     1      -0.710  -0.668   0.987  1.00  0.00    -0.124 NA
HETATM    3  N2  UNL     1      -1.761  -0.465   0.048  1.00  0.00    -0.086 NA
HETATM    4  C3  UNL     1      -0.873   0.549  -0.551  1.00  0.00     0.292 C 
HETATM    5  F4  UNL     1      -1.072   0.669  -1.912  1.00  0.00    -0.202 F 
HETATM    6 CL1  UNL     1      -0.886   2.046   0.359  1.00  0.00    -0.061 Cl
ENDROOT
BRANCH   1   7
HETATM    7  C1  UNL     1       1.538   0.091   0.191  1.00  0.00     0.411 C 
HETATM    8  F1  UNL     1       1.524   1.293   0.855  1.00  0.00    -0.169 F 
HETATM    9  F2  UNL     1       2.237  -0.880   0.910  1.00  0.00    -0.169 F 
HETATM   10  F3  UNL     1       2.212   0.294  -1.000  1.00  0.00    -0.169 F 
ENDBRANCH   1   7
TORSDOF 1
