REMARK  1 active torsions:
REMARK  status: ('A' for Active; 'I' for Inactive)
REMARK    1  A    between atoms: C2_6  and  C3_7 
ROOT
HETATM    1  F1  UNL     1       2.242  -1.346  -0.375  1.00  0.00    -0.158 F 
HETATM    2  C1  UNL     1       1.723  -0.072  -0.196  1.00  0.00     0.506 C 
HETATM    3  F2  UNL     1       2.566   0.900  -0.641  1.00  0.00    -0.158 F 
HETATM    4  N1  UNL     1       1.338   0.068   1.180  1.00  0.00    -0.043 NA
HETATM    5  N2  UNL     1      -0.051  -0.082   1.237  1.00  0.00    -0.099 NA
HETATM    6  C2  UNL     1      -0.520   0.509   0.014  1.00  0.00     0.410 C 
HETATM    7  N3  UNL     1       0.473   0.059  -0.943  1.00  0.00     0.036 N 
ATOM      8  H31 UNL     1       0.204  -0.791  -1.439  1.00  0.00     0.288 HD
ATOM      9  H32 UNL     1       0.550   0.661  -1.763  1.00  0.00     0.288 HD
ENDROOT
BRANCH   6  10
HETATM   10  C3  UNL     1      -1.908  -0.030  -0.362  1.00  0.00     0.431 C 
HETATM   11  F3  UNL     1      -2.308   0.569  -1.541  1.00  0.00    -0.167 F 
HETATM   12  F4  UNL     1      -2.791   0.317   0.629  1.00  0.00    -0.167 F 
HETATM   13  F5  UNL     1      -1.851  -1.409  -0.497  1.00  0.00    -0.167 F 
ENDBRANCH   6  10
TORSDOF 1
