REMARK  1 active torsions:
REMARK  status: ('A' for Active; 'I' for Inactive)
REMARK    1  A    between atoms: C3_7  and  C4_9 
ROOT
HETATM    1  F1  UNL     1       3.044   0.233   0.025  1.00  0.00    -0.217 F 
HETATM    2  C1  UNL     1       1.786   0.680  -0.066  1.00  0.00     0.219 C 
HETATM    3  C2  UNL     1       0.781  -0.147  -0.277  1.00  0.00     0.116 C 
HETATM    4  N1  UNL     1       0.661  -1.544  -0.456  1.00  0.00    -0.297 N 
ATOM      5  H1  UNL     1       1.248  -2.286  -0.837  1.00  0.00     0.182 HD
HETATM    6  N2  UNL     1      -0.604  -1.468   0.113  1.00  0.00    -0.081 NA
HETATM    7  C3  UNL     1      -0.688  -0.106  -0.439  1.00  0.00     0.333 C 
HETATM    8  F2  UNL     1      -1.115  -0.162  -1.736  1.00  0.00    -0.205 F 
ENDROOT
BRANCH   7   9
HETATM    9  C4  UNL     1      -1.400   0.874   0.436  1.00  0.00     0.447 C 
HETATM   10  F3  UNL     1      -0.901   2.139   0.128  1.00  0.00    -0.166 F 
HETATM   11  F4  UNL     1      -1.145   0.574   1.768  1.00  0.00    -0.166 F 
HETATM   12  F5  UNL     1      -2.752   0.814   0.155  1.00  0.00    -0.166 F 
ENDBRANCH   7   9
TORSDOF 1
