REMARK  8 active torsions:
REMARK  status: ('A' for Active; 'I' for Inactive)
REMARK       I    between atoms: C2_2  and  N1_4 
REMARK    1  A    between atoms: N1_4  and  C3_6 
REMARK    2  A    between atoms: C4_9  and  C5_10 
REMARK    3  A    between atoms: C5_10  and  C7_12 
REMARK    4  A    between atoms: C7_12  and  O2_13 
REMARK    5  A    between atoms: C7_12  and  C8_15 
REMARK    6  A    between atoms: C8_15  and  N4_17 
REMARK    7  A    between atoms: C9_24  and  N8_25 
REMARK    8  A    between atoms: C10_30  and  N10_31 
ROOT
HETATM    1  C5  UNL     1      -0.848   0.881   0.875  1.00  0.00     0.086 C 
HETATM    2  C6  UNL     1      -1.071   1.616  -0.423  1.00  0.00     0.021 C 
ENDROOT
BRANCH   1   3
HETATM    3  C4  UNL     1       0.655   0.806   1.018  1.00  0.00     0.120 A 
HETATM    4  N2  UNL     1       1.400   0.102   0.169  1.00  0.00    -0.179 N 
HETATM    5  C3  UNL     1       2.771   0.006   0.260  1.00  0.00     0.700 A 
ATOM      6  H2  UNL     1       0.931  -0.393  -0.589  1.00  0.00     0.185 HD
HETATM    7  N11 UNL     1       3.394   0.646   1.245  1.00  0.00    -0.022 N 
HETATM    8  C10 UNL     1       2.646   1.374   2.126  1.00  0.00     0.691 A 
ATOM      9  H11 UNL     1       4.408   0.594   1.341  1.00  0.00     0.203 HD
HETATM   10  N9  UNL     1       1.313   1.442   2.003  1.00  0.00    -0.179 N 
ATOM     11  H9  UNL     1       0.782   1.993   2.677  1.00  0.00     0.185 HD
BRANCH   5  12
HETATM   12  N1  UNL     1       3.469  -0.764  -0.687  1.00  0.00    -0.159 N 
HETATM   13  C2  UNL     1       4.844  -0.981  -0.761  1.00  0.00     0.231 C 
HETATM   14  C1  UNL     1       5.333  -1.866  -1.903  1.00  0.00     0.118 C 
HETATM   15  O1  UNL     1       5.743  -0.539  -0.005  1.00  0.00    -0.273 OA
ATOM     16  H1  UNL     1       2.903  -1.217  -1.404  1.00  0.00     0.187 HD
ENDBRANCH   5  12
BRANCH   8  17
HETATM   17  N10 UNL     1       3.284   1.982   3.069  1.00  0.00    -0.234 N 
ATOM     18 2H10 UNL     1       2.725   2.526   3.727  1.00  0.00     0.174 HD
ATOM     19 1H10 UNL     1       4.298   1.930   3.163  1.00  0.00     0.174 HD
ENDBRANCH   8  17
ENDBRANCH   1   3
BRANCH   1  20
HETATM   20  C7  UNL     1      -1.404  -0.510   0.897  1.00  0.00     0.196 C 
BRANCH  20  21
HETATM   21  O2  UNL     1      -1.035  -1.117   2.141  1.00  0.00    -0.387 OA
ATOM     22  H2  UNL     1      -1.388  -1.999   2.155  1.00  0.00     0.210 HD
ENDBRANCH  20  21
BRANCH  20  23
HETATM   23  C8  UNL     1      -2.881  -0.646   0.796  1.00  0.00     0.164 C 
HETATM   24  N3  UNL     1      -3.632   0.010   1.795  1.00  0.00    -0.082 NA
BRANCH  23  25
HETATM   25  N4  UNL     1      -3.333  -0.584  -0.552  1.00  0.00    -0.057 N 
HETATM   26  N5  UNL     1      -2.867  -1.478  -1.457  1.00  0.00    -0.205 N 
HETATM   27  N6  UNL     1      -3.407  -1.256  -2.614  1.00  0.00    -0.213 N 
ATOM     28  H5  UNL     1      -2.192  -2.216  -1.257  1.00  0.00     0.211 HD
HETATM   29  N7  UNL     1      -4.213  -0.245  -2.503  1.00  0.00    -0.115 N 
ATOM     30  H6  UNL     1      -3.229  -1.786  -3.467  1.00  0.00     0.210 HD
HETATM   31  C9  UNL     1      -4.180   0.189  -1.223  1.00  0.00     0.715 A 
ATOM     32  H7  UNL     1      -4.776   0.154  -3.254  1.00  0.00     0.207 HD
BRANCH  31  33
HETATM   33  N8  UNL     1      -4.831   1.166  -0.728  1.00  0.00    -0.231 N 
ATOM     34  H82 UNL     1      -4.806   1.493   0.238  1.00  0.00     0.174 HD
ATOM     35  H81 UNL     1      -5.481   1.759  -1.243  1.00  0.00     0.174 HD
ENDBRANCH  31  33
ENDBRANCH  23  25
ENDBRANCH  20  23
ENDBRANCH   1  20
TORSDOF 8
