REMARK  6 active torsions:
REMARK  status: ('A' for Active; 'I' for Inactive)
REMARK    1  A    between atoms: C2_2  and  C8_34 
REMARK    2  A    between atoms: N1_3  and  N2_5 
REMARK    3  A    between atoms: C3_7  and  N3_8 
REMARK    4  A    between atoms: C3_7  and  C5_19 
REMARK       I    between atoms: N3_8  and  C4_10 
REMARK       I    between atoms: C4_10  and  N4_11 
REMARK       I    between atoms: C4_10  and  N5_15 
REMARK    5  A    between atoms: C6_22  and  N7_23 
REMARK    6  A    between atoms: N7_23  and  N8_25 
ROOT
HETATM    1  N2  UNL     1      -0.951  -0.950  -0.231  1.00  0.00    -0.282 N 
ATOM      2  H2  UNL     1      -1.658  -1.354  -0.845  1.00  0.00     0.188 HD
HETATM    3  C3  UNL     1       0.115  -0.504  -0.777  1.00  0.00     0.164 C 
ENDROOT
BRANCH   3   4
HETATM    4  N3  UNL     1       0.264  -0.589  -2.179  1.00  0.00    -0.323 N 
HETATM    5  C4  UNL     1      -0.164  -1.707  -2.970  1.00  0.00     0.481 C 
HETATM    6  N4  UNL     1       0.530  -2.899  -2.523  1.00  0.00    -0.033 N 
HETATM    7  N5  UNL     1       0.154  -1.443  -4.355  1.00  0.00    -0.033 N 
ATOM      8  H43 UNL     1       1.543  -2.784  -2.531  1.00  0.00     0.278 HD
ATOM      9  H42 UNL     1       0.413  -3.064  -1.523  1.00  0.00     0.278 HD
ATOM     10  H41 UNL     1       0.226  -3.694  -3.085  1.00  0.00     0.278 HD
ATOM     11  H53 UNL     1      -0.237  -0.560  -4.684  1.00  0.00     0.278 HD
ATOM     12  H52 UNL     1       1.140  -1.221  -4.494  1.00  0.00     0.278 HD
ATOM     13  H51 UNL     1      -0.150  -2.238  -4.917  1.00  0.00     0.278 HD
ATOM     14  H3  UNL     1       0.704   0.195  -2.660  1.00  0.00     0.165 HD
ENDBRANCH   3   4
BRANCH   3  15
HETATM   15  C5  UNL     1       1.173   0.087   0.022  1.00  0.00     0.170 A 
HETATM   16  N6  UNL     1       0.929   0.733   1.180  1.00  0.00    -0.171 N 
HETATM   17  C6  UNL     1       1.942   1.265   1.887  1.00  0.00     0.702 A 
ATOM     18  H6  UNL     1      -0.028   0.819   1.522  1.00  0.00     0.186 HD
HETATM   19  N9  UNL     1       3.222   1.182   1.482  1.00  0.00    -0.140 N 
HETATM   20  C7  UNL     1       3.487   0.545   0.334  1.00  0.00     0.340 A 
ATOM     21  H9  UNL     1       3.973   1.594   2.036  1.00  0.00     0.189 HD
HETATM   22  O1  UNL     1       4.671   0.451  -0.069  1.00  0.00    -0.246 OA
HETATM   23  N10 UNL     1       2.475   0.016  -0.367  1.00  0.00    -0.290 N 
ATOM     24  H10 UNL     1       2.692  -0.466  -1.239  1.00  0.00     0.172 HD
BRANCH  17  25
HETATM   25  N7  UNL     1       1.624   1.874   2.996  1.00  0.00    -0.138 N 
ATOM     26  H7  UNL     1       0.653   1.938   3.303  1.00  0.00     0.205 HD
BRANCH  25  27
HETATM   27  N8  UNL     1       2.650   2.430   3.742  1.00  0.00    -0.331 N 
ATOM     28  H82 UNL     1       3.616   2.357   3.421  1.00  0.00     0.177 HD
ATOM     29  H81 UNL     1       2.401   2.906   4.609  1.00  0.00     0.177 HD
ENDBRANCH  25  27
ENDBRANCH  17  25
ENDBRANCH   3  15
BRANCH   1  30
HETATM   30  N1  UNL     1      -1.225  -0.930   1.126  1.00  0.00    -0.300 N 
HETATM   31  C2  UNL     1      -2.254  -0.280   1.549  1.00  0.00     0.068 C 
HETATM   32  C1  UNL     1      -2.507  -0.286   3.005  1.00  0.00     0.074 C 
ATOM     33  H1  UNL     1      -0.620  -1.423   1.782  1.00  0.00     0.186 HD
BRANCH  31  34
HETATM   34  C8  UNL     1      -3.136   0.434   0.627  1.00  0.00     0.158 A 
HETATM   35  N11 UNL     1      -4.228   1.136   0.974  1.00  0.00    -0.265 N 
HETATM   36  N12 UNL     1      -4.746   1.627  -0.150  1.00  0.00    -0.005 NA
ATOM     37  H11 UNL     1      -4.591   1.268   1.918  1.00  0.00     0.186 HD
HETATM   38  N13 UNL     1      -4.003   1.248  -1.192  1.00  0.00    -0.225 N 
HETATM   39  N14 UNL     1      -3.026   0.523  -0.708  1.00  0.00    -0.270 N 
ATOM     40  H13 UNL     1      -4.165   1.478  -2.173  1.00  0.00     0.205 HD
ATOM     41  H14 UNL     1      -2.289   0.089  -1.264  1.00  0.00     0.190 HD
ENDBRANCH  31  34
ENDBRANCH   1  30
TORSDOF 6
