REMARK  10 active torsions:
REMARK  status: ('A' for Active; 'I' for Inactive)
REMARK    1  A    between atoms: C2_2  and  C3_3 
REMARK    2  A    between atoms: C3_3  and  C4_4 
REMARK    3  A    between atoms: C5_8  and  N3_9 
REMARK    4  A    between atoms: C6_14  and  N5_15 
REMARK    5  A    between atoms: N5_15  and  N6_17 
REMARK    6  A    between atoms: N6_17  and  C7_19 
REMARK    7  A    between atoms: C7_19  and  C8_20 
REMARK    8  A    between atoms: C8_20  and  N7_22 
REMARK    9  A    between atoms: C8_20  and  N8_26 
REMARK   10  A    between atoms: N10_34  and  N11_36 
ROOT
HETATM    1  C4  UNL     1       3.820  -0.219   0.445  1.00  0.00     0.098 A 
HETATM    2  N1  UNL     1       2.722   0.318   0.962  1.00  0.00    -0.266 N 
ATOM      3  H1  UNL     1       2.808   1.067   1.649  1.00  0.00     0.189 HD
HETATM    4  N2  UNL     1       1.503  -0.104   0.600  1.00  0.00    -0.064 N 
HETATM    5  C5  UNL     1       0.394   0.445   1.128  1.00  0.00     0.713 A 
HETATM    6  N4  UNL     1      -0.784  -0.037   0.710  1.00  0.00    -0.019 N 
ATOM      7  H4  UNL     1      -1.634   0.369   1.102  1.00  0.00     0.203 HD
HETATM    8  C6  UNL     1      -0.914  -1.022  -0.194  1.00  0.00     0.712 A 
HETATM    9  N9  UNL     1       0.232  -1.538  -0.693  1.00  0.00    -0.168 N 
ATOM     10  H9  UNL     1       0.175  -2.288  -1.382  1.00  0.00     0.186 HD
HETATM   11  C10 UNL     1       1.432  -1.103  -0.317  1.00  0.00     0.206 A 
HETATM   12  C11 UNL     1       2.547  -1.683  -0.874  1.00  0.00     0.169 A 
HETATM   13  N10 UNL     1       2.531  -2.626  -1.741  1.00  0.00    -0.289 N 
ATOM     14  H10 UNL     1       3.413  -2.994  -2.097  1.00  0.00     0.188 HD
HETATM   15  N12 UNL     1       3.740  -1.209  -0.464  1.00  0.00    -0.327 N 
ATOM     16  H12 UNL     1       4.597  -1.607  -0.849  1.00  0.00     0.169 HD
ENDROOT
BRANCH   8  17
HETATM   17  N5  UNL     1      -2.070  -1.474  -0.585  1.00  0.00    -0.136 N 
ATOM     18  H5  UNL     1      -2.145  -2.224  -1.273  1.00  0.00     0.205 HD
BRANCH  17  19
HETATM   19  N6  UNL     1      -3.198  -0.888  -0.022  1.00  0.00    -0.318 N 
ATOM     20  H6  UNL     1      -3.355  -0.931   0.985  1.00  0.00     0.180 HD
BRANCH  19  21
HETATM   21  C7  UNL     1      -4.141  -0.220  -0.881  1.00  0.00     0.208 C 
BRANCH  21  22
HETATM   22  C8  UNL     1      -5.307   0.361  -0.115  1.00  0.00     0.295 C 
HETATM   23  C9  UNL     1      -6.218   1.034  -1.150  1.00  0.00     0.080 C 
BRANCH  22  24
HETATM   24  N7  UNL     1      -4.775   1.324   0.823  1.00  0.00    -0.043 N 
ATOM     25  H73 UNL     1      -4.056   0.932   1.431  1.00  0.00     0.277 HD
ATOM     26  H72 UNL     1      -4.198   2.037   0.377  1.00  0.00     0.277 HD
ATOM     27  H71 UNL     1      -5.562   1.716   1.340  1.00  0.00     0.277 HD
ENDBRANCH  22  24
BRANCH  22  28
HETATM   28  N8  UNL     1      -6.090  -0.612   0.559  1.00  0.00    -0.043 N 
ATOM     29  H83 UNL     1      -6.409  -1.330  -0.091  1.00  0.00     0.277 HD
ATOM     30  H82 UNL     1      -5.506  -1.182   1.171  1.00  0.00     0.277 HD
ATOM     31  H81 UNL     1      -6.877  -0.220   1.076  1.00  0.00     0.277 HD
ENDBRANCH  22  28
ENDBRANCH  21  22
ENDBRANCH  19  21
ENDBRANCH  17  19
ENDBRANCH   8  17
BRANCH   5  32
HETATM   32  N3  UNL     1       0.499   1.394   1.999  1.00  0.00    -0.232 N 
ATOM     33  H32 UNL     1       1.396   1.761   2.317  1.00  0.00     0.174 HD
ATOM     34  H31 UNL     1      -0.342   1.810   2.399  1.00  0.00     0.174 HD
ENDBRANCH   5  32
BRANCH  13  35
HETATM   35  N11 UNL     1       1.328  -3.160  -2.208  1.00  0.00    -0.344 N 
ATOM     36 2H11 UNL     1       0.455  -2.781  -1.842  1.00  0.00     0.176 HD
ATOM     37 1H11 UNL     1       1.315  -3.911  -2.898  1.00  0.00     0.176 HD
ENDBRANCH  13  35
BRANCH   1  38
HETATM   38  C3  UNL     1       5.150   0.267   0.864  1.00  0.00     0.077 C 
BRANCH  38  39
HETATM   39  C2  UNL     1       5.544   1.396  -0.067  1.00  0.00     0.003 C 
HETATM   40  C1  UNL     1       6.903   1.961   0.286  1.00  0.00     0.005 C 
ENDBRANCH  38  39
ENDBRANCH   1  38
TORSDOF 10
