REMARK  9 active torsions:
REMARK  status: ('A' for Active; 'I' for Inactive)
REMARK    1  A    between atoms: C3_5  and  N2_6 
REMARK    2  A    between atoms: N3_8  and  N4_10 
REMARK       I    between atoms: N4_10  and  C4_12 
REMARK       I    between atoms: C4_12  and  N5_14 
REMARK    3  A    between atoms: N5_14  and  N6_16 
REMARK       I    between atoms: N6_16  and  C5_18 
REMARK    4  A    between atoms: C5_18  and  C6_20 
REMARK    5  A    between atoms: C6_20  and  N7_21 
REMARK    6  A    between atoms: C6_20  and  N8_25 
REMARK    7  A    between atoms: C7_31  and  C8_32 
REMARK    8  A    between atoms: C8_32  and  N10_33 
REMARK    9  A    between atoms: C8_32  and  O3_37 
ROOT
HETATM    1  N2  UNL     1      -1.601   0.804  -1.452  1.00  0.00    -0.117 N 
ATOM      2  H2  UNL     1      -1.481   1.584  -2.098  1.00  0.00     0.207 HD
HETATM    3  N3  UNL     1      -0.624   0.105  -1.042  1.00  0.00    -0.224 N 
ATOM      4  H3  UNL     1      -0.812  -0.662  -0.396  1.00  0.00     0.209 HD
ENDROOT
BRANCH   3   5
HETATM    5  N4  UNL     1       0.698   0.338  -1.435  1.00  0.00    -0.235 N 
HETATM    6  C4  UNL     1       1.765   0.366  -0.501  1.00  0.00     0.354 C 
HETATM    7  O1  UNL     1       1.544   0.179   0.719  1.00  0.00    -0.244 OA
HETATM    8  N5  UNL     1       3.087   0.605  -0.945  1.00  0.00    -0.248 N 
ATOM      9  H5  UNL     1       3.263   0.756  -1.938  1.00  0.00     0.192 HD
ATOM     10  H4  UNL     1       0.901   0.492  -2.423  1.00  0.00     0.193 HD
BRANCH   8  11
HETATM   11  N6  UNL     1       4.151   0.637  -0.047  1.00  0.00    -0.263 N 
HETATM   12  C5  UNL     1       5.272  -0.209  -0.230  1.00  0.00     0.294 C 
HETATM   13  O2  UNL     1       5.298  -0.996  -1.219  1.00  0.00    -0.267 OA
ATOM     14  H6  UNL     1       4.123   1.275   0.749  1.00  0.00     0.190 HD
BRANCH  12  15
HETATM   15  C6  UNL     1       6.429  -0.194   0.721  1.00  0.00     0.469 C 
BRANCH  15  16
HETATM   16  N7  UNL     1       7.418  -1.151   0.291  1.00  0.00    -0.041 N 
ATOM     17  H73 UNL     1       7.026  -2.085   0.176  1.00  0.00     0.277 HD
ATOM     18  H72 UNL     1       7.710  -0.996  -0.674  1.00  0.00     0.277 HD
ATOM     19  H71 UNL     1       8.206  -1.141   0.939  1.00  0.00     0.277 HD
ENDBRANCH  15  16
BRANCH  15  20
HETATM   20  N8  UNL     1       7.030   1.114   0.708  1.00  0.00    -0.041 N 
ATOM     21  H83 UNL     1       7.296   1.410  -0.231  1.00  0.00     0.277 HD
ATOM     22  H82 UNL     1       6.355   1.853   0.905  1.00  0.00     0.277 HD
ATOM     23  H81 UNL     1       7.818   1.124   1.356  1.00  0.00     0.277 HD
ENDBRANCH  15  20
ENDBRANCH  12  15
ENDBRANCH   8  11
ENDBRANCH   3   5
BRANCH   1  24
HETATM   24  C3  UNL     1      -2.893   0.418  -0.940  1.00  0.00     0.700 A 
HETATM   25  N1  UNL     1      -3.909   0.174  -1.788  1.00  0.00    -0.179 N 
HETATM   26  C2  UNL     1      -5.139  -0.192  -1.334  1.00  0.00     0.095 A 
ATOM     27  H1  UNL     1      -3.754   0.265  -2.792  1.00  0.00     0.185 HD
HETATM   28  C1  UNL     1      -6.240  -0.454  -2.301  1.00  0.00     0.089 C 
HETATM   29  N11 UNL     1      -5.298  -0.300  -0.003  1.00  0.00    -0.331 N 
HETATM   30  C7  UNL     1      -4.313  -0.067   0.883  1.00  0.00     0.155 A 
ATOM     31  H11 UNL     1      -6.214  -0.573   0.354  1.00  0.00     0.168 HD
HETATM   32  N9  UNL     1      -3.117   0.292   0.377  1.00  0.00    -0.174 N 
ATOM     33  H9  UNL     1      -2.349   0.476   1.023  1.00  0.00     0.185 HD
BRANCH  30  34
HETATM   34  C8  UNL     1      -4.498  -0.190   2.354  1.00  0.00     0.385 C 
BRANCH  34  35
HETATM   35  N10 UNL     1      -5.729   0.437   2.767  1.00  0.00    -0.046 N 
ATOM     36 3H10 UNL     1      -5.780   1.408   2.459  1.00  0.00     0.277 HD
ATOM     37 2H10 UNL     1      -6.531   0.071   2.253  1.00  0.00     0.277 HD
ATOM     38 1H10 UNL     1      -5.856   0.353   3.776  1.00  0.00     0.277 HD
ENDBRANCH  34  35
BRANCH  34  39
HETATM   39  O3  UNL     1      -4.614  -1.556   2.659  1.00  0.00    -0.364 OA
ATOM     40  H3  UNL     1      -4.732  -1.635   3.598  1.00  0.00     0.212 HD
ENDBRANCH  34  39
ENDBRANCH  30  34
ENDBRANCH   1  24
TORSDOF 9
