REMARK  9 active torsions:
REMARK  status: ('A' for Active; 'I' for Inactive)
REMARK    1  A    between atoms: N1_1  and  C1_4 
REMARK    2  A    between atoms: C2_7  and  N3_8 
REMARK    3  A    between atoms: N6_16  and  C4_17 
REMARK    4  A    between atoms: C4_17  and  C5_18 
REMARK    5  A    between atoms: C5_18  and  C6_20 
REMARK    6  A    between atoms: C6_20  and  O2_21 
REMARK    7  A    between atoms: C6_20  and  C7_23 
REMARK    8  A    between atoms: C8_28  and  N9_29 
REMARK    9  A    between atoms: N9_29  and  N10_31 
ROOT
HETATM    1  C1  UNL     1      -4.518   0.581  -0.855  1.00  0.00     0.679 A 
HETATM    2  N2  UNL     1      -5.388  -0.391  -0.505  1.00  0.00    -0.175 N 
ATOM      3  H2  UNL     1      -6.357  -0.347  -0.821  1.00  0.00     0.186 HD
HETATM    4  C2  UNL     1      -4.976  -1.417   0.261  1.00  0.00     0.147 A 
HETATM    5  C3  UNL     1      -3.662  -1.435   0.663  1.00  0.00     0.140 A 
HETATM    6  N4  UNL     1      -2.935  -2.307   1.427  1.00  0.00    -0.279 N 
ATOM      7  H4  UNL     1      -3.284  -3.162   1.861  1.00  0.00     0.189 HD
HETATM    8  N5  UNL     1      -1.686  -1.837   1.503  1.00  0.00    -0.238 N 
ATOM      9  H5  UNL     1      -0.937  -2.301   2.017  1.00  0.00     0.208 HD
HETATM   10  N6  UNL     1      -1.530  -0.724   0.851  1.00  0.00    -0.252 N 
HETATM   11  C9  UNL     1      -2.759  -0.454   0.317  1.00  0.00     0.171 A 
HETATM   12  N12 UNL     1      -3.233   0.543  -0.449  1.00  0.00    -0.173 N 
ATOM     13  H12 UNL     1      -2.602   1.293  -0.732  1.00  0.00     0.186 HD
ENDROOT
BRANCH  10  14
HETATM   14  C4  UNL     1      -0.400   0.150   0.625  1.00  0.00     0.234 C 
BRANCH  14  15
HETATM   15  C5  UNL     1       0.336  -0.289  -0.592  1.00  0.00     0.182 C 
HETATM   16  O1  UNL     1      -0.150  -0.135  -1.693  1.00  0.00    -0.293 OA
BRANCH  15  17
HETATM   17  C6  UNL     1       1.659  -0.913  -0.439  1.00  0.00     0.258 C 
BRANCH  17  18
HETATM   18  O2  UNL     1       2.071  -1.401  -1.702  1.00  0.00    -0.380 OA
ATOM     19  H2  UNL     1       2.926  -1.804  -1.603  1.00  0.00     0.211 HD
ENDBRANCH  17  18
BRANCH  17  20
HETATM   20  C7  UNL     1       2.603   0.176  -0.010  1.00  0.00     0.148 A 
HETATM   21  N7  UNL     1       2.276   1.344   0.501  1.00  0.00    -0.272 N 
HETATM   22  N8  UNL     1       3.415   2.020   0.736  1.00  0.00    -0.129 N 
ATOM     23  H7  UNL     1       1.330   1.677   0.686  1.00  0.00     0.189 HD
HETATM   24  C8  UNL     1       4.469   1.271   0.368  1.00  0.00     0.712 A 
ATOM     25  H8  UNL     1       3.471   2.958   1.133  1.00  0.00     0.205 HD
HETATM   26  N11 UNL     1       3.943   0.114  -0.098  1.00  0.00    -0.173 N 
ATOM     27  H11 UNL     1       4.477  -0.677  -0.458  1.00  0.00     0.185 HD
BRANCH  24  28
HETATM   28  N9  UNL     1       5.859   1.588   0.434  1.00  0.00    -0.137 N 
ATOM     29  H9  UNL     1       6.158   2.495   0.792  1.00  0.00     0.205 HD
BRANCH  28  30
HETATM   30  N10 UNL     1       6.804   0.665   0.012  1.00  0.00    -0.331 N 
ATOM     31 2H10 UNL     1       6.488  -0.237  -0.344  1.00  0.00     0.177 HD
ATOM     32 1H10 UNL     1       7.797   0.892   0.059  1.00  0.00     0.177 HD
ENDBRANCH  28  30
ENDBRANCH  24  28
ENDBRANCH  17  20
ENDBRANCH  15  17
ENDBRANCH  14  15
ENDBRANCH  10  14
BRANCH   4  33
HETATM   33  N3  UNL     1      -5.823  -2.323   0.572  1.00  0.00    -0.383 N 
ATOM     34  H32 UNL     1      -6.798  -2.310   0.274  1.00  0.00     0.157 HD
ATOM     35  H31 UNL     1      -5.511  -3.101   1.153  1.00  0.00     0.157 HD
ENDBRANCH   4  33
BRANCH   1  36
HETATM   36  N1  UNL     1      -4.863   1.588  -1.580  1.00  0.00    -0.234 N 
ATOM     37  H12 UNL     1      -5.835   1.617  -1.887  1.00  0.00     0.174 HD
ATOM     38  H11 UNL     1      -4.206   2.322  -1.844  1.00  0.00     0.174 HD
ENDBRANCH   1  36
TORSDOF 9
