REMARK  8 active torsions:
REMARK  status: ('A' for Active; 'I' for Inactive)
REMARK    1  A    between atoms: S1_2  and  C2_3 
REMARK    2  A    between atoms: N2_6  and  C3_7 
REMARK    3  A    between atoms: C3_7  and  N3_8 
REMARK    4  A    between atoms: C3_7  and  O1_12 
REMARK    5  A    between atoms: C4_14  and  N4_15 
REMARK    6  A    between atoms: C5_18  and  C6_19 
REMARK    7  A    between atoms: N5_20  and  N6_22 
REMARK    8  A    between atoms: N6_22  and  N7_24 
ROOT
HETATM    1  C2  UNL     1      -1.769   0.469   1.137  1.00  0.00     0.100 A 
HETATM    2  N1  UNL     1      -2.817  -0.371   1.083  1.00  0.00    -0.286 N 
ATOM      3  H1  UNL     1      -3.589  -0.408   1.749  1.00  0.00     0.188 HD
HETATM    4  N2  UNL     1      -2.674  -1.140   0.019  1.00  0.00    -0.221 N 
HETATM    5  C4  UNL     1      -1.549  -0.824  -0.636  1.00  0.00     0.135 A 
HETATM    6  C5  UNL     1      -0.960   0.194   0.057  1.00  0.00     0.061 A 
ENDROOT
BRANCH   6   7
HETATM    7  C6  UNL     1       0.283   0.881  -0.255  1.00  0.00     0.126 C 
HETATM    8  N5  UNL     1       0.938   0.530  -1.284  1.00  0.00    -0.295 N 
ATOM      9  H5  UNL     1       0.560  -0.227  -1.854  1.00  0.00     0.187 HD
BRANCH   8  10
HETATM   10  N6  UNL     1       2.140   1.110  -1.688  1.00  0.00    -0.217 N 
ATOM     11  H6  UNL     1       2.145   1.866  -2.372  1.00  0.00     0.210 HD
BRANCH  10  12
HETATM   12  N7  UNL     1       3.336   0.641  -1.143  1.00  0.00    -0.124 N 
HETATM   13  N8  UNL     1       3.538  -0.313  -0.261  1.00  0.00    -0.246 N 
HETATM   14  C7  UNL     1       4.848  -0.465   0.008  1.00  0.00     0.212 A 
ATOM     15  H8  UNL     1       2.796  -0.868   0.165  1.00  0.00     0.192 HD
HETATM   16  N9  UNL     1       5.434  -1.405   0.916  1.00  0.00    -0.062 NA
HETATM   17  N10 UNL     1       5.470   0.454  -0.760  1.00  0.00    -0.279 N 
HETATM   18  C8  UNL     1       4.556   1.139  -1.472  1.00  0.00     0.364 A 
ATOM     19  H10 UNL     1       6.478   0.606  -0.795  1.00  0.00     0.173 HD
HETATM   20  O2  UNL     1       4.772   2.070  -2.291  1.00  0.00    -0.243 OA
ENDBRANCH  10  12
ENDBRANCH   8  10
ENDBRANCH   6   7
BRANCH   1  21
HETATM   21  S1  UNL     1      -1.534   1.697   2.409  1.00  0.00    -0.114 SA
HETATM   22  C1  UNL     1      -2.336   3.223   1.852  1.00  0.00     0.097 C 
ENDBRANCH   1  21
BRANCH   5  23
HETATM   23  N4  UNL     1      -1.116  -1.398  -1.730  1.00  0.00    -0.383 N 
ATOM     24  H42 UNL     1      -1.556  -2.159  -2.248  1.00  0.00     0.157 HD
ATOM     25  H41 UNL     1      -0.259  -1.157  -2.229  1.00  0.00     0.157 HD
ENDBRANCH   5  23
BRANCH   4  26
HETATM   26  C3  UNL     1      -3.610  -2.187  -0.389  1.00  0.00     0.447 C 
BRANCH  26  27
HETATM   27  N3  UNL     1      -4.969  -1.683  -0.140  1.00  0.00    -0.033 N 
ATOM     28  H33 UNL     1      -5.110  -1.376   0.822  1.00  0.00     0.279 HD
ATOM     29  H32 UNL     1      -5.151  -0.787  -0.593  1.00  0.00     0.279 HD
ATOM     30  H31 UNL     1      -5.622  -2.413  -0.425  1.00  0.00     0.279 HD
ENDBRANCH  26  27
BRANCH  26  31
HETATM   31  O1  UNL     1      -3.419  -3.338   0.368  1.00  0.00    -0.353 OA
ATOM     32  H1  UNL     1      -4.027  -4.018   0.103  1.00  0.00     0.214 HD
ENDBRANCH  26  31
ENDBRANCH   4  26
TORSDOF 8
