REMARK  13 active torsions:
REMARK  status: ('A' for Active; 'I' for Inactive)
REMARK    1  A    between atoms: C2_2  and  C3_3 
REMARK    2  A    between atoms: C3_3  and  C4_4 
REMARK    3  A    between atoms: C4_4  and  C5_5 
REMARK    4  A    between atoms: C5_5  and  N1_6 
REMARK    5  A    between atoms: N1_6  and  C6_9 
REMARK    6  A    between atoms: C6_9  and  C7_10 
REMARK    7  A    between atoms: C7_10  and  O1_11 
REMARK    8  A    between atoms: C7_10  and  N2_13 
REMARK    9  A    between atoms: C9_15  and  N3_16 
REMARK       I    between atoms: N3_16  and  C10_18 
REMARK   10  A    between atoms: C11_23  and  C12_24 
REMARK   11  A    between atoms: C12_24  and  N6_25 
REMARK   12  A    between atoms: C13_30  and  C14_31 
REMARK   13  A    between atoms: C14_31  and  O2_32 
ROOT
HETATM    1  N2  UNL     1      -0.942  -0.542  -1.527  1.00  0.00    -0.355 N 
HETATM    2  C8  UNL     1      -2.355  -0.988  -1.735  1.00  0.00     0.150 C 
HETATM    3  C9  UNL     1      -2.700  -0.870  -0.232  1.00  0.00     0.109 C 
HETATM    4  C11 UNL     1      -2.393   0.566  -0.032  1.00  0.00     0.054 C 
HETATM    5  C13 UNL     1      -1.134   0.727  -0.911  1.00  0.00     0.117 C 
ENDROOT
BRANCH   1   6
HETATM    6  C7  UNL     1       0.119  -1.324  -1.905  1.00  0.00     0.140 C 
BRANCH   6   7
HETATM    7  C6  UNL     1       1.555  -1.095  -1.707  1.00  0.00     0.315 C 
BRANCH   7   8
HETATM    8  N1  UNL     1       1.838   0.111  -1.030  1.00  0.00    -0.068 N 
ATOM      9  H12 UNL     1       1.248   0.211  -0.204  1.00  0.00     0.277 HD
ATOM     10  H11 UNL     1       1.511   0.914  -1.567  1.00  0.00     0.277 HD
BRANCH   8  11
HETATM   11  C5  UNL     1       3.266   0.260  -0.677  1.00  0.00     0.232 C 
BRANCH  11  12
HETATM   12  C4  UNL     1       3.580  -0.723   0.405  1.00  0.00     0.027 C 
BRANCH  12  13
HETATM   13  C3  UNL     1       5.019  -0.669   0.884  1.00  0.00     0.001 C 
BRANCH  13  14
HETATM   14  C2  UNL     1       5.281   0.714   1.430  1.00  0.00    -0.005 C 
HETATM   15  C1  UNL     1       6.722   0.799   1.943  1.00  0.00     0.005 C 
ENDBRANCH  13  14
ENDBRANCH  12  13
ENDBRANCH  11  12
ENDBRANCH   8  11
ENDBRANCH   7   8
ENDBRANCH   6   7
BRANCH   6  16
HETATM   16  O1  UNL     1      -0.098  -2.459  -2.535  1.00  0.00    -0.348 OA
ATOM     17  H1  UNL     1      -1.028  -2.607  -2.663  1.00  0.00     0.219 HD
ENDBRANCH   6  16
ENDBRANCH   1   6
BRANCH   5  18
HETATM   18  C14 UNL     1      -1.329   1.724  -2.026  1.00  0.00     0.189 C 
BRANCH  18  19
HETATM   19  O2  UNL     1      -1.489   3.027  -1.640  1.00  0.00    -0.399 OA
ATOM     20  H2  UNL     1      -1.612   3.655  -2.342  1.00  0.00     0.209 HD
ENDBRANCH  18  19
ENDBRANCH   5  18
BRANCH   3  21
HETATM   21  N3  UNL     1      -3.947  -1.395   0.094  1.00  0.00    -0.358 N 
HETATM   22  C10 UNL     1      -4.336  -1.573   1.449  1.00  0.00     0.182 C 
HETATM   23  N4  UNL     1      -3.451  -1.412   2.399  1.00  0.00    -0.374 N 
HETATM   24  N5  UNL     1      -5.662  -1.921   1.799  1.00  0.00    -0.064 NA
ATOM     25  H42 UNL     1      -2.495  -1.161   2.147  1.00  0.00     0.158 HD
ATOM     26  H41 UNL     1      -3.730  -1.540   3.372  1.00  0.00     0.158 HD
ATOM     27  H3  UNL     1      -4.592  -1.656  -0.652  1.00  0.00     0.162 HD
ENDBRANCH   3  21
BRANCH   4  28
HETATM   28  C12 UNL     1      -3.425   1.554  -0.430  1.00  0.00     0.147 C 
BRANCH  28  29
HETATM   29  N6  UNL     1      -4.691   1.444   0.207  1.00  0.00    -0.342 N 
HETATM   30  N7  UNL     1      -5.721   1.319  -0.463  1.00  0.00    -0.349 N 
ATOM     31  H72 UNL     1      -5.645   1.296  -1.480  1.00  0.00     0.176 HD
ATOM     32  H71 UNL     1      -6.629   1.240  -0.006  1.00  0.00     0.176 HD
ATOM     33  H6  UNL     1      -4.749   1.468   1.225  1.00  0.00     0.179 HD
ENDBRANCH  28  29
ENDBRANCH   4  28
TORSDOF 13
