REMARK  13 active torsions:
REMARK  status: ('A' for Active; 'I' for Inactive)
REMARK    1  A    between atoms: N3_4  and  C2_6 
REMARK    2  A    between atoms: C2_6  and  C3_7 
REMARK    3  A    between atoms: C3_7  and  O1_8 
REMARK    4  A    between atoms: O1_8  and  C4_9 
REMARK    5  A    between atoms: C4_9  and  C5_10 
REMARK    6  A    between atoms: C5_10  and  C6_11 
REMARK    7  A    between atoms: C6_11  and  C7_12 
REMARK    8  A    between atoms: C7_12  and  C8_13 
REMARK    9  A    between atoms: C8_13  and  N5_18 
REMARK   10  A    between atoms: N4_14  and  C9_16 
REMARK   11  A    between atoms: N5_18  and  C10_20 
REMARK   12  A    between atoms: C10_20  and  C11_21 
REMARK   13  A    between atoms: C11_21  and  C12_22 
REMARK       I    between atoms: C12_22  and  N6_24 
ROOT
HETATM    1  C8  UNL     1       1.596   0.048   1.023  1.00  0.00     0.079 C 
HETATM    2  N4  UNL     1       2.623  -0.582   0.595  1.00  0.00    -0.324 N 
ATOM      3  H4  UNL     1       3.503  -0.070   0.533  1.00  0.00     0.169 HD
ENDROOT
BRANCH   1   4
HETATM    4  C7  UNL     1       0.298  -0.733   1.104  1.00  0.00     0.076 C 
BRANCH   4   5
HETATM    5  C6  UNL     1      -0.670  -0.031   0.206  1.00  0.00     0.010 C 
BRANCH   5   6
HETATM    6  C5  UNL     1      -2.026  -0.701   0.241  1.00  0.00     0.027 C 
BRANCH   6   7
HETATM    7  C4  UNL     1      -1.913  -2.105  -0.210  1.00  0.00     0.167 C 
BRANCH   7   8
HETATM    8  O1  UNL     1      -2.929  -2.927  -0.284  1.00  0.00    -0.390 OA
BRANCH   8   9
HETATM    9  C3  UNL     1      -4.036  -2.974  -0.959  1.00  0.00     0.187 C 
BRANCH   9  10
HETATM   10  C2  UNL     1      -5.023  -1.881  -0.729  1.00  0.00     0.148 C 
BRANCH  10  11
HETATM   11  N3  UNL     1      -6.233  -2.099  -1.565  1.00  0.00    -0.365 N 
HETATM   12  C1  UNL     1      -7.051  -1.121  -1.643  1.00  0.00     0.197 C 
HETATM   13  N1  UNL     1      -6.798   0.092  -0.963  1.00  0.00    -0.067 NA
HETATM   14  N2  UNL     1      -8.223  -1.266  -2.426  1.00  0.00    -0.067 NA
ATOM     15  H3  UNL     1      -6.401  -2.981  -2.049  1.00  0.00     0.161 HD
ENDBRANCH  10  11
ENDBRANCH   9  10
ENDBRANCH   8   9
ENDBRANCH   7   8
ENDBRANCH   6   7
ENDBRANCH   5   6
ENDBRANCH   4   5
ENDBRANCH   1   4
BRANCH   1  16
HETATM   16  N5  UNL     1       1.629   1.411   1.409  1.00  0.00    -0.379 N 
ATOM     17  H5  UNL     1       0.978   1.723   2.130  1.00  0.00     0.160 HD
BRANCH  16  18
HETATM   18  C10 UNL     1       2.526   2.376   0.843  1.00  0.00     0.130 C 
BRANCH  18  19
HETATM   19  C11 UNL     1       3.968   2.190   1.184  1.00  0.00     0.123 C 
BRANCH  19  20
HETATM   20  C12 UNL     1       4.774   3.254   0.539  1.00  0.00     0.225 C 
HETATM   21  O3  UNL     1       4.201   4.095  -0.177  1.00  0.00    -0.273 OA
HETATM   22  N6  UNL     1       6.173   3.337   0.718  1.00  0.00    -0.304 N 
HETATM   23  C13 UNL     1       6.978   2.508   0.184  1.00  0.00     0.203 C 
ATOM     24  H6  UNL     1       6.551   4.088   1.296  1.00  0.00     0.171 HD
HETATM   25  N7  UNL     1       6.520   1.441  -0.630  1.00  0.00    -0.066 NA
HETATM   26  N8  UNL     1       8.373   2.639   0.396  1.00  0.00    -0.066 NA
ENDBRANCH  19  20
ENDBRANCH  18  19
ENDBRANCH  16  18
ENDBRANCH   1  16
BRANCH   2  27
HETATM   27  C9  UNL     1       2.621  -1.939   0.202  1.00  0.00     0.354 C 
HETATM   28  O2  UNL     1       3.168  -2.797   0.929  1.00  0.00    -0.283 OA
ENDBRANCH   2  27
TORSDOF 13
