REMARK  11 active torsions:
REMARK  status: ('A' for Active; 'I' for Inactive)
REMARK    1  A    between atoms: N1_2  and  C2_3 
REMARK    2  A    between atoms: C2_3  and  C3_4 
REMARK    3  A    between atoms: C3_4  and  O1_5 
REMARK    4  A    between atoms: O1_5  and  C4_6 
REMARK    5  A    between atoms: C4_6  and  C5_7 
REMARK    6  A    between atoms: C5_7  and  N2_8 
REMARK    7  A    between atoms: N2_8  and  C6_11 
REMARK    8  A    between atoms: C6_11  and  C7_12 
REMARK    9  A    between atoms: C7_12  and  C8_13 
REMARK   10  A    between atoms: C8_13  and  C9_14 
REMARK   11  A    between atoms: C9_14  and  N3_15 
ROOT
HETATM    1  O1  UNL     1      -2.070  -0.695  -1.181  1.00  0.00    -0.388 OA
ENDROOT
BRANCH   1   2
HETATM    2  C3  UNL     1      -3.326  -0.889  -0.670  1.00  0.00     0.198 C 
BRANCH   2   3
HETATM    3  C2  UNL     1      -3.862   0.346  -0.044  1.00  0.00     0.301 C 
BRANCH   3   4
HETATM    4  N1  UNL     1      -5.209   0.166   0.488  1.00  0.00     0.076 N 
HETATM    5  C1  UNL     1      -5.092  -0.116   1.894  1.00  0.00     0.313 C 
HETATM    6  N6  UNL     1      -5.926   1.356   0.343  1.00  0.00    -0.159 N 
HETATM    7  C11 UNL     1      -6.732   1.302  -0.845  1.00  0.00     0.347 C 
ATOM      8  H6  UNL     1      -5.884   2.147   0.986  1.00  0.00     0.199 HD
HETATM    9  O2  UNL     1      -7.298   2.247  -1.442  1.00  0.00    -0.245 OA
HETATM   10  N7  UNL     1      -6.743  -0.096  -1.197  1.00  0.00    -0.271 N 
HETATM   11  C12 UNL     1      -5.966  -0.781  -0.229  1.00  0.00     0.306 C 
ATOM     12  H7  UNL     1      -7.221  -0.515  -1.995  1.00  0.00     0.173 HD
HETATM   13  N8  UNL     1      -5.971  -2.049  -0.055  1.00  0.00    -0.363 N 
ATOM     14  H82 UNL     1      -5.412  -2.542   0.641  1.00  0.00     0.159 HD
ATOM     15  H81 UNL     1      -6.519  -2.735  -0.574  1.00  0.00     0.159 HD
ENDBRANCH   3   4
ENDBRANCH   2   3
ENDBRANCH   1   2
BRANCH   1  16
HETATM   16  C4  UNL     1      -1.152  -0.331  -0.229  1.00  0.00     0.195 C 
BRANCH  16  17
HETATM   17  C5  UNL     1       0.244  -0.174  -0.849  1.00  0.00     0.258 C 
BRANCH  17  18
HETATM   18  N2  UNL     1       1.134   0.209   0.230  1.00  0.00    -0.073 N 
ATOM     19  H22 UNL     1       0.803   1.039   0.722  1.00  0.00     0.277 HD
ATOM     20  H21 UNL     1       1.097  -0.450   1.008  1.00  0.00     0.277 HD
BRANCH  18  21
HETATM   21  C6  UNL     1       2.490   0.379  -0.278  1.00  0.00     0.232 C 
BRANCH  21  22
HETATM   22  C7  UNL     1       3.449   0.773   0.792  1.00  0.00     0.029 C 
BRANCH  22  23
HETATM   23  C8  UNL     1       4.822   0.962   0.249  1.00  0.00     0.021 C 
BRANCH  23  24
HETATM   24  C9  UNL     1       5.328  -0.304  -0.364  1.00  0.00     0.122 C 
BRANCH  24  25
HETATM   25  N3  UNL     1       6.682  -0.152  -0.888  1.00  0.00    -0.367 N 
HETATM   26  C10 UNL     1       7.712  -0.122  -0.136  1.00  0.00     0.196 C 
HETATM   27  N4  UNL     1       7.561  -0.238   1.271  1.00  0.00    -0.067 NA
HETATM   28  N5  UNL     1       9.001   0.027  -0.709  1.00  0.00    -0.067 NA
ATOM     29  H3  UNL     1       6.810  -0.066  -1.896  1.00  0.00     0.161 HD
ENDBRANCH  24  25
ENDBRANCH  23  24
ENDBRANCH  22  23
ENDBRANCH  21  22
ENDBRANCH  18  21
ENDBRANCH  17  18
ENDBRANCH  16  17
ENDBRANCH   1  16
TORSDOF 11
