REMARK  11 active torsions:
REMARK  status: ('A' for Active; 'I' for Inactive)
REMARK       I    between atoms: N1_2  and  C3_4 
REMARK       I    between atoms: C3_4  and  N2_5 
REMARK    1  A    between atoms: N5_10  and  C5_12 
REMARK    2  A    between atoms: C5_12  and  C6_13 
REMARK    3  A    between atoms: C6_13  and  C7_14 
REMARK    4  A    between atoms: C7_14  and  N6_15 
REMARK    5  A    between atoms: N6_15  and  C8_17 
REMARK    6  A    between atoms: C8_17  and  C9_18 
REMARK    7  A    between atoms: C9_18  and  C10_19 
REMARK    8  A    between atoms: C10_19  and  N7_20 
REMARK    9  A    between atoms: N7_20  and  C11_23 
REMARK   10  A    between atoms: C11_23  and  C12_24 
REMARK   11  A    between atoms: C12_24  and  N8_25 
ROOT
HETATM    1  N6  UNL     1      -0.050  -0.841  -0.653  1.00  0.00    -0.402 N 
ATOM      2  H6  UNL     1      -0.277  -1.692  -1.167  1.00  0.00     0.158 HD
ENDROOT
BRANCH   1   3
HETATM    3  C7  UNL     1      -0.153  -0.857   0.733  1.00  0.00     0.120 C 
BRANCH   3   4
HETATM    4  C6  UNL     1      -1.380   0.018   1.109  1.00  0.00     0.040 C 
BRANCH   4   5
HETATM    5  C5  UNL     1      -2.547  -0.690   0.417  1.00  0.00     0.139 C 
BRANCH   5   6
HETATM    6  N5  UNL     1      -3.743   0.033   0.712  1.00  0.00    -0.226 N 
HETATM    7  C3  UNL     1      -4.939  -0.394   0.614  1.00  0.00     0.677 C 
HETATM    8  N1  UNL     1      -5.174  -1.715   0.173  1.00  0.00    -0.227 N 
HETATM    9  N2  UNL     1      -5.998   0.500   0.948  1.00  0.00    -0.166 N 
HETATM   10  C1  UNL     1      -5.071  -2.798   1.122  1.00  0.00     0.168 C 
HETATM   11  C2  UNL     1      -5.516  -1.945  -1.213  1.00  0.00     0.168 C 
HETATM   12  C4  UNL     1      -6.157   1.623   0.320  1.00  0.00     0.215 C 
ATOM     13  H2  UNL     1      -6.644   0.251   1.697  1.00  0.00     0.186 HD
HETATM   14  N3  UNL     1      -5.305   2.044  -0.729  1.00  0.00    -0.066 NA
HETATM   15  N4  UNL     1      -7.247   2.427   0.739  1.00  0.00    -0.066 NA
ATOM     16  H5  UNL     1      -3.627   0.993   1.036  1.00  0.00     0.177 HD
ENDBRANCH   5   6
ENDBRANCH   4   5
ENDBRANCH   3   4
ENDBRANCH   1   3
BRANCH   1  17
HETATM   17  C8  UNL     1       0.349   0.283  -1.372  1.00  0.00     0.057 C 
BRANCH  17  18
HETATM   18  C9  UNL     1       1.793   0.574  -1.423  1.00  0.00     0.071 C 
BRANCH  18  19
HETATM   19  C10 UNL     1       2.490   0.766  -0.133  1.00  0.00     0.237 C 
BRANCH  19  20
HETATM   20  N7  UNL     1       3.910   1.108  -0.490  1.00  0.00    -0.073 N 
ATOM     21  H72 UNL     1       4.353   0.423  -1.103  1.00  0.00     0.277 HD
ATOM     22  H71 UNL     1       3.991   1.907  -1.119  1.00  0.00     0.277 HD
BRANCH  20  23
HETATM   23  C11 UNL     1       4.611   1.293   0.787  1.00  0.00     0.251 C 
BRANCH  23  24
HETATM   24  C12 UNL     1       6.097   1.466   0.410  1.00  0.00     0.149 C 
BRANCH  24  25
HETATM   25  N8  UNL     1       6.477   0.235  -0.281  1.00  0.00    -0.365 N 
HETATM   26  C13 UNL     1       7.583  -0.323   0.018  1.00  0.00     0.197 C 
HETATM   27  N9  UNL     1       8.019  -1.530  -0.614  1.00  0.00    -0.067 NA
HETATM   28  N10 UNL     1       8.423   0.247   0.995  1.00  0.00    -0.067 NA
ATOM     29  H8  UNL     1       5.867  -0.171  -0.991  1.00  0.00     0.161 HD
ENDBRANCH  24  25
ENDBRANCH  23  24
ENDBRANCH  20  23
ENDBRANCH  19  20
ENDBRANCH  18  19
ENDBRANCH  17  18
ENDBRANCH   1  17
TORSDOF 11
