REMARK  4 active torsions:
REMARK  status: ('A' for Active; 'I' for Inactive)
REMARK    1  A    between atoms: N1_3  and  O1_4 
REMARK    2  A    between atoms: N1_3  and  C3_6 
REMARK    3  A    between atoms: C3_6  and  C4_7 
REMARK    4  A    between atoms: C8_12  and  O3_13 
ROOT
HETATM    1  C1  UNL     1       3.601   1.507   0.382  1.00  0.00     0.125 C 
HETATM    2  C2  UNL     1       2.881   0.494  -0.028  1.00  0.00    -0.050 C 
HETATM    3  N1  UNL     1       2.162  -0.485  -0.394  1.00  0.00    -0.229 N 
ENDROOT
BRANCH   3   4
HETATM    4  O1  UNL     1       2.468  -0.992  -1.602  1.00  0.00    -0.281 OA
ATOM      5  H1  UNL     1       1.930  -1.725  -1.876  1.00  0.00     0.245 HD
ENDBRANCH   3   4
BRANCH   3   6
HETATM    6  C3  UNL     1       1.152  -0.902   0.504  1.00  0.00     0.172 C 
BRANCH   6   7
HETATM    7  C4  UNL     1      -0.194  -0.772  -0.173  1.00  0.00     0.039 C 
HETATM    8  C5  UNL     1      -1.319  -1.212   0.760  1.00  0.00     0.035 C 
HETATM    9  C6  UNL     1      -2.583  -1.079  -0.097  1.00  0.00     0.168 C 
HETATM   10  O2  UNL     1      -2.814   0.263  -0.261  1.00  0.00    -0.389 OA
HETATM   11  C7  UNL     1      -1.850   0.952  -0.937  1.00  0.00     0.199 C 
HETATM   12  C8  UNL     1      -0.445   0.668  -0.501  1.00  0.00     0.147 C 
BRANCH  12  13
HETATM   13  O3  UNL     1      -0.089   1.460   0.595  1.00  0.00    -0.393 OA
ATOM     14  H3  UNL     1      -0.248   2.373   0.387  1.00  0.00     0.210 HD
ENDBRANCH  12  13
ENDBRANCH   6   7
ENDBRANCH   3   6
TORSDOF 4
