REMARK  2 active torsions:
REMARK  status: ('A' for Active; 'I' for Inactive)
REMARK    1  A    between atoms: C2_3  and  C3_4 
REMARK    2  A    between atoms: C3_4  and  N2_5 
ROOT
HETATM    1  N1  UNL     1       3.961   0.745  -2.064  1.00  0.00    -0.197 NA
HETATM    2  C1  UNL     1       3.615   0.646  -0.972  1.00  0.00     0.060 C 
HETATM    3  C2  UNL     1       3.186   0.517   0.446  1.00  0.00     0.154 C 
ENDROOT
BRANCH   3   4
HETATM    4  C3  UNL     1       2.149  -0.567   0.526  1.00  0.00     0.286 C 
BRANCH   4   5
HETATM    5  N2  UNL     1       0.979  -0.271  -0.226  1.00  0.00     0.090 N 
HETATM    6  C4  UNL     1       0.176   0.796   0.367  1.00  0.00     0.279 C 
HETATM    7  C5  UNL     1      -1.019   0.777  -0.539  1.00  0.00     0.047 C 
HETATM    8  C6  UNL     1      -2.279   1.312   0.091  1.00  0.00     0.239 C 
HETATM    9  C8  UNL     1      -1.266  -0.717  -0.669  1.00  0.00     0.047 C 
HETATM   10  N3  UNL     1      -3.175   0.200   0.316  1.00  0.00    -0.074 N 
HETATM   11  C7  UNL     1      -2.387  -0.998   0.290  1.00  0.00     0.239 C 
ATOM     12  H32 UNL     1      -3.724   0.297   1.170  1.00  0.00     0.277 HD
ATOM     13  H31 UNL     1      -3.955   0.178  -0.341  1.00  0.00     0.277 HD
HETATM   14  C9  UNL     1       0.036  -1.362  -0.220  1.00  0.00     0.279 C 
ENDBRANCH   4   5
ENDBRANCH   3   4
TORSDOF 2
