REMARK  3 active torsions:
REMARK  status: ('A' for Active; 'I' for Inactive)
REMARK    1  A    between atoms: O1_1  and  C1_3 
REMARK    2  A    between atoms: C1_3  and  C2_4 
REMARK    3  A    between atoms: N1_7  and  C5_8 
ROOT
HETATM    1  C2  UNL     1      -1.951   0.147   0.177  1.00  0.00     0.012 C 
HETATM    2  C3  UNL     1      -1.078   0.708  -0.915  1.00  0.00     0.026 C 
HETATM    3  C4  UNL     1       0.275   1.035  -0.271  1.00  0.00     0.118 C 
HETATM    4  N1  UNL     1       0.847  -0.154   0.156  1.00  0.00    -0.404 N 
HETATM    5  C8  UNL     1       0.070  -1.347   0.106  1.00  0.00     0.118 C 
HETATM    6  C9  UNL     1      -1.328  -1.145   0.656  1.00  0.00     0.026 C 
ENDROOT
BRANCH   4   7
HETATM    7  C5  UNL     1       2.218  -0.354   0.249  1.00  0.00     0.126 C 
HETATM    8  C6  UNL     1       3.046   0.450   1.198  1.00  0.00     0.194 C 
HETATM    9  O2  UNL     1       4.046   0.497   0.229  1.00  0.00    -0.387 OA
HETATM   10  C7  UNL     1       3.139   0.196  -0.786  1.00  0.00     0.194 C 
ENDBRANCH   4   7
BRANCH   1  11
HETATM   11  C1  UNL     1      -3.345  -0.178  -0.307  1.00  0.00     0.168 C 
BRANCH  11  12
HETATM   12  O1  UNL     1      -4.043   0.899  -0.801  1.00  0.00    -0.400 OA
ATOM     13  H1  UNL     1      -4.919   0.695  -1.105  1.00  0.00     0.209 HD
ENDBRANCH  11  12
ENDBRANCH   1  11
TORSDOF 3
