REMARK  3 active torsions:
REMARK  status: ('A' for Active; 'I' for Inactive)
REMARK    1  A    between atoms: C1_2  and  C2_3 
REMARK    2  A    between atoms: C5_6  and  C6_7 
REMARK    3  A    between atoms: C6_7  and  O2_8 
ROOT
HETATM    1  C2  UNL     1      -1.593   0.008   0.337  1.00  0.00     0.119 A 
HETATM    2  C3  UNL     1      -1.388   1.285  -0.495  1.00  0.00     0.054 A 
HETATM    3  C4  UNL     1      -0.333   0.774   0.381  1.00  0.00     0.041 A 
HETATM    4  C5  UNL     1       0.821  -0.041  -0.099  1.00  0.00    -0.007 C 
HETATM    5  C7  UNL     1       0.558  -0.747  -1.399  1.00  0.00     0.044 C 
HETATM    6  C8  UNL     1      -0.315  -1.704  -0.576  1.00  0.00     0.124 C 
HETATM    7  C9  UNL     1       0.671  -1.417   0.565  1.00  0.00     0.044 C 
HETATM    8  O3  UNL     1      -1.551  -1.187  -0.334  1.00  0.00    -0.367 OA
ENDROOT
BRANCH   4   9
HETATM    9  C6  UNL     1       2.179   0.574   0.051  1.00  0.00     0.174 C 
BRANCH   9  10
HETATM   10  O2  UNL     1       2.182   1.760  -0.679  1.00  0.00    -0.400 OA
ATOM     11  H2  UNL     1       3.043   2.150  -0.584  1.00  0.00     0.209 HD
ENDBRANCH   9  10
ENDBRANCH   4   9
BRANCH   1  12
HETATM   12  C1  UNL     1      -2.635   0.175   1.382  1.00  0.00     0.269 C 
HETATM   13  O1  UNL     1      -3.397  -0.752   1.590  1.00  0.00    -0.304 OA
ENDBRANCH   1  12
TORSDOF 3
