REMARK  12 active torsions:
REMARK  status: ('A' for Active; 'I' for Inactive)
REMARK    1  A    between atoms: C2_2  and  N1_3 
REMARK       I    between atoms: N1_3  and  C3_5 
REMARK    2  A    between atoms: C3_5  and  C4_7 
REMARK    3  A    between atoms: C4_7  and  C5_8 
REMARK    4  A    between atoms: C7_10  and  O2_11 
REMARK    5  A    between atoms: O2_11  and  C8_12 
REMARK    6  A    between atoms: C15_20  and  C16_21 
REMARK    7  A    between atoms: C16_21  and  C17_22 
REMARK    8  A    between atoms: C17_22  and  C18_23 
REMARK    9  A    between atoms: C18_23  and  C20_25 
REMARK   10  A    between atoms: C20_25  and  O4_27 
REMARK   11  A    between atoms: C24_31  and  O5_32 
REMARK   12  A    between atoms: C33_43  and  O7_44 
ROOT
HETATM    1  C8  UNL     1       1.639  -1.767   0.096  1.00  0.00     0.150 C 
HETATM    2  C9  UNL     1       0.890  -1.423   1.402  1.00  0.00     0.040 C 
HETATM    3  C10 UNL     1      -0.077  -0.344   1.116  1.00  0.00     0.046 C 
HETATM    4  C11 UNL     1      -1.206  -0.118   2.036  1.00  0.00     0.103 C 
HETATM    5  C12 UNL     1      -1.760  -1.268   2.795  1.00  0.00     0.052 C 
HETATM    6  F1  UNL     1      -0.648   0.683   3.073  1.00  0.00    -0.243 F 
HETATM    7  C13 UNL     1      -2.251   0.793   1.457  1.00  0.00     0.025 C 
HETATM    8  C14 UNL     1      -1.560   2.148   1.298  1.00  0.00     0.014 C 
HETATM    9  C15 UNL     1      -2.932   0.487   0.207  1.00  0.00    -0.002 C 
HETATM   10  C22 UNL     1      -3.270  -0.865  -0.251  1.00  0.00     0.015 C 
HETATM   11  C23 UNL     1      -4.763  -1.188  -0.348  1.00  0.00     0.013 C 
HETATM   12  C24 UNL     1      -2.800  -1.160  -1.701  1.00  0.00     0.129 C 
HETATM   13  C25 UNL     1      -2.553  -2.625  -1.922  1.00  0.00     0.111 C 
HETATM   14  C26 UNL     1      -1.141  -3.051  -1.737  1.00  0.00     0.136 C 
HETATM   15  O6  UNL     1      -0.344  -2.791  -2.614  1.00  0.00    -0.297 OA
HETATM   16  C27 UNL     1      -0.727  -3.779  -0.508  1.00  0.00     0.074 C 
HETATM   17  C28 UNL     1      -1.519  -5.107  -0.428  1.00  0.00     0.022 C 
HETATM   18  C29 UNL     1       0.707  -4.029  -0.411  1.00  0.00    -0.010 C 
HETATM   19  C30 UNL     1       1.706  -3.217  -0.161  1.00  0.00    -0.058 C 
HETATM   20  C31 UNL     1       3.116  -3.805  -0.103  1.00  0.00     0.046 C 
ENDROOT
BRANCH   1  21
HETATM   21  O2  UNL     1       2.914  -1.163   0.125  1.00  0.00    -0.376 OA
BRANCH  21  22
HETATM   22  C7  UNL     1       3.072  -0.139  -0.768  1.00  0.00     0.125 C 
HETATM   23  C6  UNL     1       3.423   1.137   0.022  1.00  0.00     0.039 C 
HETATM   24  C5  UNL     1       4.919   1.064   0.252  1.00  0.00     0.025 C 
HETATM   25  C33 UNL     1       5.457   0.087  -0.775  1.00  0.00     0.125 C 
HETATM   26  C32 UNL     1       4.291  -0.289  -1.672  1.00  0.00     0.064 C 
BRANCH  24  27
HETATM   27  C4  UNL     1       5.579   2.410  -0.022  1.00  0.00     0.110 C 
BRANCH  27  28
HETATM   28  C3  UNL     1       7.047   2.287   0.231  1.00  0.00     0.217 C 
HETATM   29  N1  UNL     1       7.913   3.386   0.017  1.00  0.00    -0.361 N 
ATOM     30  H1  UNL     1       7.544   4.277  -0.315  1.00  0.00     0.162 HD
HETATM   31  O1  UNL     1       7.528   1.197   0.640  1.00  0.00    -0.274 OA
BRANCH  29  32
HETATM   32  C2  UNL     1       9.325   3.229   0.275  1.00  0.00     0.118 C 
HETATM   33  C1  UNL     1       9.918   2.123  -0.592  1.00  0.00     0.026 C 
ENDBRANCH  29  32
ENDBRANCH  27  28
ENDBRANCH  24  27
BRANCH  25  34
HETATM   34  O7  UNL     1       5.908  -1.043  -0.092  1.00  0.00    -0.395 OA
ATOM     35  H7  UNL     1       6.245  -1.655  -0.736  1.00  0.00     0.210 HD
ENDBRANCH  25  34
ENDBRANCH  21  22
ENDBRANCH   1  21
BRANCH   9  36
HETATM   36  C16 UNL     1      -4.011   1.535   0.001  1.00  0.00     0.006 C 
BRANCH  36  37
HETATM   37  C17 UNL     1      -5.039   1.642   1.052  1.00  0.00     0.014 C 
BRANCH  37  38
HETATM   38  C18 UNL     1      -6.105   2.694   0.793  1.00  0.00     0.081 C 
HETATM   39  C19 UNL     1      -7.077   2.683   1.993  1.00  0.00     0.020 C 
BRANCH  38  40
HETATM   40  C20 UNL     1      -6.931   2.467  -0.386  1.00  0.00     0.262 C 
HETATM   41  O3  UNL     1      -8.179   2.172  -0.314  1.00  0.00    -0.265 OA
BRANCH  40  42
HETATM   42  O4  UNL     1      -6.434   2.553  -1.663  1.00  0.00    -0.326 OA
HETATM   43  C21 UNL     1      -7.261   2.328  -2.812  1.00  0.00     0.213 C 
ENDBRANCH  40  42
ENDBRANCH  38  40
ENDBRANCH  37  38
ENDBRANCH  36  37
ENDBRANCH   9  36
BRANCH  12  44
HETATM   44  O5  UNL     1      -3.776  -0.664  -2.586  1.00  0.00    -0.395 OA
ATOM     45  H5  UNL     1      -3.488  -0.845  -3.473  1.00  0.00     0.210 HD
ENDBRANCH  12  44
TORSDOF 12
