REMARK  13 active torsions:
REMARK  status: ('A' for Active; 'I' for Inactive)
REMARK    1  A    between atoms: C4_6  and  C5_7 
REMARK    2  A    between atoms: C5_7  and  O1_8 
REMARK    3  A    between atoms: C5_7  and  C6_10 
REMARK    4  A    between atoms: C6_10  and  C7_11 
REMARK    5  A    between atoms: C7_11  and  O2_12 
REMARK    6  A    between atoms: C7_11  and  C8_14 
REMARK    7  A    between atoms: C8_14  and  C9_15 
REMARK    8  A    between atoms: C15_21  and  O3_22 
REMARK    9  A    between atoms: C18_27  and  O5_28 
REMARK   10  A    between atoms: C18_27  and  N2_30 
REMARK   11  A    between atoms: N2_30  and  C19_32 
REMARK   12  A    between atoms: C19_32  and  C20_33 
REMARK   13  A    between atoms: C20_33  and  C21_34 
ROOT
HETATM    1  C9  UNL     1       1.483  -0.571   0.878  1.00  0.00    -0.030 C 
HETATM    2  C10 UNL     1       1.084   0.647   0.178  1.00  0.00     0.042 C 
HETATM    3  C11 UNL     1       0.045   1.509   0.864  1.00  0.00     0.130 C 
HETATM    4  C12 UNL     1      -1.363   1.114   0.450  1.00  0.00     0.067 C 
HETATM    5  C13 UNL     1      -2.036   0.094   1.272  1.00  0.00    -0.061 C 
HETATM    6  C14 UNL     1      -1.424  -0.094   2.648  1.00  0.00     0.103 C 
HETATM    7  C15 UNL     1       0.003   0.318   2.772  1.00  0.00     0.166 C 
HETATM    8  C16 UNL     1       1.047  -0.624   2.347  1.00  0.00     0.078 C 
HETATM    9  O4  UNL     1       0.135   1.583   2.213  1.00  0.00    -0.349 OA
HETATM   10  C17 UNL     1      -2.446  -1.207   0.652  1.00  0.00    -0.000 C 
HETATM   11  C18 UNL     1      -3.613  -1.104  -0.193  1.00  0.00     0.146 C 
HETATM   12  C27 UNL     1      -1.411  -2.212   0.346  1.00  0.00     0.027 C 
HETATM   13  C28 UNL     1      -2.135  -3.521  -0.013  1.00  0.00     0.010 C 
HETATM   14  C29 UNL     1      -1.132  -4.634   0.275  1.00  0.00     0.001 C 
HETATM   15  C30 UNL     1       0.017  -4.398  -0.691  1.00  0.00     0.000 C 
HETATM   16  C31 UNL     1      -0.126  -3.141  -1.464  1.00  0.00     0.005 C 
HETATM   17  C32 UNL     1      -0.261  -1.894  -0.520  1.00  0.00    -0.005 C 
HETATM   18  C33 UNL     1       1.032  -1.856   0.178  1.00  0.00     0.015 C 
ENDROOT
BRANCH   1  19
HETATM   19  C8  UNL     1       2.964  -0.780   0.917  1.00  0.00     0.041 C 
BRANCH  19  20
HETATM   20  C7  UNL     1       3.883   0.174   1.568  1.00  0.00     0.121 C 
BRANCH  20  21
HETATM   21  C6  UNL     1       5.312  -0.294   1.498  1.00  0.00     0.071 C 
BRANCH  21  22
HETATM   22  C5  UNL     1       6.023  -0.430   0.226  1.00  0.00     0.188 C 
BRANCH  22  23
HETATM   23  C4  UNL     1       6.240   0.737  -0.641  1.00  0.00     0.110 A 
HETATM   24  N1  UNL     1       7.033   1.735  -0.183  1.00  0.00    -0.353 N 
HETATM   25  C3  UNL     1       7.307   2.800  -0.950  1.00  0.00     0.097 A 
ATOM     26  H1  UNL     1       7.426   1.676   0.756  1.00  0.00     0.166 HD
HETATM   27  C2  UNL     1       6.786   2.900  -2.222  1.00  0.00    -0.031 A 
HETATM   28  C1  UNL     1       7.087   4.081  -3.082  1.00  0.00     0.051 C 
HETATM   29  C34 UNL     1       5.979   1.861  -2.660  1.00  0.00     0.097 A 
HETATM   30  N3  UNL     1       5.723   0.817  -1.880  1.00  0.00    -0.353 N 
ATOM     31  H3  UNL     1       5.126   0.065  -2.225  1.00  0.00     0.166 HD
ENDBRANCH  22  23
BRANCH  22  32
HETATM   32  O1  UNL     1       7.378  -0.873   0.509  1.00  0.00    -0.388 OA
ATOM     33  H1  UNL     1       7.238  -1.627   1.069  1.00  0.00     0.210 HD
ENDBRANCH  22  32
ENDBRANCH  21  22
ENDBRANCH  20  21
BRANCH  20  34
HETATM   34  O2  UNL     1       3.762   1.433   1.104  1.00  0.00    -0.395 OA
ATOM     35  H2  UNL     1       2.860   1.728   1.148  1.00  0.00     0.210 HD
ENDBRANCH  20  34
ENDBRANCH  19  20
ENDBRANCH   1  19
BRANCH   7  36
HETATM   36  O3  UNL     1       0.200   0.563   4.167  1.00  0.00    -0.365 OA
ATOM     37  H3  UNL     1       1.110   0.826   4.246  1.00  0.00     0.213 HD
ENDBRANCH   7  36
BRANCH  11  38
HETATM   38  O5  UNL     1      -4.615  -1.903   0.065  1.00  0.00    -0.346 OA
ATOM     39  H5  UNL     1      -5.383  -1.835  -0.491  1.00  0.00     0.219 HD
ENDBRANCH  11  38
BRANCH  11  40
HETATM   40  N2  UNL     1      -3.927  -0.293  -1.291  1.00  0.00    -0.347 N 
ATOM     41  H2  UNL     1      -3.207   0.371  -1.576  1.00  0.00     0.167 HD
BRANCH  40  42
HETATM   42  C19 UNL     1      -5.114  -0.280  -2.052  1.00  0.00     0.091 C 
BRANCH  42  43
HETATM   43  C20 UNL     1      -6.417   0.085  -1.533  1.00  0.00     0.031 C 
BRANCH  43  44
HETATM   44  C21 UNL     1      -6.725   1.403  -1.041  1.00  0.00     0.004 A 
HETATM   45  C22 UNL     1      -7.282   2.355  -1.923  1.00  0.00     0.014 A 
HETATM   46  C23 UNL     1      -7.551   3.630  -1.497  1.00  0.00     0.001 A 
HETATM   47  C24 UNL     1      -7.298   4.046  -0.204  1.00  0.00     0.003 A 
HETATM   48  C25 UNL     1      -6.759   3.127   0.654  1.00  0.00     0.043 A 
HETATM   49  C26 UNL     1      -6.474   1.807   0.237  1.00  0.00     0.126 A 
HETATM   50  F1  UNL     1      -5.982   0.996   1.210  1.00  0.00    -0.205 F 
ENDBRANCH  43  44
ENDBRANCH  42  43
ENDBRANCH  40  42
ENDBRANCH  11  40
TORSDOF 13
