REMARK  5 active torsions:
REMARK  status: ('A' for Active; 'I' for Inactive)
REMARK    1  A    between atoms: C5_8  and  C6_9 
REMARK    2  A    between atoms: C6_9  and  N2_10 
REMARK    3  A    between atoms: C8_12  and  C9_13 
REMARK    4  A    between atoms: C9_13  and  N3_14 
REMARK    5  A    between atoms: N3_14  and  C10_16 
ROOT
HETATM    1  N2  UNL     1       3.653   1.468   1.182  1.00  0.00    -0.298 N 
HETATM    2  C7  UNL     1       2.521   0.744   1.319  1.00  0.00     0.124 A 
HETATM    3  C8  UNL     1       1.421   1.544   1.101  1.00  0.00     0.013 A 
HETATM    4  C22 UNL     1       1.935   2.793   0.824  1.00  0.00     0.121 A 
HETATM    5  N4  UNL     1       3.265   2.691   0.886  1.00  0.00    -0.309 N 
ATOM      6  H4  UNL     1       3.905   3.469   0.723  1.00  0.00     0.186 HD
ENDROOT
BRANCH   3   7
HETATM    7  C9  UNL     1      -0.030   1.143   1.159  1.00  0.00     0.097 C 
BRANCH   7   8
HETATM    8  N3  UNL     1      -0.330   0.173   0.193  1.00  0.00    -0.389 N 
ATOM      9  H3  UNL     1       0.393  -0.182  -0.434  1.00  0.00     0.159 HD
BRANCH   8  10
HETATM   10  C10 UNL     1      -1.665  -0.304   0.108  1.00  0.00     0.031 C 
HETATM   11  C11 UNL     1      -2.136  -0.997   1.362  1.00  0.00     0.035 C 
HETATM   12  C12 UNL     1      -3.537  -1.523   1.180  1.00  0.00    -0.012 C 
HETATM   13  C13 UNL     1      -3.460  -2.808   0.422  1.00  0.00     0.005 C 
HETATM   14  C19 UNL     1      -4.504  -0.534   0.641  1.00  0.00     0.014 C 
HETATM   15  C14 UNL     1      -3.715  -2.686  -1.043  1.00  0.00     0.005 C 
HETATM   16  C15 UNL     1      -3.044  -1.482  -1.666  1.00  0.00    -0.012 C 
HETATM   17  C16 UNL     1      -3.946  -0.276  -1.712  1.00  0.00     0.014 C 
HETATM   18  C21 UNL     1      -1.707  -1.228  -1.092  1.00  0.00     0.035 C 
HETATM   19  C17 UNL     1      -3.972   0.412  -0.376  1.00  0.00    -0.041 C 
HETATM   20  C18 UNL     1      -4.861   1.636  -0.493  1.00  0.00     0.015 C 
HETATM   21  C20 UNL     1      -2.573   0.895  -0.085  1.00  0.00     0.040 C 
ENDBRANCH   8  10
ENDBRANCH   7   8
ENDBRANCH   3   7
BRANCH   1  22
HETATM   22  C6  UNL     1       4.996   0.939   1.341  1.00  0.00     0.191 C 
BRANCH  22  23
HETATM   23  C5  UNL     1       5.497   0.450   0.034  1.00  0.00     0.017 A 
HETATM   24  C2  UNL     1       5.969   1.230  -1.001  1.00  0.00     0.039 A 
HETATM   25  C1  UNL     1       6.101   2.721  -1.068  1.00  0.00     0.071 C 
HETATM   26  N1  UNL     1       6.307   0.346  -1.980  1.00  0.00    -0.265 N 
HETATM   27  O1  UNL     1       6.060  -0.861  -1.571  1.00  0.00    -0.242 OA
ATOM     28  H1  UNL     1       6.693   0.593  -2.891  1.00  0.00     0.194 HD
HETATM   29  C3  UNL     1       5.568  -0.880  -0.360  1.00  0.00     0.082 A 
HETATM   30  C4  UNL     1       5.154  -2.051   0.466  1.00  0.00     0.079 C 
ENDBRANCH  22  23
ENDBRANCH   1  22
TORSDOF 5
