REMARK  5 active torsions:
REMARK  status: ('A' for Active; 'I' for Inactive)
REMARK    1  A    between atoms: C2_2  and  C4_4 
REMARK    2  A    between atoms: C4_4  and  C5_5 
REMARK    3  A    between atoms: C5_5  and  N1_6 
REMARK       I    between atoms: N1_6  and  C6_8 
REMARK    4  A    between atoms: C6_8  and  C7_10 
REMARK    5  A    between atoms: C9_14  and  C10_15 
ROOT
HETATM    1  C7  UNL     1       0.566  -0.636  -0.621  1.00  0.00     0.070 C 
HETATM    2  C8  UNL     1      -0.317   0.268  -1.240  1.00  0.00     0.107 C 
HETATM    3  N2  UNL     1      -1.673   0.190  -1.307  1.00  0.00    -0.366 N 
ATOM      4  H2  UNL     1      -2.112   0.753  -2.036  1.00  0.00     0.165 HD
HETATM    5  C9  UNL     1      -2.523  -0.538  -0.533  1.00  0.00     0.042 C 
HETATM    6  C16 UNL     1      -2.246  -1.697   0.155  1.00  0.00     0.084 A 
HETATM    7  N3  UNL     1      -3.280  -2.289   0.737  1.00  0.00    -0.361 N 
ATOM      8  H3  UNL     1      -4.200  -1.857   0.647  1.00  0.00     0.165 HD
HETATM    9  C17 UNL     1      -3.175  -3.425   1.436  1.00  0.00     0.105 A 
HETATM   10  C18 UNL     1      -1.952  -4.043   1.584  1.00  0.00     0.105 A 
HETATM   11  N4  UNL     1      -0.876  -3.462   1.001  1.00  0.00    -0.361 N 
ATOM     12  H4  UNL     1       0.043  -3.895   1.093  1.00  0.00     0.165 HD
HETATM   13  C19 UNL     1      -1.005  -2.325   0.305  1.00  0.00     0.083 A 
HETATM   14  C20 UNL     1       0.195  -1.890  -0.222  1.00  0.00     0.077 C 
HETATM   15  S1  UNL     1       1.343  -3.034  -0.421  1.00  0.00    -0.077 SA
ENDROOT
BRANCH   1  16
HETATM   16  C6  UNL     1       1.894  -0.161  -0.401  1.00  0.00     0.254 C 
HETATM   17  N1  UNL     1       2.893  -0.641   0.451  1.00  0.00    -0.357 N 
ATOM     18  H1  UNL     1       2.679  -1.451   1.033  1.00  0.00     0.162 HD
HETATM   19  O1  UNL     1       2.233   0.877  -1.094  1.00  0.00    -0.268 OA
BRANCH  17  20
HETATM   20  C5  UNL     1       4.219  -0.055   0.557  1.00  0.00     0.123 C 
BRANCH  20  21
HETATM   21  C4  UNL     1       5.007  -0.072  -0.706  1.00  0.00     0.023 C 
BRANCH  21  22
HETATM   22  C2  UNL     1       6.362   0.574  -0.379  1.00  0.00    -0.021 C 
HETATM   23  C1  UNL     1       7.247   0.613  -1.595  1.00  0.00     0.009 C 
HETATM   24  C3  UNL     1       6.152   1.971   0.140  1.00  0.00     0.009 C 
ENDBRANCH  21  22
ENDBRANCH  20  21
ENDBRANCH  17  20
ENDBRANCH   1  16
BRANCH   5  25
HETATM   25  C10 UNL     1      -3.894  -0.041  -0.400  1.00  0.00     0.038 C 
HETATM   26  C11 UNL     1      -4.176   1.087  -1.403  1.00  0.00     0.011 C 
HETATM   27  C12 UNL     1      -4.826   2.281  -0.760  1.00  0.00     0.001 C 
HETATM   28  C13 UNL     1      -6.075   1.887  -0.015  1.00  0.00     0.000 C 
HETATM   29  C14 UNL     1      -5.714   0.820   0.968  1.00  0.00     0.001 C 
HETATM   30  C15 UNL     1      -4.207   0.563   0.959  1.00  0.00     0.011 C 
ENDBRANCH   5  25
TORSDOF 5
