REMARK  9 active torsions:
REMARK  status: ('A' for Active; 'I' for Inactive)
REMARK    1  A    between atoms: O1_2  and  C2_3 
REMARK    2  A    between atoms: C2_3  and  O2_4 
REMARK    3  A    between atoms: O2_4  and  N1_5 
REMARK    4  A    between atoms: N1_5  and  C3_7 
REMARK    5  A    between atoms: C4_8  and  C5_9 
REMARK    6  A    between atoms: C5_9  and  O3_10 
REMARK    7  A    between atoms: C5_9  and  C6_12 
REMARK    8  A    between atoms: C6_12  and  N2_13 
REMARK    9  A    between atoms: C9_20  and  N5_21 
ROOT
HETATM    1  N2  UNL     1      -2.520  -1.255  -0.342  1.00  0.00    -0.285 N 
HETATM    2  N3  UNL     1      -3.225  -1.822  -1.307  1.00  0.00    -0.307 N 
ATOM      3  H3  UNL     1      -2.893  -2.627  -1.838  1.00  0.00     0.186 HD
HETATM    4  C7  UNL     1      -4.396  -1.253  -1.522  1.00  0.00     0.139 A 
HETATM    5  C8  UNL     1      -4.489  -0.216  -0.625  1.00  0.00     0.097 A 
HETATM    6  N4  UNL     1      -5.460   0.696  -0.399  1.00  0.00    -0.188 N 
ATOM      7  H4  UNL     1      -6.319   0.686  -0.949  1.00  0.00     0.184 HD
HETATM    8  C9  UNL     1      -5.277   1.604   0.550  1.00  0.00     0.677 A 
HETATM    9  N6  UNL     1      -4.150   1.604   1.261  1.00  0.00    -0.180 N 
ATOM     10  H6  UNL     1      -4.032   2.312   1.986  1.00  0.00     0.185 HD
HETATM   11  C10 UNL     1      -3.142   0.696   1.062  1.00  0.00     0.160 A 
HETATM   12  C11 UNL     1      -1.959   0.766   1.873  1.00  0.00     0.120 C 
HETATM   13  N7  UNL     1      -0.997   0.854   2.555  1.00  0.00    -0.190 NA
HETATM   14  C12 UNL     1      -3.305  -0.238   0.100  1.00  0.00     0.117 A 
ENDROOT
BRANCH   8  15
HETATM   15  N5  UNL     1      -6.200   2.493   0.779  1.00  0.00    -0.234 N 
ATOM     16  H52 UNL     1      -7.063   2.493   0.235  1.00  0.00     0.174 HD
ATOM     17  H51 UNL     1      -6.059   3.191   1.509  1.00  0.00     0.174 HD
ENDBRANCH   8  15
BRANCH   1  18
HETATM   18  C6  UNL     1      -1.235  -1.669   0.104  1.00  0.00     0.187 C 
BRANCH  18  19
HETATM   19  C5  UNL     1      -0.084  -0.955  -0.609  1.00  0.00     0.190 C 
BRANCH  19  20
HETATM   20  C4  UNL     1       1.218  -1.415  -0.085  1.00  0.00     0.078 A 
HETATM   21  C3  UNL     1       2.398  -0.726  -0.283  1.00  0.00     0.147 A 
HETATM   22  C14 UNL     1       3.594  -1.166   0.213  1.00  0.00     0.280 A 
HETATM   23  N9  UNL     1       3.678  -2.307   0.927  1.00  0.00    -0.273 N 
HETATM   24  O5  UNL     1       4.697  -0.547   0.043  1.00  0.00    -0.265 OA
HETATM   25  C13 UNL     1       2.536  -2.979   1.120  1.00  0.00     0.327 A 
ATOM     26  H9  UNL     1       4.566  -2.641   1.301  1.00  0.00     0.173 HD
HETATM   27  N8  UNL     1       1.354  -2.567   0.644  1.00  0.00    -0.307 N 
HETATM   28  O4  UNL     1       2.584  -4.052   1.785  1.00  0.00    -0.247 OA
ATOM     29  H8  UNL     1       0.525  -3.131   0.831  1.00  0.00     0.170 HD
BRANCH  21  30
HETATM   30  N1  UNL     1       2.371   0.483  -1.021  1.00  0.00    -0.257 N 
ATOM     31  H1  UNL     1       1.507   0.796  -1.465  1.00  0.00     0.194 HD
BRANCH  30  32
HETATM   32  O2  UNL     1       3.502   1.220  -1.132  1.00  0.00    -0.254 OA
BRANCH  32  33
HETATM   33  C2  UNL     1       3.093   2.571  -0.991  1.00  0.00     0.369 C 
BRANCH  33  34
HETATM   34  O1  UNL     1       4.199   3.366  -1.094  1.00  0.00    -0.369 OA
HETATM   35  C1  UNL     1       5.147   3.106  -0.129  1.00  0.00     0.204 C 
ENDBRANCH  33  34
ENDBRANCH  32  33
ENDBRANCH  30  32
ENDBRANCH  21  30
ENDBRANCH  19  20
BRANCH  19  36
HETATM   36  O3  UNL     1      -0.163  -1.281  -1.989  1.00  0.00    -0.388 OA
ATOM     37  H3  UNL     1      -1.000  -0.985  -2.326  1.00  0.00     0.210 HD
ENDBRANCH  19  36
ENDBRANCH  18  19
ENDBRANCH   1  18
TORSDOF 9
