REMARK  11 active torsions:
REMARK  status: ('A' for Active; 'I' for Inactive)
REMARK    1  A    between atoms: C2_2  and  C3_3 
REMARK    2  A    between atoms: C3_3  and  C4_4 
REMARK    3  A    between atoms: N3_8  and  C5_9 
REMARK    4  A    between atoms: C7_11  and  O1_12 
REMARK    5  A    between atoms: O1_12  and  C8_13 
REMARK    6  A    between atoms: C9_16  and  N5_17 
REMARK    7  A    between atoms: C10_22  and  N7_23 
REMARK    8  A    between atoms: C11_30  and  N10_31 
REMARK    9  A    between atoms: N10_31  and  C12_33 
REMARK   10  A    between atoms: C12_33  and  C13_34 
REMARK   11  A    between atoms: C13_34  and  O2_35 
ROOT
HETATM    1  C5  UNL     1       0.492   0.834  -0.309  1.00  0.00     0.162 A 
HETATM    2  C6  UNL     1      -0.338   0.213   0.609  1.00  0.00     0.109 A 
HETATM    3  C7  UNL     1      -1.577   0.725   0.935  1.00  0.00     0.170 A 
HETATM    4  N9  UNL     1      -1.953   1.859   0.324  1.00  0.00    -0.170 N 
ATOM      5  H9  UNL     1      -2.865   2.258   0.549  1.00  0.00     0.186 HD
HETATM    6  C11 UNL     1      -1.173   2.492  -0.575  1.00  0.00     0.681 A 
HETATM    7  N11 UNL     1       0.046   1.960  -0.875  1.00  0.00    -0.173 N 
ATOM      8  H11 UNL     1       0.638   2.438  -1.555  1.00  0.00     0.186 HD
ENDROOT
BRANCH   3   9
HETATM    9  O1  UNL     1      -2.333   0.060   1.844  1.00  0.00    -0.261 OA
BRANCH   9  10
HETATM   10  C8  UNL     1      -3.172  -1.008   1.571  1.00  0.00     0.259 A 
HETATM   11  N4  UNL     1      -3.861  -1.569   2.581  1.00  0.00    -0.154 N 
HETATM   12  C9  UNL     1      -4.701  -2.617   2.384  1.00  0.00     0.693 A 
ATOM     13  H4  UNL     1      -3.749  -1.196   3.524  1.00  0.00     0.188 HD
HETATM   14  N6  UNL     1      -4.842  -3.102   1.140  1.00  0.00    -0.023 N 
HETATM   15  C10 UNL     1      -4.169  -2.567   0.108  1.00  0.00     0.693 A 
ATOM     16  H6  UNL     1      -5.470  -3.889   0.976  1.00  0.00     0.203 HD
HETATM   17  N8  UNL     1      -3.348  -1.530   0.346  1.00  0.00    -0.154 N 
ATOM     18  H8  UNL     1      -2.837  -1.122  -0.437  1.00  0.00     0.188 HD
BRANCH  12  19
HETATM   19  N5  UNL     1      -5.363  -3.153   3.368  1.00  0.00    -0.234 N 
ATOM     20  H52 UNL     1      -5.256  -2.785   4.313  1.00  0.00     0.174 HD
ATOM     21  H51 UNL     1      -5.994  -3.940   3.220  1.00  0.00     0.174 HD
ENDBRANCH  12  19
BRANCH  15  22
HETATM   22  N7  UNL     1      -4.320  -3.049  -1.076  1.00  0.00    -0.234 N 
ATOM     23  H72 UNL     1      -4.943  -3.836  -1.257  1.00  0.00     0.174 HD
ATOM     24  H71 UNL     1      -3.809  -2.643  -1.860  1.00  0.00     0.174 HD
ENDBRANCH  15  22
ENDBRANCH   9  10
ENDBRANCH   3   9
BRANCH   1  25
HETATM   25  N3  UNL     1       1.759   0.261  -0.606  1.00  0.00    -0.161 N 
HETATM   26  N2  UNL     1       2.682   0.775  -1.414  1.00  0.00     0.004 NA
HETATM   27  N1  UNL     1       3.732  -0.028  -1.451  1.00  0.00    -0.270 N 
HETATM   28  C4  UNL     1       3.484  -1.079  -0.654  1.00  0.00     0.110 A 
ATOM     29  H1  UNL     1       4.583   0.125  -1.992  1.00  0.00     0.185 HD
HETATM   30  N12 UNL     1       2.250  -0.855  -0.153  1.00  0.00    -0.267 N 
ATOM     31  H12 UNL     1       1.767  -1.478   0.494  1.00  0.00     0.190 HD
BRANCH  28  32
HETATM   32  C3  UNL     1       4.323  -2.253  -0.346  1.00  0.00     0.078 C 
BRANCH  32  33
HETATM   33  C2  UNL     1       5.177  -1.943   0.859  1.00  0.00     0.003 C 
HETATM   34  C1  UNL     1       6.067  -3.080   1.251  1.00  0.00     0.005 C 
ENDBRANCH  32  33
ENDBRANCH  28  32
ENDBRANCH   1  25
BRANCH   6  35
HETATM   35  N10 UNL     1      -1.561   3.588  -1.154  1.00  0.00    -0.224 N 
ATOM     36  H10 UNL     1      -2.478   3.964  -0.913  1.00  0.00     0.177 HD
BRANCH  35  37
HETATM   37  C12 UNL     1      -0.768   4.294  -2.112  1.00  0.00     0.164 C 
BRANCH  37  38
HETATM   38  C13 UNL     1      -1.336   5.689  -2.262  1.00  0.00     0.184 C 
BRANCH  38  39
HETATM   39  O2  UNL     1      -1.302   6.361  -1.039  1.00  0.00    -0.399 OA
ATOM     40  H2  UNL     1      -1.658   7.237  -1.133  1.00  0.00     0.209 HD
ENDBRANCH  38  39
ENDBRANCH  37  38
ENDBRANCH  35  37
ENDBRANCH   6  35
TORSDOF 11
