REMARK  16 active torsions:
REMARK  status: ('A' for Active; 'I' for Inactive)
REMARK    1  A    between atoms: N1_1  and  N2_4 
REMARK    2  A    between atoms: C1_5  and  C2_6 
REMARK    3  A    between atoms: C2_6  and  S1_7 
REMARK    4  A    between atoms: S1_7  and  C3_8 
REMARK    5  A    between atoms: C4_9  and  N3_10 
REMARK    6  A    between atoms: N3_10  and  O1_12 
REMARK    7  A    between atoms: N5_20  and  C8_22 
REMARK    8  A    between atoms: C8_22  and  O4_23 
REMARK    9  A    between atoms: C8_22  and  C13_33 
REMARK   10  A    between atoms: O4_23  and  N6_24 
REMARK   11  A    between atoms: N6_24  and  C9_25 
REMARK   12  A    between atoms: C9_25  and  C10_26 
REMARK   13  A    between atoms: C9_25  and  C12_30 
REMARK   14  A    between atoms: C10_26  and  C11_27 
REMARK   15  A    between atoms: C18_39  and  O10_40 
REMARK   16  A    between atoms: C19_42  and  O11_43 
ROOT
HETATM    1  C3  UNL     1       3.586   0.058  -1.257  1.00  0.00     0.022 C 
HETATM    2  C4  UNL     1       3.501   1.112  -2.012  1.00  0.00     0.136 C 
HETATM    3  C5  UNL     1       2.376   1.439  -2.903  1.00  0.00     0.281 C 
HETATM    4  O2  UNL     1       2.643   2.178  -3.884  1.00  0.00    -0.265 OA
HETATM    5  N4  UNL     1       1.003   1.032  -2.810  1.00  0.00    -0.258 N 
HETATM    6  C6  UNL     1      -0.105   0.645  -3.615  1.00  0.00     0.277 A 
HETATM    7  O3  UNL     1      -0.234   0.466  -4.854  1.00  0.00    -0.266 OA
HETATM    8  C7  UNL     1      -0.913   0.573  -2.405  1.00  0.00     0.110 A 
HETATM    9  N5  UNL     1      -2.166   0.321  -2.262  1.00  0.00    -0.358 N 
ATOM     10  H5  UNL     1      -2.749   0.131  -3.077  1.00  0.00     0.162 HD
HETATM   11  C20 UNL     1       0.260   0.888  -1.557  1.00  0.00     0.214 A 
HETATM   12  S2  UNL     1       0.943  -0.479  -0.638  1.00  0.00    -0.132 SA
HETATM   13  C21 UNL     1       2.537  -1.027  -1.195  1.00  0.00     0.124 C 
ENDROOT
BRANCH   9  14
HETATM   14  C8  UNL     1      -2.746   0.309  -0.927  1.00  0.00     0.250 C 
BRANCH  14  15
HETATM   15  O4  UNL     1      -3.487   1.468  -0.703  1.00  0.00    -0.259 OA
BRANCH  15  16
HETATM   16  N6  UNL     1      -2.923   2.392   0.036  1.00  0.00    -0.082 NA
BRANCH  16  17
HETATM   17  C9  UNL     1      -3.529   2.495   1.332  1.00  0.00     0.217 C 
BRANCH  17  18
HETATM   18  C10 UNL     1      -2.924   3.646   2.137  1.00  0.00     0.147 C 
BRANCH  18  19
HETATM   19  C11 UNL     1      -3.153   4.922   1.384  1.00  0.00     0.174 C 
HETATM   20  O5  UNL     1      -4.270   5.469   1.311  1.00  0.00    -0.648 OA
HETATM   21  O6  UNL     1      -2.084   5.535   0.733  1.00  0.00    -0.648 OA
ENDBRANCH  18  19
ENDBRANCH  17  18
BRANCH  17  22
HETATM   22  C12 UNL     1      -4.983   2.633   1.301  1.00  0.00     0.195 C 
HETATM   23  O7  UNL     1      -5.713   2.649   0.278  1.00  0.00    -0.647 OA
HETATM   24  O8  UNL     1      -5.637   2.765   2.540  1.00  0.00    -0.647 OA
ENDBRANCH  17  22
ENDBRANCH  16  17
ENDBRANCH  15  16
ENDBRANCH  14  15
BRANCH  14  25
HETATM   25  C13 UNL     1      -3.569  -0.930  -0.820  1.00  0.00     0.042 C 
HETATM   26  C14 UNL     1      -4.287  -1.182   0.482  1.00  0.00     0.050 C 
HETATM   27  C15 UNL     1      -3.814  -2.623   0.421  1.00  0.00     0.090 C 
HETATM   28  C16 UNL     1      -2.748  -2.195  -0.570  1.00  0.00     0.050 C 
HETATM   29  O9  UNL     1      -3.364  -3.070   1.636  1.00  0.00    -0.375 OA
HETATM   30  C19 UNL     1      -4.768  -3.618  -0.147  1.00  0.00     0.183 C 
HETATM   31  C17 UNL     1      -3.750  -4.370   1.838  1.00  0.00     0.203 C 
HETATM   32  C18 UNL     1      -4.857  -4.698   0.891  1.00  0.00     0.173 C 
BRANCH  32  33
HETATM   33  O10 UNL     1      -4.589  -5.967   0.359  1.00  0.00    -0.391 OA
ATOM     34  H10 UNL     1      -5.293  -6.176  -0.243  1.00  0.00     0.210 HD
ENDBRANCH  32  33
BRANCH  30  35
HETATM   35  O11 UNL     1      -4.214  -4.213  -1.301  1.00  0.00    -0.390 OA
ATOM     36  H11 UNL     1      -4.822  -4.847  -1.663  1.00  0.00     0.210 HD
ENDBRANCH  30  35
ENDBRANCH  14  25
ENDBRANCH   9  14
BRANCH   2  37
HETATM   37  N3  UNL     1       4.514   2.097  -2.064  1.00  0.00    -0.263 N 
ATOM     38  H3  UNL     1       5.387   1.957  -2.572  1.00  0.00     0.194 HD
BRANCH  37  39
HETATM   39  O1  UNL     1       4.239   3.252  -1.383  1.00  0.00    -0.289 OA
ATOM     40  H1  UNL     1       4.920   3.914  -1.418  1.00  0.00     0.244 HD
ENDBRANCH  37  39
ENDBRANCH   2  37
BRANCH   1  41
HETATM   41  S1  UNL     1       4.957  -0.239  -0.235  1.00  0.00    -0.123 SA
BRANCH  41  42
HETATM   42  C2  UNL     1       6.267   0.921  -0.127  1.00  0.00     0.159 C 
BRANCH  42  43
HETATM   43  C1  UNL     1       7.345   0.406   0.812  1.00  0.00     0.130 A 
HETATM   44  N2  UNL     1       8.415  -0.331   0.474  1.00  0.00    -0.221 N 
HETATM   45  C22 UNL     1       9.122  -0.585   1.594  1.00  0.00     0.213 A 
HETATM   46  N8  UNL     1       8.476   0.003   2.628  1.00  0.00    -0.273 N 
HETATM   47  S3  UNL     1      10.500  -1.430   1.748  1.00  0.00    -0.037 SA
HETATM   48  N7  UNL     1       7.384   0.606   2.115  1.00  0.00    -0.284 N 
ATOM     49  H8  UNL     1       8.761  -0.008   3.607  1.00  0.00     0.189 HD
ATOM     50  H7  UNL     1       6.696   1.134   2.651  1.00  0.00     0.188 HD
BRANCH  44  51
HETATM   51  N1  UNL     1       8.711  -0.743  -0.829  1.00  0.00    -0.335 N 
ATOM     52  H12 UNL     1       8.176  -0.551  -1.676  1.00  0.00     0.177 HD
ATOM     53  H11 UNL     1       9.524  -1.303  -1.086  1.00  0.00     0.177 HD
ENDBRANCH  44  51
ENDBRANCH  42  43
ENDBRANCH  41  42
ENDBRANCH   1  41
TORSDOF 16
