REMARK  16 active torsions:
REMARK  status: ('A' for Active; 'I' for Inactive)
REMARK    1  A    between atoms: C2_2  and  O1_3 
REMARK    2  A    between atoms: O1_3  and  C3_4 
REMARK    3  A    between atoms: C3_4  and  C4_6 
REMARK    4  A    between atoms: C4_6  and  O3_7 
REMARK    5  A    between atoms: C6_10  and  N1_11 
REMARK    6  A    between atoms: N1_11  and  C7_12 
REMARK    7  A    between atoms: N1_11  and  S1_15 
REMARK    8  A    between atoms: C7_12  and  O4_13 
REMARK    9  A    between atoms: S1_15  and  N2_16 
REMARK       I    between atoms: N2_16  and  C9_18 
REMARK       I    between atoms: C9_18  and  N3_19 
REMARK       I    between atoms: C9_18  and  N9_37 
REMARK   10  A    between atoms: N3_19  and  N4_21 
REMARK   11  A    between atoms: N4_21  and  C10_23 
REMARK   12  A    between atoms: C11_26  and  N6_27 
REMARK   13  A    between atoms: N9_37  and  N10_39 
REMARK   14  A    between atoms: C13_41  and  C14_42 
REMARK   15  A    between atoms: C16_46  and  C17_47 
REMARK   16  A    between atoms: C24_60  and  O10_61 
ROOT
HETATM    1  N2  UNL     1       1.252   0.213  -0.232  1.00  0.00    -0.142 N 
ATOM      2  H2  UNL     1       1.462   0.632   0.674  1.00  0.00     0.194 HD
HETATM    3  C9  UNL     1       2.268  -0.544  -0.860  1.00  0.00     0.718 C 
HETATM    4  N3  UNL     1       2.598  -1.735  -0.457  1.00  0.00    -0.127 N 
ATOM      5  H3  UNL     1       2.111  -2.146   0.340  1.00  0.00     0.206 HD
HETATM    6  N9  UNL     1       2.973  -0.002  -1.983  1.00  0.00    -0.130 N 
ATOM      7  H9  UNL     1       2.951  -0.457  -2.896  1.00  0.00     0.205 HD
ENDROOT
BRANCH   1   8
HETATM    8  S1  UNL     1      -0.349   0.481  -0.908  1.00  0.00     0.086 SA
BRANCH   8   9
HETATM    9  N1  UNL     1      -1.464  -0.820  -0.491  1.00  0.00    -0.282 N 
BRANCH   9  10
HETATM   10  C6  UNL     1      -2.627  -0.617   0.295  1.00  0.00     0.053 C 
HETATM   11  C5  UNL     1      -2.553  -0.179   1.538  1.00  0.00     0.052 C 
HETATM   12  C4  UNL     1      -3.704   0.062   2.431  1.00  0.00     0.194 C 
HETATM   13  C24 UNL     1      -5.045  -0.200   1.783  1.00  0.00     0.198 C 
HETATM   14  C23 UNL     1      -4.911   0.153   0.352  1.00  0.00     0.192 C 
HETATM   15  C19 UNL     1      -3.950  -0.886  -0.257  1.00  0.00     0.207 C 
HETATM   16  O9  UNL     1      -6.013  -0.124  -0.436  1.00  0.00    -0.345 OA
HETATM   17  O8  UNL     1      -4.121  -0.544  -1.581  1.00  0.00    -0.342 OA
HETATM   18  C20 UNL     1      -5.477  -0.341  -1.698  1.00  0.00     0.158 C 
HETATM   19  C21 UNL     1      -6.087  -1.618  -2.236  1.00  0.00     0.078 C 
HETATM   20  C22 UNL     1      -5.704   0.823  -2.635  1.00  0.00     0.078 C 
BRANCH  12  21
HETATM   21  C3  UNL     1      -3.710   1.465   2.925  1.00  0.00     0.300 C 
HETATM   22  O2  UNL     1      -3.566   1.738   4.166  1.00  0.00    -0.261 OA
BRANCH  21  23
HETATM   23  O1  UNL     1      -3.866   2.579   2.115  1.00  0.00    -0.319 OA
BRANCH  23  24
HETATM   24  C2  UNL     1      -3.867   3.904   2.617  1.00  0.00     0.174 C 
HETATM   25  C1  UNL     1      -4.061   4.826   1.429  1.00  0.00     0.034 C 
ENDBRANCH  23  24
ENDBRANCH  21  23
ENDBRANCH  12  21
BRANCH  12  26
HETATM   26  O3  UNL     1      -3.515  -0.754   3.552  1.00  0.00    -0.373 OA
ATOM     27  H3  UNL     1      -3.511  -1.650   3.236  1.00  0.00     0.211 HD
ENDBRANCH  12  26
BRANCH  13  28
HETATM   28  O10 UNL     1      -5.315  -1.559   1.948  1.00  0.00    -0.389 OA
ATOM     29  H10 UNL     1      -6.157  -1.724   1.541  1.00  0.00     0.210 HD
ENDBRANCH  13  28
ENDBRANCH   9  10
BRANCH   9  30
HETATM   30  C7  UNL     1      -1.155  -2.149  -0.985  1.00  0.00     0.306 C 
BRANCH  30  31
HETATM   31  O4  UNL     1      -2.161  -2.655  -1.806  1.00  0.00    -0.376 OA
HETATM   32  C8  UNL     1      -1.789  -3.910  -2.228  1.00  0.00     0.203 C 
ENDBRANCH  30  31
ENDBRANCH   9  30
ENDBRANCH   8   9
ENDBRANCH   1   8
BRANCH   4  33
HETATM   33  N4  UNL     1       3.605  -2.462  -1.093  1.00  0.00    -0.250 N 
ATOM     34  H4  UNL     1       3.853  -2.219  -2.052  1.00  0.00     0.191 HD
BRANCH  33  35
HETATM   35  C10 UNL     1       4.232  -3.424  -0.520  1.00  0.00     0.261 A 
HETATM   36  N5  UNL     1       3.917  -3.754   0.742  1.00  0.00    -0.153 N 
HETATM   37  C11 UNL     1       4.561  -4.754   1.355  1.00  0.00     0.682 A 
ATOM     38  H5  UNL     1       3.185  -3.242   1.235  1.00  0.00     0.188 HD
HETATM   39  N7  UNL     1       5.522  -5.402   0.658  1.00  0.00    -0.155 N 
HETATM   40  C12 UNL     1       5.811  -5.046  -0.600  1.00  0.00     0.239 A 
ATOM     41  H7  UNL     1       6.032  -6.170   1.095  1.00  0.00     0.188 HD
HETATM   42  N8  UNL     1       6.745  -5.690  -1.249  1.00  0.00    -0.364 N 
HETATM   43  O5  UNL     1       5.161  -4.064  -1.167  1.00  0.00    -0.245 OA
ATOM     44  H82 UNL     1       7.252  -6.456  -0.807  1.00  0.00     0.159 HD
ATOM     45  H81 UNL     1       6.965  -5.419  -2.207  1.00  0.00     0.159 HD
BRANCH  37  46
HETATM   46  N6  UNL     1       4.309  -5.128   2.573  1.00  0.00    -0.234 N 
ATOM     47  H62 UNL     1       3.584  -4.639   3.099  1.00  0.00     0.174 HD
ATOM     48  H61 UNL     1       4.800  -5.890   3.040  1.00  0.00     0.174 HD
ENDBRANCH  37  46
ENDBRANCH  33  35
ENDBRANCH   4  33
BRANCH   6  49
HETATM   49  N10 UNL     1       3.692   1.176  -1.774  1.00  0.00    -0.294 N 
HETATM   50  C13 UNL     1       4.706   1.255  -0.991  1.00  0.00     0.156 C 
ATOM     51  H10 UNL     1       3.396   2.017  -2.269  1.00  0.00     0.186 HD
BRANCH  50  52
HETATM   52  C14 UNL     1       5.367   2.558  -0.866  1.00  0.00     0.122 A 
HETATM   53  N11 UNL     1       4.955   3.633  -1.523  1.00  0.00    -0.350 N 
HETATM   54  C15 UNL     1       5.599   4.816  -1.373  1.00  0.00     0.109 A 
ATOM     55  H11 UNL     1       4.149   3.570  -2.145  1.00  0.00     0.166 HD
HETATM   56  C16 UNL     1       6.686   4.922  -0.542  1.00  0.00     0.071 A 
HETATM   57  C18 UNL     1       7.104   3.796   0.134  1.00  0.00     0.109 A 
HETATM   58  N12 UNL     1       6.439   2.647  -0.042  1.00  0.00    -0.350 N 
ATOM     59  H12 UNL     1       6.749   1.814   0.459  1.00  0.00     0.166 HD
BRANCH  56  60
HETATM   60  C17 UNL     1       7.359   6.209  -0.403  1.00  0.00     0.212 C 
HETATM   61  O6  UNL     1       6.952   7.210  -1.033  1.00  0.00    -0.644 OA
HETATM   62  O7  UNL     1       8.467   6.370   0.429  1.00  0.00    -0.644 OA
ENDBRANCH  56  60
ENDBRANCH  50  52
ENDBRANCH   6  49
TORSDOF 16
