REMARK  18 active torsions:
REMARK  status: ('A' for Active; 'I' for Inactive)
REMARK    1  A    between atoms: O1_2  and  C2_3 
REMARK    2  A    between atoms: C2_3  and  C3_5 
REMARK    3  A    between atoms: C4_6  and  S1_7 
REMARK    4  A    between atoms: S1_7  and  C5_8 
REMARK    5  A    between atoms: C5_8  and  C6_9 
REMARK    6  A    between atoms: C9_12  and  C10_13 
REMARK    7  A    between atoms: C10_13  and  O3_14 
REMARK    8  A    between atoms: C10_13  and  C13_23 
REMARK    9  A    between atoms: O3_14  and  C11_15 
REMARK   10  A    between atoms: N1_17  and  O4_18 
REMARK   11  A    between atoms: C16_28  and  O7_29 
REMARK   12  A    between atoms: C17_32  and  N4_33 
REMARK   13  A    between atoms: C19_42  and  N8_43 
REMARK   14  A    between atoms: C20_46  and  C21_47 
REMARK   15  A    between atoms: C21_47  and  O9_49 
REMARK   16  A    between atoms: C23_52  and  C24_53 
REMARK   17  A    between atoms: C24_53  and  O11_55 
REMARK   18  A    between atoms: C26_57  and  O12_58 
ROOT
HETATM    1  C13 UNL     1       7.809  -2.015   0.988  1.00  0.00     0.262 C 
HETATM    2  O6  UNL     1       7.836  -3.105   1.345  1.00  0.00    -0.278 OA
HETATM    3  C14 UNL     1       9.123  -1.718   0.132  1.00  0.00     0.141 C 
HETATM    4  N3  UNL     1      10.073  -1.500  -0.486  1.00  0.00    -0.188 NA
ENDROOT
BRANCH   1   5
HETATM    5  C10 UNL     1       6.980  -0.807   1.064  1.00  0.00     0.248 C 
BRANCH   5   6
HETATM    6  C9  UNL     1       5.543  -1.035   1.023  1.00  0.00    -0.018 A 
HETATM    7  C8  UNL     1       4.787  -0.524  -0.137  1.00  0.00     0.011 A 
HETATM    8  C7  UNL     1       3.442  -0.799   0.015  1.00  0.00     0.011 A 
HETATM    9  C6  UNL     1       2.805  -1.418   0.976  1.00  0.00    -0.015 A 
HETATM   10  C16 UNL     1       3.559  -1.900   2.063  1.00  0.00     0.073 A 
HETATM   11  C15 UNL     1       4.921  -1.670   2.011  1.00  0.00     0.047 A 
BRANCH   9  12
HETATM   12  C5  UNL     1       1.321  -1.837   0.976  1.00  0.00     0.122 C 
BRANCH  12  13
HETATM   13  S1  UNL     1       0.180  -0.674   1.085  1.00  0.00    -0.100 SA
BRANCH  13  14
HETATM   14  C4  UNL     1      -1.314  -0.258   0.366  1.00  0.00     0.125 C 
HETATM   15  C3  UNL     1      -2.048  -0.641  -0.697  1.00  0.00     0.099 C 
HETATM   16  C26 UNL     1      -3.273   0.166  -0.764  1.00  0.00     0.178 C 
HETATM   17  C17 UNL     1      -3.276   0.956   0.500  1.00  0.00     0.245 C 
HETATM   18  C23 UNL     1      -4.560  -0.615  -0.687  1.00  0.00     0.195 C 
HETATM   19  O8  UNL     1      -2.030   0.808   1.050  1.00  0.00    -0.303 OA
HETATM   20  C20 UNL     1      -4.346   0.388   1.288  1.00  0.00     0.212 C 
HETATM   21  O10 UNL     1      -4.970  -0.687   0.600  1.00  0.00    -0.367 OA
BRANCH  15  22
HETATM   22  C2  UNL     1      -1.679  -1.691  -1.674  1.00  0.00     0.295 C 
HETATM   23  O2  UNL     1      -0.693  -2.399  -1.657  1.00  0.00    -0.259 OA
BRANCH  22  24
HETATM   24  O1  UNL     1      -2.560  -1.897  -2.768  1.00  0.00    -0.323 OA
HETATM   25  C1  UNL     1      -2.109  -2.873  -3.726  1.00  0.00     0.213 C 
ENDBRANCH  22  24
ENDBRANCH  15  22
BRANCH  16  26
HETATM   26  O12 UNL     1      -3.396   0.985  -1.859  1.00  0.00    -0.377 OA
ATOM     27  H12 UNL     1      -4.188   1.507  -1.902  1.00  0.00     0.211 HD
ENDBRANCH  16  26
BRANCH  17  28
HETATM   28  N4  UNL     1      -3.322   2.384   0.206  1.00  0.00    -0.067 N 
HETATM   29  N5  UNL     1      -2.496   2.908  -0.743  1.00  0.00    -0.112 N 
HETATM   30  C18 UNL     1      -2.711   4.242  -0.836  1.00  0.00     0.705 A 
ATOM     31  H5  UNL     1      -1.822   2.379  -1.296  1.00  0.00     0.206 HD
HETATM   32  N6  UNL     1      -2.124   5.054  -1.644  1.00  0.00    -0.233 N 
HETATM   33  N7  UNL     1      -3.704   4.576   0.073  1.00  0.00    -0.020 N 
ATOM     34  H62 UNL     1      -1.394   4.808  -2.312  1.00  0.00     0.174 HD
ATOM     35  H61 UNL     1      -2.286   6.059  -1.714  1.00  0.00     0.174 HD
HETATM   36  C19 UNL     1      -3.993   3.430   0.627  1.00  0.00     0.710 A 
ATOM     37  H7  UNL     1      -4.109   5.493   0.262  1.00  0.00     0.203 HD
BRANCH  36  38
HETATM   38  N8  UNL     1      -4.918   3.342   1.571  1.00  0.00    -0.233 N 
ATOM     39  H82 UNL     1      -5.144   2.446   2.004  1.00  0.00     0.174 HD
ATOM     40  H81 UNL     1      -5.440   4.155   1.898  1.00  0.00     0.174 HD
ENDBRANCH  36  38
ENDBRANCH  17  28
BRANCH  20  41
HETATM   41  C21 UNL     1      -4.001  -0.235   2.646  1.00  0.00     0.148 C 
HETATM   42  C22 UNL     1      -3.536  -1.657   2.587  1.00  0.00     0.042 C 
BRANCH  41  43
HETATM   43  O9  UNL     1      -3.274   0.631   3.424  1.00  0.00    -0.393 OA
ATOM     44  H9  UNL     1      -3.060   0.245   4.265  1.00  0.00     0.210 HD
ENDBRANCH  41  43
ENDBRANCH  20  41
BRANCH  18  45
HETATM   45  C24 UNL     1      -5.679   0.097  -1.458  1.00  0.00     0.146 C 
HETATM   46  C25 UNL     1      -6.895  -0.825  -1.472  1.00  0.00     0.042 C 
BRANCH  45  47
HETATM   47  O11 UNL     1      -5.384   0.319  -2.780  1.00  0.00    -0.393 OA
ATOM     48  H11 UNL     1      -6.077   0.760  -3.257  1.00  0.00     0.210 HD
ENDBRANCH  45  47
ENDBRANCH  18  45
ENDBRANCH  13  14
ENDBRANCH  12  13
ENDBRANCH   9  12
BRANCH  10  49
HETATM   49  O7  UNL     1       3.021  -2.547   3.113  1.00  0.00    -0.360 OA
ATOM     50  H7  UNL     1       3.530  -2.872   3.846  1.00  0.00     0.217 HD
ENDBRANCH  10  49
ENDBRANCH   5   6
BRANCH   5  51
HETATM   51  O3  UNL     1       7.419   0.175   0.181  1.00  0.00    -0.314 OA
BRANCH  51  52
HETATM   52  C11 UNL     1       8.371   1.091   0.523  1.00  0.00     0.185 A 
HETATM   53  C12 UNL     1       8.897   2.057  -0.319  1.00  0.00     0.210 A 
HETATM   54  N1  UNL     1       9.803   2.761   0.344  1.00  0.00    -0.109 N 
HETATM   55  O5  UNL     1       9.857   2.261   1.580  1.00  0.00    -0.127 OA
HETATM   56  N2  UNL     1       9.040   1.296   1.709  1.00  0.00    -0.216 N 
ATOM     57  H2  UNL     1       8.901   0.755   2.562  1.00  0.00     0.199 HD
BRANCH  54  58
HETATM   58  O4  UNL     1      10.587   3.788  -0.089  1.00  0.00    -0.262 OA
ATOM     59  H4  UNL     1      11.237   4.293   0.386  1.00  0.00     0.247 HD
ENDBRANCH  54  58
ENDBRANCH  51  52
ENDBRANCH   5  51
ENDBRANCH   1   5
TORSDOF 18
