REMARK  11 active torsions:
REMARK  status: ('A' for Active; 'I' for Inactive)
REMARK    1  A    between atoms: C2_2  and  N1_3 
REMARK    2  A    between atoms: N1_3  and  C3_4 
REMARK    3  A    between atoms: N1_3  and  C5_6 
REMARK    4  A    between atoms: C6_9  and  N3_10 
REMARK    5  A    between atoms: N3_10  and  C7_12 
REMARK    6  A    between atoms: C7_12  and  C8_13 
REMARK    7  A    between atoms: C8_13  and  N4_14 
REMARK    8  A    between atoms: C10_22  and  N6_23 
REMARK    9  A    between atoms: N6_23  and  C11_25 
REMARK   10  A    between atoms: C11_25  and  C12_26 
REMARK   11  A    between atoms: C12_26  and  N7_27 
ROOT
HETATM    1  C5  UNL     1       1.030  -0.184   0.350  1.00  0.00     0.151 A 
HETATM    2  N2  UNL     1       2.299   0.303   0.174  1.00  0.00    -0.174 N 
ATOM      3  H2  UNL     1       3.025  -0.367  -0.079  1.00  0.00     0.186 HD
HETATM    4  C6  UNL     1       2.663   1.577   0.306  1.00  0.00     0.682 A 
HETATM    5  N5  UNL     1       1.734   2.483   0.636  1.00  0.00    -0.154 N 
ATOM      6  H5  UNL     1       1.987   3.465   0.743  1.00  0.00     0.187 HD
HETATM    7  C9  UNL     1       0.469   2.086   0.824  1.00  0.00     0.289 A 
HETATM    8  O1  UNL     1      -0.421   2.895   1.131  1.00  0.00    -0.265 OA
HETATM    9  C10 UNL     1       0.084   0.740   0.685  1.00  0.00     0.142 A 
ENDROOT
BRANCH   9  10
HETATM   10  N6  UNL     1      -1.266   0.405   0.857  1.00  0.00    -0.381 N 
ATOM     11  H6  UNL     1      -1.586   0.046   1.756  1.00  0.00     0.160 HD
BRANCH  10  12
HETATM   12  C11 UNL     1      -2.211   0.564  -0.229  1.00  0.00     0.139 C 
BRANCH  12  13
HETATM   13  C12 UNL     1      -3.612   0.145   0.208  1.00  0.00     0.141 C 
BRANCH  13  14
HETATM   14  N7  UNL     1      -4.569   0.290  -0.842  1.00  0.00    -0.365 N 
HETATM   15  C13 UNL     1      -5.680  -0.352  -0.899  1.00  0.00     0.197 C 
HETATM   16  N8  UNL     1      -6.541  -0.118  -1.991  1.00  0.00    -0.067 NA
HETATM   17  N9  UNL     1      -6.069  -1.293   0.106  1.00  0.00    -0.067 NA
ATOM     18  H7  UNL     1      -4.357   0.945  -1.595  1.00  0.00     0.161 HD
ENDBRANCH  13  14
ENDBRANCH  12  13
ENDBRANCH  10  12
ENDBRANCH   9  10
BRANCH   1  19
HETATM   19  N1  UNL     1       0.791  -1.567   0.185  1.00  0.00    -0.366 N 
BRANCH  19  20
HETATM   20  C2  UNL     1       1.386  -2.208  -0.966  1.00  0.00     0.120 C 
HETATM   21  C1  UNL     1       0.400  -2.729  -1.954  1.00  0.00     0.026 C 
ENDBRANCH  19  20
BRANCH  19  22
HETATM   22  C3  UNL     1       0.065  -2.356   1.123  1.00  0.00     0.120 C 
HETATM   23  C4  UNL     1      -1.201  -2.977   0.647  1.00  0.00     0.026 C 
ENDBRANCH  19  22
ENDBRANCH   1  19
BRANCH   4  24
HETATM   24  N3  UNL     1       3.916   1.928   0.116  1.00  0.00    -0.224 N 
ATOM     25  H3  UNL     1       4.579   1.194  -0.132  1.00  0.00     0.177 HD
BRANCH  24  26
HETATM   26  C7  UNL     1       4.416   3.255   0.230  1.00  0.00     0.165 C 
BRANCH  26  27
HETATM   27  C8  UNL     1       5.932   3.161   0.374  1.00  0.00     0.249 C 
BRANCH  27  28
HETATM   28  N4  UNL     1       6.454   2.507  -0.800  1.00  0.00    -0.078 N 
ATOM     29  H43 UNL     1       6.018   1.601  -0.973  1.00  0.00     0.274 HD
ATOM     30  H42 UNL     1       6.168   2.965  -1.666  1.00  0.00     0.274 HD
ATOM     31  H41 UNL     1       7.468   2.444  -0.704  1.00  0.00     0.274 HD
ENDBRANCH  27  28
ENDBRANCH  26  27
ENDBRANCH  24  26
ENDBRANCH   4  24
TORSDOF 11
