REMARK  14 active torsions:
REMARK  status: ('A' for Active; 'I' for Inactive)
REMARK    1  A    between atoms: C2_2  and  N1_3 
REMARK    2  A    between atoms: N1_3  and  C3_6 
REMARK    3  A    between atoms: C3_6  and  C4_7 
REMARK    4  A    between atoms: C4_7  and  C5_8 
REMARK    5  A    between atoms: C5_8  and  N2_9 
REMARK    6  A    between atoms: N2_9  and  C6_11 
REMARK    7  A    between atoms: C7_14  and  N4_15 
REMARK    8  A    between atoms: N4_15  and  C8_17 
REMARK    9  A    between atoms: C8_17  and  C9_18 
REMARK   10  A    between atoms: C9_18  and  C10_19 
REMARK   11  A    between atoms: C10_19  and  C11_20 
REMARK   12  A    between atoms: C11_20  and  O1_21 
REMARK   13  A    between atoms: C12_25  and  N6_26 
REMARK   14  A    between atoms: N6_26  and  N7_28 
ROOT
HETATM    1  C6  UNL     1       0.021  -0.202   0.071  1.00  0.00     0.707 A 
HETATM    2  N3  UNL     1       1.275   0.306   0.252  1.00  0.00    -0.022 N 
ATOM      3  H3  UNL     1       1.356   1.289   0.512  1.00  0.00     0.203 HD
HETATM    4  C7  UNL     1       2.401  -0.394   0.113  1.00  0.00     0.707 A 
HETATM    5  N5  UNL     1       2.271  -1.684  -0.231  1.00  0.00    -0.020 N 
ATOM      6  H5  UNL     1       3.116  -2.243  -0.346  1.00  0.00     0.203 HD
HETATM    7  C12 UNL     1       1.079  -2.275  -0.431  1.00  0.00     0.725 A 
HETATM    8  N8  UNL     1      -0.032  -1.499  -0.270  1.00  0.00    -0.020 N 
ATOM      9  H8  UNL     1      -0.947  -1.925  -0.416  1.00  0.00     0.203 HD
ENDROOT
BRANCH   1  10
HETATM   10  N2  UNL     1      -0.999   0.548   0.230  1.00  0.00    -0.225 N 
ATOM     11  H2  UNL     1      -0.813   1.516   0.494  1.00  0.00     0.177 HD
BRANCH  10  12
HETATM   12  C5  UNL     1      -2.365   0.186   0.081  1.00  0.00     0.139 C 
BRANCH  12  13
HETATM   13  C4  UNL     1      -3.134   1.306  -0.644  1.00  0.00     0.048 C 
BRANCH  13  14
HETATM   14  C3  UNL     1      -4.573   0.866  -0.750  1.00  0.00     0.234 C 
BRANCH  14  15
HETATM   15  N1  UNL     1      -5.053   0.682   0.615  1.00  0.00    -0.075 N 
ATOM     16  H12 UNL     1      -4.893   1.510   1.188  1.00  0.00     0.277 HD
ATOM     17  H11 UNL     1      -4.474   0.023   1.135  1.00  0.00     0.277 HD
BRANCH  15  18
HETATM   18  C2  UNL     1      -6.452   0.288   0.615  1.00  0.00     0.228 C 
HETATM   19  C1  UNL     1      -7.281   1.475   0.124  1.00  0.00     0.034 C 
ENDBRANCH  15  18
ENDBRANCH  14  15
ENDBRANCH  13  14
ENDBRANCH  12  13
ENDBRANCH  10  12
ENDBRANCH   1  10
BRANCH   4  20
HETATM   20  N4  UNL     1       3.576   0.101   0.297  1.00  0.00    -0.225 N 
ATOM     21  H4  UNL     1       4.358  -0.538   0.157  1.00  0.00     0.177 HD
BRANCH  20  22
HETATM   22  C8  UNL     1       3.914   1.427   0.671  1.00  0.00     0.138 C 
BRANCH  22  23
HETATM   23  C9  UNL     1       4.725   2.181  -0.352  1.00  0.00     0.022 C 
BRANCH  23  24
HETATM   24  C10 UNL     1       6.044   1.540  -0.649  1.00  0.00     0.028 C 
BRANCH  24  25
HETATM   25  C11 UNL     1       6.945   1.427   0.552  1.00  0.00     0.164 C 
BRANCH  25  26
HETATM   26  O1  UNL     1       7.222   2.675   1.112  1.00  0.00    -0.401 OA
ATOM     27  H1  UNL     1       7.790   2.604   1.870  1.00  0.00     0.209 HD
ENDBRANCH  25  26
ENDBRANCH  24  25
ENDBRANCH  23  24
ENDBRANCH  22  23
ENDBRANCH  20  22
ENDBRANCH   4  20
BRANCH   7  28
HETATM   28  N6  UNL     1       0.977  -3.524  -0.759  1.00  0.00    -0.136 N 
ATOM     29  H6  UNL     1       1.810  -4.101  -0.875  1.00  0.00     0.205 HD
BRANCH  28  30
HETATM   30  N7  UNL     1      -0.290  -4.062  -0.949  1.00  0.00    -0.327 N 
HETATM   31  C13 UNL     1      -0.639  -5.223  -0.133  1.00  0.00     0.168 C 
ATOM     32  H7  UNL     1      -0.944  -3.666  -1.624  1.00  0.00     0.180 HD
ENDBRANCH  28  30
ENDBRANCH   7  28
TORSDOF 14
