REMARK  6 active torsions:
REMARK  status: ('A' for Active; 'I' for Inactive)
REMARK    1  A    between atoms: C2_2  and  N1_3 
REMARK    2  A    between atoms: N1_3  and  O1_4 
REMARK    3  A    between atoms: N1_3  and  C4_6 
REMARK       I    between atoms: N2_7  and  C5_8 
REMARK    4  A    between atoms: C8_17  and  N7_18 
REMARK    5  A    between atoms: C9_22  and  O3_23 
REMARK    6  A    between atoms: C9_22  and  S1_25 
ROOT
HETATM    1  C4  UNL     1      -1.279   0.695   0.217  1.00  0.00     0.285 C 
HETATM    2  N2  UNL     1      -1.296   1.401  -1.095  1.00  0.00    -0.218 N 
HETATM    3  C5  UNL     1      -2.396   2.045  -1.689  1.00  0.00     0.234 C 
HETATM    4  C6  UNL     1      -2.269   2.687  -3.000  1.00  0.00     0.119 C 
HETATM    5  O2  UNL     1      -3.491   2.069  -1.089  1.00  0.00    -0.272 OA
HETATM    6  N3  UNL     1      -0.014   1.313  -1.643  1.00  0.00    -0.021 NA
HETATM    7  N4  UNL     1       0.451   0.087  -1.141  1.00  0.00    -0.080 NA
HETATM    8  C7  UNL     1       0.096   0.224   0.281  1.00  0.00     0.230 C 
HETATM    9  N5  UNL     1       0.375  -0.998   0.983  1.00  0.00    -0.099 NA
HETATM   10  N6  UNL     1       1.616  -1.505   0.668  1.00  0.00    -0.303 N 
ATOM     11  H6  UNL     1       1.727  -2.332   0.082  1.00  0.00     0.178 HD
HETATM   12  C8  UNL     1       2.721  -0.819   1.199  1.00  0.00     0.349 C 
HETATM   13  C9  UNL     1       2.917   0.578   0.701  1.00  0.00     0.206 C 
HETATM   14  S2  UNL     1       1.312   1.442   0.916  1.00  0.00    -0.065 SA
ENDROOT
BRANCH   1  15
HETATM   15  N1  UNL     1      -2.275  -0.279   0.270  1.00  0.00    -0.265 N 
BRANCH  15  16
HETATM   16  C2  UNL     1      -2.551  -1.074   1.369  1.00  0.00     0.148 C 
HETATM   17  C1  UNL     1      -3.128  -0.200   2.508  1.00  0.00     0.028 C 
ENDBRANCH  15  16
BRANCH  15  18
HETATM   18  O1  UNL     1      -2.804  -0.691  -0.869  1.00  0.00    -0.286 OA
HETATM   19  C3  UNL     1      -2.889  -2.075  -0.996  1.00  0.00     0.237 C 
ENDBRANCH  15  18
ENDBRANCH   1  15
BRANCH  13  20
HETATM   20  O3  UNL     1       3.905   1.193   1.460  1.00  0.00    -0.367 OA
ATOM     21  H3  UNL     1       4.029   2.080   1.144  1.00  0.00     0.212 HD
ENDBRANCH  13  20
BRANCH  13  22
HETATM   22  S1  UNL     1       3.263   0.519  -1.051  1.00  0.00    -0.121 SA
HETATM   23  C10 UNL     1       4.805  -0.261  -1.496  1.00  0.00     0.094 C 
ENDBRANCH  13  22
BRANCH  12  24
HETATM   24  N7  UNL     1       2.679  -0.861   2.663  1.00  0.00    -0.053 N 
ATOM     25  H73 UNL     1       1.796  -0.507   3.031  1.00  0.00     0.277 HD
ATOM     26  H72 UNL     1       2.615  -1.816   3.017  1.00  0.00     0.277 HD
ATOM     27  H71 UNL     1       3.481  -0.363   3.049  1.00  0.00     0.277 HD
ENDBRANCH  12  24
TORSDOF 6
