REMARK  7 active torsions:
REMARK  status: ('A' for Active; 'I' for Inactive)
REMARK    1  A    between atoms: C3_7  and  N3_8 
REMARK    2  A    between atoms: N3_8  and  N4_10 
REMARK    3  A    between atoms: C4_12  and  C5_13 
REMARK    4  A    between atoms: C6_14  and  O1_15 
REMARK    5  A    between atoms: N6_23  and  C9_24 
REMARK    6  A    between atoms: N8_27  and  N9_29 
REMARK    7  A    between atoms: C11_36  and  O4_37 
ROOT
HETATM    1  C9  UNL     1      -3.339   1.343  -0.823  1.00  0.00     0.215 C 
HETATM    2  C10 UNL     1      -2.792   2.233  -1.777  1.00  0.00     0.139 C 
HETATM    3  N7  UNL     1      -2.340   2.945  -2.564  1.00  0.00    -0.188 NA
HETATM    4  N8  UNL     1      -3.929   1.781   0.212  1.00  0.00    -0.262 N 
ATOM      5  H8  UNL     1      -4.306   1.098   0.869  1.00  0.00     0.191 HD
ENDROOT
BRANCH   1   6
HETATM    6  N6  UNL     1      -3.252  -0.082  -0.980  1.00  0.00    -0.235 N 
HETATM    7  C5  UNL     1      -2.124  -0.718  -0.523  1.00  0.00     0.102 A 
HETATM    8  C6  UNL     1      -2.010  -2.076  -0.657  1.00  0.00     0.163 A 
HETATM    9  C7  UNL     1      -3.094  -2.742  -1.276  1.00  0.00     0.285 A 
HETATM   10  O2  UNL     1      -2.995  -4.000  -1.404  1.00  0.00    -0.265 OA
HETATM   11  N5  UNL     1      -4.168  -2.083  -1.704  1.00  0.00    -0.273 N 
HETATM   12  C8  UNL     1      -4.255  -0.758  -1.561  1.00  0.00     0.336 A 
ATOM     13  H5  UNL     1      -4.932  -2.595  -2.145  1.00  0.00     0.173 HD
HETATM   14  O3  UNL     1      -5.266  -0.107  -1.960  1.00  0.00    -0.246 OA
BRANCH   7  15
HETATM   15  C4  UNL     1      -1.110   0.091   0.082  1.00  0.00     0.141 C 
HETATM   16  N4  UNL     1       0.013  -0.272   0.577  1.00  0.00    -0.295 N 
ATOM     17  H4  UNL     1       0.225  -1.269   0.542  1.00  0.00     0.186 HD
BRANCH  16  18
HETATM   18  N3  UNL     1       0.961   0.534   1.149  1.00  0.00    -0.131 N 
ATOM     19  H3  UNL     1       0.628   1.239   1.806  1.00  0.00     0.205 HD
BRANCH  18  20
HETATM   20  C3  UNL     1       2.215   0.491   0.943  1.00  0.00     0.713 A 
HETATM   21  N2  UNL     1       3.102   1.309   1.534  1.00  0.00    -0.130 N 
HETATM   22  N1  UNL     1       4.404   1.210   1.272  1.00  0.00    -0.287 N 
ATOM     23  H2  UNL     1       2.774   2.016   2.192  1.00  0.00     0.205 HD
HETATM   24  C2  UNL     1       4.875   0.292   0.411  1.00  0.00     0.073 A 
ATOM     25  H1  UNL     1       5.057   1.843   1.734  1.00  0.00     0.187 HD
HETATM   26  C1  UNL     1       6.313   0.145   0.090  1.00  0.00     0.074 C 
HETATM   27  C11 UNL     1       3.985  -0.550  -0.199  1.00  0.00     0.179 A 
HETATM   28  N11 UNL     1       2.691  -0.426   0.083  1.00  0.00    -0.166 N 
ATOM     29  H11 UNL     1       2.030  -1.055  -0.374  1.00  0.00     0.186 HD
BRANCH  27  30
HETATM   30  O4  UNL     1       4.417  -1.516  -1.096  1.00  0.00    -0.344 OA
ATOM     31  H4  UNL     1       3.799  -2.100  -1.519  1.00  0.00     0.219 HD
ENDBRANCH  27  30
ENDBRANCH  18  20
ENDBRANCH  16  18
ENDBRANCH   7  15
BRANCH   8  32
HETATM   32  O1  UNL     1      -0.945  -2.802  -0.243  1.00  0.00    -0.354 OA
ATOM     33  H1  UNL     1      -0.866  -3.744  -0.336  1.00  0.00     0.218 HD
ENDBRANCH   8  32
ENDBRANCH   1   6
BRANCH   4  34
HETATM   34  N9  UNL     1      -4.098   3.133   0.513  1.00  0.00    -0.247 N 
HETATM   35  N10 UNL     1      -4.330   3.577   1.657  1.00  0.00    -0.331 N 
ATOM     36 2H10 UNL     1      -4.397   2.892   2.410  1.00  0.00     0.178 HD
ATOM     37 1H10 UNL     1      -4.454   4.565   1.877  1.00  0.00     0.178 HD
ATOM     38  H9  UNL     1      -4.027   3.803  -0.252  1.00  0.00     0.207 HD
ENDBRANCH   4  34
TORSDOF 7
