REMARK  5 active torsions:
REMARK  status: ('A' for Active; 'I' for Inactive)
REMARK    1  A    between atoms: C2_2  and  N1_3 
REMARK    2  A    between atoms: C3_8  and  C4_9 
REMARK    3  A    between atoms: N4_10  and  N5_12 
REMARK    4  A    between atoms: C6_17  and  N7_18 
REMARK    5  A    between atoms: N9_24  and  C8_26 
ROOT
HETATM    1  N5  UNL     1      -1.934  -1.654  -0.375  1.00  0.00    -0.058 N 
HETATM    2  C5  UNL     1      -1.480  -2.869  -0.784  1.00  0.00     0.229 A 
HETATM    3  S1  UNL     1      -0.030  -3.059  -1.508  1.00  0.00    -0.038 SA
HETATM    4  N6  UNL     1      -2.279  -3.928  -0.581  1.00  0.00    -0.164 N 
ATOM      5  H6  UNL     1      -1.978  -4.858  -0.872  1.00  0.00     0.186 HD
HETATM    6  C6  UNL     1      -3.478  -3.760   0.007  1.00  0.00     0.692 A 
HETATM    7  N8  UNL     1      -3.891  -2.562   0.393  1.00  0.00    -0.020 N 
ATOM      8  H8  UNL     1      -4.805  -2.466   0.836  1.00  0.00     0.203 HD
HETATM    9  C7  UNL     1      -3.103  -1.437   0.206  1.00  0.00     0.723 A 
HETATM   10  N9  UNL     1      -3.560  -0.326   0.578  1.00  0.00    -0.156 N 
ATOM     11  H9  UNL     1      -4.484  -0.360   1.009  1.00  0.00     0.187 HD
ENDROOT
BRANCH   1  12
HETATM   12  N4  UNL     1      -1.051  -0.601  -0.601  1.00  0.00    -0.286 N 
HETATM   13  C4  UNL     1       0.134  -0.618  -0.039  1.00  0.00     0.141 C 
ATOM     14  H4  UNL     1      -1.324   0.178  -1.200  1.00  0.00     0.187 HD
BRANCH  13  15
HETATM   15  C3  UNL     1       1.058   0.484  -0.278  1.00  0.00     0.090 A 
HETATM   16  N3  UNL     1       0.830   1.564  -1.040  1.00  0.00    -0.283 N 
HETATM   17  N2  UNL     1       1.885   2.362  -1.033  1.00  0.00    -0.240 N 
ATOM     18  H3  UNL     1      -0.034   1.744  -1.552  1.00  0.00     0.188 HD
HETATM   19  N1  UNL     1       2.812   1.815  -0.270  1.00  0.00    -0.281 N 
ATOM     20  H2  UNL     1       1.968   3.248  -1.532  1.00  0.00     0.208 HD
HETATM   21  C9  UNL     1       2.334   0.654   0.213  1.00  0.00     0.055 A 
HETATM   22  C10 UNL     1       3.016  -0.301   1.111  1.00  0.00     0.072 C 
BRANCH  19  23
HETATM   23  C2  UNL     1       4.106   2.373  -0.005  1.00  0.00     0.146 C 
HETATM   24  C1  UNL     1       5.163   1.953  -0.975  1.00  0.00     0.028 C 
ENDBRANCH  19  23
ENDBRANCH  13  15
ENDBRANCH   1  12
BRANCH  10  25
HETATM   25  C8  UNL     1      -3.003   0.927   0.492  1.00  0.00     0.224 C 
HETATM   26  N10 UNL     1      -2.444   1.589   1.482  1.00  0.00    -0.255 N 
HETATM   27  N11 UNL     1      -1.987   2.828   1.032  1.00  0.00    -0.006 NA
ATOM     28  H10 UNL     1      -2.357   1.246   2.439  1.00  0.00     0.187 HD
HETATM   29  N12 UNL     1      -2.600   3.118  -0.193  1.00  0.00    -0.006 NA
HETATM   30  N13 UNL     1      -2.905   1.830  -0.638  1.00  0.00    -0.255 N 
ATOM     31  H13 UNL     1      -3.039   1.564  -1.614  1.00  0.00     0.187 HD
ENDBRANCH  10  25
BRANCH   6  32
HETATM   32  N7  UNL     1      -4.226  -4.815   0.187  1.00  0.00    -0.234 N 
ATOM     33  H72 UNL     1      -3.908  -5.737  -0.110  1.00  0.00     0.174 HD
ATOM     34  H71 UNL     1      -5.135  -4.688   0.633  1.00  0.00     0.174 HD
ENDBRANCH   6  32
TORSDOF 5
