REMARK  1 active torsions:
REMARK  status: ('A' for Active; 'I' for Inactive)
REMARK    1  A    between atoms: N3_10  and  N4_11 
ROOT
HETATM    1  N1  UNL     1      -1.563  -1.455   0.139  1.00  0.00    -0.080 NA
HETATM    2  C1  UNL     1      -0.385  -0.703   0.042  1.00  0.00     0.147 A 
HETATM    3  C2  UNL     1       0.835  -1.350  -0.041  1.00  0.00     0.121 A 
HETATM    4  C3  UNL     1       1.975  -0.581  -0.135  1.00  0.00     0.252 A 
HETATM    5  O1  UNL     1       3.106  -1.115  -0.212  1.00  0.00    -0.268 OA
HETATM    6  N2  UNL     1       1.860   0.766  -0.143  1.00  0.00    -0.274 N 
ATOM      7  H2  UNL     1       2.698   1.343  -0.212  1.00  0.00     0.173 HD
HETATM    8  C4  UNL     1       0.653   1.355  -0.061  1.00  0.00     0.349 A 
HETATM    9  O2  UNL     1       0.558   2.604  -0.070  1.00  0.00    -0.244 OA
HETATM   10  N3  UNL     1      -0.498   0.644   0.033  1.00  0.00    -0.198 N 
ENDROOT
BRANCH  10  11
HETATM   11  N4  UNL     1      -1.726   1.298   0.116  1.00  0.00    -0.333 N 
ATOM     12  H42 UNL     1      -2.592   0.763   0.187  1.00  0.00     0.177 HD
ATOM     13  H41 UNL     1      -1.811   2.314   0.109  1.00  0.00     0.177 HD
ENDBRANCH  10  11
TORSDOF 1
