REMARK  5 active torsions:
REMARK  status: ('A' for Active; 'I' for Inactive)
REMARK    1  A    between atoms: N1_1  and  O1_4 
REMARK    2  A    between atoms: O1_4  and  C1_5 
REMARK    3  A    between atoms: C1_5  and  N2_6 
REMARK    4  A    between atoms: C1_5  and  N3_10 
REMARK    5  A    between atoms: N3_10  and  C2_12 
ROOT
HETATM    1  N3  UNL     1       0.362   0.068  -0.938  1.00  0.00    -0.170 N 
ATOM      2  H3  UNL     1       0.685   0.145  -1.903  1.00  0.00     0.182 HD
ENDROOT
BRANCH   1   3
HETATM    3  C1  UNL     1      -1.054  -0.017  -0.711  1.00  0.00     0.463 C 
BRANCH   3   4
HETATM    4  O1  UNL     1      -1.476   0.701   0.405  1.00  0.00    -0.232 OA
BRANCH   4   5
HETATM    5  N1  UNL     1      -2.124  -0.108   1.288  1.00  0.00    -0.307 N 
ATOM      6  H12 UNL     1      -2.273  -1.106   1.137  1.00  0.00     0.184 HD
ATOM      7  H11 UNL     1      -2.433   0.418   2.105  1.00  0.00     0.184 HD
ENDBRANCH   4   5
ENDBRANCH   3   4
BRANCH   3   8
HETATM    8  N2  UNL     1      -1.767   0.503  -1.851  1.00  0.00    -0.032 N 
ATOM      9  H23 UNL     1      -2.779   0.490  -1.728  1.00  0.00     0.279 HD
ATOM     10  H22 UNL     1      -1.660   1.511  -1.962  1.00  0.00     0.279 HD
ATOM     11  H21 UNL     1      -1.458  -0.023  -2.668  1.00  0.00     0.279 HD
ENDBRANCH   3   8
ENDBRANCH   1   3
BRANCH   1  12
HETATM   12  C2  UNL     1       1.244   0.054  -0.016  1.00  0.00     0.710 A 
HETATM   13  N4  UNL     1       1.020  -0.040   1.313  1.00  0.00    -0.118 N 
HETATM   14  N5  UNL     1       2.202  -0.018   1.884  1.00  0.00    -0.212 N 
ATOM     15  H4  UNL     1       0.115  -0.113   1.779  1.00  0.00     0.207 HD
HETATM   16  N6  UNL     1       3.147   0.087   0.957  1.00  0.00     0.009 NA
ATOM     17  H5  UNL     1       2.369  -0.073   2.889  1.00  0.00     0.206 HD
HETATM   18  N7  UNL     1       2.569   0.134  -0.239  1.00  0.00    -0.114 N 
ATOM     19  H7  UNL     1       3.035   0.214  -1.143  1.00  0.00     0.203 HD
ENDBRANCH   1  12
TORSDOF 5
