REMARK  1 active torsions:
REMARK  status: ('A' for Active; 'I' for Inactive)
REMARK       I    between atoms: C1_4  and  N3_6 
REMARK       I    between atoms: N3_6  and  C2_7 
REMARK    1  A    between atoms: C2_7  and  C3_9 
ROOT
HETATM    1  N1  UNL     1      -2.141  -1.314   0.055  1.00  0.00    -0.362 N 
ATOM      2  H11 UNL     1      -1.369  -1.776   0.535  1.00  0.00     0.159 HD
ATOM      3  H12 UNL     1      -3.094  -1.664  -0.045  1.00  0.00     0.159 HD
HETATM    4  C1  UNL     1      -1.927  -0.125  -0.510  1.00  0.00     0.264 C 
HETATM    5  N2  UNL     1      -2.988   0.510  -1.170  1.00  0.00    -0.049 NA
HETATM    6  N3  UNL     1      -0.647   0.345  -0.376  1.00  0.00    -0.331 NA
HETATM    7  C2  UNL     1       0.597   0.809  -0.249  1.00  0.00     0.365 C 
HETATM    8  O1  UNL     1       1.078   1.920  -0.686  1.00  0.00    -0.247 OA
ENDROOT
BRANCH   7   9
HETATM    9  C3  UNL     1       1.636   0.017   0.472  1.00  0.00     0.215 A 
HETATM   10  N4  UNL     1       1.533  -1.188   1.018  1.00  0.00    -0.265 N 
HETATM   11  N5  UNL     1       2.692  -1.515   1.564  1.00  0.00    -0.007 NA
ATOM     12  H4  UNL     1       0.694  -1.769   1.017  1.00  0.00     0.185 HD
HETATM   13  N6  UNL     1       3.563  -0.534   1.384  1.00  0.00    -0.007 NA
HETATM   14  N7  UNL     1       2.886   0.399   0.707  1.00  0.00    -0.265 N 
ATOM     15  H7  UNL     1       3.280   1.291   0.409  1.00  0.00     0.185 HD
ENDBRANCH   7   9
TORSDOF 1
