REMARK  4 active torsions:
REMARK  status: ('A' for Active; 'I' for Inactive)
REMARK    1  A    between atoms: N2_3  and  C2_5 
REMARK    2  A    between atoms: C2_5  and  S1_9 
REMARK    3  A    between atoms: S1_9  and  C3_10 
REMARK    4  A    between atoms: C3_10  and  C4_11 
ROOT
HETATM    1  N1  UNL     1      -4.918   2.430   0.018  1.00  0.00    -0.172 NA
HETATM    2  C1  UNL     1      -4.626   1.331   0.075  1.00  0.00     0.183 C 
HETATM    3  N2  UNL     1      -4.293  -0.016   0.142  1.00  0.00    -0.274 N 
ATOM      4  H2  UNL     1      -5.037  -0.690   0.322  1.00  0.00     0.180 HD
ENDROOT
BRANCH   3   5
HETATM    5  C2  UNL     1      -2.960  -0.508  -0.029  1.00  0.00     0.146 C 
HETATM    6  N3  UNL     1      -2.784  -1.622  -0.657  1.00  0.00    -0.379 N 
ATOM      7  H32 UNL     1      -3.584  -2.138  -1.024  1.00  0.00     0.158 HD
ATOM      8  H31 UNL     1      -1.834  -1.973  -0.779  1.00  0.00     0.158 HD
BRANCH   5   9
HETATM    9  S1  UNL     1      -1.563   0.394   0.612  1.00  0.00    -0.093 SA
BRANCH   9  10
HETATM   10  C3  UNL     1      -0.049  -0.565   0.188  1.00  0.00     0.087 C 
BRANCH  10  11
HETATM   11  C4  UNL     1       1.174   0.105   0.679  1.00  0.00     0.003 C 
HETATM   12  C5  UNL     1       2.453  -0.581   0.404  1.00  0.00    -0.009 C 
HETATM   13  C6  UNL     1       3.071   0.805   0.573  1.00  0.00     0.010 C 
HETATM   14  C8  UNL     1       2.317  -0.190  -1.017  1.00  0.00     0.010 C 
HETATM   15  C7  UNL     1       1.838   1.013  -0.298  1.00  0.00    -0.009 C 
ENDBRANCH  10  11
ENDBRANCH   9  10
ENDBRANCH   5   9
ENDBRANCH   3   5
TORSDOF 4
