REMARK  4 active torsions:
REMARK  status: ('A' for Active; 'I' for Inactive)
REMARK    1  A    between atoms: N1_1  and  C1_5 
REMARK    2  A    between atoms: C1_5  and  C2_6 
REMARK    3  A    between atoms: C2_6  and  C3_7 
REMARK    4  A    between atoms: C3_7  and  O1_8 
ROOT
HETATM    1  C2  UNL     1      -0.796  -0.240  -0.010  1.00  0.00     0.053 C 
HETATM    2  C4  UNL     1       0.077  -0.050   1.198  1.00  0.00     0.024 C 
HETATM    3  C5  UNL     1       1.143   0.974   1.040  1.00  0.00     0.002 C 
HETATM    4  C6  UNL     1       2.276   0.633   0.168  1.00  0.00     0.001 C 
HETATM    5  C7  UNL     1       2.367  -0.773  -0.295  1.00  0.00     0.010 C 
HETATM    6  C8  UNL     1       1.660  -0.863  -1.637  1.00  0.00     0.075 C 
HETATM    7  S1  UNL     1      -0.081  -1.128  -1.354  1.00  0.00    -0.155 SA
ENDROOT
BRANCH   1   8
HETATM    8  C1  UNL     1      -1.988  -1.074   0.494  1.00  0.00     0.252 C 
BRANCH   8   9
HETATM    9  N1  UNL     1      -2.952  -1.304  -0.535  1.00  0.00    -0.078 N 
ATOM     10  H13 UNL     1      -3.264  -0.427  -0.953  1.00  0.00     0.274 HD
ATOM     11  H12 UNL     1      -2.523  -1.730  -1.356  1.00  0.00     0.274 HD
ATOM     12  H11 UNL     1      -3.742  -1.857  -0.201  1.00  0.00     0.274 HD
ENDBRANCH   8   9
ENDBRANCH   1   8
BRANCH   1  13
HETATM   13  C3  UNL     1      -1.379   1.068  -0.476  1.00  0.00     0.186 C 
BRANCH  13  14
HETATM   14  O1  UNL     1      -2.011   1.651   0.635  1.00  0.00    -0.399 OA
ATOM     15  H1  UNL     1      -2.379   2.476   0.341  1.00  0.00     0.209 HD
ENDBRANCH  13  14
ENDBRANCH   1  13
TORSDOF 4
