REMARK  3 active torsions:
REMARK  status: ('A' for Active; 'I' for Inactive)
REMARK    1  A    between atoms: C4_4  and  C5_5 
REMARK    2  A    between atoms: C5_5  and  C6_6 
REMARK    3  A    between atoms: C7_8  and  N1_9 
ROOT
HETATM    1  C1  UNL     1       3.008  -0.934   0.294  1.00  0.00     0.039 C 
HETATM    2  C2  UNL     1       1.887  -0.206  -0.364  1.00  0.00     0.120 C 
HETATM    3  C3  UNL     1       0.529  -0.828  -0.104  1.00  0.00     0.040 C 
HETATM    4  C4  UNL     1      -0.349   0.282  -0.640  1.00  0.00     0.045 C 
HETATM    5  C7  UNL     1       0.492   1.496  -0.410  1.00  0.00     0.323 C 
HETATM    6  O1  UNL     1       1.677   1.073   0.197  1.00  0.00    -0.354 OA
ENDROOT
BRANCH   5   7
HETATM    7  N1  UNL     1      -0.165   2.504   0.387  1.00  0.00    -0.052 N 
ATOM      8  H13 UNL     1      -1.065   2.759  -0.021  1.00  0.00     0.277 HD
ATOM      9  H12 UNL     1      -0.486   2.113   1.273  1.00  0.00     0.277 HD
ATOM     10  H11 UNL     1       0.409   3.332   0.544  1.00  0.00     0.277 HD
ENDBRANCH   5   7
BRANCH   4  11
HETATM   11  C5  UNL     1      -1.684   0.342   0.052  1.00  0.00     0.020 C 
BRANCH  11  12
HETATM   12  C6  UNL     1      -2.371  -1.002  -0.184  1.00  0.00     0.086 C 
HETATM   13  S1  UNL     1      -3.997  -1.042   0.610  1.00  0.00    -0.098 SA
ENDBRANCH  11  12
ENDBRANCH   4  11
TORSDOF 3
