REMARK  2 active torsions:
REMARK  status: ('A' for Active; 'I' for Inactive)
REMARK    1  A    between atoms: N1_1  and  C1_5 
REMARK    2  A    between atoms: C1_5  and  C2_6 
ROOT
HETATM    1  C1  UNL     1       0.214   0.072   0.340  1.00  0.00     0.180 C 
HETATM    2  C5  UNL     1       0.774  -1.285   0.547  1.00  0.00     0.047 C 
HETATM    3  C6  UNL     1       2.006  -1.612  -0.207  1.00  0.00     0.003 C 
HETATM    4  C7  UNL     1       2.968  -0.505  -0.412  1.00  0.00     0.000 C 
HETATM    5  C8  UNL     1       2.413   0.867  -0.251  1.00  0.00     0.003 C 
HETATM    6  C9  UNL     1       0.961   0.819  -0.738  1.00  0.00     0.047 C 
ENDROOT
BRANCH   1   7
HETATM    7  N1  UNL     1       0.361   0.860   1.567  1.00  0.00    -0.063 N 
ATOM      8  H13 UNL     1      -0.038   1.794   1.477  1.00  0.00     0.275 HD
ATOM      9  H12 UNL     1      -0.238   0.520   2.320  1.00  0.00     0.275 HD
ATOM     10  H11 UNL     1       1.345   0.883   1.835  1.00  0.00     0.275 HD
ENDBRANCH   1   7
BRANCH   1  11
HETATM   11  C2  UNL     1      -1.223   0.038  -0.052  1.00  0.00     0.109 C 
HETATM   12  N2  UNL     1      -1.962  -1.029  -0.175  1.00  0.00    -0.376 N 
HETATM   13  C3  UNL     1      -3.299  -0.689  -0.568  1.00  0.00     0.140 C 
ATOM     14  H2  UNL     1      -1.633  -1.981  -0.013  1.00  0.00     0.160 HD
HETATM   15  C4  UNL     1      -3.404   0.779  -0.200  1.00  0.00     0.140 C 
HETATM   16  N3  UNL     1      -2.001   1.192  -0.354  1.00  0.00    -0.376 N 
ATOM     17  H3  UNL     1      -1.656   2.114  -0.622  1.00  0.00     0.160 HD
ENDBRANCH   1  11
TORSDOF 2
