REMARK  4 active torsions:
REMARK  status: ('A' for Active; 'I' for Inactive)
REMARK    1  A    between atoms: N1_1  and  C1_4 
REMARK    2  A    between atoms: C3_7  and  C4_8 
REMARK    3  A    between atoms: C4_8  and  C5_9 
REMARK    4  A    between atoms: C5_9  and  C6_10 
ROOT
HETATM    1  C1  UNL     1      -0.852  -1.108   1.018  1.00  0.00     0.065 A 
HETATM    2  C2  UNL     1       0.468  -0.821   0.792  1.00  0.00     0.099 A 
HETATM    3  N2  UNL     1       1.505  -1.520   1.528  1.00  0.00    -0.098 NA
HETATM    4  C3  UNL     1       0.943   0.108  -0.105  1.00  0.00     0.087 A 
HETATM    5  S2  UNL     1      -0.262   0.937  -0.977  1.00  0.00    -0.060 SA
HETATM    6  C10 UNL     1      -1.854   0.452  -0.568  1.00  0.00     0.089 A 
HETATM    7  N3  UNL     1      -2.960   0.995  -1.153  1.00  0.00    -0.335 N 
ATOM      8  H3  UNL     1      -2.834   1.718  -1.862  1.00  0.00     0.168 HD
HETATM    9  C11 UNL     1      -4.208   0.617  -0.834  1.00  0.00     0.116 A 
HETATM   10  N4  UNL     1      -5.442   0.973  -1.240  1.00  0.00    -0.352 N 
ATOM     11  H4  UNL     1      -5.638   1.681  -1.948  1.00  0.00     0.166 HD
HETATM   12  C12 UNL     1      -6.373   0.274  -0.590  1.00  0.00     0.090 A 
HETATM   13  C13 UNL     1      -5.694  -0.558   0.263  1.00  0.00     0.032 A 
HETATM   14  C14 UNL     1      -4.311  -0.363   0.130  1.00  0.00     0.010 A 
HETATM   15  C15 UNL     1      -3.218  -0.927   0.735  1.00  0.00     0.032 A 
HETATM   16  C16 UNL     1      -1.937  -0.532   0.401  1.00  0.00     0.027 A 
ENDROOT
BRANCH   4  17
HETATM   17  C4  UNL     1       2.364   0.342  -0.273  1.00  0.00    -0.052 C 
BRANCH  17  18
HETATM   18  C5  UNL     1       3.542   0.551  -0.429  1.00  0.00    -0.060 C 
BRANCH  18  19
HETATM   19  C6  UNL     1       4.980   0.792  -0.624  1.00  0.00     0.025 A 
HETATM   20  C7  UNL     1       5.605   1.876  -0.149  1.00  0.00     0.028 A 
HETATM   21  C8  UNL     1       6.949   1.988  -0.396  1.00  0.00     0.051 A 
HETATM   22  S1  UNL     1       7.293   0.574  -1.284  1.00  0.00    -0.112 SA
HETATM   23  C9  UNL     1       5.736  -0.116  -1.317  1.00  0.00     0.070 A 
ENDBRANCH  18  19
ENDBRANCH  17  18
ENDBRANCH   4  17
BRANCH   1  24
HETATM   24  N1  UNL     1      -1.133  -2.029   1.916  1.00  0.00    -0.397 N 
ATOM     25  H12 UNL     1      -0.328  -2.456   2.374  1.00  0.00     0.156 HD
ATOM     26  H11 UNL     1      -2.116  -2.243   2.084  1.00  0.00     0.156 HD
ENDBRANCH   1  24
TORSDOF 4
