REMARK  2 active torsions:
REMARK  status: ('A' for Active; 'I' for Inactive)
REMARK    1  A    between atoms: C7_11  and  N3_12 
REMARK    2  A    between atoms: N3_12  and  C8_14 
ROOT
HETATM    1  N3  UNL     1      -0.341   0.735   0.005  1.00  0.00    -0.173 N 
ATOM      2  H3  UNL     1      -0.887   1.458   0.473  1.00  0.00     0.186 HD
ENDROOT
BRANCH   1   3
HETATM    3  C7  UNL     1       1.073   0.774   0.027  1.00  0.00     0.699 A 
HETATM    4  N2  UNL     1       1.747   1.691  -0.587  1.00  0.00    -0.131 N 
HETATM    5  N1  UNL     1       3.146   1.707  -0.550  1.00  0.00    -0.284 N 
ATOM      6  H2  UNL     1       1.251   2.415  -1.107  1.00  0.00     0.205 HD
HETATM    7  C5  UNL     1       3.899   0.718   0.164  1.00  0.00     0.075 A 
ATOM      8  H1  UNL     1       3.645   2.445  -1.046  1.00  0.00     0.187 HD
HETATM    9  C4  UNL     1       3.197  -0.255   0.816  1.00  0.00     0.077 A 
HETATM   10  C6  UNL     1       5.282   0.731   0.202  1.00  0.00     0.033 A 
HETATM   11  C3  UNL     1       3.887  -1.241   1.525  1.00  0.00     0.032 A 
HETATM   12  N6  UNL     1       1.776  -0.229   0.748  1.00  0.00    -0.188 N 
HETATM   13  C2  UNL     1       5.267  -1.238   1.570  1.00  0.00     0.002 A 
HETATM   14  C1  UNL     1       5.967  -0.251   0.908  1.00  0.00     0.002 A 
ATOM     15  H6  UNL     1       1.245  -0.953   1.232  1.00  0.00     0.184 HD
ENDBRANCH   1   3
BRANCH   1  16
HETATM   16  C8  UNL     1      -0.927  -0.230  -0.616  1.00  0.00     0.149 A 
HETATM   17  N4  UNL     1      -0.274  -1.221  -1.256  1.00  0.00    -0.283 N 
HETATM   18  N5  UNL     1      -1.154  -2.044  -1.783  1.00  0.00    -0.291 N 
ATOM     19  H4  UNL     1       0.739  -1.317  -1.321  1.00  0.00     0.188 HD
HETATM   20  C9  UNL     1      -2.402  -1.567  -1.474  1.00  0.00     0.104 A 
ATOM     21  H5  UNL     1      -0.946  -2.884  -2.323  1.00  0.00     0.187 HD
HETATM   22  S1  UNL     1      -4.080  -1.819  -1.632  1.00  0.00    -0.070 SA
HETATM   23  C16 UNL     1      -2.322  -0.429  -0.741  1.00  0.00     0.057 A 
HETATM   24  C10 UNL     1      -4.645  -0.464  -0.758  1.00  0.00     0.018 A 
HETATM   25  C11 UNL     1      -5.918   0.038  -0.432  1.00  0.00     0.020 A 
HETATM   26  C15 UNL     1      -3.493   0.155  -0.362  1.00  0.00    -0.002 A 
HETATM   27  C12 UNL     1      -6.060   1.185   0.307  1.00  0.00     0.001 A 
HETATM   28  C13 UNL     1      -4.914   1.821   0.714  1.00  0.00     0.001 A 
HETATM   29  C14 UNL     1      -3.697   1.326   0.393  1.00  0.00     0.014 A 
ENDBRANCH   1  16
TORSDOF 2
