REMARK  8 active torsions:
REMARK  status: ('A' for Active; 'I' for Inactive)
REMARK       I    between atoms: C2_5  and  N4_7 
REMARK    1  A    between atoms: N4_7  and  C3_9 
REMARK    2  A    between atoms: C3_9  and  C4_10 
REMARK    3  A    between atoms: C4_10  and  N5_11 
REMARK    4  A    between atoms: N5_11  and  C5_13 
REMARK    5  A    between atoms: C6_16  and  C7_17 
REMARK       I    between atoms: C7_17  and  N7_19 
REMARK    6  A    between atoms: N7_19  and  N8_21 
REMARK    7  A    between atoms: C8_24  and  N9_25 
REMARK    8  A    between atoms: C9_28  and  N10_29 
ROOT
HETATM    1  N1  UNL     1      -7.590  -3.125  -1.367  1.00  0.00    -0.172 NA
HETATM    2  C1  UNL     1      -6.461  -3.077  -1.097  1.00  0.00     0.184 C 
HETATM    3  N2  UNL     1      -5.099  -2.998  -0.782  1.00  0.00    -0.268 N 
ATOM      4  H2  UNL     1      -4.468  -3.754  -1.047  1.00  0.00     0.180 HD
HETATM    5  C2  UNL     1      -4.646  -1.968  -0.157  1.00  0.00     0.197 C 
HETATM    6  N3  UNL     1      -5.515  -0.912   0.217  1.00  0.00    -0.063 NA
HETATM    7  N4  UNL     1      -3.243  -1.908   0.152  1.00  0.00    -0.362 N 
ATOM      8  H4  UNL     1      -2.685  -2.746   0.317  1.00  0.00     0.162 HD
ENDROOT
BRANCH   7   9
HETATM    9  C3  UNL     1      -2.681  -0.587   0.212  1.00  0.00     0.142 C 
BRANCH   9  10
HETATM   10  C4  UNL     1      -1.204  -0.561   0.530  1.00  0.00     0.157 C 
BRANCH  10  11
HETATM   11  N5  UNL     1      -0.810   0.825   0.550  1.00  0.00    -0.224 N 
ATOM     12  H5  UNL     1      -1.538   1.524   0.696  1.00  0.00     0.177 HD
BRANCH  11  13
HETATM   13  C5  UNL     1       0.385   1.236   0.398  1.00  0.00     0.680 A 
HETATM   14  N6  UNL     1       1.384   0.382   0.206  1.00  0.00    -0.184 N 
HETATM   15  C6  UNL     1       2.658   0.849   0.046  1.00  0.00     0.155 A 
ATOM     16  H6  UNL     1       1.200  -0.621   0.178  1.00  0.00     0.184 HD
HETATM   17  C8  UNL     1       2.902   2.200   0.085  1.00  0.00     0.179 A 
HETATM   18  C9  UNL     1       1.838   3.059   0.286  1.00  0.00     0.150 A 
HETATM   19  N11 UNL     1       0.603   2.556   0.438  1.00  0.00    -0.175 N 
ATOM     20  H11 UNL     1      -0.182   3.190   0.586  1.00  0.00     0.186 HD
BRANCH  15  21
HETATM   21  C7  UNL     1       3.715  -0.117  -0.178  1.00  0.00     0.289 C 
HETATM   22  O1  UNL     1       4.874   0.287  -0.407  1.00  0.00    -0.264 OA
HETATM   23  N7  UNL     1       3.475  -1.503  -0.146  1.00  0.00    -0.271 N 
ATOM     24  H7  UNL     1       2.542  -1.872   0.039  1.00  0.00     0.189 HD
BRANCH  23  25
HETATM   25  N8  UNL     1       4.578  -2.374  -0.380  1.00  0.00    -0.342 N 
ATOM     26  H82 UNL     1       5.505  -1.989  -0.563  1.00  0.00     0.176 HD
ATOM     27  H81 UNL     1       4.404  -3.379  -0.357  1.00  0.00     0.176 HD
ENDBRANCH  23  25
ENDBRANCH  15  21
BRANCH  17  28
HETATM   28  N9  UNL     1       4.195   2.713  -0.074  1.00  0.00    -0.109 N 
HETATM   29  O2  UNL     1       5.014   2.732   0.894  1.00  0.00    -0.532 OA
HETATM   30  O3  UNL     1       4.647   3.249  -1.252  1.00  0.00    -0.532 OA
ENDBRANCH  17  28
BRANCH  18  31
HETATM   31  N10 UNL     1       2.094   4.319   0.317  1.00  0.00    -0.383 N 
ATOM     32 2H10 UNL     1       3.033   4.701   0.201  1.00  0.00     0.157 HD
ATOM     33 1H10 UNL     1       1.309   4.953   0.465  1.00  0.00     0.157 HD
ENDBRANCH  18  31
ENDBRANCH  11  13
ENDBRANCH  10  11
ENDBRANCH   9  10
ENDBRANCH   7   9
TORSDOF 8
