REMARK  5 active torsions:
REMARK  status: ('A' for Active; 'I' for Inactive)
REMARK    1  A    between atoms: C1_4  and  N2_5 
REMARK    2  A    between atoms: C1_4  and  C4_16 
REMARK       I    between atoms: N2_5  and  C2_7 
REMARK    3  A    between atoms: N4_9  and  N5_11 
REMARK    4  A    between atoms: C6_22  and  C7_23 
REMARK    5  A    between atoms: N10_24  and  N11_26 
ROOT
HETATM    1  C4  UNL     1      -0.198  -1.942  -0.387  1.00  0.00     0.152 A 
HETATM    2  N8  UNL     1      -1.111  -2.427  -1.253  1.00  0.00    -0.335 N 
ATOM      3  H8  UNL     1      -0.794  -3.032  -2.011  1.00  0.00     0.168 HD
HETATM    4  C5  UNL     1      -2.422  -2.145  -1.157  1.00  0.00     0.183 A 
HETATM    5  N9  UNL     1      -2.811  -1.344  -0.148  1.00  0.00    -0.337 N 
ATOM      6  H9  UNL     1      -3.802  -1.119  -0.060  1.00  0.00     0.168 HD
HETATM    7  C6  UNL     1      -1.954  -0.827   0.750  1.00  0.00     0.124 A 
HETATM    8  N14 UNL     1      -0.656  -1.149   0.596  1.00  0.00    -0.324 N 
ATOM      9  H14 UNL     1       0.017  -0.770   1.262  1.00  0.00     0.169 HD
ENDROOT
BRANCH   1  10
HETATM   10  C1  UNL     1       1.213  -2.278  -0.533  1.00  0.00     0.146 C 
HETATM   11  N1  UNL     1       1.585  -3.042  -1.495  1.00  0.00    -0.382 N 
ATOM     12  H12 UNL     1       2.572  -3.277  -1.597  1.00  0.00     0.157 HD
ATOM     13  H11 UNL     1       0.883  -3.401  -2.142  1.00  0.00     0.157 HD
BRANCH  10  14
HETATM   14  N2  UNL     1       2.178  -1.785   0.356  1.00  0.00    -0.313 N 
HETATM   15  C2  UNL     1       2.584  -0.434   0.295  1.00  0.00     0.208 C 
HETATM   16  N3  UNL     1       2.240   0.446   1.336  1.00  0.00    -0.062 NA
HETATM   17  N4  UNL     1       3.259  -0.019  -0.703  1.00  0.00    -0.271 N 
ATOM     18  H4  UNL     1       3.486  -0.691  -1.436  1.00  0.00     0.189 HD
ATOM     19  H2  UNL     1       2.590  -2.407   1.052  1.00  0.00     0.170 HD
BRANCH  17  20
HETATM   20  N5  UNL     1       3.707   1.287  -0.861  1.00  0.00    -0.274 N 
HETATM   21  C3  UNL     1       4.905   1.655  -0.499  1.00  0.00     0.215 C 
HETATM   22  N6  UNL     1       5.813   0.736   0.076  1.00  0.00    -0.065 NA
HETATM   23  N7  UNL     1       5.253   3.022  -0.710  1.00  0.00    -0.065 NA
ATOM     24  H5  UNL     1       3.080   1.979  -1.272  1.00  0.00     0.189 HD
ENDBRANCH  17  20
ENDBRANCH  10  14
ENDBRANCH   1  10
BRANCH   7  25
HETATM   25  C7  UNL     1      -2.383   0.040   1.840  1.00  0.00     0.155 C 
HETATM   26  N10 UNL     1      -3.594   0.367   2.019  1.00  0.00    -0.306 N 
ATOM     27  H10 UNL     1      -3.785   0.978   2.813  1.00  0.00     0.186 HD
BRANCH  26  28
HETATM   28  N11 UNL     1      -4.680  -0.009   1.264  1.00  0.00    -0.276 N 
HETATM   29  C8  UNL     1      -5.224   0.749   0.356  1.00  0.00     0.215 C 
HETATM   30  N12 UNL     1      -6.346   0.272  -0.375  1.00  0.00    -0.065 NA
HETATM   31  N13 UNL     1      -4.748   2.050   0.049  1.00  0.00    -0.065 NA
ATOM     32  H11 UNL     1      -5.082  -0.933   1.424  1.00  0.00     0.189 HD
ENDBRANCH  26  28
ENDBRANCH   7  25
TORSDOF 5
