REMARK  6 active torsions:
REMARK  status: ('A' for Active; 'I' for Inactive)
REMARK    1  A    between atoms: C2_4  and  C3_5 
REMARK    2  A    between atoms: C5_8  and  O2_9 
REMARK    3  A    between atoms: C6_11  and  N2_12 
REMARK    4  A    between atoms: N2_12  and  C7_14 
REMARK    5  A    between atoms: C9_18  and  C10_19 
REMARK    6  A    between atoms: C12_22  and  N4_23 
ROOT
HETATM    1  C10 UNL     1       5.634   0.475   0.457  1.00  0.00    -0.026 C 
HETATM    2  C11 UNL     1       6.812   0.651   0.654  1.00  0.00     0.111 C 
HETATM    3  F1  UNL     1       8.124   0.826   0.869  1.00  0.00    -0.143 F 
ENDROOT
BRANCH   1   4
HETATM    4  C9  UNL     1       4.228   0.261   0.207  1.00  0.00     0.080 A 
HETATM    5  C8  UNL     1       3.309   0.844   1.045  1.00  0.00     0.130 A 
HETATM    6  N3  UNL     1       1.994   0.647   0.816  1.00  0.00    -0.200 N 
HETATM    7  C7  UNL     1       1.529  -0.104  -0.207  1.00  0.00     0.680 A 
ATOM      8  H3  UNL     1       1.320   1.085   1.444  1.00  0.00     0.183 HD
HETATM    9  N5  UNL     1       2.448  -0.667  -1.017  1.00  0.00    -0.176 N 
HETATM   10  C12 UNL     1       3.785  -0.510  -0.844  1.00  0.00     0.135 A 
ATOM     11  H5  UNL     1       2.123  -1.238  -1.797  1.00  0.00     0.186 HD
BRANCH   7  12
HETATM   12  N2  UNL     1       0.278  -0.281  -0.412  1.00  0.00    -0.215 N 
ATOM     13  H2  UNL     1       0.017  -0.862  -1.208  1.00  0.00     0.178 HD
BRANCH  12  14
HETATM   14  C6  UNL     1      -0.779   0.258   0.368  1.00  0.00     0.170 C 
HETATM   15  C3  UNL     1      -2.136   0.118  -0.282  1.00  0.00     0.122 C 
HETATM   16  O1  UNL     1      -2.998   0.290   0.795  1.00  0.00    -0.364 OA
HETATM   17  C13 UNL     1      -2.407  -1.365  -0.169  1.00  0.00     0.055 C 
HETATM   18  C4  UNL     1      -2.522  -0.932   1.260  1.00  0.00     0.161 C 
HETATM   19  C5  UNL     1      -1.078  -0.580   1.624  1.00  0.00     0.174 C 
HETATM   20  C14 UNL     1      -3.741  -1.812  -0.706  1.00  0.00     0.016 C 
BRANCH  15  21
HETATM   21  C2  UNL     1      -2.394   0.778  -1.522  1.00  0.00     0.095 C 
HETATM   22  N1  UNL     1      -2.920   1.939  -1.596  1.00  0.00    -0.404 N 
HETATM   23  C1  UNL     1      -3.299   2.686  -0.439  1.00  0.00     0.145 C 
ATOM     24  H1  UNL     1      -3.076   2.349  -2.517  1.00  0.00     0.158 HD
ENDBRANCH  15  21
BRANCH  19  25
HETATM   25  O2  UNL     1      -0.369  -1.742   1.667  1.00  0.00    -0.391 OA
ATOM     26  H2  UNL     1       0.527  -1.523   1.893  1.00  0.00     0.210 HD
ENDBRANCH  19  25
ENDBRANCH  12  14
ENDBRANCH   7  12
BRANCH  10  27
HETATM   27  N4  UNL     1       4.649  -1.047  -1.616  1.00  0.00    -0.384 N 
ATOM     28  H42 UNL     1       5.654  -0.929  -1.486  1.00  0.00     0.157 HD
ATOM     29  H41 UNL     1       4.321  -1.618  -2.395  1.00  0.00     0.157 HD
ENDBRANCH  10  27
ENDBRANCH   1   4
TORSDOF 6
