REMARK  6 active torsions:
REMARK  status: ('A' for Active; 'I' for Inactive)
REMARK    1  A    between atoms: O1_1  and  C1_3 
REMARK    2  A    between atoms: C1_3  and  C2_4 
REMARK    3  A    between atoms: C3_6  and  N1_7 
REMARK    4  A    between atoms: C9_14  and  C10_15 
REMARK    5  A    between atoms: C10_15  and  O3_16 
REMARK    6  A    between atoms: C11_18  and  O4_19 
ROOT
HETATM    1  C2  UNL     1      -1.949   0.042   1.227  1.00  0.00     0.177 C 
HETATM    2  O2  UNL     1      -0.767   0.712   1.238  1.00  0.00    -0.356 OA
HETATM    3  C3  UNL     1      -0.252   0.708  -0.081  1.00  0.00     0.236 C 
HETATM    4  C9  UNL     1      -0.874  -0.410  -0.803  1.00  0.00     0.090 C 
HETATM    5  C11 UNL     1      -1.723  -1.088   0.256  1.00  0.00     0.159 C 
ENDROOT
BRANCH   3   6
HETATM    6  N1  UNL     1       1.187   0.736  -0.068  1.00  0.00    -0.338 N 
HETATM    7  C4  UNL     1       1.903   1.116  -1.132  1.00  0.00     0.093 A 
HETATM    8  C5  UNL     1       3.297   1.144  -1.118  1.00  0.00     0.019 A 
HETATM    9  C6  UNL     1       3.949   0.765   0.038  1.00  0.00     0.022 A 
HETATM   10  C7  UNL     1       3.200   0.371   1.140  1.00  0.00     0.026 A 
HETATM   11 BR1  UNL     1       4.072  -0.158   2.751  1.00  0.00    -0.050 Br
HETATM   12  C8  UNL     1       1.831   0.371   1.048  1.00  0.00     0.112 A 
ENDBRANCH   3   6
BRANCH   4  13
HETATM   13  C10 UNL     1       0.035  -1.344  -1.514  1.00  0.00     0.175 C 
BRANCH  13  14
HETATM   14  O3  UNL     1       0.950  -1.997  -0.749  1.00  0.00    -0.400 OA
ATOM     15  H3  UNL     1       1.532  -2.595  -1.204  1.00  0.00     0.209 HD
ENDBRANCH  13  14
ENDBRANCH   4  13
BRANCH   1  16
HETATM   16  C1  UNL     1      -3.154   0.869   0.901  1.00  0.00     0.198 C 
BRANCH  16  17
HETATM   17  O1  UNL     1      -3.109   1.468  -0.335  1.00  0.00    -0.398 OA
ATOM     18  H1  UNL     1      -3.873   1.993  -0.542  1.00  0.00     0.209 HD
ENDBRANCH  16  17
ENDBRANCH   1  16
BRANCH   5  19
HETATM   19  O4  UNL     1      -1.103  -2.180   0.816  1.00  0.00    -0.392 OA
ATOM     20  H4  UNL     1      -0.961  -2.892   0.204  1.00  0.00     0.210 HD
ENDBRANCH   5  19
TORSDOF 6
