REMARK  5 active torsions:
REMARK  status: ('A' for Active; 'I' for Inactive)
REMARK    1  A    between atoms: C3_3  and  O1_4 
REMARK    2  A    between atoms: C5_8  and  O2_9 
REMARK    3  A    between atoms: C7_13  and  C8_14 
REMARK    4  A    between atoms: C11_17  and  C12_18 
REMARK    5  A    between atoms: C12_18  and  N1_19 
ROOT
HETATM    1  C1  UNL     1      -1.511   2.470   2.055  1.00  0.00     0.015 C 
HETATM    2  C2  UNL     1      -1.634   1.525   1.314  1.00  0.00    -0.077 C 
HETATM    3  C3  UNL     1      -1.798   0.354   0.424  1.00  0.00     0.141 C 
HETATM    4  C4  UNL     1      -2.014   0.847  -0.970  1.00  0.00     0.136 C 
HETATM    5 BR1  UNL     1      -3.603   1.871  -1.182  1.00  0.00    -0.084 Br
HETATM    6  C5  UNL     1      -0.761   1.624  -1.339  1.00  0.00     0.165 C 
HETATM    7  C6  UNL     1       0.334   0.638  -1.523  1.00  0.00     0.159 C 
HETATM    8  O3  UNL     1       1.540   1.033  -0.929  1.00  0.00    -0.377 OA
HETATM    9  C7  UNL     1       1.710  -0.326  -0.577  1.00  0.00     0.129 C 
HETATM   10  C10 UNL     1       0.262  -0.579  -0.681  1.00  0.00     0.056 C 
HETATM   11  C11 UNL     1      -0.601  -0.550   0.494  1.00  0.00     0.068 C 
ENDROOT
BRANCH   3  12
HETATM   12  O1  UNL     1      -2.973  -0.275   0.840  1.00  0.00    -0.376 OA
ATOM     13  H1  UNL     1      -3.078  -1.027   0.269  1.00  0.00     0.211 HD
ENDBRANCH   3  12
BRANCH  11  14
HETATM   14  C12 UNL     1      -1.150  -1.964   0.751  1.00  0.00     0.238 C 
BRANCH  14  15
HETATM   15  N1  UNL     1      -0.075  -2.925   0.837  1.00  0.00    -0.079 N 
ATOM     16  H13 UNL     1       0.523  -2.897   0.011  1.00  0.00     0.274 HD
ATOM     17  H12 UNL     1       0.616  -2.656   1.537  1.00  0.00     0.274 HD
ATOM     18  H11 UNL     1      -0.439  -3.862   1.007  1.00  0.00     0.274 HD
ENDBRANCH  14  15
ENDBRANCH  11  14
BRANCH   6  19
HETATM   19  O2  UNL     1      -0.974   2.398  -2.472  1.00  0.00    -0.392 OA
ATOM     20  H2  UNL     1      -0.191   2.884  -2.703  1.00  0.00     0.210 HD
ENDBRANCH   6  19
BRANCH   9  21
HETATM   21  C8  UNL     1       2.407  -0.438   0.715  1.00  0.00     0.028 C 
HETATM   22  C9  UNL     1       3.778   0.237   0.570  1.00  0.00     0.007 C 
ENDBRANCH   9  21
TORSDOF 5
