REMARK  8 active torsions:
REMARK  status: ('A' for Active; 'I' for Inactive)
REMARK    1  A    between atoms: N1_1  and  N2_4 
REMARK    2  A    between atoms: N2_4  and  N3_5 
REMARK    3  A    between atoms: N3_5  and  C1_7 
REMARK    4  A    between atoms: C3_10  and  O1_11 
REMARK    5  A    between atoms: C5_14  and  O2_15 
REMARK    6  A    between atoms: C6_17  and  O3_18 
REMARK    7  A    between atoms: C7_20  and  C8_21 
REMARK    8  A    between atoms: C8_21  and  N4_22 
ROOT
HETATM    1  C1  UNL     1       1.321   0.907  -0.126  1.00  0.00     0.367 C 
HETATM    2  C2  UNL     1       1.899  -0.321  -0.838  1.00  0.00     0.144 C 
HETATM    3 BR1  UNL     1       3.724  -0.013  -1.354  1.00  0.00    -0.084 Br
HETATM    4  C3  UNL     1       1.817  -1.295   0.343  1.00  0.00     0.172 C 
HETATM    5  C4  UNL     1       0.483  -0.904   0.942  1.00  0.00     0.287 C 
HETATM    6  C5  UNL     1      -0.540  -1.910   0.566  1.00  0.00     0.185 C 
HETATM    7  C6  UNL     1      -1.462  -1.207  -0.388  1.00  0.00     0.184 C 
HETATM    8  C7  UNL     1      -0.964   0.232  -0.483  1.00  0.00     0.282 C 
HETATM    9  N5  UNL     1       0.122   0.369   0.422  1.00  0.00     0.133 N 
ENDROOT
BRANCH   1  10
HETATM   10  N3  UNL     1       1.166   2.019  -0.989  1.00  0.00    -0.217 N 
ATOM     11  H3  UNL     1       0.416   2.047  -1.680  1.00  0.00     0.199 HD
BRANCH  10  12
HETATM   12  N2  UNL     1       1.975   2.964  -0.879  1.00  0.00    -0.246 NA
BRANCH  12  13
HETATM   13  N1  UNL     1       2.802   3.866  -0.737  1.00  0.00    -0.261 N 
ATOM     14  H12 UNL     1       3.025   3.028  -0.200  1.00  0.00     0.193 HD
ATOM     15  H11 UNL     1       3.463   4.638  -0.647  1.00  0.00     0.193 HD
ENDBRANCH  12  13
ENDBRANCH  10  12
ENDBRANCH   1  10
BRANCH   4  16
HETATM   16  O1  UNL     1       2.813  -0.982   1.267  1.00  0.00    -0.392 OA
ATOM     17  H1  UNL     1       2.762  -1.586   1.999  1.00  0.00     0.210 HD
ENDBRANCH   4  16
BRANCH   8  18
HETATM   18  C8  UNL     1      -2.138   1.122  -0.177  1.00  0.00     0.268 C 
BRANCH  18  19
HETATM   19  N4  UNL     1      -1.844   2.516  -0.222  1.00  0.00    -0.077 N 
ATOM     20  H43 UNL     1      -1.061   2.735   0.393  1.00  0.00     0.274 HD
ATOM     21  H42 UNL     1      -1.433   2.765  -1.122  1.00  0.00     0.274 HD
ATOM     22  H41 UNL     1      -2.640   3.119  -0.015  1.00  0.00     0.274 HD
ENDBRANCH  18  19
ENDBRANCH   8  18
BRANCH   6  23
HETATM   23  O2  UNL     1      -1.195  -2.401   1.693  1.00  0.00    -0.391 OA
ATOM     24  H2  UNL     1      -1.850  -3.045   1.452  1.00  0.00     0.210 HD
ENDBRANCH   6  23
BRANCH   7  25
HETATM   25  O3  UNL     1      -2.748  -1.265   0.160  1.00  0.00    -0.391 OA
ATOM     26  H3  UNL     1      -3.331  -0.820  -0.444  1.00  0.00     0.210 HD
ENDBRANCH   7  25
TORSDOF 8
