REMARK  6 active torsions:
REMARK  status: ('A' for Active; 'I' for Inactive)
REMARK    1  A    between atoms: C2_2  and  S1_3 
REMARK    2  A    between atoms: S1_3  and  C3_6 
REMARK    3  A    between atoms: C5_10  and  C6_11 
REMARK    4  A    between atoms: C6_11  and  O4_12 
REMARK    5  A    between atoms: N2_14  and  O5_16 
REMARK    6  A    between atoms: C8_22  and  O7_24 
ROOT
HETATM    1  C3  UNL     1       1.331  -0.688   0.766  1.00  0.00     0.206 C 
HETATM    2  C4  UNL     1      -0.005  -1.373   0.905  1.00  0.00     0.241 C 
HETATM    3  O3  UNL     1      -0.151  -2.576   1.114  1.00  0.00    -0.272 OA
HETATM    4  N1  UNL     1      -0.959  -0.335   0.743  1.00  0.00    -0.314 N 
HETATM    5  C5  UNL     1      -2.387  -0.330   1.000  1.00  0.00     0.267 C 
HETATM    6  N3  UNL     1      -3.015   0.925   0.693  1.00  0.00    -0.330 N 
ATOM      7  H3  UNL     1      -3.862   1.198   1.192  1.00  0.00     0.165 HD
HETATM    8  C7  UNL     1      -2.481   1.782  -0.284  1.00  0.00     0.256 C 
HETATM    9  O6  UNL     1      -3.243   2.541  -0.925  1.00  0.00    -0.270 OA
HETATM   10  C8  UNL     1      -0.996   1.790  -0.561  1.00  0.00     0.155 C 
HETATM   11  C9  UNL     1      -0.566   3.214  -0.156  1.00  0.00     0.059 C 
HETATM   12  C10 UNL     1      -0.286   0.835   0.269  1.00  0.00     0.138 C 
HETATM   13  C11 UNL     1       1.001   0.251  -0.338  1.00  0.00     0.035 C 
HETATM   14  C12 UNL     1       0.677  -0.378  -1.648  1.00  0.00     0.014 C 
ENDROOT
BRANCH   5  15
HETATM   15  C6  UNL     1      -3.138  -1.378   0.288  1.00  0.00     0.179 C 
HETATM   16  N2  UNL     1      -2.631  -2.229  -0.497  1.00  0.00    -0.248 N 
ATOM     17  H2  UNL     1      -1.626  -2.212  -0.671  1.00  0.00     0.196 HD
BRANCH  15  18
HETATM   18  O4  UNL     1      -4.529  -1.390   0.535  1.00  0.00    -0.345 OA
ATOM     19  H4  UNL     1      -5.013  -2.066   0.076  1.00  0.00     0.219 HD
ENDBRANCH  15  18
BRANCH  16  20
HETATM   20  O5  UNL     1      -3.399  -3.166  -1.114  1.00  0.00    -0.288 OA
ATOM     21  H5  UNL     1      -3.018  -3.806  -1.704  1.00  0.00     0.244 HD
ENDBRANCH  16  20
ENDBRANCH   5  15
BRANCH   1  22
HETATM   22  S1  UNL     1       2.679  -1.708   0.699  1.00  0.00     0.157 S 
HETATM   23  O1  UNL     1       2.690  -2.613   1.930  1.00  0.00    -0.227 OA
HETATM   24  O2  UNL     1       2.784  -2.636  -0.468  1.00  0.00    -0.227 OA
BRANCH  22  25
HETATM   25  C2  UNL     1       4.199  -0.804   0.776  1.00  0.00     0.136 C 
HETATM   26  C1  UNL     1       4.355   0.161  -0.349  1.00  0.00     0.021 C 
ENDBRANCH  22  25
ENDBRANCH   1  22
BRANCH  10  27
HETATM   27  O7  UNL     1      -0.853   1.749  -1.920  1.00  0.00    -0.378 OA
ATOM     28  H7  UNL     1       0.081   1.754  -2.094  1.00  0.00     0.211 HD
ENDBRANCH  10  27
TORSDOF 6
