REMARK  8 active torsions:
REMARK  status: ('A' for Active; 'I' for Inactive)
REMARK    1  A    between atoms: C4_5  and  C5_6 
REMARK    2  A    between atoms: N2_9  and  C8_10 
REMARK    3  A    between atoms: C9_12  and  C10_13 
REMARK    4  A    between atoms: C10_13  and  O2_14 
REMARK    5  A    between atoms: C11_16  and  O3_17 
REMARK    6  A    between atoms: C12_19  and  O4_20 
REMARK    7  A    between atoms: C13_22  and  O5_23 
REMARK    8  A    between atoms: N3_29  and  O6_30 
ROOT
HETATM    1  N1  UNL     1       7.472   2.709   0.726  1.00  0.00    -0.190 NA
HETATM    2  C1  UNL     1       6.821   1.786   0.479  1.00  0.00     0.120 C 
HETATM    3  C2  UNL     1       5.986   0.634   0.189  1.00  0.00     0.142 A 
HETATM    4  C3  UNL     1       4.619   0.744   0.075  1.00  0.00     0.056 A 
HETATM    5  C4  UNL     1       3.773  -0.312  -0.199  1.00  0.00    -0.022 A 
HETATM    6  C16 UNL     1       4.353  -1.549  -0.367  1.00  0.00     0.032 A 
HETATM    7  C17 UNL     1       5.725  -1.638  -0.249  1.00  0.00     0.125 A 
HETATM    8  N3  UNL     1       6.520  -0.588   0.019  1.00  0.00    -0.226 N 
ENDROOT
BRANCH   8   9
HETATM    9  O6  UNL     1       7.889  -0.704   0.131  1.00  0.00    -0.282 OA
ATOM     10  H6  UNL     1       8.266  -1.568   0.011  1.00  0.00     0.245 HD
ENDBRANCH   8   9
BRANCH   5  11
HETATM   11  C5  UNL     1       2.334  -0.098  -0.301  1.00  0.00    -0.023 A 
HETATM   12  C6  UNL     1       1.518  -0.838  -1.119  1.00  0.00     0.029 A 
HETATM   13  C7  UNL     1       0.167  -0.559  -1.145  1.00  0.00     0.094 A 
HETATM   14  N2  UNL     1      -0.404   0.408  -0.406  1.00  0.00    -0.337 N 
HETATM   15  C14 UNL     1       0.370   1.148   0.404  1.00  0.00     0.094 A 
HETATM   16  C15 UNL     1       1.732   0.894   0.455  1.00  0.00     0.029 A 
BRANCH  14  17
HETATM   17  C8  UNL     1      -1.843   0.669  -0.465  1.00  0.00     0.259 C 
HETATM   18  O1  UNL     1      -2.424  -0.437  -1.001  1.00  0.00    -0.354 OA
HETATM   19  C9  UNL     1      -3.791  -0.488  -0.848  1.00  0.00     0.179 C 
HETATM   20  C11 UNL     1      -4.025  -0.694   0.655  1.00  0.00     0.180 C 
HETATM   21  C12 UNL     1      -3.654   0.613   1.286  1.00  0.00     0.182 C 
HETATM   22  C13 UNL     1      -2.319   1.113   0.856  1.00  0.00     0.198 C 
BRANCH  19  23
HETATM   23  C10 UNL     1      -4.435  -1.589  -1.643  1.00  0.00     0.198 C 
BRANCH  23  24
HETATM   24  O2  UNL     1      -4.181  -1.413  -2.980  1.00  0.00    -0.398 OA
ATOM     25  H2  UNL     1      -4.588  -2.109  -3.483  1.00  0.00     0.209 HD
ENDBRANCH  23  24
ENDBRANCH  19  23
BRANCH  20  26
HETATM   26  O3  UNL     1      -3.080  -1.642   1.086  1.00  0.00    -0.390 OA
ATOM     27  H3  UNL     1      -3.225  -1.769   2.016  1.00  0.00     0.210 HD
ENDBRANCH  20  26
BRANCH  21  28
HETATM   28  O4  UNL     1      -4.624   1.555   0.875  1.00  0.00    -0.390 OA
ATOM     29  H4  UNL     1      -4.389   2.384   1.275  1.00  0.00     0.210 HD
ENDBRANCH  21  28
BRANCH  22  30
HETATM   30  O5  UNL     1      -2.383   2.528   0.900  1.00  0.00    -0.388 OA
ATOM     31  H5  UNL     1      -2.690   2.814   1.752  1.00  0.00     0.210 HD
ENDBRANCH  22  30
ENDBRANCH  14  17
ENDBRANCH   5  11
TORSDOF 8
