REMARK  7 active torsions:
REMARK  status: ('A' for Active; 'I' for Inactive)
REMARK    1  A    between atoms: C5_5  and  O1_6 
REMARK    2  A    between atoms: C10_12  and  C11_13 
REMARK    3  A    between atoms: C17_22  and  C18_23 
REMARK    4  A    between atoms: C17_22  and  C19_26 
REMARK    5  A    between atoms: C18_23  and  O4_24 
REMARK    6  A    between atoms: C19_26  and  O5_27 
REMARK    7  A    between atoms: C20_29  and  O6_30 
ROOT
HETATM    1  C1  UNL     1      -0.227  -0.920   2.764  1.00  0.00     0.023 C 
HETATM    2  C2  UNL     1      -0.674  -0.782   1.296  1.00  0.00     0.007 C 
HETATM    3  C3  UNL     1      -0.721  -2.180   0.786  1.00  0.00    -0.016 C 
HETATM    4  C4  UNL     1      -0.579  -2.499  -0.470  1.00  0.00     0.003 C 
HETATM    5  C5  UNL     1      -0.357  -1.457  -1.473  1.00  0.00     0.162 C 
HETATM    6  C6  UNL     1      -0.231  -0.074  -0.966  1.00  0.00     0.073 C 
HETATM    7  C7  UNL     1       0.659   0.689  -1.922  1.00  0.00     0.027 C 
HETATM    8  C8  UNL     1       2.108   0.413  -1.807  1.00  0.00     0.008 C 
HETATM    9  C9  UNL     1       2.445  -0.260  -0.538  1.00  0.00     0.005 C 
HETATM   10  C10 UNL     1       3.882  -0.135  -0.090  1.00  0.00     0.052 C 
HETATM   11  C12 UNL     1       3.789   0.319   1.319  1.00  0.00     0.013 C 
HETATM   12  C13 UNL     1       2.402  -0.231   1.725  1.00  0.00     0.011 C 
HETATM   13  C14 UNL     1       1.580   0.300   0.611  1.00  0.00    -0.033 C 
HETATM   14  C15 UNL     1       1.909   1.812   0.621  1.00  0.00     0.016 C 
HETATM   15  C16 UNL     1       0.163   0.117   0.484  1.00  0.00     0.032 C 
HETATM   16  S1  UNL     1      -1.846   0.660  -1.147  1.00  0.00     0.043 S 
HETATM   17  O3  UNL     1      -1.673   2.284  -1.563  1.00  0.00    -0.256 OA
HETATM   18  C17 UNL     1      -2.753   0.392   0.296  1.00  0.00     0.107 C 
HETATM   19  C20 UNL     1      -2.105  -0.239   1.454  1.00  0.00     0.155 C 
ENDROOT
BRANCH  18  20
HETATM   20  C18 UNL     1      -3.412   1.709   0.680  1.00  0.00     0.192 C 
BRANCH  20  21
HETATM   21  O4  UNL     1      -4.258   2.224  -0.256  1.00  0.00    -0.399 OA
ATOM     22  H4  UNL     1      -4.669   3.046  -0.016  1.00  0.00     0.209 HD
ENDBRANCH  20  21
ENDBRANCH  18  20
BRANCH  18  23
HETATM   23  C19 UNL     1      -3.929  -0.520  -0.085  1.00  0.00     0.192 C 
BRANCH  23  24
HETATM   24  O5  UNL     1      -4.717   0.087  -1.056  1.00  0.00    -0.399 OA
ATOM     25  H5  UNL     1      -5.444  -0.477  -1.292  1.00  0.00     0.209 HD
ENDBRANCH  23  24
ENDBRANCH  18  23
BRANCH  19  26
HETATM   26  O6  UNL     1      -2.876  -1.261   2.030  1.00  0.00    -0.393 OA
ATOM     27  H6  UNL     1      -3.760  -0.926   2.128  1.00  0.00     0.210 HD
ENDBRANCH  19  26
BRANCH   5  28
HETATM   28  O1  UNL     1      -1.456  -1.581  -2.370  1.00  0.00    -0.390 OA
ATOM     29  H1  UNL     1      -1.312  -0.904  -3.021  1.00  0.00     0.210 HD
ENDBRANCH   5  28
BRANCH  10  30
HETATM   30  C11 UNL     1       4.725   0.681  -0.986  1.00  0.00     0.236 C 
HETATM   31  O2  UNL     1       5.537   1.442  -0.545  1.00  0.00    -0.306 OA
ENDBRANCH  10  30
TORSDOF 7
