REMARK  6 active torsions:
REMARK  status: ('A' for Active; 'I' for Inactive)
REMARK    1  A    between atoms: C3_3  and  C4_4 
REMARK    2  A    between atoms: C6_7  and  C7_8 
REMARK    3  A    between atoms: C9_11  and  O3_12 
REMARK    4  A    between atoms: C10_14  and  C11_15 
REMARK    5  A    between atoms: C13_19  and  O6_20 
REMARK    6  A    between atoms: C14_22  and  O7_23 
ROOT
HETATM    1  C4  UNL     1       2.027  -0.207  -0.146  1.00  0.00     0.090 C 
HETATM    2  C5  UNL     1       2.003  -1.477  -0.918  1.00  0.00     0.149 C 
HETATM    3  O1  UNL     1       2.906  -2.018  -1.478  1.00  0.00    -0.296 OA
HETATM    4  C6  UNL     1       0.593  -2.021  -0.894  1.00  0.00     0.161 C 
HETATM    5  C9  UNL     1      -0.040  -1.152   0.175  1.00  0.00     0.101 C 
HETATM    6  C10 UNL     1      -1.442  -1.401   0.346  1.00  0.00     0.155 C 
HETATM    7  C12 UNL     1      -2.462  -0.303   0.336  1.00  0.00    -0.020 A 
HETATM    8  C13 UNL     1      -3.475  -0.121   1.109  1.00  0.00     0.077 A 
HETATM    9  C14 UNL     1      -3.920   1.067   0.487  1.00  0.00     0.186 A 
HETATM   10  C15 UNL     1      -2.794   0.877  -0.437  1.00  0.00     0.076 A 
HETATM   11  C16 UNL     1      -1.845   2.007  -0.390  1.00  0.00    -0.012 C 
HETATM   12  C17 UNL     1      -0.630   2.230   0.027  1.00  0.00    -0.086 C 
HETATM   13  C18 UNL     1      -0.128   3.612  -0.177  1.00  0.00     0.043 C 
HETATM   14  C19 UNL     1       0.346   1.288   0.680  1.00  0.00     0.046 C 
HETATM   15  C20 UNL     1       0.516   0.155  -0.281  1.00  0.00     0.007 C 
HETATM   16  C21 UNL     1       0.356   0.475  -1.720  1.00  0.00     0.020 C 
ENDROOT
BRANCH   1  17
HETATM   17  C3  UNL     1       2.892   0.813  -0.736  1.00  0.00    -0.018 C 
HETATM   18  C2  UNL     1       3.775   1.433   0.023  1.00  0.00    -0.034 C 
HETATM   19  C1  UNL     1       4.695   2.488  -0.508  1.00  0.00     0.036 C 
ENDBRANCH   1  17
BRANCH   4  20
HETATM   20  C7  UNL     1       0.529  -3.448  -0.812  1.00  0.00     0.137 C 
HETATM   21  C8  UNL     1       1.250  -4.233   0.204  1.00  0.00     0.091 C 
HETATM   22  O2  UNL     1      -0.145  -4.093  -1.601  1.00  0.00    -0.297 OA
ENDBRANCH   4  20
BRANCH   5  23
HETATM   23  O3  UNL     1       0.688  -1.433   1.372  1.00  0.00    -0.387 OA
ATOM     24  H3  UNL     1       0.291  -0.888   2.042  1.00  0.00     0.210 HD
ENDBRANCH   5  23
BRANCH   6  25
HETATM   25  C11 UNL     1      -1.634  -2.234   1.567  1.00  0.00     0.184 C 
HETATM   26  O4  UNL     1      -2.011  -3.418   1.555  1.00  0.00    -0.647 OA
HETATM   27  O5  UNL     1      -1.376  -1.644   2.789  1.00  0.00    -0.647 OA
ENDBRANCH   6  25
BRANCH   8  28
HETATM   28  O6  UNL     1      -4.041  -0.809   2.223  1.00  0.00    -0.362 OA
ATOM     29  H6  UNL     1      -4.789  -0.675   2.794  1.00  0.00     0.217 HD
ENDBRANCH   8  28
BRANCH   9  30
HETATM   30  O7  UNL     1      -5.188   1.046  -0.132  1.00  0.00    -0.388 OA
ATOM     31  H7  UNL     1      -5.487   1.845  -0.550  1.00  0.00     0.210 HD
ENDBRANCH   9  30
TORSDOF 6
