REMARK  9 active torsions:
REMARK  status: ('A' for Active; 'I' for Inactive)
REMARK    1  A    between atoms: C2_2  and  C3_3 
REMARK    2  A    between atoms: C4_4  and  C5_5 
REMARK    3  A    between atoms: C5_5  and  C6_6 
REMARK    4  A    between atoms: N1_9  and  S1_10 
REMARK    5  A    between atoms: S1_10  and  C9_13 
REMARK    6  A    between atoms: C12_16  and  C13_17 
REMARK    7  A    between atoms: C13_17  and  O3_18 
REMARK    8  A    between atoms: N2_20  and  O4_22 
REMARK    9  A    between atoms: C15_25  and  O5_26 
ROOT
HETATM    1  C6  UNL     1       1.655   1.080   0.553  1.00  0.00     0.093 C 
HETATM    2  C7  UNL     1       0.196   1.309   0.751  1.00  0.00     0.060 C 
HETATM    3  C8  UNL     1      -0.712   0.965  -0.376  1.00  0.00     0.077 C 
HETATM    4  N1  UNL     1      -1.823   0.152  -0.104  1.00  0.00    -0.277 N 
HETATM    5  C12 UNL     1      -1.861  -1.202  -0.388  1.00  0.00     0.179 C 
HETATM    6  C14 UNL     1      -0.617  -1.932  -0.703  1.00  0.00     0.068 C 
HETATM    7  C15 UNL     1       0.209  -2.340   0.526  1.00  0.00     0.138 C 
HETATM    8  C16 UNL     1       1.669  -2.278   0.205  1.00  0.00     0.154 C 
HETATM    9  N3  UNL     1       2.448  -1.354   0.971  1.00  0.00    -0.358 N 
ATOM     10  H3  UNL     1       3.366  -1.698   1.253  1.00  0.00     0.162 HD
HETATM   11  C17 UNL     1       2.153  -0.065   1.391  1.00  0.00     0.223 C 
HETATM   12  O6  UNL     1       2.314   0.215   2.633  1.00  0.00    -0.273 OA
ENDROOT
BRANCH   5  13
HETATM   13  C13 UNL     1      -2.877  -1.467  -1.441  1.00  0.00     0.160 C 
HETATM   14  N2  UNL     1      -2.556  -1.715  -2.644  1.00  0.00    -0.249 N 
ATOM     15  H2  UNL     1      -3.355  -1.878  -3.257  1.00  0.00     0.196 HD
BRANCH  13  16
HETATM   16  O3  UNL     1      -4.254  -1.459  -1.188  1.00  0.00    -0.347 OA
ATOM     17  H3  UNL     1      -4.903  -1.628  -1.861  1.00  0.00     0.219 HD
ENDBRANCH  13  16
BRANCH  14  18
HETATM   18  O4  UNL     1      -1.380  -1.804  -3.260  1.00  0.00    -0.288 OA
ATOM     19  H4  UNL     1      -1.140  -1.990  -4.160  1.00  0.00     0.244 HD
ENDBRANCH  14  18
ENDBRANCH   5  13
BRANCH   4  20
HETATM   20  S1  UNL     1      -2.897   0.784   1.021  1.00  0.00     0.236 S 
HETATM   21  O1  UNL     1      -4.111  -0.091   1.290  1.00  0.00    -0.205 OA
HETATM   22  O2  UNL     1      -2.324   1.071   2.380  1.00  0.00    -0.205 OA
BRANCH  20  23
HETATM   23  C9  UNL     1      -3.580   2.338   0.422  1.00  0.00     0.121 C 
HETATM   24  C10 UNL     1      -4.478   2.134  -0.761  1.00  0.00     0.027 C 
HETATM   25  C11 UNL     1      -4.459   2.856   1.568  1.00  0.00     0.027 C 
ENDBRANCH  20  23
ENDBRANCH   4  20
BRANCH   7  26
HETATM   26  O5  UNL     1      -0.182  -3.648   0.920  1.00  0.00    -0.394 OA
ATOM     27  H5  UNL     1       0.329  -3.900   1.680  1.00  0.00     0.210 HD
ENDBRANCH   7  26
BRANCH   1  28
HETATM   28  C5  UNL     1       2.144   1.024  -0.853  1.00  0.00     0.108 C 
BRANCH  28  29
HETATM   29  C4  UNL     1       3.617   0.797  -0.771  1.00  0.00    -0.106 C 
HETATM   30  C3  UNL     1       4.809   0.635  -0.707  1.00  0.00    -0.107 C 
BRANCH  30  31
HETATM   31  C2  UNL     1       6.261   0.461  -0.635  1.00  0.00     0.089 C 
HETATM   32  C1  UNL     1       6.528  -0.486   0.493  1.00  0.00     0.018 C 
ENDBRANCH  30  31
ENDBRANCH  28  29
ENDBRANCH   1  28
TORSDOF 9
