REMARK  5 active torsions:
REMARK  status: ('A' for Active; 'I' for Inactive)
REMARK    1  A    between atoms: C4_4  and  N1_5 
REMARK    2  A    between atoms: C9_15  and  C10_16 
REMARK    3  A    between atoms: C10_16  and  N4_17 
REMARK    4  A    between atoms: N4_17  and  C11_19 
REMARK    5  A    between atoms: C11_19  and  N5_21 
ROOT
HETATM    1  N1  UNL     1      -3.652   1.477   0.006  1.00  0.00    -0.302 N 
HETATM    2  C5  UNL     1      -3.755   2.930  -0.109  1.00  0.00     0.164 C 
HETATM    3  C6  UNL     1      -4.689   0.732  -0.552  1.00  0.00     0.181 C 
HETATM    4  N2  UNL     1      -5.555   0.108  -1.008  1.00  0.00    -0.172 NA
ENDROOT
BRANCH   1   5
HETATM    5  C4  UNL     1      -2.507   0.901   0.677  1.00  0.00     0.198 C 
HETATM    6  C3  UNL     1      -2.636  -0.599   0.663  1.00  0.00     0.080 C 
HETATM    7  C2  UNL     1      -1.713  -1.206  -0.379  1.00  0.00     0.185 C 
HETATM    8  C1  UNL     1      -2.385  -2.337  -1.123  1.00  0.00     0.040 C 
HETATM    9  N7  UNL     1      -0.587  -1.790   0.340  1.00  0.00    -0.069 N 
HETATM   10  C13 UNL     1       0.549  -1.739  -0.541  1.00  0.00     0.266 C 
ATOM     11  H72 UNL     1      -0.414  -1.346   1.242  1.00  0.00     0.277 HD
ATOM     12  H71 UNL     1      -0.779  -2.728   0.691  1.00  0.00     0.277 HD
HETATM   13  C9  UNL     1       1.447  -0.602  -0.035  1.00  0.00     0.165 C 
HETATM   14  O2  UNL     1       1.302  -0.484   1.309  1.00  0.00    -0.373 OA
HETATM   15  C8  UNL     1       0.469   0.485   1.768  1.00  0.00     0.271 C 
HETATM   16  C7  UNL     1      -0.035   1.432   0.779  1.00  0.00     0.242 C 
HETATM   17  N3  UNL     1      -1.269   1.364   0.120  1.00  0.00    -0.337 N 
HETATM   18  O1  UNL     1       0.721   2.420   0.482  1.00  0.00    -0.271 OA
ATOM     19  H3  UNL     1      -1.289   1.674  -0.851  1.00  0.00     0.164 HD
BRANCH  13  20
HETATM   20  C10 UNL     1       2.861  -1.007  -0.400  1.00  0.00     0.155 C 
BRANCH  20  21
HETATM   21  N4  UNL     1       3.839  -0.062   0.040  1.00  0.00    -0.364 N 
ATOM     22  H4  UNL     1       3.555   0.779   0.543  1.00  0.00     0.162 HD
BRANCH  21  23
HETATM   23  C11 UNL     1       5.211  -0.307  -0.231  1.00  0.00     0.180 C 
HETATM   24  S1  UNL     1       5.653  -1.671  -1.045  1.00  0.00    -0.040 SA
BRANCH  23  25
HETATM   25  N5  UNL     1       6.237   0.585   0.175  1.00  0.00    -0.270 N 
HETATM   26  C12 UNL     1       5.929   1.768   0.873  1.00  0.00     0.184 C 
HETATM   27  N6  UNL     1       5.675   2.730   1.463  1.00  0.00    -0.172 NA
ATOM     28  H5  UNL     1       7.209   0.366  -0.042  1.00  0.00     0.180 HD
ENDBRANCH  23  25
ENDBRANCH  21  23
ENDBRANCH  20  21
ENDBRANCH  13  20
ENDBRANCH   1   5
TORSDOF 5
