REMARK  7 active torsions:
REMARK  status: ('A' for Active; 'I' for Inactive)
REMARK    1  A    between atoms: C3_3  and  O1_4 
REMARK    2  A    between atoms: C8_12  and  C9_13 
REMARK    3  A    between atoms: C9_13  and  N1_14 
REMARK       I    between atoms: N1_14  and  C10_16 
REMARK    4  A    between atoms: C10_16  and  C11_18 
REMARK    5  A    between atoms: C11_18  and  O5_20 
REMARK    6  A    between atoms: C11_18  and  C13_22 
REMARK    7  A    between atoms: C16_25  and  O6_26 
ROOT
HETATM    1  C1  UNL     1       7.087   2.024  -1.194  1.00  0.00     0.015 C 
HETATM    2  C2  UNL     1       6.171   1.248  -1.096  1.00  0.00    -0.077 C 
HETATM    3  C3  UNL     1       5.061   0.280  -0.962  1.00  0.00     0.141 C 
HETATM    4  C4  UNL     1       5.198  -0.380   0.366  1.00  0.00     0.219 C 
HETATM    5  O2  UNL     1       4.065  -1.069   0.777  1.00  0.00    -0.379 OA
HETATM    6  C5  UNL     1       2.931  -0.234   0.770  1.00  0.00     0.159 C 
HETATM    7  C6  UNL     1       2.656   0.095  -0.666  1.00  0.00     0.045 C 
HETATM    8  C7  UNL     1       1.283   0.717  -0.746  1.00  0.00     0.175 C 
HETATM    9  O3  UNL     1       0.376  -0.264  -0.345  1.00  0.00    -0.381 OA
HETATM   10  C8  UNL     1       0.436  -0.422   1.003  1.00  0.00     0.170 C 
HETATM   11  C16 UNL     1       1.803  -0.843   1.504  1.00  0.00     0.178 C 
HETATM   12  C17 UNL     1       3.747   1.026  -1.128  1.00  0.00     0.063 C 
ENDROOT
BRANCH   3  13
HETATM   13  O1  UNL     1       5.167  -0.616  -2.028  1.00  0.00    -0.375 OA
ATOM     14  H1  UNL     1       4.454  -1.238  -1.942  1.00  0.00     0.211 HD
ENDBRANCH   3  13
BRANCH  11  15
HETATM   15  O6  UNL     1       1.865  -0.452   2.852  1.00  0.00    -0.390 OA
ATOM     16  H6  UNL     1       1.140  -0.844   3.324  1.00  0.00     0.210 HD
ENDBRANCH  11  15
BRANCH  10  17
HETATM   17  C9  UNL     1      -0.545  -1.373   1.582  1.00  0.00     0.157 C 
BRANCH  17  18
HETATM   18  N1  UNL     1      -1.928  -1.109   1.424  1.00  0.00    -0.356 N 
HETATM   19  C10 UNL     1      -2.701  -1.024   0.256  1.00  0.00     0.252 C 
HETATM   20  O4  UNL     1      -2.154  -1.206  -0.856  1.00  0.00    -0.270 OA
ATOM     21  H1  UNL     1      -2.441  -0.957   2.293  1.00  0.00     0.162 HD
BRANCH  19  22
HETATM   22  C11 UNL     1      -4.163  -0.719   0.362  1.00  0.00     0.137 C 
HETATM   23  C12 UNL     1      -4.996  -1.859  -0.189  1.00  0.00     0.057 C 
BRANCH  22  24
HETATM   24  O5  UNL     1      -4.515  -0.563   1.699  1.00  0.00    -0.380 OA
ATOM     25  H5  UNL     1      -5.443  -0.369   1.766  1.00  0.00     0.211 HD
ENDBRANCH  22  24
BRANCH  22  26
HETATM   26  C13 UNL     1      -4.525   0.519  -0.418  1.00  0.00     0.021 C 
HETATM   27  C14 UNL     1      -6.013   0.738  -0.246  1.00  0.00     0.013 C 
HETATM   28  C15 UNL     1      -3.786   1.739   0.002  1.00  0.00     0.013 C 
ENDBRANCH  22  26
ENDBRANCH  19  22
ENDBRANCH  17  18
ENDBRANCH  10  17
TORSDOF 7
