REMARK  6 active torsions:
REMARK  status: ('A' for Active; 'I' for Inactive)
REMARK    1  A    between atoms: N1_2  and  C3_4 
REMARK    2  A    between atoms: C4_5  and  N2_6 
REMARK    3  A    between atoms: N2_6  and  C5_8 
REMARK    4  A    between atoms: C5_8  and  N3_10 
REMARK    5  A    between atoms: N3_10  and  C6_12 
REMARK    6  A    between atoms: C10_19  and  O1_20 
ROOT
HETATM    1  C3  UNL     1      -1.497   1.260   0.042  1.00  0.00     0.278 C 
HETATM    2  C4  UNL     1      -0.574   0.126   0.307  1.00  0.00     0.151 C 
HETATM    3  C10 UNL     1      -1.153  -1.026  -0.516  1.00  0.00     0.174 C 
HETATM    4  C11 UNL     1      -2.505  -0.586  -0.984  1.00  0.00     0.187 C 
HETATM    5  O2  UNL     1      -3.506  -1.484  -0.625  1.00  0.00    -0.345 OA
HETATM    6  C12 UNL     1      -4.085  -1.050   0.544  1.00  0.00     0.158 C 
HETATM    7  C13 UNL     1      -4.234  -2.214   1.477  1.00  0.00     0.078 C 
HETATM    8  C14 UNL     1      -5.455  -0.493   0.208  1.00  0.00     0.078 C 
HETATM    9  O3  UNL     1      -3.275  -0.034   1.051  1.00  0.00    -0.346 OA
HETATM   10  C15 UNL     1      -2.828   0.605  -0.107  1.00  0.00     0.192 C 
ENDROOT
BRANCH   2  11
HETATM   11  N2  UNL     1       0.726   0.399  -0.227  1.00  0.00    -0.358 N 
ATOM     12  H2  UNL     1       0.870   1.287  -0.708  1.00  0.00     0.162 HD
BRANCH  11  13
HETATM   13  C5  UNL     1       1.829  -0.493  -0.128  1.00  0.00     0.168 C 
HETATM   14  S1  UNL     1       1.682  -1.936   0.628  1.00  0.00    -0.041 SA
BRANCH  13  15
HETATM   15  N3  UNL     1       3.092  -0.170  -0.675  1.00  0.00    -0.361 N 
ATOM     16  H3  UNL     1       3.197   0.727  -1.149  1.00  0.00     0.162 HD
BRANCH  15  17
HETATM   17  C6  UNL     1       4.239  -1.040  -0.599  1.00  0.00     0.111 C 
HETATM   18  C7  UNL     1       4.652  -1.352   0.804  1.00  0.00     0.054 C 
HETATM   19  C8  UNL     1       6.150  -1.134   0.788  1.00  0.00     0.234 C 
HETATM   20  N4  UNL     1       6.310  -0.004  -0.126  1.00  0.00    -0.073 N 
HETATM   21  C9  UNL     1       5.462  -0.460  -1.238  1.00  0.00     0.257 C 
ATOM     22  H42 UNL     1       6.087   0.915   0.257  1.00  0.00     0.277 HD
ATOM     23  H41 UNL     1       7.270   0.241  -0.368  1.00  0.00     0.277 HD
ENDBRANCH  15  17
ENDBRANCH  13  15
ENDBRANCH  11  13
ENDBRANCH   2  11
BRANCH   1  24
HETATM   24  N1  UNL     1      -1.492   2.282   1.065  1.00  0.00     0.089 N 
HETATM   25  C1  UNL     1      -0.211   2.902   1.176  1.00  0.00     0.310 C 
HETATM   26  C2  UNL     1      -2.449   3.299   0.665  1.00  0.00     0.310 C 
ENDBRANCH   1  24
BRANCH   3  27
HETATM   27  O1  UNL     1      -0.378  -1.270  -1.660  1.00  0.00    -0.391 OA
ATOM     28  H1  UNL     1      -0.738  -1.985  -2.171  1.00  0.00     0.210 HD
ENDBRANCH   3  27
TORSDOF 6
