REMARK  11 active torsions:
REMARK  status: ('A' for Active; 'I' for Inactive)
REMARK    1  A    between atoms: C3_3  and  C4_4 
REMARK    2  A    between atoms: C5_5  and  C6_6 
REMARK    3  A    between atoms: C6_6  and  C7_7 
REMARK    4  A    between atoms: C7_7  and  C8_8 
REMARK    5  A    between atoms: C8_8  and  C9_9 
REMARK    6  A    between atoms: C10_10  and  C11_11 
REMARK    7  A    between atoms: C11_11  and  O1_12 
REMARK    8  A    between atoms: C13_16  and  O3_17 
REMARK    9  A    between atoms: C16_22  and  C17_23 
REMARK   10  A    between atoms: C17_23  and  O5_25 
REMARK   11  A    between atoms: C19_27  and  O6_28 
ROOT
HETATM    1  C1  UNL     1       9.211  -1.425  -0.528  1.00  0.00     0.113 C 
HETATM    2  C2  UNL     1       7.956  -1.008   0.131  1.00  0.00    -0.097 C 
HETATM    3  C3  UNL     1       6.926  -0.669   0.664  1.00  0.00    -0.015 C 
ENDROOT
BRANCH   3   4
HETATM    4  C4  UNL     1       5.729  -0.258   1.308  1.00  0.00    -0.015 C 
HETATM    5  C5  UNL     1       4.722   0.091   1.872  1.00  0.00    -0.092 C 
BRANCH   5   6
HETATM    6  C6  UNL     1       3.498   0.531   2.585  1.00  0.00     0.096 C 
BRANCH   6   7
HETATM    7  C7  UNL     1       3.317   1.995   2.219  1.00  0.00     0.024 C 
BRANCH   7   8
HETATM    8  C8  UNL     1       3.164   2.052   0.705  1.00  0.00     0.095 C 
BRANCH   8   9
HETATM    9  C9  UNL     1       2.007   1.278   0.264  1.00  0.00    -0.103 C 
HETATM   10  C10 UNL     1       1.039   0.656  -0.099  1.00  0.00    -0.066 C 
BRANCH  10  11
HETATM   11  C11 UNL     1      -0.165  -0.091  -0.532  1.00  0.00     0.144 C 
HETATM   12  C12 UNL     1      -0.544   0.437  -1.877  1.00  0.00     0.223 C 
HETATM   13  O2  UNL     1      -1.889   0.430  -2.142  1.00  0.00    -0.347 OA
HETATM   14  C13 UNL     1      -2.582  -0.607  -1.570  1.00  0.00     0.217 C 
HETATM   15  C14 UNL     1      -2.536  -0.519  -0.080  1.00  0.00     0.191 C 
HETATM   16  C19 UNL     1      -4.057  -0.422  -1.865  1.00  0.00     0.214 C 
HETATM   17  C15 UNL     1      -1.287   0.131   0.453  1.00  0.00     0.091 C 
HETATM   18  O4  UNL     1      -3.603   0.335   0.230  1.00  0.00    -0.370 OA
HETATM   19  C16 UNL     1      -4.664  -0.026  -0.563  1.00  0.00     0.184 C 
BRANCH  11  20
HETATM   20  O1  UNL     1       0.216  -1.446  -0.568  1.00  0.00    -0.375 OA
ATOM     21  H1  UNL     1      -0.556  -1.925  -0.846  1.00  0.00     0.211 HD
ENDBRANCH  11  20
BRANCH  14  22
HETATM   22  O3  UNL     1      -2.221  -1.857  -2.067  1.00  0.00    -0.361 OA
ATOM     23  H3  UNL     1      -2.701  -2.575  -1.671  1.00  0.00     0.213 HD
ENDBRANCH  14  22
BRANCH  19  24
HETATM   24  C17 UNL     1      -5.428  -1.133   0.118  1.00  0.00     0.145 C 
HETATM   25  C18 UNL     1      -6.009  -0.527   1.401  1.00  0.00     0.042 C 
BRANCH  24  26
HETATM   26  O5  UNL     1      -6.527  -1.556  -0.631  1.00  0.00    -0.393 OA
ATOM     27  H5  UNL     1      -7.008  -2.254  -0.202  1.00  0.00     0.210 HD
ENDBRANCH  24  26
ENDBRANCH  19  24
BRANCH  16  28
HETATM   28  O6  UNL     1      -4.257   0.596  -2.799  1.00  0.00    -0.387 OA
ATOM     29  H6  UNL     1      -5.182   0.712  -2.984  1.00  0.00     0.210 HD
ENDBRANCH  16  28
ENDBRANCH  10  11
ENDBRANCH   8   9
ENDBRANCH   7   8
ENDBRANCH   6   7
ENDBRANCH   5   6
ENDBRANCH   3   4
TORSDOF 11
