REMARK  7 active torsions:
REMARK  status: ('A' for Active; 'I' for Inactive)
REMARK    1  A    between atoms: C2_2  and  C5_5 
REMARK    2  A    between atoms: C11_11  and  N1_12 
REMARK    3  A    between atoms: N1_12  and  S1_14 
REMARK    4  A    between atoms: S1_14  and  C12_17 
REMARK    5  A    between atoms: C12_17  and  N2_18 
REMARK    6  A    between atoms: C14_24  and  O3_25 
REMARK    7  A    between atoms: C15_27  and  O4_28 
ROOT
HETATM    1  C12 UNL     1       3.982   1.710   0.905  1.00  0.00     0.429 C 
HETATM    2  C13 UNL     1       3.743   2.362  -0.389  1.00  0.00     0.110 C 
HETATM    3  N3  UNL     1       3.569   2.887  -1.418  1.00  0.00    -0.194 NA
ENDROOT
BRANCH   1   4
HETATM    4  S1  UNL     1       4.216  -0.036   0.717  1.00  0.00     0.269 S 
HETATM    5  O1  UNL     1       4.698  -0.663   1.999  1.00  0.00    -0.203 OA
HETATM    6  O2  UNL     1       5.377  -0.196  -0.259  1.00  0.00    -0.203 OA
BRANCH   4   7
HETATM    7  N1  UNL     1       2.892  -0.853   0.042  1.00  0.00    -0.309 N 
ATOM      8  H1  UNL     1       2.966  -1.352  -0.845  1.00  0.00     0.172 HD
BRANCH   7   9
HETATM    9  C11 UNL     1       1.668  -0.808   0.777  1.00  0.00     0.128 C 
HETATM   10  C9  UNL     1       0.621  -0.134  -0.100  1.00  0.00     0.012 C 
HETATM   11  C8  UNL     1       0.154  -1.189  -1.066  1.00  0.00     0.014 C 
HETATM   12  C10 UNL     1      -0.432   0.533   0.691  1.00  0.00     0.012 C 
HETATM   13  C7  UNL     1      -0.820  -2.053  -0.324  1.00  0.00     0.018 C 
HETATM   14  C6  UNL     1      -2.069  -1.212  -0.139  1.00  0.00     0.012 C 
HETATM   15  C15 UNL     1      -0.232  -2.445   1.001  1.00  0.00     0.153 C 
HETATM   16  C5  UNL     1      -1.828   0.081   0.546  1.00  0.00    -0.006 C 
HETATM   17  C14 UNL     1       1.240  -2.242   1.096  1.00  0.00     0.170 C 
BRANCH  16  18
HETATM   18  C2  UNL     1      -2.740   1.178  -0.027  1.00  0.00    -0.048 C 
HETATM   19  C1  UNL     1      -2.538   1.417  -1.469  1.00  0.00     0.015 C 
HETATM   20  C3  UNL     1      -2.568   2.451   0.735  1.00  0.00     0.015 C 
HETATM   21  C4  UNL     1      -4.181   0.710   0.192  1.00  0.00     0.015 C 
ENDBRANCH  16  18
BRANCH  15  22
HETATM   22  O4  UNL     1      -0.523  -3.777   1.219  1.00  0.00    -0.393 OA
ATOM     23  H4  UNL     1      -0.151  -4.025   2.057  1.00  0.00     0.210 HD
ENDBRANCH  15  22
BRANCH  17  24
HETATM   24  O3  UNL     1       1.998  -3.124   0.363  1.00  0.00    -0.391 OA
ATOM     25  H3  UNL     1       1.732  -4.014   0.561  1.00  0.00     0.210 HD
ENDBRANCH  17  24
ENDBRANCH   7   9
ENDBRANCH   4   7
ENDBRANCH   1   4
BRANCH   1  26
HETATM   26  N2  UNL     1       2.884   2.041   1.771  1.00  0.00    -0.047 N 
ATOM     27  H23 UNL     1       2.024   1.591   1.457  1.00  0.00     0.277 HD
ATOM     28  H22 UNL     1       2.988   1.588   2.679  1.00  0.00     0.277 HD
ATOM     29  H21 UNL     1       2.749   3.046   1.879  1.00  0.00     0.277 HD
ENDBRANCH   1  26
TORSDOF 7
