REMARK  7 active torsions:
REMARK  status: ('A' for Active; 'I' for Inactive)
REMARK       I    between atoms: N1_2  and  C2_4 
REMARK    1  A    between atoms: C2_4  and  C3_6 
REMARK    2  A    between atoms: C4_8  and  O3_9 
REMARK    3  A    between atoms: O3_9  and  C5_10 
REMARK       I    between atoms: C5_10  and  N2_12 
REMARK    4  A    between atoms: N2_12  and  C6_14 
REMARK    5  A    between atoms: C10_18  and  O5_19 
REMARK    6  A    between atoms: C11_21  and  N3_22 
REMARK       I    between atoms: N3_22  and  C12_24 
REMARK    7  A    between atoms: C14_27  and  O7_28 
ROOT
HETATM    1  C3  UNL     1      -1.428  -1.450   0.305  1.00  0.00     0.247 C 
HETATM    2  O2  UNL     1      -0.462  -0.749   1.023  1.00  0.00    -0.341 OA
HETATM    3  C4  UNL     1       0.198   0.146   0.179  1.00  0.00     0.303 C 
HETATM    4  C10 UNL     1      -0.678   1.338  -0.001  1.00  0.00     0.199 C 
HETATM    5  C11 UNL     1      -2.123   0.864   0.060  1.00  0.00     0.150 C 
HETATM    6  C14 UNL     1      -2.148  -0.500  -0.634  1.00  0.00     0.184 C 
ENDROOT
BRANCH   3   7
HETATM    7  O3  UNL     1       1.477   0.393   0.667  1.00  0.00    -0.270 OA
BRANCH   7   8
HETATM    8  C5  UNL     1       2.659   0.079   0.064  1.00  0.00     0.363 C 
HETATM    9  O4  UNL     1       2.554  -0.498  -1.055  1.00  0.00    -0.238 OA
HETATM   10  N2  UNL     1       3.947   0.343   0.586  1.00  0.00    -0.329 N 
ATOM     11  H2  UNL     1       4.015   0.808   1.491  1.00  0.00     0.165 HD
BRANCH  10  12
HETATM   12  C6  UNL     1       5.169  -0.010  -0.092  1.00  0.00     0.024 C 
HETATM   13  C7  UNL     1       5.134  -1.532  -0.264  1.00  0.00     0.037 C 
HETATM   14  C8  UNL     1       6.377   0.373   0.724  1.00  0.00     0.037 C 
HETATM   15  C9  UNL     1       5.164   0.650  -1.447  1.00  0.00     0.037 C 
ENDBRANCH  10  12
ENDBRANCH   7   8
ENDBRANCH   3   7
BRANCH   4  16
HETATM   16  O5  UNL     1      -0.527   1.891  -1.275  1.00  0.00    -0.388 OA
ATOM     17  H5  UNL     1      -1.085   2.651  -1.390  1.00  0.00     0.210 HD
ENDBRANCH   4  16
BRANCH   1  18
HETATM   18  C2  UNL     1      -2.393  -2.106   1.240  1.00  0.00     0.249 C 
HETATM   19  N1  UNL     1      -2.205  -1.937   2.629  1.00  0.00    -0.363 N 
HETATM   20  C1  UNL     1      -3.122  -2.560   3.563  1.00  0.00     0.149 C 
ATOM     21  H1  UNL     1      -1.425  -1.378   2.975  1.00  0.00     0.162 HD
HETATM   22  O1  UNL     1      -3.353  -2.795   0.831  1.00  0.00    -0.271 OA
ENDBRANCH   1  18
BRANCH   5  23
HETATM   23  N3  UNL     1      -2.937   1.791  -0.690  1.00  0.00    -0.351 N 
HETATM   24  C12 UNL     1      -4.038   2.456  -0.100  1.00  0.00     0.214 C 
HETATM   25  C13 UNL     1      -4.866   3.403  -0.873  1.00  0.00     0.117 C 
HETATM   26  O6  UNL     1      -4.334   2.251   1.107  1.00  0.00    -0.274 OA
ATOM     27  H3  UNL     1      -2.713   1.971  -1.669  1.00  0.00     0.163 HD
ENDBRANCH   5  23
BRANCH   6  28
HETATM   28  O7  UNL     1      -3.419  -0.907  -0.932  1.00  0.00    -0.385 OA
HETATM   29  C15 UNL     1      -3.576  -1.004  -2.311  1.00  0.00     0.202 C 
ENDBRANCH   6  28
TORSDOF 7
