REMARK  8 active torsions:
REMARK  status: ('A' for Active; 'I' for Inactive)
REMARK    1  A    between atoms: O1_2  and  C2_3 
REMARK    2  A    between atoms: C8_10  and  C9_11 
REMARK    3  A    between atoms: C10_12  and  C11_13 
REMARK    4  A    between atoms: C11_13  and  O3_14 
REMARK    5  A    between atoms: C11_13  and  C12_16 
REMARK    6  A    between atoms: C12_16  and  O4_17 
REMARK    7  A    between atoms: C12_16  and  C13_19 
REMARK    8  A    between atoms: C15_21  and  O5_22 
ROOT
HETATM    1  C11 UNL     1      -0.969  -1.226   0.421  1.00  0.00     0.225 C 
ENDROOT
BRANCH   1   2
HETATM    2  C10 UNL     1       0.466  -1.223   0.134  1.00  0.00    -0.071 C 
HETATM    3  C9  UNL     1       1.659  -1.239  -0.114  1.00  0.00    -0.094 C 
BRANCH   3   4
HETATM    4  C8  UNL     1       3.093  -1.259  -0.406  1.00  0.00     0.123 C 
HETATM    5  C2  UNL     1       3.562   0.126  -0.775  1.00  0.00     0.145 C 
HETATM    6  C3  UNL     1       4.657   0.518   0.189  1.00  0.00     0.040 C 
HETATM    7  C4  UNL     1       4.119   0.619   1.602  1.00  0.00     0.012 C 
HETATM    8  C7  UNL     1       5.721  -0.559   0.128  1.00  0.00     0.175 C 
HETATM    9  C5  UNL     1       3.520  -0.730   1.940  1.00  0.00     0.034 C 
HETATM   10  C6  UNL     1       3.872  -1.685   0.842  1.00  0.00     0.139 C 
HETATM   11  O2  UNL     1       5.211  -1.760   0.557  1.00  0.00    -0.384 OA
BRANCH   5  12
HETATM   12  O1  UNL     1       4.107   0.097  -2.050  1.00  0.00    -0.389 OA
HETATM   13  C1  UNL     1       3.448   0.963  -2.921  1.00  0.00     0.202 C 
ENDBRANCH   5  12
ENDBRANCH   3   4
ENDBRANCH   1   2
BRANCH   1  14
HETATM   14  O3  UNL     1      -1.216  -1.393   1.800  1.00  0.00    -0.381 OA
ATOM     15  H3  UNL     1      -2.148  -1.395   1.986  1.00  0.00     0.211 HD
ENDBRANCH   1  14
BRANCH   1  16
HETATM   16  C12 UNL     1      -1.518   0.109  -0.034  1.00  0.00     0.165 C 
BRANCH  16  17
HETATM   17  O4  UNL     1      -0.950   1.170   0.625  1.00  0.00    -0.392 OA
ATOM     18  H4  UNL     1      -1.295   2.008   0.339  1.00  0.00     0.210 HD
ENDBRANCH  16  17
BRANCH  16  19
HETATM   19  C13 UNL     1      -3.032   0.166   0.145  1.00  0.00     0.053 C 
HETATM   20  C14 UNL     1      -3.731  -0.890  -0.639  1.00  0.00     0.045 C 
HETATM   21  C15 UNL     1      -5.142  -0.594  -1.007  1.00  0.00     0.175 C 
HETATM   22  C16 UNL     1      -5.508   0.871  -0.905  1.00  0.00     0.350 C 
HETATM   23  N1  UNL     1      -4.321   1.618  -1.356  1.00  0.00    -0.040 N 
HETATM   24  O6  UNL     1      -5.754   1.265   0.386  1.00  0.00    -0.355 OA
HETATM   25  C17 UNL     1      -3.530   1.551  -0.116  1.00  0.00     0.219 C 
ATOM     26  H12 UNL     1      -3.866   1.276  -2.202  1.00  0.00     0.280 HD
ATOM     27  H11 UNL     1      -4.490   2.550  -1.736  1.00  0.00     0.280 HD
HETATM   28  C18 UNL     1      -4.630   1.872   0.897  1.00  0.00     0.204 C 
BRANCH  21  29
HETATM   29  O5  UNL     1      -6.011  -1.313  -0.184  1.00  0.00    -0.391 OA
ATOM     30  H5  UNL     1      -6.912  -1.124  -0.419  1.00  0.00     0.210 HD
ENDBRANCH  21  29
ENDBRANCH  16  19
ENDBRANCH   1  16
TORSDOF 8
