REMARK  9 active torsions:
REMARK  status: ('A' for Active; 'I' for Inactive)
REMARK    1  A    between atoms: S1_2  and  O3_5 
REMARK    2  A    between atoms: O3_5  and  C2_6 
REMARK    3  A    between atoms: C2_6  and  C3_7 
REMARK    4  A    between atoms: C5_10  and  O5_11 
REMARK    5  A    between atoms: O5_11  and  C6_12 
REMARK    6  A    between atoms: C9_15  and  O6_16 
REMARK    7  A    between atoms: C15_24  and  O8_25 
REMARK    8  A    between atoms: C16_27  and  O9_28 
REMARK    9  A    between atoms: C17_30  and  O10_31 
ROOT
HETATM    1  C3  UNL     1       2.048   0.419  -0.055  1.00  0.00     0.114 C 
HETATM    2  C4  UNL     1       1.015   0.177  -1.069  1.00  0.00     0.167 C 
HETATM    3  O4  UNL     1       1.175  -0.545  -2.017  1.00  0.00    -0.294 OA
HETATM    4  C5  UNL     1      -0.298   0.868  -0.910  1.00  0.00     0.224 C 
HETATM    5  C15 UNL     1      -0.049   2.312  -0.439  1.00  0.00     0.185 C 
HETATM    6  C16 UNL     1       1.365   2.735  -0.749  1.00  0.00     0.179 C 
HETATM    7  C17 UNL     1       2.408   1.882  -0.086  1.00  0.00     0.163 C 
ENDROOT
BRANCH   4   8
HETATM    8  O5  UNL     1      -1.023   0.202   0.045  1.00  0.00    -0.357 OA
BRANCH   8   9
HETATM    9  C6  UNL     1      -2.246  -0.283  -0.327  1.00  0.00     0.112 C 
HETATM   10  C7  UNL     1      -3.182   0.758  -0.809  1.00  0.00     0.012 C 
HETATM   11  C8  UNL     1      -4.477   0.647  -0.650  1.00  0.00     0.003 C 
HETATM   12  C9  UNL     1      -5.184  -0.495   0.012  1.00  0.00     0.141 C 
HETATM   13  C10 UNL     1      -4.256  -1.305   0.856  1.00  0.00     0.044 C 
HETATM   14  C11 UNL     1      -2.879  -0.793   1.001  1.00  0.00     0.032 C 
HETATM   15  C12 UNL     1      -1.980  -1.956   1.225  1.00  0.00     0.043 C 
HETATM   16  C13 UNL     1      -1.604  -2.397   0.068  1.00  0.00     0.155 A 
HETATM   17  O7  UNL     1      -1.434  -2.571  -1.324  1.00  0.00    -0.372 OA
HETATM   18  C14 UNL     1      -2.294  -1.573  -1.025  1.00  0.00     0.190 A 
BRANCH  12  19
HETATM   19  O6  UNL     1      -6.240   0.013   0.800  1.00  0.00    -0.392 OA
ATOM     20  H6  UNL     1      -6.689  -0.712   1.220  1.00  0.00     0.210 HD
ENDBRANCH  12  19
ENDBRANCH   8   9
ENDBRANCH   4   8
BRANCH   5  21
HETATM   21  O8  UNL     1      -0.230   2.443   0.924  1.00  0.00    -0.390 OA
ATOM     22  H8  UNL     1      -0.076   3.334   1.215  1.00  0.00     0.210 HD
ENDBRANCH   5  21
BRANCH   1  23
HETATM   23  C2  UNL     1       3.293  -0.388  -0.227  1.00  0.00     0.205 C 
BRANCH  23  24
HETATM   24  O3  UNL     1       3.080  -1.760  -0.182  1.00  0.00    -0.275 OA
BRANCH  24  25
HETATM   25  S1  UNL     1       4.495  -2.620  -0.378  1.00  0.00     0.261 S 
HETATM   26  C1  UNL     1       5.905  -1.725   0.232  1.00  0.00     0.194 C 
HETATM   27  O1  UNL     1       4.403  -3.923   0.364  1.00  0.00    -0.199 OA
HETATM   28  O2  UNL     1       4.685  -2.900  -1.828  1.00  0.00    -0.199 OA
ENDBRANCH  24  25
ENDBRANCH  23  24
ENDBRANCH   1  23
BRANCH   6  29
HETATM   29  O9  UNL     1       1.516   4.033  -0.265  1.00  0.00    -0.390 OA
ATOM     30  H9  UNL     1       2.407   4.299  -0.460  1.00  0.00     0.210 HD
ENDBRANCH   6  29
BRANCH   7  31
HETATM   31  O10 UNL     1       2.701   2.297   1.192  1.00  0.00    -0.392 OA
ATOM     32  H10 UNL     1       2.928   3.219   1.172  1.00  0.00     0.210 HD
ENDBRANCH   7  31
TORSDOF 9
