REMARK  9 active torsions:
REMARK  status: ('A' for Active; 'I' for Inactive)
REMARK    1  A    between atoms: C4_6  and  C5_7 
REMARK    2  A    between atoms: N2_13  and  S1_14 
REMARK    3  A    between atoms: S1_14  and  C11_17 
REMARK    4  A    between atoms: C11_17  and  C12_18 
REMARK    5  A    between atoms: C13_20  and  C14_21 
REMARK    6  A    between atoms: C14_21  and  O4_22 
REMARK    7  A    between atoms: C15_24  and  O5_25 
REMARK    8  A    between atoms: C16_27  and  O6_28 
REMARK    9  A    between atoms: C17_30  and  O7_31 
ROOT
HETATM    1  S1  UNL     1      -0.191  -0.727  -0.464  1.00  0.00     0.254 S 
HETATM    2  O1  UNL     1       0.126  -1.046  -1.912  1.00  0.00    -0.204 OA
HETATM    3  O2  UNL     1       0.512  -1.754   0.376  1.00  0.00    -0.204 OA
ENDROOT
BRANCH   1   4
HETATM    4  N2  UNL     1      -1.873  -0.808  -0.304  1.00  0.00    -0.165 N 
HETATM    5  C4  UNL     1      -2.413  -0.572   0.971  1.00  0.00     0.178 C 
HETATM    6  C3  UNL     1      -3.177  -1.705   1.584  1.00  0.00     0.154 C 
HETATM    7  N1  UNL     1      -3.364  -2.831   0.730  1.00  0.00    -0.370 N 
HETATM    8  C2  UNL     1      -3.014  -2.892  -0.506  1.00  0.00     0.140 C 
ATOM      9  H1  UNL     1      -3.812  -3.655   1.132  1.00  0.00     0.161 HD
HETATM   10  C1  UNL     1      -3.224  -4.077  -1.364  1.00  0.00     0.099 C 
HETATM   11  O8  UNL     1      -2.412  -1.779  -1.046  1.00  0.00    -0.212 OA
BRANCH   5  12
HETATM   12  C5  UNL     1      -3.327   0.598   0.893  1.00  0.00    -0.031 A 
HETATM   13  C6  UNL     1      -3.323   1.623   1.834  1.00  0.00     0.009 A 
HETATM   14  C7  UNL     1      -4.173   2.695   1.748  1.00  0.00     0.001 A 
HETATM   15  C8  UNL     1      -5.076   2.803   0.712  1.00  0.00     0.000 A 
HETATM   16  C9  UNL     1      -5.099   1.800  -0.233  1.00  0.00     0.001 A 
HETATM   17  C10 UNL     1      -4.239   0.726  -0.134  1.00  0.00     0.009 A 
ENDBRANCH   5  12
ENDBRANCH   1   4
BRANCH   1  18
HETATM   18  C11 UNL     1       0.486   0.855  -0.080  1.00  0.00     0.200 C 
BRANCH  18  19
HETATM   19  C12 UNL     1       1.967   0.894  -0.229  1.00  0.00     0.169 C 
HETATM   20  O3  UNL     1       2.566  -0.026   0.615  1.00  0.00    -0.372 OA
HETATM   21  C13 UNL     1       3.916  -0.202   0.345  1.00  0.00     0.176 C 
HETATM   22  C15 UNL     1       4.537   0.985  -0.356  1.00  0.00     0.180 C 
HETATM   23  C16 UNL     1       3.901   1.259  -1.701  1.00  0.00     0.180 C 
HETATM   24  C17 UNL     1       2.459   0.804  -1.642  1.00  0.00     0.179 C 
BRANCH  21  25
HETATM   25  C14 UNL     1       4.728  -0.429   1.614  1.00  0.00     0.198 C 
BRANCH  25  26
HETATM   26  O4  UNL     1       4.303  -1.559   2.305  1.00  0.00    -0.398 OA
ATOM     27  H4  UNL     1       4.809  -1.701   3.096  1.00  0.00     0.209 HD
ENDBRANCH  25  26
ENDBRANCH  21  25
BRANCH  22  28
HETATM   28  O5  UNL     1       5.874   0.664  -0.595  1.00  0.00    -0.390 OA
ATOM     29  H5  UNL     1       6.264   1.410  -1.035  1.00  0.00     0.210 HD
ENDBRANCH  22  28
BRANCH  23  30
HETATM   30  O6  UNL     1       4.593   0.538  -2.673  1.00  0.00    -0.390 OA
ATOM     31  H6  UNL     1       4.194   0.710  -3.518  1.00  0.00     0.210 HD
ENDBRANCH  23  30
BRANCH  24  32
HETATM   32  O7  UNL     1       1.723   1.677  -2.432  1.00  0.00    -0.390 OA
ATOM     33  H7  UNL     1       2.035   1.620  -3.328  1.00  0.00     0.210 HD
ENDBRANCH  24  32
ENDBRANCH  18  19
ENDBRANCH   1  18
TORSDOF 9
