REMARK  10 active torsions:
REMARK  status: ('A' for Active; 'I' for Inactive)
REMARK    1  A    between atoms: N1_7  and  C6_8 
REMARK    2  A    between atoms: C6_8  and  C7_9 
REMARK    3  A    between atoms: C8_10  and  C9_11 
REMARK    4  A    between atoms: C10_12  and  C11_13 
REMARK    5  A    between atoms: C14_16  and  C15_17 
REMARK    6  A    between atoms: C15_17  and  O2_18 
REMARK    7  A    between atoms: C16_20  and  O3_21 
REMARK    8  A    between atoms: C17_23  and  O4_24 
REMARK    9  A    between atoms: C18_26  and  O5_27 
REMARK   10  A    between atoms: O5_27  and  S1_28 
ROOT
HETATM    1  C7  UNL     1      -0.240  -0.214   0.082  1.00  0.00     0.053 C 
HETATM    2  C8  UNL     1       0.877  -1.211   0.386  1.00  0.00     0.082 C 
HETATM    3  C14 UNL     1       0.936  -2.233  -0.693  1.00  0.00     0.057 C 
HETATM    4  C16 UNL     1      -0.296  -3.098  -0.579  1.00  0.00     0.156 C 
HETATM    5  C17 UNL     1      -1.362  -2.475   0.258  1.00  0.00     0.178 C 
HETATM    6  C18 UNL     1      -1.510  -0.974   0.025  1.00  0.00     0.183 C 
ENDROOT
BRANCH   1   7
HETATM    7  C6  UNL     1      -0.097   0.876   1.101  1.00  0.00     0.140 C 
BRANCH   7   8
HETATM    8  N1  UNL     1      -1.017   1.955   1.061  1.00  0.00    -0.324 N 
HETATM    9  C1  UNL     1      -2.071   2.051   1.862  1.00  0.00     0.247 A 
HETATM   10  O1  UNL     1      -2.340   1.222   2.769  1.00  0.00    -0.268 OA
HETATM   11  C2  UNL     1      -2.982   3.101   1.772  1.00  0.00     0.074 A 
HETATM   12  C3  UNL     1      -2.801   4.072   0.835  1.00  0.00     0.007 A 
HETATM   13  C4  UNL     1      -1.708   3.995  -0.013  1.00  0.00     0.017 A 
HETATM   14  C5  UNL     1      -0.858   2.924   0.145  1.00  0.00     0.094 A 
ENDBRANCH   7   8
ENDBRANCH   1   7
BRANCH   2  15
HETATM   15  C9  UNL     1       2.153  -0.492   0.512  1.00  0.00    -0.100 C 
HETATM   16  C10 UNL     1       3.232   0.085   0.612  1.00  0.00    -0.101 C 
BRANCH  16  17
HETATM   17  C11 UNL     1       4.511   0.789   0.713  1.00  0.00     0.065 A 
HETATM   18  C12 UNL     1       5.667   0.236  -0.037  1.00  0.00     0.018 A 
HETATM   19  C13 UNL     1       4.929   1.530  -0.495  1.00  0.00     0.018 A 
ENDBRANCH  16  17
ENDBRANCH   2  15
BRANCH   6  20
HETATM   20  O5  UNL     1      -2.284  -0.711  -1.088  1.00  0.00    -0.248 OA
BRANCH  20  21
HETATM   21  S1  UNL     1      -3.807  -0.199  -0.940  1.00  0.00     0.252 S 
HETATM   22  O6  UNL     1      -3.854   1.275  -1.253  1.00  0.00    -0.572 OA
HETATM   23  O7  UNL     1      -4.804  -0.820  -1.878  1.00  0.00    -0.572 OA
HETATM   24  O8  UNL     1      -4.458  -0.382   0.595  1.00  0.00    -0.572 OA
ENDBRANCH  20  21
ENDBRANCH   6  20
BRANCH   3  25
HETATM   25  C15 UNL     1       1.059  -1.710  -2.081  1.00  0.00     0.172 C 
BRANCH  25  26
HETATM   26  O2  UNL     1       2.235  -0.945  -2.233  1.00  0.00    -0.400 OA
ATOM     27  H2  UNL     1       2.314  -0.611  -3.119  1.00  0.00     0.209 HD
ENDBRANCH  25  26
ENDBRANCH   3  25
BRANCH   5  28
HETATM   28  O4  UNL     1      -2.572  -3.092  -0.060  1.00  0.00    -0.390 OA
ATOM     29  H4  UNL     1      -3.251  -2.695   0.473  1.00  0.00     0.210 HD
ENDBRANCH   5  28
BRANCH   4  30
HETATM   30  O3  UNL     1       0.091  -4.290   0.037  1.00  0.00    -0.392 OA
ATOM     31  H3  UNL     1      -0.684  -4.834   0.109  1.00  0.00     0.210 HD
ENDBRANCH   4  30
TORSDOF 10
