REMARK  2 active torsions:
REMARK  status: ('A' for Active; 'I' for Inactive)
REMARK    1  A    between atoms: N1_9  and  C8_10 
REMARK    2  A    between atoms: C8_10  and  C9_12 
ROOT
HETATM    1  C1  UNL     1       4.258   0.082  -1.813  1.00  0.00     0.046 C 
HETATM    2  C2  UNL     1       3.013   0.522  -1.078  1.00  0.00     0.060 A 
HETATM    3  C3  UNL     1       3.385   1.318   0.131  1.00  0.00     0.046 C 
HETATM    4  O1  UNL     1       2.190   1.232  -1.913  1.00  0.00    -0.375 OA
HETATM    5  C4  UNL     1       1.136   0.309  -1.689  1.00  0.00     0.132 A 
HETATM    6  C5  UNL     1       0.006   1.030  -1.083  1.00  0.00     0.064 C 
HETATM    7  C6  UNL     1      -1.204   0.197  -0.726  1.00  0.00     0.044 C 
HETATM    8  C7  UNL     1      -1.989  -0.109  -1.960  1.00  0.00     0.039 C 
HETATM    9  N1  UNL     1      -1.884   0.990   0.270  1.00  0.00    -0.336 N 
HETATM   10  C10 UNL     1      -1.317   0.977   1.598  1.00  0.00     0.067 C 
HETATM   11  C11 UNL     1      -0.123   0.206   1.877  1.00  0.00     0.054 C 
HETATM   12  C12 UNL     1       0.206  -0.967   0.980  1.00  0.00    -0.030 C 
HETATM   13  C13 UNL     1       0.110  -2.204   1.876  1.00  0.00     0.016 C 
HETATM   14  C14 UNL     1       1.615  -0.901   0.492  1.00  0.00     0.020 C 
HETATM   15  C15 UNL     1       1.958  -0.560  -0.865  1.00  0.00     0.049 A 
HETATM   16  C16 UNL     1      -0.870  -1.119  -0.052  1.00  0.00    -0.015 C 
HETATM   17  C17 UNL     1      -0.608  -2.258  -0.987  1.00  0.00     0.018 C 
HETATM   18  C18 UNL     1      -2.137  -1.516   0.710  1.00  0.00     0.018 C 
ENDROOT
BRANCH   9  19
HETATM   19  C8  UNL     1      -3.034   1.797   0.081  1.00  0.00     0.180 C 
HETATM   20  S1  UNL     1      -3.772   1.943  -1.399  1.00  0.00    -0.053 SA
BRANCH  19  21
HETATM   21  C9  UNL     1      -3.699   2.583   1.097  1.00  0.00     0.238 C 
HETATM   22  O2  UNL     1      -4.732   3.270   0.767  1.00  0.00    -0.642 OA
HETATM   23  O3  UNL     1      -3.359   2.700   2.428  1.00  0.00    -0.642 OA
ENDBRANCH  19  21
ENDBRANCH   9  19
TORSDOF 2
