REMARK  0 active torsions:
REMARK  status: ('A' for Active; 'I' for Inactive)
ROOT
HETATM    1  C1  UNL     1       4.783   1.344  -0.738  1.00  0.00     0.039 C 
HETATM    2  C2  UNL     1       3.732   0.236  -0.585  1.00  0.00     0.118 C 
HETATM    3  C3  UNL     1       3.660  -0.121   0.847  1.00  0.00     0.032 C 
HETATM    4  C4  UNL     1       2.512  -1.035   1.086  1.00  0.00     0.013 C 
HETATM    5  C5  UNL     1       1.302  -0.782   0.283  1.00  0.00     0.060 C 
HETATM    6  C6  UNL     1       0.272   0.084   0.955  1.00  0.00     0.265 C 
HETATM    7  C7  UNL     1       0.810   1.252   0.232  1.00  0.00     0.081 C 
HETATM    8  C8  UNL     1       1.407   0.276  -0.766  1.00  0.00     0.070 C 
HETATM    9  C9  UNL     1       0.448  -0.047  -1.875  1.00  0.00     0.041 C 
HETATM   10  C10 UNL     1      -0.965   0.351  -1.618  1.00  0.00     0.047 C 
HETATM   11  C11 UNL     1      -1.640  -0.336  -0.482  1.00  0.00     0.274 C 
HETATM   12  C12 UNL     1      -3.121   0.079  -0.550  1.00  0.00     0.048 C 
HETATM   13  C13 UNL     1      -3.635  -0.200  -1.973  1.00  0.00     0.030 C 
HETATM   14  C14 UNL     1      -3.341   1.522  -0.286  1.00  0.00     0.030 C 
HETATM   15  S1  UNL     1      -4.154  -0.949   0.531  1.00  0.00    -0.086 SA
HETATM   16  S2  UNL     1      -3.651  -0.794   2.559  1.00  0.00    -0.095 SA
HETATM   17  C15 UNL     1      -1.943  -1.342   2.833  1.00  0.00     0.122 C 
HETATM   18  C16 UNL     1      -1.293  -1.514   1.504  1.00  0.00     0.324 C 
HETATM   19  N1  UNL     1      -1.091  -0.235   0.794  1.00  0.00     0.025 N 
HETATM   20  O1  UNL     1      -1.782   0.684   1.555  1.00  0.00    -0.064 OA
HETATM   21  O2  UNL     1       2.614   0.626  -1.202  1.00  0.00    -0.375 OA
ENDROOT
TORSDOF 0
