REMARK  2 active torsions:
REMARK  status: ('A' for Active; 'I' for Inactive)
REMARK    1  A    between atoms: C2_2  and  O2_4 
REMARK    2  A    between atoms: O2_4  and  C3_5 
ROOT
HETATM    1  C3  UNL     1       2.163   0.711   0.475  1.00  0.00     0.140 C 
HETATM    2  C4  UNL     1       1.859   1.421   1.744  1.00  0.00     0.036 C 
HETATM    3  C5  UNL     1       0.389   1.531   2.143  1.00  0.00     0.035 C 
HETATM    4  C6  UNL     1      -0.254   0.509   1.249  1.00  0.00     0.128 C 
HETATM    5  O3  UNL     1      -1.579   0.317   1.208  1.00  0.00    -0.366 OA
HETATM    6  C7  UNL     1      -1.838  -0.130  -0.124  1.00  0.00     0.128 C 
HETATM    7  C8  UNL     1      -3.188  -0.797  -0.063  1.00  0.00     0.047 C 
HETATM    8  C9  UNL     1      -4.299   0.181  -0.399  1.00  0.00     0.004 C 
HETATM    9  C10 UNL     1      -4.040   1.497   0.302  1.00  0.00     0.008 C 
HETATM   10  C11 UNL     1      -2.828   2.198  -0.269  1.00  0.00     0.081 C 
HETATM   11  C12 UNL     1      -1.993   1.114  -0.910  1.00  0.00     0.162 C 
HETATM   12  O4  UNL     1      -1.539   1.361  -1.984  1.00  0.00    -0.295 OA
HETATM   13  C13 UNL     1      -0.830  -1.083  -0.641  1.00  0.00    -0.005 C 
HETATM   14  C14 UNL     1      -1.405  -1.634  -1.959  1.00  0.00     0.019 C 
HETATM   15  C15 UNL     1      -0.834  -2.292   0.291  1.00  0.00     0.013 C 
HETATM   16  C16 UNL     1      -0.170  -1.993   1.579  1.00  0.00     0.009 C 
HETATM   17  C17 UNL     1       0.573  -0.715   1.461  1.00  0.00     0.025 C 
HETATM   18  C18 UNL     1       1.516  -0.646   0.263  1.00  0.00    -0.010 C 
HETATM   19  C19 UNL     1       2.478  -1.772   0.205  1.00  0.00     0.018 C 
HETATM   20  C20 UNL     1       0.544  -0.636  -0.930  1.00  0.00     0.025 C 
ENDROOT
BRANCH   1  21
HETATM   21  O2  UNL     1       3.551   0.676   0.294  1.00  0.00    -0.316 OA
BRANCH  21  22
HETATM   22  C2  UNL     1       4.281   1.284  -0.683  1.00  0.00     0.255 C 
HETATM   23  C1  UNL     1       5.771   1.182  -0.787  1.00  0.00     0.126 C 
HETATM   24  O1  UNL     1       3.595   1.945  -1.498  1.00  0.00    -0.266 OA
ENDBRANCH  21  22
ENDBRANCH   1  21
TORSDOF 2
