REMARK  2 active torsions:
REMARK  status: ('A' for Active; 'I' for Inactive)
REMARK       I    between atoms: N2_3  and  C2_4 
REMARK    1  A    between atoms: C2_4  and  O2_6 
REMARK    2  A    between atoms: O2_6  and  C3_7 
ROOT
HETATM    1  C1  UNL     1      -0.006   0.421   2.769  1.00  0.00     0.140 C 
HETATM    2  N1  UNL     1      -0.080  -0.822   2.024  1.00  0.00    -0.196 NA
HETATM    3  N2  UNL     1       0.500  -0.628   0.684  1.00  0.00    -0.227 N 
HETATM    4  C2  UNL     1       1.759  -0.314   0.111  1.00  0.00     0.380 C 
HETATM    5  O1  UNL     1       1.899  -0.224  -1.153  1.00  0.00    -0.237 OA
HETATM    6  C7  UNL     1      -0.825  -0.940   0.850  1.00  0.00     0.131 A 
HETATM    7  C8  UNL     1      -1.384  -2.339   0.565  1.00  0.00     0.052 C 
HETATM    8  C9  UNL     1      -2.332  -2.003  -0.595  1.00  0.00     0.010 C 
HETATM    9  C10 UNL     1      -3.102  -0.840   0.017  1.00  0.00     0.004 C 
HETATM   10  C11 UNL     1      -1.987  -0.042   0.660  1.00  0.00     0.052 C 
HETATM   11  C12 UNL     1      -1.980   0.833  -0.578  1.00  0.00     0.072 C 
HETATM   12  S1  UNL     1      -2.283   2.565  -0.046  1.00  0.00    -0.086 SA
HETATM   13  C13 UNL     1      -4.030   2.330   0.229  1.00  0.00     0.187 C 
HETATM   14  O3  UNL     1      -4.708   3.000   0.964  1.00  0.00    -0.285 OA
HETATM   15  C14 UNL     1      -4.411   1.209  -0.595  1.00  0.00     0.101 C 
HETATM   16  C15 UNL     1      -3.312   0.323  -0.929  1.00  0.00    -0.019 C 
HETATM   17  C16 UNL     1      -3.387  -0.155  -2.386  1.00  0.00     0.017 C 
ENDROOT
BRANCH   4  18
HETATM   18  O2  UNL     1       2.924  -0.081   0.829  1.00  0.00    -0.293 OA
BRANCH  18  19
HETATM   19  C3  UNL     1       4.172   0.227   0.275  1.00  0.00     0.061 C 
HETATM   20  C4  UNL     1       5.126   0.402   1.462  1.00  0.00     0.046 C 
HETATM   21  C5  UNL     1       4.184   1.470  -0.558  1.00  0.00     0.046 C 
HETATM   22  C6  UNL     1       4.768  -0.915  -0.536  1.00  0.00     0.046 C 
ENDBRANCH  18  19
ENDBRANCH   4  18
TORSDOF 2
