REMARK  7 active torsions:
REMARK  status: ('A' for Active; 'I' for Inactive)
REMARK    1  A    between atoms: N1_2  and  C2_4 
REMARK    2  A    between atoms: C7_13  and  N4_14 
REMARK    3  A    between atoms: N5_17  and  C9_18 
REMARK    4  A    between atoms: C11_20  and  N6_21 
REMARK    5  A    between atoms: C12_23  and  C13_24 
REMARK    6  A    between atoms: C14_26  and  O1_27 
REMARK    7  A    between atoms: C15_29  and  O2_30 
ROOT
HETATM    1  C2  UNL     1      -1.563   1.534  -0.612  1.00  0.00     0.131 A 
HETATM    2  N2  UNL     1      -2.725   2.119  -1.001  1.00  0.00    -0.345 N 
ATOM      3  H2  UNL     1      -2.708   2.992  -1.528  1.00  0.00     0.167 HD
HETATM    4  C3  UNL     1      -3.889   1.545  -0.689  1.00  0.00     0.009 A 
HETATM    5  C4  UNL     1      -5.189   2.183  -1.114  1.00  0.00     0.068 C 
HETATM    6  C5  UNL     1      -3.933   0.371   0.018  1.00  0.00     0.057 A 
HETATM    7  C6  UNL     1      -2.770  -0.241   0.422  1.00  0.00     0.082 A 
HETATM    8  N3  UNL     1      -2.516  -1.374   1.114  1.00  0.00    -0.189 N 
ATOM      9  H3  UNL     1      -3.204  -2.028   1.488  1.00  0.00     0.184 HD
HETATM   10  C7  UNL     1      -1.185  -1.469   1.211  1.00  0.00     0.681 A 
HETATM   11  N5  UNL     1      -0.554  -0.445   0.612  1.00  0.00    -0.170 N 
HETATM   12  C16 UNL     1      -1.544   0.349   0.103  1.00  0.00     0.123 A 
ENDROOT
BRANCH  11  13
HETATM   13  C9  UNL     1       0.820  -0.215   0.512  1.00  0.00     0.142 C 
HETATM   14  C10 UNL     1       1.742  -1.411   0.646  1.00  0.00     0.056 C 
HETATM   15  C11 UNL     1       3.101  -0.677   0.514  1.00  0.00     0.114 C 
HETATM   16  C14 UNL     1       2.876   0.702   1.061  1.00  0.00     0.171 C 
HETATM   17  C15 UNL     1       1.446   0.656   1.601  1.00  0.00     0.172 C 
BRANCH  15  18
HETATM   18  N6  UNL     1       3.508  -0.676  -0.847  1.00  0.00    -0.394 N 
HETATM   19  C12 UNL     1       3.869  -1.726  -1.478  1.00  0.00     0.067 C 
ATOM     20  H6  UNL     1       3.512   0.212  -1.348  1.00  0.00     0.159 HD
BRANCH  19  21
HETATM   21  C13 UNL     1       4.289  -1.697  -2.897  1.00  0.00     0.129 C 
HETATM   22 BR1  UNL     1       6.216  -1.393  -2.996  1.00  0.00    -0.091 Br
ENDBRANCH  19  21
ENDBRANCH  15  18
BRANCH  16  23
HETATM   23  O1  UNL     1       2.942   1.688   0.091  1.00  0.00    -0.391 OA
ATOM     24  H1  UNL     1       2.800   2.561   0.437  1.00  0.00     0.210 HD
ENDBRANCH  16  23
BRANCH  17  25
HETATM   25  O2  UNL     1       1.533  -0.034   2.804  1.00  0.00    -0.391 OA
ATOM     26  H2  UNL     1       1.922   0.507   3.481  1.00  0.00     0.210 HD
ENDBRANCH  17  25
ENDBRANCH  11  13
BRANCH  10  27
HETATM   27  N4  UNL     1      -0.612  -2.447   1.817  1.00  0.00    -0.230 N 
HETATM   28  C8  UNL     1      -1.391  -3.497   2.426  1.00  0.00     0.165 C 
ATOM     29  H4  UNL     1       0.406  -2.481   1.868  1.00  0.00     0.177 HD
ENDBRANCH  10  27
BRANCH   1  30
HETATM   30  N1  UNL     1      -0.431   2.081  -0.909  1.00  0.00    -0.379 N 
HETATM   31  C1  UNL     1      -0.429   3.309  -1.649  1.00  0.00     0.147 C 
ATOM     32  H1  UNL     1       0.446   1.647  -0.622  1.00  0.00     0.160 HD
ENDBRANCH   1  30
TORSDOF 7
