REMARK  7 active torsions:
REMARK  status: ('A' for Active; 'I' for Inactive)
REMARK    1  A    between atoms: C4_4  and  C5_5 
REMARK    2  A    between atoms: C5_5  and  C6_6 
REMARK    3  A    between atoms: C6_6  and  C7_7 
REMARK    4  A    between atoms: C7_7  and  N1_8 
REMARK    5  A    between atoms: C11_16  and  O2_17 
REMARK    6  A    between atoms: C20_29  and  O4_30 
REMARK    7  A    between atoms: C21_32  and  O5_33 
ROOT
HETATM    1  C1  UNL     1      -0.438   2.070   0.056  1.00  0.00     0.017 C 
HETATM    2  C2  UNL     1      -0.167   0.993   0.766  1.00  0.00    -0.054 C 
HETATM    3  C3  UNL     1       0.849   0.023   0.441  1.00  0.00     0.033 C 
HETATM    4  C4  UNL     1       2.248   0.359   0.135  1.00  0.00     0.032 C 
HETATM    5  C8  UNL     1       2.158  -0.706  -0.923  1.00  0.00     0.093 A 
HETATM    6  C9  UNL     1       3.013  -1.311  -1.746  1.00  0.00     0.207 A 
HETATM    7  O1  UNL     1       2.571  -1.964  -0.495  1.00  0.00    -0.374 OA
HETATM    8  C10 UNL     1       0.696  -0.394  -1.007  1.00  0.00     0.060 C 
HETATM    9  C11 UNL     1      -0.217  -1.621  -1.112  1.00  0.00     0.127 C 
HETATM   10  C12 UNL     1      -1.649  -1.305  -1.144  1.00  0.00     0.052 C 
HETATM   11  C13 UNL     1      -2.539  -1.654  -0.035  1.00  0.00     0.057 C 
HETATM   12  C14 UNL     1      -2.410  -3.179   0.201  1.00  0.00     0.027 C 
HETATM   13  C15 UNL     1      -3.952  -1.604  -0.627  1.00  0.00     0.160 C 
HETATM   14  O3  UNL     1      -4.172  -2.261  -1.681  1.00  0.00    -0.292 OA
HETATM   15  C16 UNL     1      -5.031  -0.838  -0.027  1.00  0.00     0.047 C 
HETATM   16  C17 UNL     1      -4.662   0.224   0.699  1.00  0.00    -0.013 C 
HETATM   17  C18 UNL     1      -3.226   0.424   0.759  1.00  0.00     0.075 A 
HETATM   18  C19 UNL     1      -2.309   0.187   1.842  1.00  0.00     0.109 A 
HETATM   19 CL1  UNL     1      -3.183   0.606   3.403  1.00  0.00    -0.112 Cl
HETATM   20  C20 UNL     1      -0.981   0.784   1.986  1.00  0.00     0.174 C 
HETATM   21  C21 UNL     1      -2.663  -0.984   1.215  1.00  0.00     0.106 A 
ENDROOT
BRANCH   4  22
HETATM   22  C5  UNL     1       2.636   1.676  -0.415  1.00  0.00     0.010 C 
BRANCH  22  23
HETATM   23  C6  UNL     1       4.166   1.689  -0.596  1.00  0.00     0.028 C 
BRANCH  23  24
HETATM   24  C7  UNL     1       4.484   3.087  -1.156  1.00  0.00     0.229 C 
BRANCH  24  25
HETATM   25  N1  UNL     1       5.905   3.252  -1.381  1.00  0.00    -0.079 N 
ATOM     26  H13 UNL     1       6.443   3.055  -0.537  1.00  0.00     0.274 HD
ATOM     27  H12 UNL     1       6.277   2.515  -1.980  1.00  0.00     0.274 HD
ATOM     28  H11 UNL     1       6.116   4.178  -1.752  1.00  0.00     0.274 HD
ENDBRANCH  24  25
ENDBRANCH  23  24
ENDBRANCH  22  23
ENDBRANCH   4  22
BRANCH  20  29
HETATM   29  O4  UNL     1      -1.101   2.047   2.631  1.00  0.00    -0.389 OA
ATOM     30  H4  UNL     1      -1.623   1.913   3.413  1.00  0.00     0.210 HD
ENDBRANCH  20  29
BRANCH   9  31
HETATM   31  O2  UNL     1       0.227  -2.487  -0.138  1.00  0.00    -0.395 OA
ATOM     32  H2  UNL     1      -0.339  -3.247  -0.203  1.00  0.00     0.210 HD
ENDBRANCH   9  31
BRANCH  21  33
HETATM   33  O5  UNL     1      -3.615  -1.755   1.987  1.00  0.00    -0.386 OA
ATOM     34  H5  UNL     1      -3.698  -1.308   2.821  1.00  0.00     0.210 HD
ENDBRANCH  21  33
TORSDOF 7
