REMARK  7 active torsions:
REMARK  status: ('A' for Active; 'I' for Inactive)
REMARK    1  A    between atoms: C2_2  and  C3_3 
REMARK    2  A    between atoms: N1_7  and  C6_8 
REMARK    3  A    between atoms: C7_9  and  O2_10 
REMARK    4  A    between atoms: C9_14  and  O3_15 
REMARK    5  A    between atoms: C10_17  and  O4_18 
REMARK    6  A    between atoms: C11_20  and  C12_21 
REMARK    7  A    between atoms: C12_21  and  C13_22 
ROOT
HETATM    1  C6  UNL     1       0.351  -0.869  -0.550  1.00  0.00     0.134 C 
HETATM    2  C7  UNL     1       0.790  -2.291  -0.454  1.00  0.00     0.159 C 
HETATM    3  C8  UNL     1      -0.442  -3.138  -0.708  1.00  0.00     0.120 C 
HETATM    4 BR1  UNL     1       0.094  -4.967  -0.919  1.00  0.00    -0.086 Br
HETATM    5  C9  UNL     1      -1.292  -2.993   0.536  1.00  0.00     0.164 C 
HETATM    6  C10 UNL     1      -1.007  -1.749   1.319  1.00  0.00     0.154 C 
HETATM    7  C11 UNL     1      -0.719  -0.539   0.535  1.00  0.00     0.044 C 
ENDROOT
BRANCH   1   8
HETATM    8  N1  UNL     1       1.401   0.112  -0.600  1.00  0.00    -0.258 N 
HETATM    9  C5  UNL     1       1.558   0.917  -1.694  1.00  0.00     0.253 A 
HETATM   10  C4  UNL     1       2.543   1.871  -1.796  1.00  0.00     0.099 A 
HETATM   11  O1  UNL     1       0.729   0.736  -2.635  1.00  0.00    -0.268 OA
HETATM   12  C3  UNL     1       3.422   2.033  -0.750  1.00  0.00     0.018 A 
HETATM   13  N2  UNL     1       3.278   1.252   0.324  1.00  0.00    -0.312 N 
HETATM   14  C17 UNL     1       2.298   0.332   0.377  1.00  0.00     0.330 A 
ATOM     15  H2  UNL     1       3.918   1.354   1.112  1.00  0.00     0.170 HD
HETATM   16  O5  UNL     1       2.241  -0.357   1.427  1.00  0.00    -0.246 OA
BRANCH  12  17
HETATM   17  C2  UNL     1       4.506   3.054  -0.814  1.00  0.00     0.053 C 
HETATM   18  C1  UNL     1       5.760   2.440  -1.423  1.00  0.00     0.011 C 
ENDBRANCH  12  17
ENDBRANCH   1   8
BRANCH   2  19
HETATM   19  O2  UNL     1       1.643  -2.550  -1.554  1.00  0.00    -0.392 OA
ATOM     20  H2  UNL     1       1.923  -3.456  -1.493  1.00  0.00     0.210 HD
ENDBRANCH   2  19
BRANCH   7  21
HETATM   21  C12 UNL     1      -1.843   0.138  -0.081  1.00  0.00     0.017 C 
BRANCH  21  22
HETATM   22  C13 UNL     1      -3.046   0.670   0.474  1.00  0.00    -0.051 C 
HETATM   23  C14 UNL     1      -4.116   0.014   1.175  1.00  0.00     0.014 C 
HETATM   24  C15 UNL     1      -3.742   1.415  -0.724  1.00  0.00     0.014 C 
HETATM   25  C16 UNL     1      -2.646   1.910   1.355  1.00  0.00     0.014 C 
ENDBRANCH  21  22
ENDBRANCH   7  21
BRANCH   6  26
HETATM   26  O4  UNL     1      -1.895  -1.580   2.337  1.00  0.00    -0.393 OA
ATOM     27  H4  UNL     1      -1.714  -0.791   2.834  1.00  0.00     0.210 HD
ENDBRANCH   6  26
BRANCH   5  28
HETATM   28  O3  UNL     1      -2.593  -3.190   0.163  1.00  0.00    -0.392 OA
ATOM     29  H3  UNL     1      -3.126  -3.099   0.944  1.00  0.00     0.210 HD
ENDBRANCH   5  28
TORSDOF 7
