REMARK  5 active torsions:
REMARK  status: ('A' for Active; 'I' for Inactive)
REMARK    1  A    between atoms: N1_2  and  C2_5 
REMARK    2  A    between atoms: N2_8  and  N3_9 
REMARK       I    between atoms: N3_9  and  C5_11 
REMARK    3  A    between atoms: C5_11  and  C6_13 
REMARK    4  A    between atoms: C6_13  and  O2_14 
REMARK    5  A    between atoms: C11_27  and  C12_28 
ROOT
HETATM    1  N3  UNL     1      -0.064  -0.228   0.246  1.00  0.00    -0.283 N 
ATOM      2  H3  UNL     1       0.071  -0.496   1.221  1.00  0.00     0.184 HD
HETATM    3  C5  UNL     1       1.099   0.027  -0.514  1.00  0.00     0.313 C 
HETATM    4  O1  UNL     1       0.902   0.364  -1.730  1.00  0.00    -0.265 OA
ENDROOT
BRANCH   1   5
HETATM    5  N2  UNL     1      -1.363  -0.149  -0.206  1.00  0.00    -0.222 NA
HETATM    6  C4  UNL     1      -1.618   1.239  -0.491  1.00  0.00     0.116 C 
HETATM    7  C3  UNL     1      -2.789   1.815   0.276  1.00  0.00     0.049 C 
HETATM    8  C2  UNL     1      -3.996   1.059  -0.229  1.00  0.00     0.188 C 
HETATM    9  C15 UNL     1      -3.716  -0.394  -0.037  1.00  0.00     0.056 C 
HETATM   10  C11 UNL     1      -2.360  -0.701   0.599  1.00  0.00     0.104 C 
BRANCH   8  11
HETATM   11  N1  UNL     1      -5.220   1.421   0.417  1.00  0.00    -0.075 N 
HETATM   12  C1  UNL     1      -5.595   2.811   0.189  1.00  0.00     0.267 C 
ATOM     13  H12 UNL     1      -5.180   1.214   1.415  1.00  0.00     0.277 HD
ATOM     14  H11 UNL     1      -5.975   0.791   0.146  1.00  0.00     0.277 HD
ENDBRANCH   8  11
BRANCH  10  15
HETATM   15  C12 UNL     1      -2.396  -2.174   0.780  1.00  0.00     0.047 C 
HETATM   16  C13 UNL     1      -2.606  -2.871  -0.558  1.00  0.00     0.034 C 
HETATM   17  C14 UNL     1      -1.203  -2.812   1.400  1.00  0.00     0.034 C 
HETATM   18 CL1  UNL     1      -3.799  -2.602   1.778  1.00  0.00    -0.118 Cl
ENDBRANCH  10  15
ENDBRANCH   1   5
BRANCH   3  19
HETATM   19  C6  UNL     1       2.478  -0.076   0.024  1.00  0.00     0.383 C 
HETATM   20  N4  UNL     1       3.080   1.200  -0.097  1.00  0.00     0.005 N 
HETATM   21  C7  UNL     1       4.494   1.113   0.022  1.00  0.00     0.240 C 
ATOM     22  H42 UNL     1       2.804   1.665  -0.962  1.00  0.00     0.285 HD
ATOM     23  H41 UNL     1       2.687   1.865   0.569  1.00  0.00     0.285 HD
HETATM   24  C8  UNL     1       5.178   2.215  -0.750  1.00  0.00     0.065 C 
HETATM   25  C9  UNL     1       5.004   1.087   1.442  1.00  0.00     0.065 C 
HETATM   26  S1  UNL     1       4.833  -0.435  -0.792  1.00  0.00     0.250 S 
HETATM   27  O3  UNL     1       5.356  -0.224  -2.161  1.00  0.00    -0.208 OA
HETATM   28  O4  UNL     1       5.697  -1.293   0.054  1.00  0.00    -0.208 OA
HETATM   29  N5  UNL     1       3.180  -1.015  -0.829  1.00  0.00    -0.146 NA
HETATM   30  C10 UNL     1       3.202  -2.319  -0.184  1.00  0.00     0.135 C 
BRANCH  19  31
HETATM   31  O2  UNL     1       2.458  -0.486   1.351  1.00  0.00    -0.345 OA
ATOM     32  H2  UNL     1       3.341  -0.552   1.695  1.00  0.00     0.214 HD
ENDBRANCH  19  31
ENDBRANCH   3  19
TORSDOF 5
