REMARK  8 active torsions:
REMARK  status: ('A' for Active; 'I' for Inactive)
REMARK    1  A    between atoms: C2_2  and  O2_4 
REMARK    2  A    between atoms: O2_4  and  C3_5 
REMARK    3  A    between atoms: C3_5  and  C4_6 
REMARK    4  A    between atoms: C8_11  and  O4_12 
REMARK    5  A    between atoms: C9_14  and  O5_16 
REMARK    6  A    between atoms: C12_22  and  O6_24 
REMARK    7  A    between atoms: C15_27  and  C16_28 
REMARK    8  A    between atoms: C16_28  and  C17_29 
ROOT
HETATM    1  C4  UNL     1       1.392  -0.993  -1.116  1.00  0.00     0.004 C 
HETATM    2  C5  UNL     1       0.731  -0.613  -0.040  1.00  0.00    -0.062 C 
HETATM    3  C6  UNL     1       1.197   0.352   0.981  1.00  0.00     0.116 C 
HETATM    4  C7  UNL     1       0.136   0.348   2.045  1.00  0.00     0.169 C 
HETATM    5  O3  UNL     1       0.282   0.669   3.206  1.00  0.00    -0.294 OA
HETATM    6  C8  UNL     1      -1.093  -0.128   1.357  1.00  0.00     0.165 C 
HETATM    7  C9  UNL     1      -1.725   1.101   0.717  1.00  0.00     0.134 C 
HETATM    8  C10 UNL     1      -1.446   2.332   1.561  1.00  0.00     0.056 C 
HETATM    9  C11 UNL     1      -1.385   1.281  -0.694  1.00  0.00     0.052 C 
HETATM   10  N1  UNL     1      -0.907   2.378  -1.102  1.00  0.00    -0.401 N 
ATOM     11  H11 UNL     1      -0.670   2.504  -2.086  1.00  0.00     0.155 HD
ATOM     12  H12 UNL     1      -0.739   3.165  -0.475  1.00  0.00     0.155 HD
HETATM   13  C12 UNL     1      -1.630   0.136  -1.607  1.00  0.00     0.096 C 
HETATM   14  C13 UNL     1      -3.101   0.184  -2.066  1.00  0.00     0.052 C 
HETATM   15  C14 UNL     1      -1.459  -1.160  -0.899  1.00  0.00     0.061 C 
HETATM   16  C15 UNL     1      -0.617  -1.096   0.363  1.00  0.00     0.029 C 
ENDROOT
BRANCH   1  17
HETATM   17  C3  UNL     1       2.748  -0.491  -1.474  1.00  0.00     0.206 C 
BRANCH  17  18
HETATM   18  O2  UNL     1       3.288   0.424  -0.587  1.00  0.00    -0.318 OA
BRANCH  18  19
HETATM   19  C2  UNL     1       4.550   0.931  -0.864  1.00  0.00     0.255 C 
HETATM   20  C1  UNL     1       5.205   1.916   0.033  1.00  0.00     0.126 C 
HETATM   21  O1  UNL     1       5.177   0.553  -1.909  1.00  0.00    -0.266 OA
ENDBRANCH  18  19
ENDBRANCH  17  18
ENDBRANCH   1  17
BRANCH  16  22
HETATM   22  C16 UNL     1      -0.400  -2.503   0.823  1.00  0.00     0.028 C 
BRANCH  22  23
HETATM   23  C17 UNL     1      -1.564  -3.286   1.291  1.00  0.00     0.086 C 
HETATM   24 BR1  UNL     1      -0.831  -5.053   1.772  1.00  0.00    -0.096 Br
ENDBRANCH  22  23
ENDBRANCH  16  22
BRANCH   6  25
HETATM   25  O4  UNL     1      -2.040  -0.572   2.270  1.00  0.00    -0.377 OA
ATOM     26  H4  UNL     1      -2.825  -0.876   1.830  1.00  0.00     0.211 HD
ENDBRANCH   6  25
BRANCH   7  27
HETATM   27  O5  UNL     1      -3.137   0.957   0.739  1.00  0.00    -0.381 OA
ATOM     28  H5  UNL     1      -3.531   1.724   0.340  1.00  0.00     0.211 HD
ENDBRANCH   7  27
BRANCH  13  29
HETATM   29  O6  UNL     1      -0.863   0.300  -2.748  1.00  0.00    -0.384 OA
ATOM     30  H6  UNL     1      -1.020  -0.433  -3.332  1.00  0.00     0.211 HD
ENDBRANCH  13  29
TORSDOF 8
