REMARK  4 active torsions:
REMARK  status: ('A' for Active; 'I' for Inactive)
REMARK    1  A    between atoms: O1_2  and  C2_3 
REMARK    2  A    between atoms: N2_19  and  C14_20 
REMARK    3  A    between atoms: C14_20  and  C15_21 
REMARK    4  A    between atoms: C15_21  and  C16_22 
ROOT
HETATM    1  C2  UNL     1      -4.901  -0.981   0.308  1.00  0.00     0.090 A 
HETATM    2  C3  UNL     1      -3.652  -0.721  -0.222  1.00  0.00     0.048 A 
HETATM    3  C4  UNL     1      -3.258   0.591  -0.459  1.00  0.00    -0.023 A 
HETATM    4  C5  UNL     1      -4.141   1.605  -0.151  1.00  0.00     0.043 A 
HETATM    5  C6  UNL     1      -5.409   1.355   0.385  1.00  0.00     0.056 A 
HETATM    6  C7  UNL     1      -5.781   0.050   0.612  1.00  0.00     0.069 A 
HETATM    7 CL1  UNL     1      -7.356  -0.316   1.281  1.00  0.00    -0.081 Cl
HETATM    8  N1  UNL     1      -3.804   2.977  -0.321  1.00  0.00    -0.326 N 
ATOM      9  H1  UNL     1      -4.458   3.726  -0.096  1.00  0.00     0.169 HD
HETATM   10  C8  UNL     1      -2.481   3.245  -0.831  1.00  0.00     0.227 C 
HETATM   11  O2  UNL     1      -2.221   4.238  -1.526  1.00  0.00    -0.273 OA
HETATM   12  C9  UNL     1      -1.479   2.224  -0.443  1.00  0.00     0.089 C 
HETATM   13  C10 UNL     1      -0.148   2.350  -1.088  1.00  0.00     0.051 C 
HETATM   14  C11 UNL     1       0.367   0.913  -1.039  1.00  0.00     0.230 A 
HETATM   15  C12 UNL     1      -0.830   0.021  -0.787  1.00  0.00     0.057 A 
HETATM   16  C13 UNL     1      -0.340  -0.158   0.606  1.00  0.00     0.280 A 
HETATM   17  N2  UNL     1       0.839   0.623   0.292  1.00  0.00     0.094 N 
HETATM   18  C21 UNL     1      -1.975   0.925  -1.047  1.00  0.00     0.042 C 
ENDROOT
BRANCH  17  19
HETATM   19  C14 UNL     1       2.079  -0.164   0.256  1.00  0.00     0.273 C 
BRANCH  19  20
HETATM   20  C15 UNL     1       3.150   0.695  -0.281  1.00  0.00     0.034 C 
BRANCH  20  21
HETATM   21  C16 UNL     1       4.497   0.082  -0.407  1.00  0.00    -0.013 C 
HETATM   22  C17 UNL     1       4.610  -1.097  -1.281  1.00  0.00     0.005 C 
HETATM   23  C18 UNL     1       4.910  -2.241  -0.361  1.00  0.00     0.000 C 
HETATM   24  C19 UNL     1       5.836  -1.604   0.671  1.00  0.00     0.000 C 
HETATM   25  C20 UNL     1       5.077  -0.298   0.944  1.00  0.00     0.005 C 
ENDBRANCH  20  21
ENDBRANCH  19  20
ENDBRANCH  17  19
BRANCH   1  26
HETATM   26  O1  UNL     1      -5.334  -2.268   0.561  1.00  0.00    -0.354 OA
HETATM   27  C1  UNL     1      -4.595  -3.434   0.323  1.00  0.00     0.210 C 
ENDBRANCH   1  26
TORSDOF 4
