REMARK  5 active torsions:
REMARK  status: ('A' for Active; 'I' for Inactive)
REMARK    1  A    between atoms: C2_2  and  O1_4 
REMARK    2  A    between atoms: O1_4  and  C4_5 
REMARK    3  A    between atoms: C4_5  and  C5_7 
REMARK       I    between atoms: N1_9  and  C7_10 
REMARK       I    between atoms: C7_10  and  N2_12 
REMARK    4  A    between atoms: N2_12  and  C8_14 
REMARK    5  A    between atoms: C19_25  and  C20_26 
ROOT
HETATM    1  C5  UNL     1       2.974  -1.150   0.509  1.00  0.00     0.110 C 
HETATM    2  C6  UNL     1       1.769  -0.901  -0.396  1.00  0.00     0.142 C 
HETATM    3  N1  UNL     1       0.790  -1.697   0.277  1.00  0.00    -0.333 N 
HETATM    4  C7  UNL     1      -0.581  -1.376   0.438  1.00  0.00     0.319 C 
HETATM    5  O3  UNL     1      -1.356  -2.149   1.052  1.00  0.00    -0.247 OA
HETATM    6  N2  UNL     1      -1.068  -0.173  -0.103  1.00  0.00    -0.334 N 
ATOM      7  H2  UNL     1      -0.429   0.450  -0.596  1.00  0.00     0.165 HD
HETATM    8  C18 UNL     1       1.440  -2.882   0.760  1.00  0.00     0.134 C 
HETATM    9  C19 UNL     1       2.947  -2.611   0.646  1.00  0.00     0.033 C 
ENDROOT
BRANCH   6  10
HETATM   10  C8  UNL     1      -2.461   0.196   0.028  1.00  0.00     0.035 C 
HETATM   11  C9  UNL     1      -3.314  -0.792  -0.683  1.00  0.00     0.035 C 
HETATM   12  C10 UNL     1      -4.787  -0.462  -0.513  1.00  0.00    -0.012 C 
HETATM   13  C11 UNL     1      -5.016   0.842  -1.246  1.00  0.00     0.009 C 
HETATM   14  C15 UNL     1      -5.104  -0.305   0.943  1.00  0.00     0.009 C 
HETATM   15  C12 UNL     1      -4.133   1.872  -0.620  1.00  0.00    -0.012 C 
HETATM   16  C13 UNL     1      -4.554   2.086   0.818  1.00  0.00     0.009 C 
HETATM   17  C17 UNL     1      -2.677   1.560  -0.641  1.00  0.00     0.035 C 
HETATM   18  C14 UNL     1      -4.291   0.812   1.551  1.00  0.00    -0.012 C 
HETATM   19  C16 UNL     1      -2.837   0.387   1.469  1.00  0.00     0.035 C 
ENDBRANCH   6  10
BRANCH   1  20
HETATM   20  C4  UNL     1       4.193  -0.515   0.084  1.00  0.00     0.265 C 
HETATM   21  O2  UNL     1       5.290  -1.043  -0.208  1.00  0.00    -0.265 OA
BRANCH  20  22
HETATM   22  O1  UNL     1       4.184   0.887  -0.029  1.00  0.00    -0.316 OA
BRANCH  22  23
HETATM   23  C2  UNL     1       5.331   1.608  -0.439  1.00  0.00     0.123 C 
HETATM   24  C1  UNL     1       4.978   2.435  -1.651  1.00  0.00     0.040 C 
HETATM   25  C3  UNL     1       5.719   2.505   0.722  1.00  0.00     0.040 C 
ENDBRANCH  22  23
ENDBRANCH  20  22
ENDBRANCH   1  20
BRANCH   9  26
HETATM   26  C20 UNL     1       3.445  -3.417  -0.491  1.00  0.00     0.121 C 
HETATM   27 CL1  UNL     1       3.284  -5.151  -0.025  1.00  0.00    -0.130 Cl
ENDBRANCH   9  26
TORSDOF 5
