REMARK  11 active torsions:
REMARK  status: ('A' for Active; 'I' for Inactive)
REMARK    1  A    between atoms: N2_5  and  C4_6 
REMARK    2  A    between atoms: C4_6  and  C5_7 
REMARK    3  A    between atoms: C7_9  and  N3_10 
REMARK    4  A    between atoms: N3_10  and  C8_12 
REMARK    5  A    between atoms: C8_12  and  O1_13 
REMARK    6  A    between atoms: C8_12  and  C9_15 
REMARK    7  A    between atoms: C9_15  and  C10_16 
REMARK    8  A    between atoms: C10_16  and  C11_17 
REMARK    9  A    between atoms: C11_17  and  N4_18 
REMARK   10  A    between atoms: C18_27  and  N5_28 
REMARK   11  A    between atoms: C21_31  and  N6_32 
ROOT
HETATM    1  C5  UNL     1      -1.956   0.320  -0.376  1.00  0.00    -0.025 A 
HETATM    2  C6  UNL     1      -0.655   0.861  -0.396  1.00  0.00     0.039 A 
HETATM    3  C7  UNL     1       0.453   0.114  -0.137  1.00  0.00     0.036 A 
HETATM    4  C17 UNL     1       0.258  -1.252   0.159  1.00  0.00     0.058 A 
HETATM    5  C18 UNL     1      -0.991  -1.820   0.189  1.00  0.00     0.033 A 
HETATM    6  C23 UNL     1      -2.067  -1.003  -0.083  1.00  0.00     0.039 A 
ENDROOT
BRANCH   3   7
HETATM    7  N3  UNL     1       1.775   0.635  -0.108  1.00  0.00    -0.337 N 
ATOM      8  H3  UNL     1       2.517  -0.016  -0.367  1.00  0.00     0.168 HD
BRANCH   7   9
HETATM    9  C8  UNL     1       2.184   1.919   0.229  1.00  0.00     0.140 C 
BRANCH   9  10
HETATM   10  O1  UNL     1       1.202   2.710   0.568  1.00  0.00    -0.346 OA
ATOM     11  H1  UNL     1       1.482   3.588   0.798  1.00  0.00     0.219 HD
ENDBRANCH   9  10
BRANCH   9  12
HETATM   12  C9  UNL     1       3.475   2.525   0.270  1.00  0.00     0.053 C 
BRANCH  12  13
HETATM   13  C10 UNL     1       4.674   2.166   0.015  1.00  0.00     0.007 C 
BRANCH  13  14
HETATM   14  C11 UNL     1       5.188   0.905  -0.454  1.00  0.00     0.300 C 
BRANCH  14  15
HETATM   15  N4  UNL     1       6.101   0.310   0.547  1.00  0.00     0.092 N 
HETATM   16  C12 UNL     1       7.267   1.173   0.598  1.00  0.00     0.278 C 
HETATM   17  C13 UNL     1       8.508   0.391   0.983  1.00  0.00     0.109 C 
HETATM   18  C14 UNL     1       8.854  -0.646  -0.063  1.00  0.00     0.246 C 
HETATM   19  F1  UNL     1       9.968  -0.291  -0.789  1.00  0.00    -0.206 F 
HETATM   20  F2  UNL     1       9.096  -1.836   0.593  1.00  0.00    -0.206 F 
HETATM   21  C15 UNL     1       7.646  -0.875  -0.946  1.00  0.00     0.109 C 
HETATM   22  C16 UNL     1       6.441  -0.991  -0.013  1.00  0.00     0.278 C 
ENDBRANCH  14  15
ENDBRANCH  13  14
ENDBRANCH  12  13
ENDBRANCH   9  12
ENDBRANCH   7   9
ENDBRANCH   3   7
BRANCH   1  23
HETATM   23  C4  UNL     1      -3.064   1.241  -0.687  1.00  0.00     0.063 C 
HETATM   24  C24 UNL     1      -2.690   1.848  -2.048  1.00  0.00     0.036 C 
HETATM   25  C25 UNL     1      -2.419   0.712  -2.994  1.00  0.00     0.003 C 
HETATM   26  C26 UNL     1      -3.576  -0.240  -3.071  1.00  0.00     0.000 C 
HETATM   27  C27 UNL     1      -4.726   0.075  -2.192  1.00  0.00     0.003 C 
HETATM   28  C28 UNL     1      -4.388   0.599  -0.822  1.00  0.00     0.036 C 
BRANCH  23  29
HETATM   29  N2  UNL     1      -3.106   2.285   0.278  1.00  0.00    -0.356 N 
HETATM   30  C3  UNL     1      -3.988   3.348   0.049  1.00  0.00     0.094 C 
HETATM   31  C2  UNL     1      -4.948   3.560   1.176  1.00  0.00     0.317 C 
HETATM   32  N1  UNL     1      -4.327   3.457   2.486  1.00  0.00     0.093 N 
HETATM   33  C1  UNL     1      -5.426   3.443   3.451  1.00  0.00     0.310 C 
HETATM   34  C30 UNL     1      -3.653   2.183   2.613  1.00  0.00     0.317 C 
HETATM   35  C29 UNL     1      -2.574   2.057   1.541  1.00  0.00     0.094 C 
ENDBRANCH  23  29
ENDBRANCH   1  23
BRANCH   5  36
HETATM   36  N5  UNL     1      -1.137  -3.201   0.491  1.00  0.00    -0.379 N 
HETATM   37  C19 UNL     1      -0.068  -4.162   0.667  1.00  0.00     0.125 C 
HETATM   38  C20 UNL     1      -0.604  -5.393  -0.076  1.00  0.00     0.054 C 
HETATM   39  C21 UNL     1      -2.100  -5.252  -0.021  1.00  0.00     0.202 C 
HETATM   40  C22 UNL     1      -2.358  -3.949   0.696  1.00  0.00     0.155 C 
BRANCH  39  41
HETATM   41  N6  UNL     1      -2.694  -6.371   0.722  1.00  0.00    -0.073 N 
ATOM     42  H63 UNL     1      -2.412  -7.273   0.339  1.00  0.00     0.274 HD
ATOM     43  H62 UNL     1      -2.287  -6.467   1.652  1.00  0.00     0.274 HD
ATOM     44  H61 UNL     1      -3.709  -6.275   0.759  1.00  0.00     0.274 HD
ENDBRANCH  39  41
ENDBRANCH   5  36
TORSDOF 11
