REMARK  9 active torsions:
REMARK  status: ('A' for Active; 'I' for Inactive)
REMARK    1  A    between atoms: O1_1  and  C1_3 
REMARK    2  A    between atoms: C1_3  and  C2_4 
REMARK    3  A    between atoms: C2_4  and  N1_5 
REMARK    4  A    between atoms: N2_8  and  C5_9 
REMARK    5  A    between atoms: C5_9  and  C6_10 
REMARK    6  A    between atoms: C6_10  and  O2_11 
REMARK    7  A    between atoms: C6_10  and  C7_13 
REMARK    8  A    between atoms: C7_13  and  O3_14 
REMARK    9  A    between atoms: O3_14  and  C8_15 
ROOT
HETATM    1  C6  UNL     1       1.685   0.702   0.311  1.00  0.00     0.160 C 
ENDROOT
BRANCH   1   2
HETATM    2  C5  UNL     1       0.591   0.795  -0.729  1.00  0.00     0.150 C 
BRANCH   2   3
HETATM    3  N2  UNL     1      -0.683   0.786  -0.068  1.00  0.00    -0.407 N 
HETATM    4  C4  UNL     1      -1.031  -0.454   0.543  1.00  0.00     0.136 C 
HETATM    5  C3  UNL     1      -2.348  -1.015   0.025  1.00  0.00     0.137 C 
HETATM    6  N1  UNL     1      -3.368  -0.059   0.263  1.00  0.00    -0.399 N 
HETATM    7  C18 UNL     1      -3.055   1.299   0.004  1.00  0.00     0.137 C 
HETATM    8  C17 UNL     1      -1.733   1.472  -0.744  1.00  0.00     0.136 C 
BRANCH   6   9
HETATM    9  C2  UNL     1      -4.690  -0.468  -0.090  1.00  0.00     0.049 C 
HETATM   10  C19 UNL     1      -5.680   0.572   0.388  1.00  0.00     0.033 C 
HETATM   11  C20 UNL     1      -7.000  -0.197   0.413  1.00  0.00     0.002 C 
HETATM   12  C21 UNL     1      -6.624  -1.638   0.550  1.00  0.00     0.002 C 
HETATM   13  C22 UNL     1      -5.104  -1.665   0.709  1.00  0.00     0.033 C 
BRANCH   9  14
HETATM   14  C1  UNL     1      -4.890  -0.755  -1.536  1.00  0.00     0.195 C 
BRANCH  14  15
HETATM   15  O1  UNL     1      -4.623   0.376  -2.342  1.00  0.00    -0.398 OA
ATOM     16  H1  UNL     1      -4.751   0.193  -3.265  1.00  0.00     0.209 HD
ENDBRANCH  14  15
ENDBRANCH   9  14
ENDBRANCH   6   9
ENDBRANCH   2   3
ENDBRANCH   1   2
BRANCH   1  17
HETATM   17  O2  UNL     1       1.605   1.788   1.207  1.00  0.00    -0.392 OA
ATOM     18  H2  UNL     1       2.292   1.730   1.860  1.00  0.00     0.210 HD
ENDBRANCH   1  17
BRANCH   1  19
HETATM   19  C7  UNL     1       3.059   0.828  -0.328  1.00  0.00     0.209 C 
BRANCH  19  20
HETATM   20  O3  UNL     1       4.013   0.771   0.705  1.00  0.00    -0.346 OA
BRANCH  20  21
HETATM   21  C8  UNL     1       5.365   0.857   0.511  1.00  0.00     0.098 A 
HETATM   22  C9  UNL     1       5.977   2.091   0.522  1.00  0.00     0.046 A 
HETATM   23 BR1  UNL     1       4.952   3.674   0.809  1.00  0.00    -0.048 Br
HETATM   24  C10 UNL     1       7.346   2.236   0.330  1.00  0.00     0.043 A 
HETATM   25  C11 UNL     1       8.112   1.099   0.121  1.00  0.00     0.040 A 
HETATM   26 BR2  UNL     1      10.005   1.325  -0.146  1.00  0.00    -0.049 Br
HETATM   27  C12 UNL     1       7.529  -0.137   0.105  1.00  0.00     0.062 A 
HETATM   28  N3  UNL     1       8.322  -1.203  -0.102  1.00  0.00    -0.364 N 
HETATM   29  C16 UNL     1       6.149  -0.252   0.301  1.00  0.00     0.027 A 
HETATM   30  C13 UNL     1       7.770  -2.430  -0.121  1.00  0.00     0.088 A 
ATOM     31  H3  UNL     1       9.325  -1.084  -0.242  1.00  0.00     0.165 HD
HETATM   32  C14 UNL     1       6.417  -2.607   0.067  1.00  0.00     0.018 A 
HETATM   33  C15 UNL     1       5.613  -1.508   0.278  1.00  0.00     0.018 A 
ENDBRANCH  20  21
ENDBRANCH  19  20
ENDBRANCH   1  19
TORSDOF 9
