REMARK  10 active torsions:
REMARK  status: ('A' for Active; 'I' for Inactive)
REMARK    1  A    between atoms: C5_7  and  C6_8 
REMARK       I    between atoms: C6_8  and  N2_10 
REMARK    2  A    between atoms: N2_10  and  C7_12 
REMARK    3  A    between atoms: C7_12  and  C8_13 
REMARK    4  A    between atoms: C8_13  and  O2_14 
REMARK    5  A    between atoms: O2_14  and  C9_15 
REMARK    6  A    between atoms: C12_20  and  C13_21 
REMARK       I    between atoms: C13_21  and  N3_23 
REMARK    7  A    between atoms: N3_23  and  C14_25 
REMARK    8  A    between atoms: C15_28  and  C16_29 
REMARK    9  A    between atoms: C16_29  and  C17_30 
REMARK   10  A    between atoms: C17_30  and  C18_31 
ROOT
HETATM    1  C1  UNL     1      -1.196   2.266   1.131  1.00  0.00     0.069 C 
HETATM    2  C2  UNL     1       0.154   1.573   0.971  1.00  0.00     0.019 C 
HETATM    3  N1  UNL     1       0.996   1.598   1.910  1.00  0.00    -0.362 N 
ATOM      4  H1  UNL     1       0.735   2.084   2.768  1.00  0.00     0.165 HD
HETATM    5  C3  UNL     1       2.278   0.999   1.856  1.00  0.00     0.019 C 
HETATM    6  C4  UNL     1       3.189   1.072   3.037  1.00  0.00     0.069 C 
HETATM    7  C5  UNL     1       2.647   0.384   0.758  1.00  0.00     0.055 C 
HETATM    8  C11 UNL     1       1.787   0.432  -0.465  1.00  0.00     0.163 C 
HETATM    9 CL1  UNL     1       2.595   1.458  -1.699  1.00  0.00    -0.114 Cl
HETATM   10  C12 UNL     1       0.392   0.781  -0.230  1.00  0.00     0.055 C 
ENDROOT
BRANCH  10  11
HETATM   11  C13 UNL     1      -0.363   1.216  -1.427  1.00  0.00     0.257 C 
HETATM   12  O3  UNL     1       0.262   1.596  -2.439  1.00  0.00    -0.267 OA
HETATM   13  N3  UNL     1      -1.777   1.237  -1.519  1.00  0.00    -0.302 N 
ATOM     14  H3  UNL     1      -2.263   2.133  -1.556  1.00  0.00     0.171 HD
BRANCH  13  15
HETATM   15  C14 UNL     1      -2.473   0.124  -1.558  1.00  0.00     0.169 A 
HETATM   16  N4  UNL     1      -3.779   0.001  -1.643  1.00  0.00    -0.325 N 
HETATM   17  C15 UNL     1      -4.334  -1.168  -1.663  1.00  0.00     0.089 A 
ATOM     18  H4  UNL     1      -4.362   0.837  -1.694  1.00  0.00     0.169 HD
HETATM   19  N5  UNL     1      -3.496  -2.241  -1.592  1.00  0.00    -0.313 N 
HETATM   20  S1  UNL     1      -1.988  -1.508  -1.503  1.00  0.00     0.024 SA
ATOM     21  H5  UNL     1      -3.726  -3.235  -1.593  1.00  0.00     0.175 HD
BRANCH  17  22
HETATM   22  C16 UNL     1      -5.828  -1.354  -1.775  1.00  0.00     0.078 C 
BRANCH  22  23
HETATM   23  C17 UNL     1      -6.550  -1.456  -0.510  1.00  0.00     0.016 C 
BRANCH  23  24
HETATM   24  C18 UNL     1      -6.512  -0.339   0.462  1.00  0.00    -0.051 C 
HETATM   25  C19 UNL     1      -7.050   0.948  -0.178  1.00  0.00     0.014 C 
HETATM   26  C20 UNL     1      -5.260  -0.097   1.201  1.00  0.00     0.014 C 
HETATM   27  C21 UNL     1      -7.599  -0.669   1.535  1.00  0.00     0.014 C 
ENDBRANCH  23  24
ENDBRANCH  22  23
ENDBRANCH  17  22
ENDBRANCH  13  15
ENDBRANCH  10  11
BRANCH   7  28
HETATM   28  C6  UNL     1       3.978  -0.282   0.630  1.00  0.00     0.251 C 
HETATM   29  O1  UNL     1       4.812  -0.294   1.560  1.00  0.00    -0.268 OA
HETATM   30  N2  UNL     1       4.375  -0.943  -0.561  1.00  0.00    -0.355 N 
ATOM     31  H2  UNL     1       3.703  -0.953  -1.328  1.00  0.00     0.162 HD
BRANCH  30  32
HETATM   32  C7  UNL     1       5.624  -1.596  -0.789  1.00  0.00     0.149 C 
BRANCH  32  33
HETATM   33  C8  UNL     1       6.864  -0.795  -0.774  1.00  0.00     0.189 C 
BRANCH  33  34
HETATM   34  O2  UNL     1       7.213  -0.121   0.349  1.00  0.00    -0.374 OA
BRANCH  34  35
HETATM   35  C9  UNL     1       8.408   0.565   0.161  1.00  0.00     0.188 C 
HETATM   36  C10 UNL     1       9.494   0.047   1.091  1.00  0.00     0.052 C 
HETATM   37 BR1  UNL     1       8.138   2.471   0.434  1.00  0.00    -0.062 Br
ENDBRANCH  34  35
ENDBRANCH  33  34
ENDBRANCH  32  33
ENDBRANCH  30  32
ENDBRANCH   7  28
TORSDOF 10
