REMARK  9 active torsions:
REMARK  status: ('A' for Active; 'I' for Inactive)
REMARK    1  A    between atoms: N1_7  and  C7_8 
REMARK       I    between atoms: N2_11  and  C10_12 
REMARK       I    between atoms: C10_12  and  N3_14 
REMARK    2  A    between atoms: N3_14  and  C11_16 
REMARK    3  A    between atoms: C11_16  and  C12_17 
REMARK    4  A    between atoms: C12_17  and  C13_18 
REMARK    5  A    between atoms: N4_22  and  C17_23 
REMARK    6  A    between atoms: C17_23  and  C19_25 
REMARK    7  A    between atoms: C19_25  and  O2_26 
REMARK    8  A    between atoms: C21_31  and  C22_32 
REMARK    9  A    between atoms: C22_32  and  C23_33 
ROOT
HETATM    1  C11 UNL     1      -2.130   0.599   1.231  1.00  0.00     0.125 C 
ENDROOT
BRANCH   1   2
HETATM    2  N3  UNL     1      -0.824   0.131   0.810  1.00  0.00    -0.343 N 
HETATM    3  C10 UNL     1       0.319   0.960   1.046  1.00  0.00     0.318 C 
HETATM    4  N2  UNL     1       1.618   0.591   0.677  1.00  0.00    -0.334 N 
HETATM    5  O1  UNL     1       0.144   2.074   1.612  1.00  0.00    -0.247 OA
HETATM    6  C9  UNL     1       1.870  -0.665   0.028  1.00  0.00     0.129 C 
HETATM    7  C24 UNL     1       2.736   1.459   0.944  1.00  0.00     0.129 C 
HETATM    8  C8  UNL     1       3.261  -0.798  -0.493  1.00  0.00     0.056 C 
HETATM    9  C7  UNL     1       4.348  -0.335   0.413  1.00  0.00     0.226 C 
HETATM   10  C25 UNL     1       3.833   0.544   1.499  1.00  0.00     0.056 C 
ATOM     11  H3  UNL     1      -0.721  -0.775   0.353  1.00  0.00     0.164 HD
BRANCH   9  12
HETATM   12  N1  UNL     1       5.368   0.322  -0.382  1.00  0.00     0.093 N 
HETATM   13  C6  UNL     1       6.397   0.922   0.431  1.00  0.00     0.277 C 
HETATM   14  C4  UNL     1       7.521   1.347  -0.509  1.00  0.00     0.010 C 
HETATM   15  C3  UNL     1       8.238   0.072  -0.903  1.00  0.00     0.012 C 
HETATM   16  C5  UNL     1       8.485   2.276   0.164  1.00  0.00     0.011 C 
HETATM   17  C2  UNL     1       7.258  -1.014  -1.266  1.00  0.00     0.010 C 
HETATM   18  C1  UNL     1       7.414  -2.183  -0.329  1.00  0.00     0.011 C 
HETATM   19  C26 UNL     1       5.853  -0.534  -1.420  1.00  0.00     0.277 C 
ENDBRANCH   9  12
ENDBRANCH   1   2
BRANCH   1  20
HETATM   20  C12 UNL     1      -3.219  -0.370   0.923  1.00  0.00     0.027 C 
BRANCH  20  21
HETATM   21  C13 UNL     1      -3.464  -0.675  -0.531  1.00  0.00     0.022 C 
HETATM   22  C14 UNL     1      -4.561  -1.703  -0.574  1.00  0.00     0.006 C 
HETATM   23  C15 UNL     1      -4.124  -2.817  -1.546  1.00  0.00     0.012 C 
HETATM   24  C16 UNL     1      -5.913  -1.306  -0.966  1.00  0.00     0.133 C 
HETATM   25  N4  UNL     1      -6.436  -0.257  -0.074  1.00  0.00    -0.321 N 
HETATM   26  C20 UNL     1      -5.887   1.070  -0.117  1.00  0.00     0.363 C 
HETATM   27  O3  UNL     1      -6.644   1.957   0.299  1.00  0.00    -0.238 OA
HETATM   28  O4  UNL     1      -4.603   1.458  -0.576  1.00  0.00    -0.298 OA
HETATM   29  C21 UNL     1      -3.796   0.545  -1.335  1.00  0.00     0.140 C 
BRANCH  25  30
HETATM   30  C17 UNL     1      -7.502  -0.569   0.830  1.00  0.00     0.109 C 
HETATM   31  C18 UNL     1      -8.758   0.204   0.608  1.00  0.00     0.034 C 
BRANCH  30  32
HETATM   32  C19 UNL     1      -7.133  -0.585   2.287  1.00  0.00     0.189 C 
BRANCH  32  33
HETATM   33  O2  UNL     1      -6.660   0.611   2.755  1.00  0.00    -0.399 OA
ATOM     34  H2  UNL     1      -6.427   0.601   3.676  1.00  0.00     0.209 HD
ENDBRANCH  32  33
ENDBRANCH  30  32
ENDBRANCH  25  30
BRANCH  29  35
HETATM   35  C22 UNL     1      -2.679   1.153  -2.066  1.00  0.00     0.069 C 
BRANCH  35  36
HETATM   36  C23 UNL     1      -3.227   2.372  -2.841  1.00  0.00     0.180 C 
HETATM   37 CL1  UNL     1      -4.482   1.774  -3.943  1.00  0.00    -0.108 Cl
HETATM   38 CL2  UNL     1      -3.942   3.575  -1.763  1.00  0.00    -0.108 Cl
ENDBRANCH  35  36
ENDBRANCH  29  35
ENDBRANCH  20  21
ENDBRANCH   1  20
TORSDOF 9
