REMARK  8 active torsions:
REMARK  status: ('A' for Active; 'I' for Inactive)
REMARK    1  A    between atoms: C2_2  and  C3_3 
REMARK    2  A    between atoms: C2_2  and  N1_6 
REMARK    3  A    between atoms: C3_3  and  O1_4 
REMARK    4  A    between atoms: C6_9  and  O2_10 
REMARK    5  A    between atoms: O2_10  and  C7_11 
REMARK    6  A    between atoms: C9_13  and  O3_14 
REMARK    7  A    between atoms: O3_14  and  C10_15 
REMARK    8  A    between atoms: C10_15  and  C11_16 
ROOT
HETATM    1  C11 UNL     1      -4.854  -0.307  -0.401  1.00  0.00     0.030 C 
HETATM    2  C12 UNL     1      -5.716   0.523   0.553  1.00  0.00     0.027 C 
HETATM    3  C13 UNL     1      -7.153   0.483   0.042  1.00  0.00     0.114 C 
HETATM    4  N2  UNL     1      -7.601  -0.829  -0.236  1.00  0.00    -0.420 N 
ATOM      5  H2  UNL     1      -8.549  -1.113   0.010  1.00  0.00     0.153 HD
HETATM    6  C14 UNL     1      -6.720  -1.743  -0.859  1.00  0.00     0.133 C 
HETATM    7  C15 UNL     1      -5.364  -1.718  -0.141  1.00  0.00     0.116 C 
HETATM    8  C16 UNL     1      -4.468  -2.743  -0.552  1.00  0.00     0.066 C 
HETATM    9  N3  UNL     1      -3.752  -3.591  -0.869  1.00  0.00    -0.197 NA
ENDROOT
BRANCH   1  10
HETATM   10  C10 UNL     1      -3.414  -0.082  -0.147  1.00  0.00     0.181 C 
BRANCH  10  11
HETATM   11  O3  UNL     1      -3.138   1.264  -0.280  1.00  0.00    -0.349 OA
BRANCH  11  12
HETATM   12  C9  UNL     1      -2.007   2.002  -0.225  1.00  0.00     0.088 A 
HETATM   13  C8  UNL     1      -0.727   1.518  -0.052  1.00  0.00     0.076 A 
HETATM   14  C7  UNL     1       0.375   2.348  -0.012  1.00  0.00     0.089 A 
HETATM   15  C19 UNL     1       0.181   3.730  -0.148  1.00  0.00     0.045 A 
HETATM   16  C18 UNL     1      -1.061   4.245  -0.321  1.00  0.00     0.044 A 
HETATM   17 BR2  UNL     1       1.705   4.894  -0.086  1.00  0.00    -0.048 Br
HETATM   18  C17 UNL     1      -2.136   3.386  -0.360  1.00  0.00     0.045 A 
HETATM   19 BR1  UNL     1      -3.878   4.108  -0.630  1.00  0.00    -0.048 Br
BRANCH  14  20
HETATM   20  O2  UNL     1       1.675   1.938   0.137  1.00  0.00    -0.344 OA
BRANCH  20  21
HETATM   21  C6  UNL     1       2.223   0.660   0.088  1.00  0.00     0.132 C 
HETATM   22  C5  UNL     1       3.235   0.596  -1.076  1.00  0.00     0.052 C 
HETATM   23  C4  UNL     1       4.657   0.388  -0.545  1.00  0.00     0.119 C 
HETATM   24  N1  UNL     1       4.694  -0.897   0.040  1.00  0.00    -0.406 N 
HETATM   25  C21 UNL     1       3.613  -1.166   0.939  1.00  0.00     0.119 C 
HETATM   26  C20 UNL     1       2.894   0.154   1.309  1.00  0.00     0.052 C 
BRANCH  24  27
HETATM   27  C2  UNL     1       5.894  -1.539   0.325  1.00  0.00     0.098 C 
HETATM   28  C1  UNL     1       5.895  -2.935  -0.311  1.00  0.00     0.034 C 
BRANCH  27  29
HETATM   29  C3  UNL     1       7.161  -0.857  -0.208  1.00  0.00     0.188 C 
BRANCH  29  30
HETATM   30  O1  UNL     1       7.203  -0.792  -1.585  1.00  0.00    -0.399 OA
ATOM     31  H1  UNL     1       7.987  -0.370  -1.915  1.00  0.00     0.209 HD
ENDBRANCH  29  30
ENDBRANCH  27  29
ENDBRANCH  24  27
ENDBRANCH  20  21
ENDBRANCH  14  20
ENDBRANCH  11  12
ENDBRANCH  10  11
ENDBRANCH   1  10
TORSDOF 8
