REMARK  5 active torsions:
REMARK  status: ('A' for Active; 'I' for Inactive)
REMARK    1  A    between atoms: N1_1  and  C1_5 
REMARK    2  A    between atoms: N2_9  and  C5_10 
REMARK    3  A    between atoms: C5_10  and  C6_11 
REMARK    4  A    between atoms: C6_11  and  N3_12 
REMARK    5  A    between atoms: C9_15  and  N4_16 
ROOT
HETATM    1  N3  UNL     1       0.224  -0.056  -0.419  1.00  0.00     0.090 N 
HETATM    2  C7  UNL     1      -0.067   0.854   0.637  1.00  0.00     0.274 C 
HETATM    3  C8  UNL     1      -1.454   0.643   1.220  1.00  0.00     0.056 C 
HETATM    4  C9  UNL     1      -2.321   0.130   0.114  1.00  0.00     0.095 C 
HETATM    5  C16 UNL     1      -1.926   0.674  -1.200  1.00  0.00     0.056 C 
HETATM    6  C17 UNL     1      -0.606   0.028  -1.579  1.00  0.00     0.274 C 
ENDROOT
BRANCH   1   7
HETATM    7  C6  UNL     1       1.631  -0.127  -0.757  1.00  0.00     0.302 C 
BRANCH   7   8
HETATM    8  C5  UNL     1       2.475  -0.752   0.283  1.00  0.00     0.302 C 
BRANCH   8   9
HETATM    9  N2  UNL     1       3.858  -0.786  -0.144  1.00  0.00     0.092 N 
HETATM   10  C4  UNL     1       4.664  -1.532   0.836  1.00  0.00     0.272 C 
HETATM   11  C3  UNL     1       5.938  -1.914   0.086  1.00  0.00     0.032 C 
HETATM   12  C2  UNL     1       6.690  -0.625  -0.150  1.00  0.00     0.036 C 
HETATM   13  C1  UNL     1       5.854   0.491  -0.668  1.00  0.00     0.211 C 
HETATM   14  C18 UNL     1       4.446   0.540  -0.156  1.00  0.00     0.305 C 
BRANCH  13  15
HETATM   15  N1  UNL     1       6.487   1.744  -0.222  1.00  0.00    -0.073 N 
ATOM     16  H13 UNL     1       6.629   1.784   0.787  1.00  0.00     0.274 HD
ATOM     17  H12 UNL     1       7.467   1.817  -0.494  1.00  0.00     0.274 HD
ATOM     18  H11 UNL     1       5.914   2.509  -0.577  1.00  0.00     0.274 HD
ENDBRANCH  13  15
ENDBRANCH   8   9
ENDBRANCH   7   8
ENDBRANCH   1   7
BRANCH   4  19
HETATM   19  N4  UNL     1      -3.765   0.209   0.403  1.00  0.00    -0.326 N 
HETATM   20  C10 UNL     1      -4.423  -1.029   0.637  1.00  0.00     0.068 C 
HETATM   21  C11 UNL     1      -5.620  -1.511  -0.081  1.00  0.00     0.056 C 
HETATM   22  C12 UNL     1      -6.876  -0.589   0.047  1.00  0.00     0.085 C 
HETATM   23  C13 UNL     1      -6.429   0.727   0.240  1.00  0.00    -0.174 C 
HETATM   24  C14 UNL     1      -5.708   1.934   0.441  1.00  0.00     0.183 C 
HETATM   25  C15 UNL     1      -4.200   1.590   0.395  1.00  0.00     0.234 C 
HETATM   26  O1  UNL     1      -3.431   2.529   0.351  1.00  0.00    -0.272 OA
ENDBRANCH   4  19
TORSDOF 5
