REMARK  4 active torsions:
REMARK  status: ('A' for Active; 'I' for Inactive)
REMARK    1  A    between atoms: C2_2  and  S1_4 
REMARK    2  A    between atoms: S1_4  and  C4_5 
REMARK    3  A    between atoms: N3_14  and  S2_15 
REMARK    4  A    between atoms: S2_15  and  N4_18 
ROOT
HETATM    1  C4  UNL     1      -2.642   0.074   0.853  1.00  0.00     0.145 A 
HETATM    2  N1  UNL     1      -2.005  -1.107   0.908  1.00  0.00    -0.338 N 
ATOM      3  H1  UNL     1      -2.368  -1.952   1.349  1.00  0.00     0.168 HD
HETATM    4  C5  UNL     1      -0.813  -1.002   0.291  1.00  0.00     0.038 A 
HETATM    5  C6  UNL     1      -0.722   0.285  -0.152  1.00  0.00     0.035 A 
HETATM    6  N2  UNL     1      -1.837   0.927   0.195  1.00  0.00    -0.339 N 
ATOM      7  H2  UNL     1      -2.046   1.905  -0.006  1.00  0.00     0.168 HD
HETATM    8  C7  UNL     1       0.419   0.884  -0.897  1.00  0.00     0.080 C 
HETATM    9  C8  UNL     1       1.695   0.832  -0.092  1.00  0.00     0.147 C 
HETATM   10  N3  UNL     1       1.992  -0.453   0.422  1.00  0.00    -0.277 N 
HETATM   11  C11 UNL     1       1.489  -1.561  -0.285  1.00  0.00     0.083 C 
HETATM   12  C12 UNL     1       0.179  -2.103   0.147  1.00  0.00     0.104 C 
ENDROOT
BRANCH  10  13
HETATM   13  S2  UNL     1       3.536  -0.629   1.090  1.00  0.00     0.303 S 
HETATM   14  O1  UNL     1       3.740  -1.985   1.697  1.00  0.00    -0.188 OA
HETATM   15  O2  UNL     1       3.795   0.400   2.180  1.00  0.00    -0.188 OA
BRANCH  13  16
HETATM   16  N4  UNL     1       4.715  -0.339  -0.137  1.00  0.00    -0.201 NA
HETATM   17  C9  UNL     1       5.120   1.028  -0.229  1.00  0.00     0.130 C 
HETATM   18  C10 UNL     1       5.850  -1.218  -0.036  1.00  0.00     0.130 C 
ENDBRANCH  13  16
ENDBRANCH  10  13
BRANCH   1  19
HETATM   19  S1  UNL     1      -4.234   0.520   1.494  1.00  0.00    -0.090 SA
BRANCH  19  20
HETATM   20  C2  UNL     1      -5.557   0.242   0.293  1.00  0.00     0.047 C 
HETATM   21  C1  UNL     1      -6.864   0.652   0.939  1.00  0.00     0.021 C 
HETATM   22  C3  UNL     1      -5.373   1.117  -0.935  1.00  0.00     0.021 C 
ENDBRANCH  19  20
ENDBRANCH   1  19
TORSDOF 4
