REMARK  4 active torsions:
REMARK  status: ('A' for Active; 'I' for Inactive)
REMARK    1  A    between atoms: C4_6  and  C5_7 
REMARK    2  A    between atoms: N2_15  and  C11_16 
REMARK    3  A    between atoms: C11_16  and  C12_17 
REMARK    4  A    between atoms: C12_17  and  N3_18 
ROOT
HETATM    1  C1  UNL     1      -1.363  -2.728   1.279  1.00  0.00     0.034 C 
HETATM    2  C2  UNL     1      -0.168  -1.816   1.080  1.00  0.00     0.101 C 
HETATM    3  C3  UNL     1       0.961  -2.623   0.500  1.00  0.00     0.144 C 
HETATM    4  N1  UNL     1       2.086  -1.791   0.244  1.00  0.00    -0.386 N 
ATOM      5  H1  UNL     1       3.014  -2.210   0.293  1.00  0.00     0.159 HD
HETATM    6  C4  UNL     1       2.001  -0.542  -0.045  1.00  0.00     0.078 C 
HETATM    7  C10 UNL     1       0.678   0.120  -0.096  1.00  0.00     0.266 C 
HETATM    8  O1  UNL     1       0.635   1.313  -0.380  1.00  0.00    -0.266 OA
HETATM    9  N2  UNL     1      -0.440  -0.710   0.195  1.00  0.00    -0.340 N 
ENDROOT
BRANCH   9  10
HETATM   10  C11 UNL     1      -1.738  -0.409  -0.385  1.00  0.00     0.146 C 
BRANCH  10  11
HETATM   11  C12 UNL     1      -2.505   0.526   0.533  1.00  0.00     0.147 C 
BRANCH  11  12
HETATM   12  N3  UNL     1      -3.797   0.859   0.016  1.00  0.00    -0.331 N 
HETATM   13  C13 UNL     1      -5.079   0.207   0.200  1.00  0.00     0.147 C 
HETATM   14  C14 UNL     1      -5.744   0.440  -1.154  1.00  0.00     0.144 C 
HETATM   15  N4  UNL     1      -5.368   1.837  -1.391  1.00  0.00    -0.341 N 
HETATM   16  C15 UNL     1      -4.069   1.971  -0.833  1.00  0.00     0.318 C 
ATOM     17  H4  UNL     1      -5.920   2.557  -1.856  1.00  0.00     0.164 HD
HETATM   18  O2  UNL     1      -3.299   2.958  -1.085  1.00  0.00    -0.247 OA
ENDBRANCH  11  12
ENDBRANCH  10  11
ENDBRANCH   9  10
BRANCH   6  19
HETATM   19  C5  UNL     1       3.235   0.201  -0.289  1.00  0.00     0.050 C 
HETATM   20  C6  UNL     1       3.472   1.328   0.677  1.00  0.00     0.012 C 
HETATM   21  C7  UNL     1       4.896   1.766   0.742  1.00  0.00     0.011 C 
HETATM   22  C8  UNL     1       5.545   1.865  -0.640  1.00  0.00     0.074 C 
HETATM   23  S1  UNL     1       5.747   0.126  -1.196  1.00  0.00    -0.168 SA
HETATM   24  C9  UNL     1       4.383  -0.775  -0.360  1.00  0.00     0.084 C 
ENDBRANCH   6  19
TORSDOF 4
