REMARK  5 active torsions:
REMARK  status: ('A' for Active; 'I' for Inactive)
REMARK    1  A    between atoms: C4_4  and  N1_5 
REMARK    2  A    between atoms: N1_5  and  C5_7 
REMARK    3  A    between atoms: C5_7  and  C6_8 
REMARK    4  A    between atoms: C6_8  and  C7_9 
REMARK    5  A    between atoms: C7_9  and  N2_10 
ROOT
HETATM    1  C1  UNL     1      -2.342   3.954  -0.727  1.00  0.00     0.068 C 
HETATM    2  C2  UNL     1      -2.405   2.483  -0.406  1.00  0.00     0.007 A 
HETATM    3  C3  UNL     1      -1.449   1.864   0.372  1.00  0.00     0.054 A 
HETATM    4  C4  UNL     1      -1.515   0.494   0.668  1.00  0.00     0.038 A 
HETATM    5  C13 UNL     1      -2.569  -0.243   0.162  1.00  0.00    -0.006 A 
HETATM    6  C14 UNL     1      -3.503   0.408  -0.610  1.00  0.00     0.046 A 
HETATM    7  N4  UNL     1      -3.418   1.724  -0.880  1.00  0.00    -0.361 N 
ATOM      8  H4  UNL     1      -4.137   2.160  -1.457  1.00  0.00     0.165 HD
HETATM    9  C15 UNL     1      -4.611  -0.475  -1.099  1.00  0.00     0.329 C 
HETATM   10  N5  UNL     1      -5.107  -1.298  -0.039  1.00  0.00     0.090 N 
HETATM   11  C16 UNL     1      -6.135  -0.594   0.716  1.00  0.00     0.310 C 
HETATM   12  C17 UNL     1      -4.161  -1.921   0.809  1.00  0.00     0.277 C 
HETATM   13  C18 UNL     1      -2.730  -1.683   0.398  1.00  0.00     0.073 C 
ENDROOT
BRANCH   4  14
HETATM   14  N1  UNL     1      -0.647  -0.102   1.390  1.00  0.00    -0.389 N 
ATOM     15  H1  UNL     1      -0.814  -1.099   1.527  1.00  0.00     0.159 HD
BRANCH  14  16
HETATM   16  C5  UNL     1       0.506   0.401   2.028  1.00  0.00     0.121 C 
BRANCH  16  17
HETATM   17  C6  UNL     1       1.728   0.203   1.112  1.00  0.00     0.050 C 
BRANCH  17  18
HETATM   18  C7  UNL     1       1.832  -1.255   0.844  1.00  0.00     0.274 C 
BRANCH  18  19
HETATM   19  N2  UNL     1       2.915  -1.684   0.024  1.00  0.00     0.091 N 
HETATM   20  C8  UNL     1       4.155  -1.535   0.751  1.00  0.00     0.302 C 
HETATM   21  C9  UNL     1       5.360  -1.443  -0.146  1.00  0.00     0.302 C 
HETATM   22  N3  UNL     1       5.268  -0.372  -1.106  1.00  0.00     0.087 N 
HETATM   23  C10 UNL     1       6.044   0.779  -0.602  1.00  0.00     0.310 C 
HETATM   24  C11 UNL     1       3.916   0.134  -1.260  1.00  0.00     0.302 C 
HETATM   25  C12 UNL     1       2.972  -1.020  -1.268  1.00  0.00     0.302 C 
ENDBRANCH  18  19
ENDBRANCH  17  18
ENDBRANCH  16  17
ENDBRANCH  14  16
ENDBRANCH   4  14
TORSDOF 5
