REMARK  9 active torsions:
REMARK  status: ('A' for Active; 'I' for Inactive)
REMARK    1  A    between atoms: C4_4  and  C5_5 
REMARK    2  A    between atoms: C5_5  and  C6_6 
REMARK       I    between atoms: C6_6  and  N1_8 
REMARK    3  A    between atoms: N1_8  and  C7_10 
REMARK    4  A    between atoms: C7_10  and  N2_12 
REMARK    5  A    between atoms: N2_12  and  C8_14 
REMARK    6  A    between atoms: C8_14  and  C9_15 
REMARK    7  A    between atoms: C9_15  and  C10_16 
REMARK    8  A    between atoms: C10_16  and  C11_17 
REMARK    9  A    between atoms: C11_17  and  N3_18 
ROOT
HETATM    1  C6  UNL     1      -0.265   0.573  -0.207  1.00  0.00     0.224 C 
HETATM    2  O1  UNL     1      -0.507  -0.633  -0.279  1.00  0.00    -0.273 OA
HETATM    3  N1  UNL     1       0.860   1.177  -0.756  1.00  0.00    -0.304 N 
ATOM      4  H1  UNL     1       0.931   2.186  -0.625  1.00  0.00     0.171 HD
ENDROOT
BRANCH   1   5
HETATM    5  C5  UNL     1      -1.245   1.442   0.515  1.00  0.00     0.112 C 
BRANCH   5   6
HETATM    6  C4  UNL     1      -2.494   0.744   0.992  1.00  0.00    -0.029 C 
HETATM    7  C3  UNL     1      -3.155   0.168  -0.234  1.00  0.00     0.041 C 
HETATM    8  C2  UNL     1      -4.637   0.287  -0.297  1.00  0.00     0.118 C 
HETATM    9  C1  UNL     1      -5.006   0.091  -1.785  1.00  0.00     0.039 C 
HETATM   10  O2  UNL     1      -5.240  -0.734   0.363  1.00  0.00    -0.381 OA
HETATM   11  C19 UNL     1      -5.361  -0.617   1.728  1.00  0.00     0.122 C 
HETATM   12  C18 UNL     1      -5.545   0.782   2.233  1.00  0.00     0.036 C 
HETATM   13  C20 UNL     1      -4.302  -1.388   2.435  1.00  0.00     0.036 C 
HETATM   14  C17 UNL     1      -4.303   1.479   2.617  1.00  0.00    -0.011 C 
HETATM   15  C16 UNL     1      -3.591   0.671   3.681  1.00  0.00     0.009 C 
HETATM   16  C21 UNL     1      -3.337   1.872   1.590  1.00  0.00     0.014 C 
HETATM   17  C15 UNL     1      -3.181  -0.596   3.027  1.00  0.00    -0.011 C 
HETATM   18  C14 UNL     1      -2.128  -0.301   1.971  1.00  0.00     0.014 C 
ENDBRANCH   5   6
ENDBRANCH   1   5
BRANCH   3  19
HETATM   19  C7  UNL     1       1.923   0.569  -1.476  1.00  0.00     0.174 C 
HETATM   20  S1  UNL     1       3.109   1.626  -1.983  1.00  0.00    -0.041 SA
BRANCH  19  21
HETATM   21  N2  UNL     1       1.964  -0.749  -1.861  1.00  0.00    -0.367 N 
ATOM     22  H2  UNL     1       1.111  -1.254  -1.620  1.00  0.00     0.161 HD
BRANCH  21  23
HETATM   23  C8  UNL     1       2.912  -1.566  -2.513  1.00  0.00     0.122 C 
BRANCH  23  24
HETATM   24  C9  UNL     1       3.983  -2.121  -1.674  1.00  0.00     0.021 C 
BRANCH  24  25
HETATM   25  C10 UNL     1       5.028  -1.270  -1.129  1.00  0.00     0.032 C 
BRANCH  25  26
HETATM   26  C11 UNL     1       5.915  -0.739  -2.265  1.00  0.00     0.271 C 
BRANCH  26  27
HETATM   27  N3  UNL     1       6.935   0.122  -1.783  1.00  0.00     0.080 N 
HETATM   28  C12 UNL     1       7.977  -0.451  -1.016  1.00  0.00     0.309 C 
HETATM   29  C13 UNL     1       7.381   1.034  -2.781  1.00  0.00     0.309 C 
ENDBRANCH  26  27
ENDBRANCH  25  26
ENDBRANCH  24  25
ENDBRANCH  23  24
ENDBRANCH  21  23
ENDBRANCH  19  21
ENDBRANCH   3  19
TORSDOF 9
