REMARK  9 active torsions:
REMARK  status: ('A' for Active; 'I' for Inactive)
REMARK    1  A    between atoms: C4_4  and  C5_5 
REMARK    2  A    between atoms: C5_5  and  C6_6 
REMARK    3  A    between atoms: C6_6  and  C7_7 
REMARK    4  A    between atoms: C7_7  and  O1_8 
REMARK    5  A    between atoms: O1_8  and  C8_9 
REMARK    6  A    between atoms: C8_9  and  C9_10 
REMARK    7  A    between atoms: C9_10  and  N1_11 
REMARK    8  A    between atoms: C10_15  and  N2_16 
REMARK    9  A    between atoms: N2_16  and  N3_18 
ROOT
HETATM    1  C1  UNL     1       0.523  -1.279   3.453  1.00  0.00     0.036 C 
HETATM    2  C2  UNL     1      -0.239  -0.171   2.840  1.00  0.00    -0.027 C 
HETATM    3  C3  UNL     1      -0.101   0.423   1.707  1.00  0.00    -0.073 C 
HETATM    4  C4  UNL     1       0.890   0.168   0.640  1.00  0.00     0.039 C 
HETATM    5  C10 UNL     1       0.041  -0.565  -0.450  1.00  0.00     0.119 C 
HETATM    6  C14 UNL     1      -0.774   0.566  -1.026  1.00  0.00     0.015 C 
HETATM    7  C15 UNL     1      -1.634   0.198  -2.210  1.00  0.00     0.007 C 
HETATM    8  C16 UNL     1      -2.336   1.529  -2.586  1.00  0.00     0.005 C 
HETATM    9  C17 UNL     1      -3.454   1.650  -1.566  1.00  0.00    -0.014 C 
HETATM   10  C18 UNL     1      -4.212   2.918  -1.896  1.00  0.00     0.010 C 
HETATM   11  C19 UNL     1      -2.926   1.614  -0.155  1.00  0.00    -0.006 C 
HETATM   12  C20 UNL     1      -3.607   0.673   0.765  1.00  0.00     0.005 C 
HETATM   13  C21 UNL     1      -3.296   1.135   2.194  1.00  0.00     0.001 C 
HETATM   14  C22 UNL     1      -2.053   1.937   2.260  1.00  0.00     0.009 C 
HETATM   15  C23 UNL     1      -0.985   1.595   1.299  1.00  0.00     0.019 C 
HETATM   16  C24 UNL     1      -1.397   1.548  -0.129  1.00  0.00     0.004 C 
ENDROOT
BRANCH   4  17
HETATM   17  C5  UNL     1       2.124  -0.524   0.978  1.00  0.00     0.013 C 
BRANCH  17  18
HETATM   18  C6  UNL     1       3.086  -0.690  -0.195  1.00  0.00     0.027 C 
BRANCH  18  19
HETATM   19  C7  UNL     1       3.501   0.623  -0.799  1.00  0.00     0.167 C 
BRANCH  19  20
HETATM   20  O1  UNL     1       4.128   1.488   0.070  1.00  0.00    -0.389 OA
BRANCH  20  21
HETATM   21  C8  UNL     1       5.293   1.022   0.650  1.00  0.00     0.194 C 
BRANCH  21  22
HETATM   22  C9  UNL     1       6.345   0.673  -0.381  1.00  0.00     0.255 C 
BRANCH  22  23
HETATM   23  N1  UNL     1       6.695   1.827  -1.181  1.00  0.00    -0.077 N 
ATOM     24  H13 UNL     1       5.872   2.248  -1.612  1.00  0.00     0.274 HD
ATOM     25  H12 UNL     1       6.986   2.613  -0.599  1.00  0.00     0.274 HD
ATOM     26  H11 UNL     1       7.404   1.592  -1.876  1.00  0.00     0.274 HD
ENDBRANCH  22  23
ENDBRANCH  21  22
ENDBRANCH  20  21
ENDBRANCH  19  20
ENDBRANCH  18  19
ENDBRANCH  17  18
ENDBRANCH   4  17
BRANCH   5  27
HETATM   27  N2  UNL     1      -0.578  -1.688   0.050  1.00  0.00    -0.248 N 
ATOM     28  H2  UNL     1      -0.797  -1.666   1.046  1.00  0.00     0.187 HD
BRANCH  27  29
HETATM   29  N3  UNL     1      -0.932  -2.807  -0.597  1.00  0.00    -0.003 N 
HETATM   30  C11 UNL     1      -2.365  -3.115  -0.400  1.00  0.00     0.300 C 
HETATM   31  C12 UNL     1      -0.298  -3.983   0.092  1.00  0.00     0.300 C 
HETATM   32  C13 UNL     1      -0.656  -2.997  -1.968  1.00  0.00     0.300 C 
ENDBRANCH  27  29
ENDBRANCH   5  27
TORSDOF 9
