REMARK  8 active torsions:
REMARK  status: ('A' for Active; 'I' for Inactive)
REMARK    1  A    between atoms: C1_2  and  C2_3 
REMARK    2  A    between atoms: C1_2  and  C10_14 
REMARK    3  A    between atoms: C2_3  and  C3_4 
REMARK    4  A    between atoms: C3_4  and  N1_5 
REMARK       I    between atoms: N1_5  and  C4_7 
REMARK    5  A    between atoms: C4_7  and  C5_9 
REMARK    6  A    between atoms: C10_14  and  N2_15 
REMARK       I    between atoms: N2_15  and  C11_16 
REMARK    7  A    between atoms: N2_15  and  C18_26 
REMARK       I    between atoms: C11_16  and  N3_18 
REMARK    8  A    between atoms: N3_18  and  C12_20 
ROOT
HETATM    1  N2  UNL     1      -1.321  -1.081   1.975  1.00  0.00    -0.302 N 
HETATM    2  C11 UNL     1      -2.132  -0.146   1.331  1.00  0.00     0.323 C 
HETATM    3  O3  UNL     1      -2.098   1.067   1.735  1.00  0.00    -0.247 OA
HETATM    4  N3  UNL     1      -2.979  -0.503   0.253  1.00  0.00    -0.338 N 
ATOM      5  H3  UNL     1      -3.006  -1.470  -0.072  1.00  0.00     0.164 HD
ENDROOT
BRANCH   1   6
HETATM    6  C10 UNL     1      -0.476  -0.619   3.041  1.00  0.00     0.146 C 
BRANCH   6   7
HETATM    7  C1  UNL     1       0.825  -0.080   2.711  1.00  0.00     0.166 C 
HETATM    8  O1  UNL     1       1.618   0.060   3.658  1.00  0.00    -0.292 OA
BRANCH   7   9
HETATM    9  C2  UNL     1       1.308   0.324   1.387  1.00  0.00     0.104 C 
BRANCH   9  10
HETATM   10  C3  UNL     1       2.714   0.937   1.465  1.00  0.00     0.130 C 
BRANCH  10  11
HETATM   11  N1  UNL     1       3.130   1.318   0.119  1.00  0.00    -0.360 N 
HETATM   12  C4  UNL     1       4.383   1.917  -0.095  1.00  0.00     0.221 C 
HETATM   13  O2  UNL     1       5.155   2.127   0.900  1.00  0.00    -0.273 OA
ATOM     14  H1  UNL     1       2.508   1.148  -0.671  1.00  0.00     0.162 HD
BRANCH  12  15
HETATM   15  C5  UNL     1       4.805   2.302  -1.466  1.00  0.00     0.078 C 
HETATM   16  C6  UNL     1       4.918   1.118  -2.386  1.00  0.00     0.014 C 
HETATM   17  C7  UNL     1       5.917   1.581  -3.416  1.00  0.00     0.001 C 
HETATM   18  C8  UNL     1       6.966   2.269  -2.534  1.00  0.00     0.001 C 
HETATM   19  C9  UNL     1       6.114   3.016  -1.513  1.00  0.00     0.014 C 
ENDBRANCH  12  15
ENDBRANCH  10  11
ENDBRANCH   9  10
ENDBRANCH   7   9
ENDBRANCH   6   7
ENDBRANCH   1   6
BRANCH   1  20
HETATM   20  C18 UNL     1      -1.375  -2.455   1.622  1.00  0.00     0.094 C 
HETATM   21  C19 UNL     1      -1.809  -3.345   2.790  1.00  0.00     0.026 C 
HETATM   22  C20 UNL     1      -1.646  -4.721   2.120  1.00  0.00     0.002 C 
HETATM   23  C21 UNL     1      -0.494  -4.581   1.179  1.00  0.00     0.002 C 
HETATM   24  C22 UNL     1      -0.063  -3.117   1.288  1.00  0.00     0.026 C 
ENDBRANCH   1  20
BRANCH   4  25
HETATM   25  C12 UNL     1      -3.822   0.515  -0.403  1.00  0.00     0.086 C 
HETATM   26  C13 UNL     1      -5.267   0.078  -0.327  1.00  0.00     0.025 C 
HETATM   27  C14 UNL     1      -6.117   1.332  -0.558  1.00  0.00     0.002 C 
HETATM   28  C15 UNL     1      -5.432   2.154  -1.607  1.00  0.00     0.000 C 
HETATM   29  C16 UNL     1      -4.590   1.343  -2.552  1.00  0.00     0.002 C 
HETATM   30  C17 UNL     1      -3.460   0.635  -1.866  1.00  0.00     0.025 C 
ENDBRANCH   4  25
TORSDOF 8
