REMARK  9 active torsions:
REMARK  status: ('A' for Active; 'I' for Inactive)
REMARK    1  A    between atoms: C2_2  and  C3_3 
REMARK    2  A    between atoms: C3_3  and  C5_5 
REMARK    3  A    between atoms: C5_5  and  N1_6 
REMARK       I    between atoms: N1_6  and  C6_8 
REMARK    4  A    between atoms: C6_8  and  C7_10 
REMARK    5  A    between atoms: C7_10  and  N2_11 
REMARK    6  A    between atoms: C7_10  and  C21_28 
REMARK       I    between atoms: N2_11  and  C8_13 
REMARK    7  A    between atoms: C8_13  and  C9_15 
REMARK    8  A    between atoms: N3_20  and  C14_21 
REMARK    9  A    between atoms: C14_21  and  C15_22 
ROOT
HETATM    1  N2  UNL     1      -0.582   0.969  -0.900  1.00  0.00    -0.345 N 
ATOM      2  H2  UNL     1      -0.728   0.878  -1.905  1.00  0.00     0.163 HD
HETATM    3  C8  UNL     1       0.694   0.666  -0.354  1.00  0.00     0.257 C 
HETATM    4  O2  UNL     1       0.832   0.790   0.888  1.00  0.00    -0.271 OA
ENDROOT
BRANCH   1   5
HETATM    5  C7  UNL     1      -1.706   1.414  -0.044  1.00  0.00     0.180 C 
BRANCH   5   6
HETATM    6  C6  UNL     1      -2.819   0.470  -0.120  1.00  0.00     0.240 C 
HETATM    7  N1  UNL     1      -4.002   0.612   0.661  1.00  0.00    -0.359 N 
ATOM      8  H1  UNL     1      -4.100   1.397   1.305  1.00  0.00     0.162 HD
HETATM    9  O1  UNL     1      -2.707  -0.516  -0.920  1.00  0.00    -0.271 OA
BRANCH   7  10
HETATM   10  C5  UNL     1      -5.054  -0.353   0.538  1.00  0.00     0.126 C 
BRANCH  10  11
HETATM   11  C3  UNL     1      -6.201   0.006   1.460  1.00  0.00    -0.001 C 
HETATM   12  C4  UNL     1      -6.730   1.368   1.148  1.00  0.00     0.011 C 
BRANCH  11  13
HETATM   13  C2  UNL     1      -7.310  -1.022   1.322  1.00  0.00     0.001 C 
HETATM   14  C1  UNL     1      -6.782  -2.411   1.638  1.00  0.00     0.005 C 
ENDBRANCH  11  13
ENDBRANCH  10  11
ENDBRANCH   7  10
ENDBRANCH   5   6
BRANCH   5  15
HETATM   15  C21 UNL     1      -1.988   2.811  -0.477  1.00  0.00     0.018 A 
HETATM   16  C22 UNL     1      -2.437   2.978  -1.913  1.00  0.00     0.007 A 
HETATM   17  C23 UNL     1      -3.337   3.314  -0.717  1.00  0.00     0.007 A 
ENDBRANCH   5  15
ENDBRANCH   1   5
BRANCH   3  18
HETATM   18  C9  UNL     1       1.752   0.235  -1.270  1.00  0.00     0.235 C 
HETATM   19  C10 UNL     1       1.331  -0.745  -2.309  1.00  0.00     0.060 C 
HETATM   20  C11 UNL     1       2.197   1.505  -2.018  1.00  0.00     0.053 C 
HETATM   21  C12 UNL     1       3.516   1.007  -2.565  1.00  0.00     0.033 C 
HETATM   22  C13 UNL     1       3.925  -0.160  -1.678  1.00  0.00     0.274 C 
HETATM   23  N3  UNL     1       2.996  -0.098  -0.592  1.00  0.00     0.107 N 
BRANCH  23  24
HETATM   24  C14 UNL     1       2.907  -1.295   0.155  1.00  0.00     0.278 C 
BRANCH  24  25
HETATM   25  C15 UNL     1       4.122  -1.602   0.968  1.00  0.00     0.014 C 
HETATM   26  C16 UNL     1       4.489  -0.509   1.960  1.00  0.00     0.006 C 
HETATM   27  C17 UNL     1       5.576  -1.081   2.848  1.00  0.00     0.000 C 
HETATM   28  C18 UNL     1       6.811  -1.183   2.008  1.00  0.00     0.000 C 
HETATM   29  C19 UNL     1       6.625  -1.699   0.632  1.00  0.00     0.000 C 
HETATM   30  C20 UNL     1       5.262  -2.276   0.325  1.00  0.00     0.006 C 
ENDBRANCH  24  25
ENDBRANCH  23  24
ENDBRANCH   3  18
TORSDOF 9
