REMARK  13 active torsions:
REMARK  status: ('A' for Active; 'I' for Inactive)
REMARK    1  A    between atoms: C2_2  and  N1_3 
REMARK       I    between atoms: N1_3  and  C3_5 
REMARK    2  A    between atoms: C3_5  and  C4_7 
REMARK    3  A    between atoms: C4_7  and  C5_8 
REMARK    4  A    between atoms: C10_13  and  O2_14 
REMARK    5  A    between atoms: O2_14  and  C11_15 
REMARK    6  A    between atoms: C12_17  and  C13_18 
REMARK    7  A    between atoms: C13_18  and  O4_19 
REMARK    8  A    between atoms: O4_19  and  C14_20 
REMARK    9  A    between atoms: C15_22  and  N2_23 
REMARK   10  A    between atoms: C17_28  and  N3_29 
REMARK   11  A    between atoms: C18_33  and  O6_34 
REMARK   12  A    between atoms: C20_37  and  O7_38 
REMARK   13  A    between atoms: C21_40  and  O8_41 
ROOT
HETATM    1  C11 UNL     1       0.206  -0.870  -0.492  1.00  0.00     0.291 C 
HETATM    2  O3  UNL     1      -0.783  -0.230  -1.183  1.00  0.00    -0.351 OA
HETATM    3  C12 UNL     1      -1.107   1.019  -0.743  1.00  0.00     0.151 C 
HETATM    4  C19 UNL     1      -0.757   1.355   0.661  1.00  0.00     0.068 C 
HETATM    5  C20 UNL     1      -0.873   0.145   1.527  1.00  0.00     0.154 C 
HETATM    6  C21 UNL     1      -0.233  -1.062   0.916  1.00  0.00     0.202 C 
ENDROOT
BRANCH   3   7
HETATM    7  C13 UNL     1      -2.584   1.348  -0.959  1.00  0.00     0.203 C 
BRANCH   7   8
HETATM    8  O4  UNL     1      -3.361   0.446  -0.284  1.00  0.00    -0.356 OA
BRANCH   8   9
HETATM    9  C14 UNL     1      -4.709   0.634  -0.399  1.00  0.00     0.293 C 
HETATM   10  O5  UNL     1      -5.387  -0.462  -0.924  1.00  0.00    -0.326 OA
HETATM   11  C15 UNL     1      -6.691  -0.114  -1.162  1.00  0.00     0.323 C 
HETATM   12  C16 UNL     1      -7.456   0.244   0.090  1.00  0.00     0.096 C 
HETATM   13  C17 UNL     1      -6.700   1.178   0.985  1.00  0.00     0.221 C 
HETATM   14  C18 UNL     1      -5.251   0.826   1.024  1.00  0.00     0.203 C 
BRANCH  11  15
HETATM   15  N2  UNL     1      -6.820   0.945  -2.161  1.00  0.00    -0.053 N 
ATOM     16  H23 UNL     1      -6.265   1.761  -1.903  1.00  0.00     0.277 HD
ATOM     17  H22 UNL     1      -6.346   0.690  -3.027  1.00  0.00     0.277 HD
ATOM     18  H21 UNL     1      -7.791   1.204  -2.338  1.00  0.00     0.277 HD
ENDBRANCH  11  15
BRANCH  13  19
HETATM   19  N3  UNL     1      -6.917   2.576   0.673  1.00  0.00    -0.072 N 
ATOM     20  H33 UNL     1      -6.707   2.765  -0.307  1.00  0.00     0.274 HD
ATOM     21  H32 UNL     1      -7.913   2.797   0.678  1.00  0.00     0.274 HD
ATOM     22  H31 UNL     1      -6.402   3.212   1.282  1.00  0.00     0.274 HD
ENDBRANCH  13  19
BRANCH  14  23
HETATM   23  O6  UNL     1      -4.500   1.764   1.720  1.00  0.00    -0.389 OA
ATOM     24  H6  UNL     1      -4.835   1.883   2.601  1.00  0.00     0.210 HD
ENDBRANCH  14  23
ENDBRANCH   8   9
ENDBRANCH   7   8
ENDBRANCH   3   7
BRANCH   1  25
HETATM   25  O2  UNL     1       1.440  -0.270  -0.638  1.00  0.00    -0.353 OA
BRANCH  25  26
HETATM   26  C10 UNL     1       2.361  -1.074  -1.264  1.00  0.00     0.129 C 
HETATM   27  C5  UNL     1       3.499  -1.406  -0.301  1.00  0.00     0.023 C 
HETATM   28  C6  UNL     1       4.275  -2.525  -0.886  1.00  0.00     0.007 C 
HETATM   29  C7  UNL     1       4.703  -2.310  -2.315  1.00  0.00     0.001 C 
HETATM   30  C8  UNL     1       3.695  -1.668  -3.191  1.00  0.00     0.002 C 
HETATM   31  C9  UNL     1       2.966  -0.511  -2.495  1.00  0.00     0.032 C 
BRANCH  27  32
HETATM   32  C4  UNL     1       4.264  -0.207   0.118  1.00  0.00     0.110 C 
BRANCH  32  33
HETATM   33  C3  UNL     1       5.233  -0.538   1.179  1.00  0.00     0.217 C 
HETATM   34  N1  UNL     1       6.187   0.405   1.661  1.00  0.00    -0.361 N 
ATOM     35  H1  UNL     1       6.198   1.341   1.256  1.00  0.00     0.162 HD
HETATM   36  O1  UNL     1       5.259  -1.667   1.704  1.00  0.00    -0.274 OA
BRANCH  34  37
HETATM   37  C2  UNL     1       7.140   0.087   2.701  1.00  0.00     0.118 C 
HETATM   38  C1  UNL     1       8.022   1.278   3.006  1.00  0.00     0.026 C 
ENDBRANCH  34  37
ENDBRANCH  32  33
ENDBRANCH  27  32
ENDBRANCH  25  26
ENDBRANCH   1  25
BRANCH   5  39
HETATM   39  O7  UNL     1      -0.404   0.382   2.833  1.00  0.00    -0.393 OA
ATOM     40  H7  UNL     1      -0.478  -0.388   3.384  1.00  0.00     0.210 HD
ENDBRANCH   5  39
BRANCH   6  41
HETATM   41  O8  UNL     1      -1.163  -2.131   0.913  1.00  0.00    -0.388 OA
ATOM     42  H8  UNL     1      -1.443  -2.254   1.812  1.00  0.00     0.210 HD
ENDBRANCH   6  41
TORSDOF 13
