REMARK  11 active torsions:
REMARK  status: ('A' for Active; 'I' for Inactive)
REMARK    1  A    between atoms: C1_2  and  C2_4 
REMARK    2  A    between atoms: C2_4  and  N1_5 
REMARK    3  A    between atoms: N1_5  and  C3_7 
REMARK    4  A    between atoms: C6_11  and  O4_12 
REMARK    5  A    between atoms: C7_14  and  O5_15 
REMARK    6  A    between atoms: C8_17  and  O6_18 
REMARK    7  A    between atoms: O6_18  and  C9_19 
REMARK    8  A    between atoms: C12_22  and  O7_23 
REMARK    9  A    between atoms: O7_23  and  C13_24 
REMARK   10  A    between atoms: C19_31  and  O9_32 
REMARK   11  A    between atoms: C21_35  and  O10_36 
ROOT
HETATM    1  C9  UNL     1      -0.495  -0.672  -1.817  1.00  0.00     0.151 C 
HETATM    2  C10 UNL     1       0.754  -1.067  -1.092  1.00  0.00     0.047 C 
HETATM    3  C11 UNL     1       1.955  -0.240  -1.345  1.00  0.00     0.080 C 
HETATM    4  C12 UNL     1       2.180   0.772  -0.202  1.00  0.00     0.267 C 
HETATM    5  O8  UNL     1       2.242   2.025  -0.823  1.00  0.00    -0.358 OA
HETATM    6  C18 UNL     1       2.787   1.796  -2.086  1.00  0.00     0.209 C 
HETATM    7  C19 UNL     1       2.043   0.557  -2.583  1.00  0.00     0.090 C 
HETATM    8  C20 UNL     1       0.721   0.992  -3.084  1.00  0.00     0.075 C 
HETATM    9  C21 UNL     1      -0.184  -0.215  -3.220  1.00  0.00     0.150 C 
ENDROOT
BRANCH   1  10
HETATM   10  O6  UNL     1      -1.240   0.191  -1.068  1.00  0.00    -0.373 OA
BRANCH  10  11
HETATM   11  C8  UNL     1      -2.498  -0.191  -0.736  1.00  0.00     0.177 C 
HETATM   12  C3  UNL     1      -2.817   0.084   0.705  1.00  0.00     0.132 C 
HETATM   13  C4  UNL     1      -4.133  -0.617   1.038  1.00  0.00     0.195 C 
HETATM   14  O3  UNL     1      -4.466  -1.420  -0.046  1.00  0.00    -0.386 OA
HETATM   15  C5  UNL     1      -5.375  -0.809  -0.901  1.00  0.00     0.201 C 
HETATM   16  C6  UNL     1      -4.614  -0.222  -2.086  1.00  0.00     0.173 C 
HETATM   17  C7  UNL     1      -3.530   0.666  -1.515  1.00  0.00     0.180 C 
BRANCH  12  18
HETATM   18  N1  UNL     1      -1.764  -0.314   1.581  1.00  0.00    -0.403 N 
ATOM     19  H1  UNL     1      -0.925  -0.773   1.226  1.00  0.00     0.154 HD
BRANCH  18  20
HETATM   20  C2  UNL     1      -1.928  -0.047   2.966  1.00  0.00     0.228 C 
BRANCH  20  21
HETATM   21  C1  UNL     1      -1.845   1.373   3.266  1.00  0.00     0.190 C 
HETATM   22  O1  UNL     1      -1.609   2.255   2.434  1.00  0.00    -0.647 OA
HETATM   23  O2  UNL     1      -2.057   1.724   4.624  1.00  0.00    -0.647 OA
ENDBRANCH  20  21
ENDBRANCH  18  20
ENDBRANCH  12  18
BRANCH  16  24
HETATM   24  O4  UNL     1      -4.019  -1.310  -2.746  1.00  0.00    -0.391 OA
ATOM     25  H4  UNL     1      -3.545  -0.945  -3.484  1.00  0.00     0.210 HD
ENDBRANCH  16  24
BRANCH  17  26
HETATM   26  O5  UNL     1      -2.940   1.503  -2.423  1.00  0.00    -0.390 OA
ATOM     27  H5  UNL     1      -2.259   2.061  -2.065  1.00  0.00     0.210 HD
ENDBRANCH  17  26
ENDBRANCH  10  11
ENDBRANCH   1  10
BRANCH   9  28
HETATM   28  O10 UNL     1       0.591  -1.199  -3.884  1.00  0.00    -0.393 OA
ATOM     29  H10 UNL     1       0.787  -0.911  -4.768  1.00  0.00     0.210 HD
ENDBRANCH   9  28
BRANCH   4  30
HETATM   30  O7  UNL     1       3.329   0.415   0.417  1.00  0.00    -0.356 OA
BRANCH  30  31
HETATM   31  C13 UNL     1       3.342   0.072   1.718  1.00  0.00     0.124 C 
HETATM   32  C14 UNL     1       3.795  -1.353   1.978  1.00  0.00     0.032 C 
HETATM   33  C15 UNL     1       4.998  -1.271   2.884  1.00  0.00     0.002 C 
HETATM   34  C16 UNL     1       5.502   0.127   2.712  1.00  0.00     0.002 C 
HETATM   35  C17 UNL     1       4.203   0.922   2.614  1.00  0.00     0.032 C 
ENDBRANCH  30  31
ENDBRANCH   4  30
BRANCH   7  36
HETATM   36  O9  UNL     1       2.856  -0.008  -3.563  1.00  0.00    -0.387 OA
ATOM     37  H9  UNL     1       2.913   0.505  -4.360  1.00  0.00     0.210 HD
ENDBRANCH   7  36
TORSDOF 11
