REMARK  11 active torsions:
REMARK  status: ('A' for Active; 'I' for Inactive)
REMARK    1  A    between atoms: C4_4  and  N1_5 
REMARK    2  A    between atoms: C6_10  and  S1_11 
REMARK    3  A    between atoms: S1_11  and  C7_12 
REMARK    4  A    between atoms: C8_13  and  N2_14 
REMARK       I    between atoms: N2_14  and  C9_16 
REMARK       I    between atoms: C9_16  and  N5_21 
REMARK    5  A    between atoms: N5_21  and  C11_23 
REMARK    6  A    between atoms: C11_23  and  O1_24 
REMARK    7  A    between atoms: C13_27  and  C14_28 
REMARK    8  A    between atoms: C14_28  and  O2_29 
REMARK    9  A    between atoms: O2_29  and  S2_30 
REMARK   10  A    between atoms: S2_30  and  N6_31 
REMARK   11  A    between atoms: C15_36  and  O5_37 
ROOT
HETATM    1  N2  UNL     1       2.254   1.904   0.955  1.00  0.00    -0.220 N 
ATOM      2  H2  UNL     1       2.986   1.883   1.665  1.00  0.00     0.178 HD
HETATM    3  C9  UNL     1       1.649   3.152   0.670  1.00  0.00     0.684 C 
HETATM    4  N3  UNL     1       0.947   3.738   1.564  1.00  0.00    -0.126 N 
ATOM      5  H3  UNL     1       0.510   4.637   1.362  1.00  0.00     0.197 HD
HETATM    6  C10 UNL     1       0.781   3.150   2.807  1.00  0.00     0.196 C 
HETATM    7  N4  UNL     1       0.636   2.669   3.870  1.00  0.00    -0.171 NA
HETATM    8  N5  UNL     1       1.816   3.764  -0.597  1.00  0.00    -0.205 N 
ATOM      9  H5  UNL     1       1.011   4.208  -1.040  1.00  0.00     0.179 HD
ENDROOT
BRANCH   1  10
HETATM   10  C8  UNL     1       1.912   0.673   0.318  1.00  0.00     0.116 C 
HETATM   11  C7  UNL     1       0.460   0.259   0.551  1.00  0.00     0.102 C 
HETATM   12  C15 UNL     1       0.568  -1.213   0.208  1.00  0.00     0.140 C 
HETATM   13  C13 UNL     1       1.761  -1.607   1.105  1.00  0.00     0.043 C 
HETATM   14  C12 UNL     1       2.701  -0.458   0.917  1.00  0.00     0.036 C 
BRANCH  11  15
HETATM   15  S1  UNL     1      -0.649   1.057  -0.596  1.00  0.00    -0.128 SA
BRANCH  15  16
HETATM   16  C6  UNL     1      -2.379   0.715  -0.226  1.00  0.00     0.185 C 
HETATM   17  C5  UNL     1      -2.692  -0.706  -0.469  1.00  0.00     0.075 C 
HETATM   18  C4  UNL     1      -4.085  -1.011  -0.952  1.00  0.00     0.189 C 
HETATM   19  C3  UNL     1      -4.940   0.160  -1.255  1.00  0.00     0.064 C 
HETATM   20  C2  UNL     1      -4.490   1.479  -0.743  1.00  0.00     0.121 C 
HETATM   21  C1  UNL     1      -4.851   1.732   0.702  1.00  0.00     0.039 C 
HETATM   22  O6  UNL     1      -3.128   1.608  -0.990  1.00  0.00    -0.371 OA
BRANCH  18  23
HETATM   23  N1  UNL     1      -4.769  -1.983  -0.078  1.00  0.00    -0.075 N 
ATOM     24  H13 UNL     1      -5.106  -1.539   0.777  1.00  0.00     0.274 HD
ATOM     25  H12 UNL     1      -5.664  -2.271  -0.473  1.00  0.00     0.274 HD
ATOM     26  H11 UNL     1      -4.180  -2.789   0.131  1.00  0.00     0.274 HD
ENDBRANCH  18  23
ENDBRANCH  15  16
ENDBRANCH  11  15
BRANCH  12  27
HETATM   27  O5  UNL     1       0.936  -1.455  -1.097  1.00  0.00    -0.394 OA
ATOM     28  H5  UNL     1       1.004  -2.378  -1.312  1.00  0.00     0.210 HD
ENDBRANCH  12  27
BRANCH  13  29
HETATM   29  C14 UNL     1       2.294  -2.890   0.509  1.00  0.00     0.199 C 
BRANCH  29  30
HETATM   30  O2  UNL     1       3.490  -3.294   1.053  1.00  0.00    -0.259 OA
BRANCH  30  31
HETATM   31  S2  UNL     1       3.923  -4.724   0.270  1.00  0.00     0.355 S 
HETATM   32  O3  UNL     1       2.630  -5.455  -0.046  1.00  0.00    -0.176 OA
HETATM   33  O4  UNL     1       4.826  -5.563   1.102  1.00  0.00    -0.176 OA
BRANCH  31  34
HETATM   34  N6  UNL     1       4.657  -4.260  -1.225  1.00  0.00    -0.306 N 
ATOM     35  H62 UNL     1       4.794  -3.305  -1.555  1.00  0.00     0.171 HD
ATOM     36  H61 UNL     1       4.919  -5.125  -1.698  1.00  0.00     0.171 HD
ENDBRANCH  31  34
ENDBRANCH  30  31
ENDBRANCH  29  30
ENDBRANCH  13  29
ENDBRANCH   1  10
BRANCH   8  37
HETATM   37  C11 UNL     1       3.096   3.781  -1.287  1.00  0.00     0.305 C 
BRANCH  37  38
HETATM   38  O1  UNL     1       4.067   4.425  -0.508  1.00  0.00    -0.382 OA
ATOM     39  H1  UNL     1       4.903   4.436  -0.959  1.00  0.00     0.211 HD
ENDBRANCH  37  38
ENDBRANCH   8  37
TORSDOF 11
