REMARK  6 active torsions:
REMARK  status: ('A' for Active; 'I' for Inactive)
REMARK    1  A    between atoms: C2_2  and  C3_3 
REMARK    2  A    between atoms: C3_3  and  C4_4 
REMARK    3  A    between atoms: C4_4  and  C5_5 
REMARK       I    between atoms: C5_5  and  N1_7 
REMARK    4  A    between atoms: N1_7  and  C6_9 
REMARK    5  A    between atoms: C9_14  and  C10_15 
REMARK    6  A    between atoms: C10_15  and  O3_17 
ROOT
HETATM    1  C6  UNL     1       1.538   1.217   0.332  1.00  0.00     0.094 A 
HETATM    2  S1  UNL     1       1.192   2.753   1.069  1.00  0.00    -0.082 SA
HETATM    3  C7  UNL     1       2.763   3.366   1.154  1.00  0.00     0.072 A 
HETATM    4  C8  UNL     1       3.531   2.381   0.615  1.00  0.00     0.036 A 
HETATM    5 BR1  UNL     1       5.464   2.661   0.506  1.00  0.00    -0.049 Br
HETATM    6  C9  UNL     1       2.898   1.258   0.185  1.00  0.00     0.091 A 
ENDROOT
BRANCH   1   7
HETATM    7  N1  UNL     1       0.563   0.222   0.001  1.00  0.00    -0.320 N 
HETATM    8  C5  UNL     1      -0.807   0.487   0.288  1.00  0.00     0.222 C 
HETATM    9  O1  UNL     1      -1.136   1.577   0.821  1.00  0.00    -0.273 OA
ATOM     10  H1  UNL     1       0.844  -0.658  -0.431  1.00  0.00     0.169 HD
BRANCH   8  11
HETATM   11  C4  UNL     1      -1.868  -0.491  -0.025  1.00  0.00     0.103 C 
BRANCH  11  12
HETATM   12  C3  UNL     1      -3.197   0.059   0.386  1.00  0.00     0.009 C 
BRANCH  12  13
HETATM   13  C2  UNL     1      -4.329  -0.894   0.093  1.00  0.00    -0.004 C 
HETATM   14  C1  UNL     1      -4.438  -1.218  -1.361  1.00  0.00     0.005 C 
ENDBRANCH  12  13
ENDBRANCH  11  12
ENDBRANCH   8  11
ENDBRANCH   1   7
BRANCH   6  15
HETATM   15  C10 UNL     1       3.648   0.116  -0.423  1.00  0.00     0.297 C 
HETATM   16  O2  UNL     1       4.890   0.176  -0.548  1.00  0.00    -0.259 OA
BRANCH  15  17
HETATM   17  O3  UNL     1       3.037  -1.027  -0.866  1.00  0.00    -0.322 OA
HETATM   18  C11 UNL     1       3.701  -2.116  -1.439  1.00  0.00     0.213 C 
ENDBRANCH  15  17
ENDBRANCH   6  15
TORSDOF 6
