REMARK  4 active torsions:
REMARK  status: ('A' for Active; 'I' for Inactive)
REMARK    1  A    between atoms: C2_2  and  C4_4 
REMARK    2  A    between atoms: C4_4  and  C6_6 
REMARK    3  A    between atoms: C6_6  and  O1_7 
REMARK    4  A    between atoms: N1_24  and  O3_25 
ROOT
HETATM    1  C6  UNL     1      -1.619   0.283  -0.321  1.00  0.00     0.098 C 
HETATM    2  C7  UNL     1      -0.616   0.095  -1.499  1.00  0.00     0.070 C 
HETATM    3  C8  UNL     1       0.388  -0.963  -1.150  1.00  0.00     0.004 C 
HETATM    4  C9  UNL     1       1.594  -0.724  -0.686  1.00  0.00     0.036 C 
HETATM    5  C10 UNL     1       2.058   0.632  -0.472  1.00  0.00     0.046 C 
HETATM    6  C11 UNL     1       1.705   1.271   0.842  1.00  0.00    -0.004 C 
HETATM    7  C12 UNL     1       0.707   2.399   0.684  1.00  0.00     0.008 C 
HETATM    8  C13 UNL     1      -0.672   2.050   1.162  1.00  0.00     0.044 C 
HETATM    9  C14 UNL     1      -1.568   1.744  -0.038  1.00  0.00     0.114 A 
HETATM   10  C15 UNL     1      -1.482   2.616  -1.230  1.00  0.00     0.210 A 
HETATM   11  O2  UNL     1      -2.637   2.560  -0.322  1.00  0.00    -0.372 OA
HETATM   12  C16 UNL     1       3.112   1.903   0.799  1.00  0.00     0.011 C 
HETATM   13  C17 UNL     1       3.502   0.754  -0.102  1.00  0.00    -0.002 C 
HETATM   14  C18 UNL     1       4.089  -0.342   0.703  1.00  0.00     0.033 C 
HETATM   15  C19 UNL     1       3.699  -1.716   0.318  1.00  0.00     0.111 C 
HETATM   16  C20 UNL     1       4.821  -2.407  -0.469  1.00  0.00     0.035 C 
HETATM   17  N1  UNL     1       2.467  -1.825  -0.391  1.00  0.00    -0.261 N 
ENDROOT
BRANCH   1  18
HETATM   18  C4  UNL     1      -2.932  -0.285  -0.644  1.00  0.00     0.023 C 
HETATM   19  C5  UNL     1      -2.817  -1.665  -1.325  1.00  0.00     0.013 C 
BRANCH  18  20
HETATM   20  C2  UNL     1      -3.983  -0.417   0.358  1.00  0.00    -0.016 C 
HETATM   21  C1  UNL     1      -3.647  -1.501   1.414  1.00  0.00     0.010 C 
HETATM   22  C3  UNL     1      -4.562   0.717   1.079  1.00  0.00     0.010 C 
ENDBRANCH  18  20
ENDBRANCH   1  18
BRANCH   1  23
HETATM   23  O1  UNL     1      -0.953  -0.389   0.716  1.00  0.00    -0.386 OA
ATOM     24  H1  UNL     1      -0.102  -0.021   0.925  1.00  0.00     0.210 HD
ENDBRANCH   1  23
BRANCH  17  25
HETATM   25  O3  UNL     1       2.100  -3.060  -0.813  1.00  0.00    -0.287 OA
ATOM     26  H3  UNL     1       2.678  -3.789  -0.618  1.00  0.00     0.244 HD
ENDBRANCH  17  25
TORSDOF 4
