REMARK  8 active torsions:
REMARK  status: ('A' for Active; 'I' for Inactive)
REMARK    1  A    between atoms: C2_2  and  C3_3 
REMARK    2  A    between atoms: C6_6  and  N1_7 
REMARK    3  A    between atoms: N1_7  and  C7_9 
REMARK    4  A    between atoms: C7_9  and  S2_11 
REMARK    5  A    between atoms: S2_11  and  S3_12 
REMARK    6  A    between atoms: S3_12  and  C8_13 
REMARK    7  A    between atoms: C8_13  and  N2_15 
REMARK    8  A    between atoms: N2_15  and  C9_17 
ROOT
HETATM    1  C7  UNL     1       0.905   1.064   0.588  1.00  0.00     0.145 C 
HETATM    2  S1  UNL     1       0.490  -0.243  -0.274  1.00  0.00    -0.052 SA
ENDROOT
BRANCH   1   3
HETATM    3  N1  UNL     1       2.239   1.276   0.965  1.00  0.00    -0.370 N 
ATOM      4  H1  UNL     1       2.415   2.122   1.506  1.00  0.00     0.161 HD
BRANCH   3   5
HETATM    5  C6  UNL     1       3.377   0.472   0.695  1.00  0.00     0.083 C 
HETATM    6  C5  UNL     1       3.353  -0.927   1.203  1.00  0.00     0.026 C 
HETATM    7  C4  UNL     1       4.611  -1.510   0.547  1.00  0.00     0.010 C 
HETATM    8  C3  UNL     1       4.956  -0.597  -0.607  1.00  0.00     0.009 C 
HETATM    9  C13 UNL     1       3.689   0.261  -0.773  1.00  0.00     0.033 C 
BRANCH   8  10
HETATM   10  C2  UNL     1       5.238  -1.373  -1.821  1.00  0.00    -0.032 C 
HETATM   11  C1  UNL     1       6.391  -1.183  -2.452  1.00  0.00     0.007 C 
ENDBRANCH   8  10
ENDBRANCH   3   5
ENDBRANCH   1   3
BRANCH   1  12
HETATM   12  S2  UNL     1      -0.373   2.221   1.044  1.00  0.00    -0.021 SA
BRANCH  12  13
HETATM   13  S3  UNL     1      -2.271   1.624   0.330  1.00  0.00    -0.021 SA
BRANCH  13  14
HETATM   14  C8  UNL     1      -3.135   0.591   1.497  1.00  0.00     0.146 C 
HETATM   15  S4  UNL     1      -2.368   0.262   2.903  1.00  0.00    -0.052 SA
BRANCH  14  16
HETATM   16  N2  UNL     1      -4.412   0.061   1.271  1.00  0.00    -0.367 N 
ATOM     17  H2  UNL     1      -4.826  -0.521   1.999  1.00  0.00     0.161 HD
BRANCH  16  18
HETATM   18  C9  UNL     1      -5.180   0.291   0.062  1.00  0.00     0.020 C 
HETATM   19  C10 UNL     1      -6.508  -0.445   0.105  1.00  0.00     0.037 C 
HETATM   20  C11 UNL     1      -5.485   1.766  -0.035  1.00  0.00     0.037 C 
HETATM   21  C12 UNL     1      -4.389  -0.114  -1.164  1.00  0.00     0.037 C 
ENDBRANCH  16  18
ENDBRANCH  14  16
ENDBRANCH  13  14
ENDBRANCH  12  13
ENDBRANCH   1  12
TORSDOF 8
