REMARK  4 active torsions:
REMARK  status: ('A' for Active; 'I' for Inactive)
REMARK    1  A    between atoms: C2_2  and  C4_4 
REMARK    2  A    between atoms: C6_6  and  O1_7 
REMARK    3  A    between atoms: C12_14  and  C13_15 
REMARK    4  A    between atoms: N1_20  and  O3_22 
ROOT
HETATM    1  C4  UNL     1      -2.287  -0.297  -0.081  1.00  0.00    -0.004 C 
HETATM    2  C5  UNL     1      -2.762  -1.193   1.080  1.00  0.00     0.037 C 
HETATM    3  C6  UNL     1      -2.511  -2.604   0.683  1.00  0.00     0.118 C 
HETATM    4  C7  UNL     1      -1.245  -2.875  -0.041  1.00  0.00     0.032 C 
HETATM    5  C8  UNL     1      -0.057  -2.059   0.423  1.00  0.00     0.008 C 
HETATM    6  C9  UNL     1       0.080  -0.752  -0.337  1.00  0.00    -0.001 C 
HETATM    7  C10 UNL     1      -0.960   0.202   0.278  1.00  0.00    -0.004 C 
HETATM    8  C11 UNL     1      -0.603   1.610   0.011  1.00  0.00     0.017 C 
HETATM    9  C12 UNL     1       0.711   1.905   0.737  1.00  0.00     0.052 C 
HETATM   10  C14 UNL     1       1.739   0.856   0.590  1.00  0.00     0.010 C 
HETATM   11  C15 UNL     1       3.068   1.545   0.278  1.00  0.00     0.060 C 
HETATM   12  C16 UNL     1       4.112   0.513   0.357  1.00  0.00     0.010 C 
HETATM   13  N1  UNL     1       5.191   0.766   1.033  1.00  0.00    -0.277 N 
ATOM     14  H1  UNL     1       5.323   1.661   1.505  1.00  0.00     0.193 HD
HETATM   15  C17 UNL     1       3.892  -0.769  -0.336  1.00  0.00     0.055 C 
HETATM   16  C18 UNL     1       2.490  -1.320  -0.122  1.00  0.00     0.015 C 
HETATM   17  C19 UNL     1       1.449  -0.218  -0.405  1.00  0.00    -0.035 C 
HETATM   18  C20 UNL     1       1.785   0.169  -1.844  1.00  0.00     0.016 C 
ENDROOT
BRANCH  13  19
HETATM   19  O3  UNL     1       6.143  -0.213   1.088  1.00  0.00    -0.290 OA
ATOM     20  H3  UNL     1       6.933  -0.028   1.583  1.00  0.00     0.244 HD
ENDBRANCH  13  19
BRANCH   9  21
HETATM   21  C13 UNL     1       1.200   3.266   0.364  1.00  0.00     0.236 C 
HETATM   22  O2  UNL     1       1.527   4.099   1.192  1.00  0.00    -0.306 OA
ENDBRANCH   9  21
BRANCH   1  23
HETATM   23  C2  UNL     1      -3.408   0.644  -0.346  1.00  0.00    -0.018 C 
HETATM   24  C1  UNL     1      -3.210   1.624  -1.454  1.00  0.00     0.010 C 
HETATM   25  C3  UNL     1      -3.958   1.284   0.913  1.00  0.00     0.010 C 
ENDBRANCH   1  23
BRANCH   3  26
HETATM   26  O1  UNL     1      -3.570  -2.980  -0.179  1.00  0.00    -0.396 OA
ATOM     27  H1  UNL     1      -3.410  -3.881  -0.433  1.00  0.00     0.210 HD
ENDBRANCH   3  26
TORSDOF 4
