REMARK  7 active torsions:
REMARK  status: ('A' for Active; 'I' for Inactive)
REMARK    1  A    between atoms: C2_2  and  C3_3 
REMARK    2  A    between atoms: C3_3  and  N1_4 
REMARK    3  A    between atoms: N5_22  and  C12_23 
REMARK    4  A    between atoms: C12_23  and  C13_24 
REMARK    5  A    between atoms: C13_24  and  O1_26 
REMARK    6  A    between atoms: C13_24  and  C15_28 
REMARK    7  A    between atoms: C15_28  and  O2_29 
ROOT
HETATM    1  N1  UNL     1      -0.539   1.141   0.334  1.00  0.00    -0.320 N 
HETATM    2  C4  UNL     1       0.713   1.293  -0.299  1.00  0.00     0.170 C 
HETATM    3  C5  UNL     1       1.617   2.144   0.593  1.00  0.00     0.253 C 
HETATM    4  N2  UNL     1       2.982   1.801   0.245  1.00  0.00    -0.072 N 
ATOM      5  H21 UNL     1       3.564   2.635   0.174  1.00  0.00     0.277 HD
ATOM      6  H22 UNL     1       3.045   1.476  -0.720  1.00  0.00     0.277 HD
HETATM    7  C6  UNL     1       3.557   0.841   1.157  1.00  0.00     0.259 C 
HETATM    8  C7  UNL     1       4.665   0.038   0.511  1.00  0.00     0.259 C 
HETATM    9  N3  UNL     1       4.160  -0.836  -0.527  1.00  0.00    -0.072 N 
ATOM     10  H31 UNL     1       4.863  -0.990  -1.250  1.00  0.00     0.277 HD
ATOM     11  H32 UNL     1       3.449  -0.366  -1.087  1.00  0.00     0.277 HD
HETATM   12  C8  UNL     1       3.669  -2.083  -0.011  1.00  0.00     0.259 C 
HETATM   13  C9  UNL     1       2.437  -2.577  -0.773  1.00  0.00     0.259 C 
HETATM   14  N4  UNL     1       1.322  -2.790   0.116  1.00  0.00    -0.072 N 
ATOM     15  H41 UNL     1       1.566  -2.539   1.074  1.00  0.00     0.277 HD
ATOM     16  H42 UNL     1       1.144  -3.786   0.246  1.00  0.00     0.277 HD
HETATM   17  C10 UNL     1       0.114  -2.097  -0.312  1.00  0.00     0.248 C 
HETATM   18  C11 UNL     1      -0.350  -1.115   0.756  1.00  0.00     0.141 C 
HETATM   19  N5  UNL     1      -1.178  -0.060   0.229  1.00  0.00    -0.225 NA
ENDROOT
BRANCH  19  20
HETATM   20  C12 UNL     1      -2.486   0.006   0.732  1.00  0.00     0.153 C 
BRANCH  20  21
HETATM   21  C13 UNL     1      -3.428  -1.107   0.391  1.00  0.00     0.088 C 
HETATM   22  C14 UNL     1      -4.759  -0.735   1.081  1.00  0.00     0.049 C 
BRANCH  21  23
HETATM   23  O1  UNL     1      -3.102  -2.334   0.962  1.00  0.00    -0.387 OA
ATOM     24  H1  UNL     1      -3.700  -3.040   0.746  1.00  0.00     0.210 HD
ENDBRANCH  21  23
BRANCH  21  25
HETATM   25  C15 UNL     1      -3.747  -1.194  -1.071  1.00  0.00     0.202 C 
BRANCH  25  26
HETATM   26  O2  UNL     1      -4.634  -2.249  -1.347  1.00  0.00    -0.398 OA
ATOM     27  H2  UNL     1      -4.836  -2.304  -2.274  1.00  0.00     0.209 HD
ENDBRANCH  25  26
ENDBRANCH  21  25
ENDBRANCH  20  21
ENDBRANCH  19  20
BRANCH   1  28
HETATM   28  C3  UNL     1      -1.250   2.343   0.458  1.00  0.00     0.104 C 
BRANCH  28  29
HETATM   29  C2  UNL     1      -1.725   2.934  -0.808  1.00  0.00     0.008 C 
HETATM   30  C1  UNL     1      -1.331   4.140  -1.166  1.00  0.00     0.013 C 
ENDBRANCH  28  29
ENDBRANCH   1  28
TORSDOF 7
