REMARK  6 active torsions:
REMARK  status: ('A' for Active; 'I' for Inactive)
REMARK    1  A    between atoms: O1_1  and  C1_3 
REMARK    2  A    between atoms: C1_3  and  C2_4 
REMARK    3  A    between atoms: C2_4  and  N1_5 
REMARK    4  A    between atoms: N4_18  and  C10_19 
REMARK    5  A    between atoms: C10_19  and  C11_20 
REMARK    6  A    between atoms: C11_20  and  O2_21 
ROOT
HETATM    1  N1  UNL     1      -2.898  -0.237   0.276  1.00  0.00     0.092 N 
HETATM    2  C3  UNL     1      -2.108   0.842  -0.289  1.00  0.00     0.300 C 
HETATM    3  C4  UNL     1      -2.326   2.139   0.448  1.00  0.00     0.262 C 
HETATM    4  N2  UNL     1      -1.320   3.140   0.067  1.00  0.00    -0.073 N 
ATOM      5  H21 UNL     1      -1.344   3.960   0.672  1.00  0.00     0.277 HD
ATOM      6  H22 UNL     1      -1.550   3.602  -0.813  1.00  0.00     0.277 HD
HETATM    7  C5  UNL     1      -0.036   2.533   0.036  1.00  0.00     0.234 C 
HETATM    8  C6  UNL     1       1.147   3.412   0.256  1.00  0.00     0.046 C 
HETATM    9  C7  UNL     1       2.312   2.807  -0.516  1.00  0.00     0.115 C 
HETATM   10  N3  UNL     1       3.159   1.963   0.237  1.00  0.00    -0.420 N 
ATOM     11  H3  UNL     1       4.040   2.316   0.612  1.00  0.00     0.153 HD
HETATM   12  C8  UNL     1       2.771   0.625   0.464  1.00  0.00     0.129 C 
HETATM   13  C9  UNL     1       2.491  -0.225  -0.726  1.00  0.00     0.122 C 
HETATM   14  N4  UNL     1       1.973  -1.497  -0.275  1.00  0.00    -0.255 NA
HETATM   15  S1  UNL     1       0.292  -1.767  -0.622  1.00  0.00    -0.081 SA
HETATM   16  C12 UNL     1      -0.782  -1.417   0.796  1.00  0.00     0.121 C 
HETATM   17  C13 UNL     1      -2.222  -1.477   0.341  1.00  0.00     0.284 C 
ENDROOT
BRANCH   1  18
HETATM   18  C2  UNL     1      -4.072  -0.348  -0.545  1.00  0.00     0.298 C 
BRANCH  18  19
HETATM   19  C1  UNL     1      -5.079  -1.365  -0.174  1.00  0.00     0.194 C 
BRANCH  19  20
HETATM   20  O1  UNL     1      -4.602  -2.663  -0.205  1.00  0.00    -0.399 OA
ATOM     21  H1  UNL     1      -5.249  -3.316   0.033  1.00  0.00     0.209 HD
ENDBRANCH  19  20
ENDBRANCH  18  19
ENDBRANCH   1  18
BRANCH  14  22
HETATM   22  C10 UNL     1       2.743  -2.633  -0.674  1.00  0.00     0.128 C 
BRANCH  22  23
HETATM   23  C11 UNL     1       4.105  -2.703  -0.003  1.00  0.00     0.179 C 
BRANCH  23  24
HETATM   24  O2  UNL     1       4.821  -3.816  -0.414  1.00  0.00    -0.400 OA
ATOM     25  H2  UNL     1       5.672  -3.860   0.005  1.00  0.00     0.209 HD
ENDBRANCH  23  24
ENDBRANCH  22  23
ENDBRANCH  14  22
TORSDOF 6
