REMARK  7 active torsions:
REMARK  status: ('A' for Active; 'I' for Inactive)
REMARK    1  A    between atoms: C4_4  and  N1_5 
REMARK    2  A    between atoms: N1_5  and  C5_7 
REMARK    3  A    between atoms: C5_7  and  C6_8 
REMARK    4  A    between atoms: C6_8  and  N2_9 
REMARK    5  A    between atoms: C8_14  and  N3_15 
REMARK    6  A    between atoms: N3_15  and  N4_17 
REMARK       I    between atoms: N4_17  and  C9_19 
REMARK    7  A    between atoms: C10_24  and  N6_25 
ROOT
HETATM    1  C1  UNL     1      -0.033   4.673   0.113  1.00  0.00     0.068 C 
HETATM    2  C2  UNL     1      -0.042   3.178   0.135  1.00  0.00     0.009 A 
HETATM    3  C3  UNL     1       1.167   2.500   0.144  1.00  0.00     0.054 A 
HETATM    4  C4  UNL     1       1.199   1.128   0.165  1.00  0.00     0.047 A 
HETATM    5  C7  UNL     1      -0.013   0.448   0.175  1.00  0.00     0.081 A 
HETATM    6  C8  UNL     1      -0.045  -0.919   0.195  1.00  0.00     0.152 A 
HETATM    7  N5  UNL     1      -1.225  -1.585   0.205  1.00  0.00    -0.174 N 
ATOM      8  H5  UNL     1      -1.223  -2.605   0.220  1.00  0.00     0.186 HD
HETATM    9  C10 UNL     1      -2.398  -0.929   0.196  1.00  0.00     0.682 A 
HETATM   10  N7  UNL     1      -2.349   0.414   0.176  1.00  0.00    -0.175 N 
ATOM     11  H7  UNL     1      -3.233   0.923   0.169  1.00  0.00     0.186 HD
HETATM   12  C13 UNL     1      -1.219   1.126   0.165  1.00  0.00     0.137 A 
HETATM   13  N8  UNL     1      -1.190   2.474   0.146  1.00  0.00    -0.345 N 
ATOM     14  H8  UNL     1      -2.075   2.982   0.140  1.00  0.00     0.167 HD
ENDROOT
BRANCH   4  15
HETATM   15  N1  UNL     1       2.280   0.427   0.175  1.00  0.00    -0.387 N 
ATOM     16  H1  UNL     1       2.258  -0.593   0.190  1.00  0.00     0.159 HD
BRANCH  15  17
HETATM   17  C5  UNL     1       3.544   1.172   0.163  1.00  0.00     0.147 C 
BRANCH  17  18
HETATM   18  C6  UNL     1       4.712   0.233   0.386  1.00  0.00     0.249 C 
BRANCH  18  19
HETATM   19  N2  UNL     1       4.768  -0.769  -0.650  1.00  0.00    -0.078 N 
ATOM     20  H23 UNL     1       3.887  -1.276  -0.733  1.00  0.00     0.274 HD
ATOM     21  H22 UNL     1       4.793  -0.350  -1.580  1.00  0.00     0.274 HD
ATOM     22  H21 UNL     1       5.554  -1.401  -0.500  1.00  0.00     0.274 HD
ENDBRANCH  18  19
ENDBRANCH  17  18
ENDBRANCH  15  17
ENDBRANCH   4  15
BRANCH   6  23
HETATM   23  N3  UNL     1       1.089  -1.550   0.204  1.00  0.00    -0.279 N 
ATOM     24  H3  UNL     1       1.958  -1.016   0.196  1.00  0.00     0.189 HD
BRANCH  23  25
HETATM   25  N4  UNL     1       1.145  -2.962   0.225  1.00  0.00    -0.242 N 
HETATM   26  C9  UNL     1       0.691  -3.725  -0.879  1.00  0.00     0.303 C 
HETATM   27  O1  UNL     1       0.221  -3.195  -1.921  1.00  0.00    -0.628 OA
HETATM   28  O2  UNL     1       0.755  -5.106  -0.836  1.00  0.00    -0.628 OA
ATOM     29  H4  UNL     1       1.517  -3.438   1.046  1.00  0.00     0.193 HD
ENDBRANCH  23  25
ENDBRANCH   6  23
BRANCH   9  30
HETATM   30  N6  UNL     1      -3.646  -1.652   0.207  1.00  0.00    -0.226 N 
HETATM   31  C11 UNL     1      -3.606  -3.086   0.227  1.00  0.00     0.168 C 
HETATM   32  C12 UNL     1      -4.908  -0.973   0.199  1.00  0.00     0.168 C 
ENDBRANCH   9  30
TORSDOF 7
