REMARK  10 active torsions:
REMARK  status: ('A' for Active; 'I' for Inactive)
REMARK    1  A    between atoms: N1_1  and  C1_4 
REMARK    2  A    between atoms: C2_7  and  O1_8 
REMARK    3  A    between atoms: O1_8  and  C3_9 
REMARK    4  A    between atoms: C3_9  and  O2_10 
REMARK    5  A    between atoms: C3_9  and  C4_12 
REMARK    6  A    between atoms: C4_12  and  N3_13 
REMARK    7  A    between atoms: C4_12  and  C5_17 
REMARK    8  A    between atoms: C7_21  and  O5_22 
REMARK    9  A    between atoms: C8_24  and  O6_25 
REMARK   10  A    between atoms: C9_29  and  N5_30 
REMARK       I    between atoms: N5_30  and  C10_32 
ROOT
HETATM    1  O1  UNL     1       0.233  -1.090  -1.167  1.00  0.00    -0.287 OA
ENDROOT
BRANCH   1   2
HETATM    2  C2  UNL     1       1.135  -0.074  -0.986  1.00  0.00     0.254 A 
HETATM    3  N2  UNL     1       2.374  -0.404  -0.504  1.00  0.00    -0.154 N 
HETATM    4  C1  UNL     1       3.332   0.504  -0.288  1.00  0.00     0.693 A 
ATOM      5  H2  UNL     1       2.574  -1.383  -0.301  1.00  0.00     0.188 HD
HETATM    6  N7  UNL     1       3.038   1.803  -0.567  1.00  0.00    -0.022 N 
HETATM    7  C9  UNL     1       1.832   2.152  -1.040  1.00  0.00     0.703 A 
ATOM      8  H7  UNL     1       3.745   2.522  -0.414  1.00  0.00     0.203 HD
HETATM    9  N4  UNL     1       0.890   1.205  -1.245  1.00  0.00    -0.153 N 
ATOM     10  H4  UNL     1      -0.025   1.477  -1.605  1.00  0.00     0.188 HD
BRANCH   4  11
HETATM   11  N1  UNL     1       4.507   0.185   0.169  1.00  0.00    -0.234 N 
ATOM     12  H12 UNL     1       4.727  -0.789   0.378  1.00  0.00     0.174 HD
ATOM     13  H11 UNL     1       5.238   0.877   0.334  1.00  0.00     0.174 HD
ENDBRANCH   4  11
BRANCH   7  14
HETATM   14  N5  UNL     1       1.596   3.382  -1.300  1.00  0.00    -0.143 N 
HETATM   15  C10 UNL     1       2.567   4.392  -1.092  1.00  0.00     0.346 C 
HETATM   16  N6  UNL     1       3.394   4.814  -2.133  1.00  0.00    -0.039 NA
HETATM   17  O7  UNL     1       2.673   4.902   0.043  1.00  0.00    -0.250 OA
ATOM     18  H5  UNL     1       0.681   3.643  -1.668  1.00  0.00     0.188 HD
ENDBRANCH   7  14
ENDBRANCH   1   2
BRANCH   1  19
HETATM   19  C3  UNL     1      -1.062  -0.950  -1.622  1.00  0.00     0.299 C 
BRANCH  19  20
HETATM   20  O2  UNL     1      -1.225  -1.432  -2.935  1.00  0.00    -0.368 OA
ATOM     21  H2  UNL     1      -2.117  -1.336  -3.248  1.00  0.00     0.212 HD
ENDBRANCH  19  20
BRANCH  19  22
HETATM   22  C4  UNL     1      -2.014  -1.641  -0.679  1.00  0.00     0.270 C 
BRANCH  22  23
HETATM   23  N3  UNL     1      -1.769  -3.058  -0.540  1.00  0.00    -0.068 N 
ATOM     24  H33 UNL     1      -1.772  -3.515  -1.452  1.00  0.00     0.275 HD
ATOM     25  H32 UNL     1      -0.802  -3.231  -0.265  1.00  0.00     0.275 HD
ATOM     26  H31 UNL     1      -2.413  -3.525   0.098  1.00  0.00     0.275 HD
ENDBRANCH  22  23
BRANCH  22  27
HETATM   27  C5  UNL     1      -1.894  -0.983   0.666  1.00  0.00     0.199 C 
HETATM   28  O3  UNL     1      -0.644  -1.140   1.257  1.00  0.00    -0.309 OA
HETATM   29  C6  UNL     1      -0.738  -1.269   2.630  1.00  0.00     0.291 C 
HETATM   30  O4  UNL     1       0.246  -1.393   3.388  1.00  0.00    -0.262 OA
HETATM   31  C7  UNL     1      -2.177  -1.231   2.978  1.00  0.00     0.248 C 
HETATM   32  C8  UNL     1      -2.828  -1.642   1.687  1.00  0.00     0.188 C 
BRANCH  31  33
HETATM   33  O5  UNL     1      -2.480  -2.110   4.019  1.00  0.00    -0.383 OA
ATOM     34  H5  UNL     1      -3.403  -2.086   4.242  1.00  0.00     0.210 HD
ENDBRANCH  31  33
BRANCH  32  35
HETATM   35  O6  UNL     1      -4.094  -1.142   1.501  1.00  0.00    -0.390 OA
ATOM     36  H6  UNL     1      -4.673  -1.550   2.134  1.00  0.00     0.210 HD
ENDBRANCH  32  35
ENDBRANCH  22  27
ENDBRANCH  19  22
ENDBRANCH   1  19
TORSDOF 10
