REMARK  7 active torsions:
REMARK  status: ('A' for Active; 'I' for Inactive)
REMARK       I    between atoms: N1_2  and  C2_4 
REMARK       I    between atoms: C2_4  and  N3_6 
REMARK       I    between atoms: N3_6  and  C3_8 
REMARK    1  A    between atoms: C3_8  and  C4_10 
REMARK    2  A    between atoms: C4_10  and  O2_11 
REMARK    3  A    between atoms: C4_10  and  C5_13 
REMARK    4  A    between atoms: C6_17  and  N5_18 
REMARK    5  A    between atoms: C7_23  and  C8_24 
REMARK    6  A    between atoms: C9_29  and  O4_30 
REMARK    7  A    between atoms: C10_32  and  O5_33 
ROOT
HETATM    1  C5  UNL     1       0.035   0.128   0.795  1.00  0.00     0.257 C 
HETATM    2  N4  UNL     1       0.168  -0.173  -0.609  1.00  0.00    -0.038 N 
ATOM      3  H41 UNL     1      -0.636   0.079  -1.184  1.00  0.00     0.280 HD
ATOM      4  H42 UNL     1       0.145  -1.165  -0.844  1.00  0.00     0.280 HD
HETATM    5  C6  UNL     1       1.405   0.511  -0.943  1.00  0.00     0.358 C 
HETATM    6  C9  UNL     1       1.449   1.765  -0.092  1.00  0.00     0.202 C 
HETATM    7  C10 UNL     1       0.405   1.548   1.012  1.00  0.00     0.184 C 
ENDROOT
BRANCH   1   8
HETATM    8  C4  UNL     1      -1.244  -0.332   1.405  1.00  0.00     0.243 C 
BRANCH   8   9
HETATM    9  C3  UNL     1      -2.462   0.264   0.820  1.00  0.00     0.255 C 
HETATM   10  N3  UNL     1      -3.415  -0.596   0.232  1.00  0.00    -0.299 N 
HETATM   11  C2  UNL     1      -4.592  -0.058  -0.336  1.00  0.00     0.190 C 
ATOM     12  H3  UNL     1      -3.254  -1.603   0.217  1.00  0.00     0.171 HD
HETATM   13  N1  UNL     1      -5.496  -0.821  -0.889  1.00  0.00    -0.369 N 
HETATM   14  N2  UNL     1      -4.827   1.332  -0.323  1.00  0.00    -0.063 NA
HETATM   15  C1  UNL     1      -5.375  -2.246  -0.965  1.00  0.00     0.148 C 
ATOM     16  H1  UNL     1      -6.327  -0.382  -1.285  1.00  0.00     0.161 HD
HETATM   17  O1  UNL     1      -2.695   1.497   0.819  1.00  0.00    -0.270 OA
ENDBRANCH   8   9
BRANCH   8  18
HETATM   18  O2  UNL     1      -1.298  -1.715   1.253  1.00  0.00    -0.384 OA
ATOM     19  H2  UNL     1      -0.514  -2.098   1.629  1.00  0.00     0.210 HD
ENDBRANCH   8  18
ENDBRANCH   1   8
BRANCH   7  20
HETATM   20  O5  UNL     1       1.075   1.748   2.238  1.00  0.00    -0.391 OA
ATOM     21  H5  UNL     1       1.312   2.657   2.377  1.00  0.00     0.210 HD
ENDBRANCH   7  20
BRANCH   5  22
HETATM   22  N5  UNL     1       2.545  -0.342  -0.697  1.00  0.00    -0.183 N 
HETATM   23  N6  UNL     1       2.531  -1.615  -0.373  1.00  0.00    -0.222 N 
HETATM   24  N7  UNL     1       3.787  -2.059  -0.229  1.00  0.00    -0.264 N 
ATOM     25  H6  UNL     1       1.691  -2.180  -0.250  1.00  0.00     0.210 HD
HETATM   26  C7  UNL     1       4.614  -1.025  -0.471  1.00  0.00     0.203 A 
ATOM     27  H7  UNL     1       4.066  -3.008   0.019  1.00  0.00     0.190 HD
HETATM   28  N9  UNL     1       3.815   0.018  -0.757  1.00  0.00    -0.260 N 
ATOM     29  H9  UNL     1       4.143   0.956  -0.988  1.00  0.00     0.190 HD
BRANCH  26  30
HETATM   30  C8  UNL     1       6.093  -1.029  -0.433  1.00  0.00     0.301 C 
HETATM   31  N8  UNL     1       6.776   0.170  -0.721  1.00  0.00    -0.054 NA
HETATM   32  O3  UNL     1       6.714  -2.071  -0.152  1.00  0.00    -0.268 OA
ENDBRANCH  26  30
ENDBRANCH   5  22
BRANCH   6  33
HETATM   33  O4  UNL     1       1.079   2.832  -0.890  1.00  0.00    -0.389 OA
ATOM     34  H4  UNL     1       1.107   3.618  -0.357  1.00  0.00     0.210 HD
ENDBRANCH   6  33
TORSDOF 7
