REMARK  5 active torsions:
REMARK  status: ('A' for Active; 'I' for Inactive)
REMARK    1  A    between atoms: S1_2  and  C2_3 
REMARK    2  A    between atoms: C2_3  and  C3_4 
REMARK    3  A    between atoms: C4_5  and  C5_6 
REMARK    4  A    between atoms: C5_6  and  O1_7 
REMARK    5  A    between atoms: C8_11  and  O2_12 
ROOT
HETATM    1  C5  UNL     1       0.267  -0.570   1.158  1.00  0.00     0.175 C 
HETATM    2  C6  UNL     1      -0.894   0.281   0.815  1.00  0.00     0.003 A 
HETATM    3  C7  UNL     1      -0.843   1.669   0.984  1.00  0.00     0.049 A 
HETATM    4  C8  UNL     1      -1.954   2.401   0.649  1.00  0.00     0.084 A 
HETATM    5  C9  UNL     1      -3.083   1.774   0.160  1.00  0.00     0.050 A 
HETATM    6 BR1  UNL     1      -4.585   2.837  -0.285  1.00  0.00    -0.048 Br
HETATM    7  C10 UNL     1      -3.146   0.406  -0.012  1.00  0.00    -0.032 A 
HETATM    8  C11 UNL     1      -4.339  -0.293  -0.533  1.00  0.00     0.050 C 
HETATM    9  C12 UNL     1      -2.025  -0.332   0.326  1.00  0.00    -0.012 A 
HETATM   10  C13 UNL     1      -2.053  -1.792   0.154  1.00  0.00     0.156 C 
HETATM   11  C14 UNL     1      -1.537  -2.102  -1.261  1.00  0.00     0.039 C 
HETATM   12  C15 UNL     1      -0.062  -1.721  -1.061  1.00  0.00     0.039 C 
HETATM   13  C16 UNL     1       0.135  -1.873   0.428  1.00  0.00     0.174 C 
HETATM   14  O3  UNL     1      -1.067  -2.452   0.898  1.00  0.00    -0.371 OA
ENDROOT
BRANCH   1  15
HETATM   15  C4  UNL     1       1.535   0.056   0.783  1.00  0.00    -0.060 C 
HETATM   16  C3  UNL     1       2.593   0.560   0.484  1.00  0.00    -0.093 C 
BRANCH  16  17
HETATM   17  C2  UNL     1       3.895   1.152   0.111  1.00  0.00     0.167 C 
BRANCH  17  18
HETATM   18  S1  UNL     1       4.932  -0.189  -0.540  1.00  0.00    -0.161 SA
HETATM   19  C1  UNL     1       6.530   0.539  -0.997  1.00  0.00     0.090 C 
ENDBRANCH  17  18
ENDBRANCH  16  17
ENDBRANCH   1  15
BRANCH   1  20
HETATM   20  O1  UNL     1       0.201  -0.812   2.530  1.00  0.00    -0.371 OA
ATOM     21  H1  UNL     1      -0.622  -1.218   2.774  1.00  0.00     0.212 HD
ENDBRANCH   1  20
BRANCH   4  22
HETATM   22  O2  UNL     1      -1.910   3.788   0.816  1.00  0.00    -0.359 OA
ATOM     23  H2  UNL     1      -2.679   4.295   0.584  1.00  0.00     0.217 HD
ENDBRANCH   4  22
TORSDOF 5
