REMARK  6 active torsions:
REMARK  status: ('A' for Active; 'I' for Inactive)
REMARK    1  A    between atoms: N1_8  and  N2_10 
REMARK    2  A    between atoms: N2_10  and  C7_12 
REMARK    3  A    between atoms: C7_12  and  N3_14 
REMARK       I    between atoms: N3_14  and  C8_15 
REMARK    4  A    between atoms: C8_15  and  C9_17 
REMARK    5  A    between atoms: C9_17  and  C12_20 
REMARK    6  A    between atoms: C13_21  and  C14_22 
ROOT
HETATM    1  C7  UNL     1       0.275  -0.817   0.046  1.00  0.00     0.267 C 
HETATM    2  S1  UNL     1       0.357  -1.690  -1.377  1.00  0.00    -0.024 SA
ENDROOT
BRANCH   1   3
HETATM    3  N2  UNL     1       1.443  -0.063   0.323  1.00  0.00    -0.265 N 
ATOM      4  H2  UNL     1       1.449   0.502   1.172  1.00  0.00     0.190 HD
BRANCH   3   5
HETATM    5  N1  UNL     1       2.560  -0.035  -0.460  1.00  0.00    -0.305 N 
HETATM    6  C6  UNL     1       3.629   0.676  -0.277  1.00  0.00     0.011 C 
HETATM    7  C5  UNL     1       3.774   1.589   0.860  1.00  0.00     0.132 C 
HETATM    8  C17 UNL     1       4.677   0.511  -1.290  1.00  0.00     0.059 C 
HETATM    9  C4  UNL     1       5.191   1.821   1.254  1.00  0.00     0.132 C 
HETATM   10  C3  UNL     1       6.240   0.981   0.552  1.00  0.00     0.083 C 
HETATM   11  O1  UNL     1       5.475   2.642   2.090  1.00  0.00    -0.298 OA
HETATM   12  C2  UNL     1       5.963   1.167  -0.910  1.00  0.00    -0.006 C 
HETATM   13  C1  UNL     1       7.054   0.510  -1.761  1.00  0.00     0.011 C 
ATOM     14  H1  UNL     1       2.554  -0.641  -1.281  1.00  0.00     0.186 HD
ENDBRANCH   3   5
ENDBRANCH   1   3
BRANCH   1  15
HETATM   15  N3  UNL     1      -0.876  -0.913   0.770  1.00  0.00    -0.338 NA
HETATM   16  C8  UNL     1      -2.003  -1.007   1.479  1.00  0.00     0.314 C 
HETATM   17  O2  UNL     1      -2.224  -0.427   2.605  1.00  0.00    -0.255 OA
BRANCH  16  18
HETATM   18  C9  UNL     1      -3.190  -1.819   1.032  1.00  0.00     0.111 C 
HETATM   19  C10 UNL     1      -2.782  -3.125   0.423  1.00  0.00     0.040 C 
HETATM   20  C11 UNL     1      -4.036  -2.183   2.272  1.00  0.00     0.040 C 
BRANCH  18  21
HETATM   21  C12 UNL     1      -3.971  -0.961   0.154  1.00  0.00    -0.084 C 
HETATM   22  C13 UNL     1      -4.636  -0.241  -0.546  1.00  0.00    -0.080 C 
BRANCH  22  23
HETATM   23  C14 UNL     1      -5.463   0.672  -1.374  1.00  0.00     0.093 C 
HETATM   24  C15 UNL     1      -6.941   0.340  -1.249  1.00  0.00     0.046 C 
HETATM   25  C16 UNL     1      -5.288   2.099  -0.895  1.00  0.00     0.046 C 
HETATM   26 CL1  UNL     1      -4.899   0.483  -3.054  1.00  0.00    -0.106 Cl
ENDBRANCH  22  23
ENDBRANCH  18  21
ENDBRANCH  16  18
ENDBRANCH   1  15
TORSDOF 6
