REMARK  3 active torsions:
REMARK  status: ('A' for Active; 'I' for Inactive)
REMARK    1  A    between atoms: C2_2  and  O1_3 
REMARK    2  A    between atoms: O1_3  and  C3_4 
REMARK       I    between atoms: C3_4  and  N1_6 
REMARK       I    between atoms: N1_6  and  C4_8 
REMARK       I    between atoms: C4_8  and  N2_10 
REMARK    3  A    between atoms: N2_10  and  C5_12 
ROOT
HETATM    1  C3  UNL     1       1.941  -0.466  -0.184  1.00  0.00     0.373 C 
HETATM    2  O2  UNL     1       1.446   0.666  -0.020  1.00  0.00    -0.238 OA
HETATM    3  N1  UNL     1       1.114  -1.597  -0.263  1.00  0.00    -0.254 N 
ATOM      4  H1  UNL     1       1.612  -2.477  -0.397  1.00  0.00     0.175 HD
HETATM    5  C4  UNL     1      -0.262  -1.720  -0.190  1.00  0.00     0.324 C 
HETATM    6  O3  UNL     1      -0.773  -2.883  -0.293  1.00  0.00    -0.247 OA
HETATM    7  N2  UNL     1      -1.146  -0.673  -0.011  1.00  0.00    -0.337 N 
ATOM      8  H2  UNL     1      -0.758   0.267   0.075  1.00  0.00     0.164 HD
ENDROOT
BRANCH   7   9
HETATM    9  C5  UNL     1      -2.597  -0.819   0.064  1.00  0.00     0.094 C 
HETATM   10  C6  UNL     1      -3.308  -0.142  -1.061  1.00  0.00     0.009 C 
HETATM   11  C7  UNL     1      -3.430   1.351  -0.884  1.00  0.00     0.011 C 
HETATM   12  C11 UNL     1      -4.739  -0.694  -1.080  1.00  0.00     0.011 C 
HETATM   13  C8  UNL     1      -4.047   1.686   0.463  1.00  0.00    -0.013 C 
HETATM   14  C9  UNL     1      -5.454   1.115   0.449  1.00  0.00     0.009 C 
HETATM   15  C14 UNL     1      -3.254   1.069   1.583  1.00  0.00     0.011 C 
HETATM   16  C10 UNL     1      -5.363  -0.387   0.242  1.00  0.00    -0.013 C 
HETATM   17  C12 UNL     1      -4.596  -0.951   1.413  1.00  0.00     0.011 C 
HETATM   18  C13 UNL     1      -3.158  -0.421   1.385  1.00  0.00     0.009 C 
ENDBRANCH   7   9
BRANCH   1  19
HETATM   19  O1  UNL     1       3.341  -0.616  -0.291  1.00  0.00    -0.263 OA
BRANCH  19  20
HETATM   20  C2  UNL     1       4.199   0.444  -0.222  1.00  0.00     0.085 C 
HETATM   21  C1  UNL     1       3.742   1.836  -0.029  1.00  0.00     0.079 C 
HETATM   22  C15 UNL     1       5.516   0.196  -0.335  1.00  0.00     0.094 C 
HETATM   23  O4  UNL     1       6.533   1.145  -0.290  1.00  0.00    -0.351 OA
HETATM   24  C18 UNL     1       6.177  -1.111  -0.531  1.00  0.00     0.143 C 
HETATM   25  C16 UNL     1       7.729   0.563   0.196  1.00  0.00     0.177 C 
HETATM   26  C17 UNL     1       7.584  -0.922  -0.016  1.00  0.00     0.054 C 
HETATM   27 CL1  UNL     1       5.410  -2.387   0.440  1.00  0.00    -0.118 Cl
ENDBRANCH  19  20
ENDBRANCH   1  19
TORSDOF 3
