REMARK  4 active torsions:
REMARK  status: ('A' for Active; 'I' for Inactive)
REMARK    1  A    between atoms: C2_2  and  C3_4 
REMARK    2  A    between atoms: C11_12  and  O2_13 
REMARK    3  A    between atoms: O2_13  and  C12_14 
REMARK    4  A    between atoms: C19_24  and  O4_25 
ROOT
HETATM    1  C3  UNL     1       1.886   0.544  -0.629  1.00  0.00     0.033 C 
HETATM    2  C4  UNL     1       0.871   1.530  -1.225  1.00  0.00     0.018 C 
HETATM    3  C5  UNL     1      -0.411   0.850  -1.583  1.00  0.00     0.007 C 
HETATM    4  C6  UNL     1      -0.745  -0.387  -0.833  1.00  0.00     0.002 C 
HETATM    5  C7  UNL     1      -0.141  -0.398   0.568  1.00  0.00     0.002 C 
HETATM    6  C8  UNL     1      -0.431  -1.755   1.144  1.00  0.00     0.006 C 
HETATM    7  C9  UNL     1      -1.948  -1.901   1.306  1.00  0.00     0.008 C 
HETATM    8  C10 UNL     1      -2.776  -1.431   0.201  1.00  0.00     0.027 A 
HETATM    9  C11 UNL     1      -3.154   0.090   0.134  1.00  0.00     0.147 A 
HETATM   10  C13 UNL     1      -2.243  -0.540  -0.802  1.00  0.00    -0.007 A 
HETATM   11  C14 UNL     1      -2.809  -0.731  -2.221  1.00  0.00     0.019 C 
HETATM   12  C15 UNL     1       1.229   0.131   0.654  1.00  0.00     0.005 C 
HETATM   13  C16 UNL     1       1.087   1.447   1.461  1.00  0.00     0.020 C 
HETATM   14  C17 UNL     1       2.153  -0.685   1.549  1.00  0.00     0.182 C 
HETATM   15  F1  UNL     1       2.185  -2.016   1.286  1.00  0.00    -0.248 F 
HETATM   16  C18 UNL     1       3.510  -0.143   1.686  1.00  0.00     0.069 C 
HETATM   17  C19 UNL     1       3.919   0.996   0.854  1.00  0.00     0.122 C 
HETATM   18  C20 UNL     1       3.157   1.331  -0.358  1.00  0.00     0.050 C 
ENDROOT
BRANCH   9  19
HETATM   19  O2  UNL     1      -4.497   0.347  -0.248  1.00  0.00    -0.300 OA
BRANCH  19  20
HETATM   20  C12 UNL     1      -5.332   1.157   0.484  1.00  0.00     0.373 C 
HETATM   21  N1  UNL     1      -6.678   1.440   0.140  1.00  0.00    -0.032 NA
HETATM   22  O3  UNL     1      -4.808   1.661   1.535  1.00  0.00    -0.242 OA
ENDBRANCH  19  20
ENDBRANCH   9  19
BRANCH   1  23
HETATM   23  C2  UNL     1       2.193  -0.399  -1.671  1.00  0.00     0.132 C 
HETATM   24  C1  UNL     1       3.049  -1.612  -1.677  1.00  0.00     0.091 C 
HETATM   25  O1  UNL     1       1.688  -0.217  -2.777  1.00  0.00    -0.298 OA
ENDBRANCH   1  23
BRANCH  17  26
HETATM   26  O4  UNL     1       5.302   0.860   0.540  1.00  0.00    -0.395 OA
ATOM     27  H4  UNL     1       5.567   1.597   0.002  1.00  0.00     0.210 HD
ENDBRANCH  17  26
TORSDOF 4
