REMARK  6 active torsions:
REMARK  status: ('A' for Active; 'I' for Inactive)
REMARK    1  A    between atoms: N1_4  and  C3_5 
REMARK    2  A    between atoms: C3_5  and  O2_6 
REMARK    3  A    between atoms: N4_12  and  C4_13 
REMARK    4  A    between atoms: C4_13  and  O3_14 
REMARK    5  A    between atoms: O3_14  and  C5_15 
REMARK    6  A    between atoms: C5_15  and  O4_16 
ROOT
HETATM    1  O1  UNL     1      -0.203  -1.430   1.630  1.00  0.00    -0.265 OA
HETATM    2  C1  UNL     1       0.393  -0.730   0.777  1.00  0.00     0.282 A 
HETATM    3  C2  UNL     1       1.739  -0.549   0.817  1.00  0.00     0.190 A 
HETATM    4  N1  UNL     1       2.337   0.208  -0.115  1.00  0.00    -0.259 N 
HETATM    5  N2  UNL     1       1.606   0.766  -1.060  1.00  0.00    -0.224 N 
ATOM      6  H2  UNL     1       2.062   1.341  -1.768  1.00  0.00     0.210 HD
HETATM    7  N3  UNL     1       0.284   0.596  -1.112  1.00  0.00    -0.221 N 
ATOM      8  H3  UNL     1      -0.259   1.039  -1.854  1.00  0.00     0.210 HD
HETATM    9  N4  UNL     1      -0.326  -0.151  -0.196  1.00  0.00    -0.216 N 
ENDROOT
BRANCH   9  10
HETATM   10  C4  UNL     1      -1.766  -0.354  -0.228  1.00  0.00     0.324 C 
BRANCH  10  11
HETATM   11  O3  UNL     1      -2.346   0.646   0.516  1.00  0.00    -0.346 OA
BRANCH  11  12
HETATM   12  C5  UNL     1      -3.721   0.587   0.580  1.00  0.00     0.336 C 
BRANCH  12  13
HETATM   13  O4  UNL     1      -4.347   0.671  -0.651  1.00  0.00    -0.377 OA
ATOM     14  H4  UNL     1      -5.295   0.630  -0.607  1.00  0.00     0.212 HD
ENDBRANCH  12  13
ENDBRANCH  11  12
ENDBRANCH  10  11
ENDBRANCH   9  10
BRANCH   4  15
HETATM   15  C3  UNL     1       3.771   0.372  -0.031  1.00  0.00     0.314 C 
BRANCH  15  16
HETATM   16  O2  UNL     1       4.344  -0.662  -0.774  1.00  0.00    -0.380 OA
ATOM     17  H2  UNL     1       5.286  -0.554  -0.719  1.00  0.00     0.211 HD
ENDBRANCH  15  16
ENDBRANCH   4  15
TORSDOF 6
