REMARK  7 active torsions:
REMARK  status: ('A' for Active; 'I' for Inactive)
REMARK    1  A    between atoms: O1_1  and  N1_3 
REMARK    2  A    between atoms: N3_7  and  C1_8 
REMARK    3  A    between atoms: C1_8  and  O3_9 
REMARK    4  A    between atoms: O3_9  and  C2_10 
REMARK    5  A    between atoms: C2_10  and  C3_11 
REMARK    6  A    between atoms: C3_11  and  O4_12 
REMARK    7  A    between atoms: N4_14  and  O5_15 
ROOT
HETATM    1  N1  UNL     1      -3.243   0.212  -0.390  1.00  0.00    -0.028 N 
HETATM    2  N2  UNL     1      -2.807  -0.851  -1.029  1.00  0.00    -0.135 N 
ATOM      3  H2  UNL     1      -3.253  -1.281  -1.839  1.00  0.00     0.223 HD
HETATM    4  O2  UNL     1      -1.726  -1.261  -0.466  1.00  0.00    -0.114 OA
HETATM    5  N3  UNL     1      -1.414  -0.501   0.544  1.00  0.00    -0.103 N 
HETATM    6  N4  UNL     1      -2.377   0.428   0.588  1.00  0.00    -0.023 N 
ENDROOT
BRANCH   5   7
HETATM    7  C1  UNL     1      -0.284  -0.615   1.437  1.00  0.00     0.351 C 
BRANCH   7   8
HETATM    8  O3  UNL     1       0.826   0.077   1.019  1.00  0.00    -0.366 OA
BRANCH   8   9
HETATM    9  C2  UNL     1       1.300  -0.337  -0.214  1.00  0.00     0.196 C 
BRANCH   9  10
HETATM   10  C3  UNL     1       2.525   0.510  -0.552  1.00  0.00     0.190 C 
BRANCH  10  11
HETATM   11  O4  UNL     1       3.519   0.352   0.405  1.00  0.00    -0.399 OA
ATOM     12  H4  UNL     1       4.281   0.879   0.195  1.00  0.00     0.209 HD
ENDBRANCH  10  11
ENDBRANCH   9  10
ENDBRANCH   8   9
ENDBRANCH   7   8
ENDBRANCH   5   7
BRANCH   6  13
HETATM   13  O5  UNL     1      -2.481   1.455   1.487  1.00  0.00    -0.249 OA
ATOM     14  H5  UNL     1      -1.860   1.610   2.189  1.00  0.00     0.248 HD
ENDBRANCH   6  13
BRANCH   1  15
HETATM   15  O1  UNL     1      -4.380   0.907  -0.727  1.00  0.00    -0.249 OA
ATOM     16  H1  UNL     1      -4.695   1.675  -0.265  1.00  0.00     0.248 HD
ENDBRANCH   1  15
TORSDOF 7
