REMARK  6 active torsions:
REMARK  status: ('A' for Active; 'I' for Inactive)
REMARK    1  A    between atoms: C3_3  and  C4_4 
REMARK    2  A    between atoms: C5_5  and  C6_6 
REMARK    3  A    between atoms: C11_13  and  O1_14 
REMARK    4  A    between atoms: O1_14  and  C12_15 
REMARK    5  A    between atoms: C15_18  and  C16_19 
REMARK    6  A    between atoms: C16_19  and  O2_21 
ROOT
HETATM    1  C6  UNL     1       0.467  -0.186   0.357  1.00  0.00     0.089 C 
HETATM    2  C7  UNL     1       0.412  -0.239   1.847  1.00  0.00     0.031 C 
HETATM    3  C8  UNL     1      -0.556  -1.243   2.396  1.00  0.00     0.004 C 
HETATM    4  C9  UNL     1      -1.926  -1.150   1.788  1.00  0.00     0.026 C 
HETATM    5  C10 UNL     1      -1.924  -1.218   0.287  1.00  0.00     0.089 C 
HETATM    6  N1  UNL     1      -1.792   0.114  -0.266  1.00  0.00    -0.368 N 
ATOM      7  H1  UNL     1      -2.592   0.611  -0.658  1.00  0.00     0.161 HD
HETATM    8  C11 UNL     1      -0.615   0.642  -0.240  1.00  0.00     0.135 C 
HETATM    9  C15 UNL     1      -0.915  -2.178  -0.245  1.00  0.00     0.039 C 
HETATM   10  C18 UNL     1       0.422  -1.523  -0.305  1.00  0.00     0.040 C 
ENDROOT
BRANCH   1  11
HETATM   11  C5  UNL     1       1.739   0.468  -0.019  1.00  0.00    -0.083 C 
HETATM   12  C4  UNL     1       2.769   1.020  -0.322  1.00  0.00    -0.078 C 
BRANCH  12  13
HETATM   13  C3  UNL     1       3.985   1.697  -0.671  1.00  0.00     0.060 C 
HETATM   14  C2  UNL     1       5.179   1.170  -0.456  1.00  0.00    -0.022 C 
HETATM   15  C1  UNL     1       6.428   1.873  -0.818  1.00  0.00     0.036 C 
ENDBRANCH  12  13
ENDBRANCH   1  11
BRANCH   8  16
HETATM   16  O1  UNL     1      -0.439   1.896  -0.750  1.00  0.00    -0.333 OA
BRANCH  16  17
HETATM   17  C12 UNL     1      -1.442   2.859  -0.649  1.00  0.00     0.122 C 
HETATM   18  C13 UNL     1      -2.733   2.481  -1.312  1.00  0.00     0.040 C 
HETATM   19  C14 UNL     1      -1.637   3.232   0.819  1.00  0.00     0.040 C 
ENDBRANCH  16  17
ENDBRANCH   8  16
BRANCH   9  20
HETATM   20  C16 UNL     1      -1.401  -2.680  -1.584  1.00  0.00     0.120 C 
HETATM   21  C17 UNL     1      -2.735  -3.365  -1.369  1.00  0.00     0.040 C 
BRANCH  20  22
HETATM   22  O2  UNL     1      -0.534  -3.605  -2.154  1.00  0.00    -0.396 OA
ATOM     23  H2  UNL     1      -0.840  -3.921  -2.996  1.00  0.00     0.210 HD
ENDBRANCH  20  22
ENDBRANCH   9  20
TORSDOF 6
