REMARK  3 active torsions:
REMARK  status: ('A' for Active; 'I' for Inactive)
REMARK    1  A    between atoms: C2_2  and  N1_3 
REMARK    2  A    between atoms: N1_3  and  C3_4 
REMARK       I    between atoms: N1_3  and  C5_6 
REMARK       I    between atoms: C5_6  and  N2_8 
REMARK    3  A    between atoms: N2_8  and  C6_10 
ROOT
HETATM    1  C6  UNL     1      -0.490  -1.250   0.571  1.00  0.00     0.114 C 
HETATM    2  C7  UNL     1      -0.489  -2.696   0.753  1.00  0.00    -0.005 C 
HETATM    3  C8  UNL     1      -1.613  -3.378   0.691  1.00  0.00    -0.027 C 
HETATM    4  C9  UNL     1      -2.870  -2.690   0.439  1.00  0.00     0.042 C 
HETATM    5  C10 UNL     1      -2.785  -1.478  -0.421  1.00  0.00     0.058 C 
HETATM    6  S1  UNL     1      -3.960  -0.182   0.102  1.00  0.00    -0.154 SA
HETATM    7  C11 UNL     1      -2.974   1.172  -0.657  1.00  0.00     0.002 C 
HETATM    8  C12 UNL     1      -3.314   2.475  -0.015  1.00  0.00     0.026 C 
HETATM    9  C13 UNL     1      -3.309   1.170  -2.127  1.00  0.00     0.026 C 
HETATM   10  C14 UNL     1      -1.594   0.678  -0.369  1.00  0.00     0.027 C 
HETATM   11  C15 UNL     1      -1.503  -0.779  -0.471  1.00  0.00     0.027 C 
ENDROOT
BRANCH   1  12
HETATM   12  N2  UNL     1       0.826  -0.815   0.135  1.00  0.00    -0.335 N 
HETATM   13  C5  UNL     1       1.622   0.085   0.887  1.00  0.00     0.318 C 
HETATM   14  N1  UNL     1       2.891   0.473   0.413  1.00  0.00    -0.335 N 
HETATM   15  O1  UNL     1       1.196   0.547   1.993  1.00  0.00    -0.247 OA
ATOM     16  H2  UNL     1       1.192  -1.172  -0.748  1.00  0.00     0.165 HD
BRANCH  14  17
HETATM   17  C2  UNL     1       3.386  -0.019  -0.837  1.00  0.00     0.123 C 
HETATM   18  C1  UNL     1       4.151  -1.321  -0.705  1.00  0.00     0.026 C 
ENDBRANCH  14  17
BRANCH  14  19
HETATM   19  C3  UNL     1       3.693   1.386   1.217  1.00  0.00     0.123 C 
HETATM   20  C4  UNL     1       3.415   2.826   0.860  1.00  0.00     0.026 C 
ENDBRANCH  14  19
ENDBRANCH   1  12
TORSDOF 3
