REMARK  10 active torsions:
REMARK  status: ('A' for Active; 'I' for Inactive)
REMARK    1  A    between atoms: C2_2  and  C3_4 
REMARK    2  A    between atoms: C3_4  and  N1_5 
REMARK    3  A    between atoms: N1_5  and  C4_7 
REMARK    4  A    between atoms: C4_7  and  N2_8 
REMARK    5  A    between atoms: C4_7  and  S2_19 
REMARK    6  A    between atoms: N2_8  and  N3_10 
REMARK    7  A    between atoms: N3_10  and  C5_12 
REMARK    8  A    between atoms: C5_12  and  N4_14 
REMARK    9  A    between atoms: S2_19  and  N7_20 
REMARK   10  A    between atoms: N7_20  and  C7_22 
ROOT
HETATM    1  C4  UNL     1      -0.801   0.030   0.291  1.00  0.00     0.176 C 
ENDROOT
BRANCH   1   2
HETATM    2  N1  UNL     1      -1.907  -0.041   1.128  1.00  0.00    -0.361 N 
ATOM      3  H1  UNL     1      -1.763  -0.388   2.076  1.00  0.00     0.162 HD
BRANCH   2   4
HETATM    4  C3  UNL     1      -3.227   0.337   0.754  1.00  0.00     0.199 C 
BRANCH   4   5
HETATM    5  C2  UNL     1      -3.766  -0.689  -0.177  1.00  0.00     0.140 C 
HETATM    6  C1  UNL     1      -5.151  -0.561  -0.750  1.00  0.00     0.092 C 
HETATM    7  O1  UNL     1      -3.121  -1.660  -0.508  1.00  0.00    -0.297 OA
ENDBRANCH   4   5
ENDBRANCH   2   4
ENDBRANCH   1   2
BRANCH   1   8
HETATM    8  N2  UNL     1       0.470  -0.445   0.830  1.00  0.00    -0.277 N 
ATOM      9  H2  UNL     1       0.507  -0.805   1.784  1.00  0.00     0.189 HD
BRANCH   8  10
HETATM   10  N3  UNL     1       1.629  -0.415   0.066  1.00  0.00    -0.274 N 
ATOM     11  H3  UNL     1       1.747  -1.120  -0.662  1.00  0.00     0.189 HD
BRANCH  10  12
HETATM   12  C5  UNL     1       2.655   0.544   0.245  1.00  0.00     0.192 C 
HETATM   13  S1  UNL     1       2.551   1.705   1.383  1.00  0.00    -0.039 SA
BRANCH  12  14
HETATM   14  N4  UNL     1       3.828   0.522  -0.576  1.00  0.00    -0.309 N 
HETATM   15  C6  UNL     1       4.740  -0.387  -0.380  1.00  0.00     0.203 C 
HETATM   16  N5  UNL     1       4.575  -1.355   0.643  1.00  0.00    -0.066 NA
HETATM   17  N6  UNL     1       5.903  -0.407  -1.197  1.00  0.00    -0.066 NA
ATOM     18  H4  UNL     1       3.949   1.217  -1.313  1.00  0.00     0.170 HD
ENDBRANCH  12  14
ENDBRANCH  10  12
ENDBRANCH   8  10
ENDBRANCH   1   8
BRANCH   1  19
HETATM   19  S2  UNL     1      -0.762   0.656  -1.169  1.00  0.00     0.026 SA
BRANCH  19  20
HETATM   20  N7  UNL     1      -2.176   1.373  -1.942  1.00  0.00    -0.301 N 
ATOM     21  H7  UNL     1      -3.015   0.806  -2.064  1.00  0.00     0.176 HD
BRANCH  20  22
HETATM   22  C7  UNL     1      -2.179   2.572  -2.350  1.00  0.00     0.359 C 
HETATM   23  O2  UNL     1      -2.289   3.825  -2.320  1.00  0.00    -0.283 OA
ENDBRANCH  20  22
ENDBRANCH  19  20
ENDBRANCH   1  19
TORSDOF 10
