REMARK  6 active torsions:
REMARK  status: ('A' for Active; 'I' for Inactive)
REMARK    1  A    between atoms: C3_3  and  C4_4 
REMARK    2  A    between atoms: C5_5  and  O1_6 
REMARK    3  A    between atoms: O1_6  and  C6_7 
REMARK    4  A    between atoms: C8_9  and  N1_10 
REMARK    5  A    between atoms: C9_14  and  N2_15 
REMARK    6  A    between atoms: C11_20  and  N5_21 
ROOT
HETATM    1  C1  UNL     1       7.834   0.376   0.634  1.00  0.00     0.113 C 
HETATM    2  C2  UNL     1       6.456  -0.092   0.527  1.00  0.00    -0.097 C 
HETATM    3  C3  UNL     1       5.312  -0.475   0.459  1.00  0.00    -0.013 C 
ENDROOT
BRANCH   3   4
HETATM    4  C4  UNL     1       3.960  -0.901   0.386  1.00  0.00     0.015 C 
HETATM    5  C5  UNL     1       2.806  -1.245   0.332  1.00  0.00     0.069 C 
BRANCH   5   6
HETATM    6  O1  UNL     1       1.474  -1.625   0.288  1.00  0.00    -0.295 OA
BRANCH   6   7
HETATM    7  C6  UNL     1       0.532  -0.703   0.712  1.00  0.00     0.167 C 
HETATM    8  C7  UNL     1      -0.370  -1.189   1.816  1.00  0.00     0.070 C 
HETATM    9  C8  UNL     1      -1.713  -0.521   1.606  1.00  0.00     0.210 C 
HETATM   10  C9  UNL     1      -1.460   0.466   0.493  1.00  0.00     0.139 C 
HETATM   11  C11 UNL     1      -0.495  -0.359  -0.375  1.00  0.00     0.139 C 
BRANCH   9  12
HETATM   12  N1  UNL     1      -2.182   0.127   2.814  1.00  0.00    -0.073 N 
ATOM     13  H13 UNL     1      -2.208  -0.523   3.599  1.00  0.00     0.274 HD
ATOM     14  H12 UNL     1      -1.491   0.785   3.176  1.00  0.00     0.274 HD
ATOM     15  H11 UNL     1      -3.086   0.577   2.673  1.00  0.00     0.274 HD
ENDBRANCH   9  12
BRANCH  10  16
HETATM   16  N2  UNL     1      -2.631   0.851  -0.219  1.00  0.00    -0.358 N 
HETATM   17  C10 UNL     1      -2.877   2.109  -0.369  1.00  0.00     0.197 C 
HETATM   18  N3  UNL     1      -2.037   3.137   0.140  1.00  0.00    -0.067 NA
HETATM   19  N4  UNL     1      -4.052   2.469  -1.084  1.00  0.00    -0.067 NA
ATOM     20  H2  UNL     1      -3.262   0.148  -0.602  1.00  0.00     0.162 HD
ENDBRANCH  10  16
BRANCH  11  21
HETATM   21  N5  UNL     1      -1.221  -1.513  -0.807  1.00  0.00    -0.358 N 
HETATM   22  C12 UNL     1      -1.667  -1.751  -1.960  1.00  0.00     0.197 C 
HETATM   23  N6  UNL     1      -2.369  -2.952  -2.215  1.00  0.00    -0.067 NA
HETATM   24  N7  UNL     1      -1.483  -0.835  -3.021  1.00  0.00    -0.067 NA
ATOM     25  H5  UNL     1      -1.398  -2.226  -0.099  1.00  0.00     0.162 HD
ENDBRANCH  11  21
ENDBRANCH   6   7
ENDBRANCH   5   6
ENDBRANCH   3   4
TORSDOF 6
