REMARK  9 active torsions:
REMARK  status: ('A' for Active; 'I' for Inactive)
REMARK    1  A    between atoms: C3_3  and  C5_5 
REMARK    2  A    between atoms: C5_5  and  N1_6 
REMARK       I    between atoms: N1_6  and  C6_8 
REMARK       I    between atoms: C6_8  and  N3_10 
REMARK    3  A    between atoms: N3_10  and  C7_12 
REMARK    4  A    between atoms: C7_12  and  O1_13 
REMARK    5  A    between atoms: C7_12  and  C8_15 
REMARK       I    between atoms: C8_15  and  N4_17 
REMARK    6  A    between atoms: N4_17  and  N5_19 
REMARK    7  A    between atoms: N5_19  and  C9_21 
REMARK    8  A    between atoms: C9_21  and  N6_23 
REMARK    9  A    between atoms: N6_23  and  N7_25 
ROOT
HETATM    1  C1  UNL     1      -6.233   1.549   0.542  1.00  0.00     0.012 C 
HETATM    2  C2  UNL     1      -5.564   0.670   0.064  1.00  0.00    -0.111 C 
HETATM    3  C3  UNL     1      -4.778  -0.408  -0.527  1.00  0.00     0.078 C 
HETATM    4  C4  UNL     1      -5.052  -1.684   0.230  1.00  0.00     0.025 C 
ENDROOT
BRANCH   3   5
HETATM    5  C5  UNL     1      -3.334  -0.095  -0.674  1.00  0.00     0.139 C 
BRANCH   5   6
HETATM    6  N1  UNL     1      -2.613   0.202   0.522  1.00  0.00    -0.363 N 
HETATM    7  C6  UNL     1      -1.191   0.480   0.318  1.00  0.00     0.190 C 
HETATM    8  N2  UNL     1      -0.748   1.613   1.063  1.00  0.00    -0.063 NA
HETATM    9  N3  UNL     1      -0.510  -0.209  -0.423  1.00  0.00    -0.307 N 
ATOM     10  H3  UNL     1      -1.083  -0.948  -0.831  1.00  0.00     0.170 HD
ATOM     11  H1  UNL     1      -3.053   0.219   1.442  1.00  0.00     0.162 HD
BRANCH   9  12
HETATM   12  C7  UNL     1       0.753  -0.310  -0.877  1.00  0.00     0.213 C 
BRANCH  12  13
HETATM   13  O1  UNL     1       0.915  -0.872  -2.060  1.00  0.00    -0.342 OA
ATOM     14  H1  UNL     1       1.806  -0.943  -2.380  1.00  0.00     0.219 HD
ENDBRANCH  12  13
BRANCH  12  15
HETATM   15  C8  UNL     1       2.021   0.106  -0.266  1.00  0.00     0.310 C 
HETATM   16  O2  UNL     1       2.018   0.692   0.821  1.00  0.00    -0.262 OA
HETATM   17  N4  UNL     1       3.251  -0.171  -0.930  1.00  0.00    -0.261 N 
ATOM     18  H4  UNL     1       3.198  -0.661  -1.823  1.00  0.00     0.190 HD
BRANCH  17  19
HETATM   19  N5  UNL     1       4.514   0.167  -0.468  1.00  0.00    -0.272 N 
ATOM     20  H5  UNL     1       4.841   1.132  -0.516  1.00  0.00     0.189 HD
BRANCH  19  21
HETATM   21  C9  UNL     1       5.356  -0.861   0.079  1.00  0.00     0.205 C 
HETATM   22  S1  UNL     1       4.778  -2.376   0.141  1.00  0.00    -0.038 SA
BRANCH  21  23
HETATM   23  N6  UNL     1       6.649  -0.536   0.543  1.00  0.00    -0.282 N 
ATOM     24  H6  UNL     1       7.260  -1.250   0.939  1.00  0.00     0.189 HD
BRANCH  23  25
HETATM   25  N7  UNL     1       7.072   0.812   0.442  1.00  0.00    -0.343 N 
ATOM     26  H72 UNL     1       6.449   1.515   0.044  1.00  0.00     0.176 HD
ATOM     27  H71 UNL     1       8.006   1.047   0.777  1.00  0.00     0.176 HD
ENDBRANCH  23  25
ENDBRANCH  21  23
ENDBRANCH  19  21
ENDBRANCH  17  19
ENDBRANCH  12  15
ENDBRANCH   9  12
ENDBRANCH   5   6
ENDBRANCH   3   5
TORSDOF 9
