REMARK  6 active torsions:
REMARK  status: ('A' for Active; 'I' for Inactive)
REMARK    1  A    between atoms: C2_2  and  N1_3 
REMARK       I    between atoms: C3_5  and  N2_6 
REMARK       I    between atoms: C3_5  and  N8_20 
REMARK    2  A    between atoms: N2_6  and  N3_8 
REMARK    3  A    between atoms: C4_10  and  N4_11 
REMARK    4  A    between atoms: N4_11  and  C5_13 
REMARK    5  A    between atoms: C5_13  and  N5_15 
REMARK    6  A    between atoms: N8_20  and  C7_22 
ROOT
HETATM    1  N1  UNL     1      -3.509  -0.088  -0.616  1.00  0.00    -0.225 N 
ATOM      2  H1  UNL     1      -3.798  -0.316  -1.567  1.00  0.00     0.177 HD
HETATM    3  C3  UNL     1      -2.252   0.042  -0.397  1.00  0.00     0.694 C 
HETATM    4  N2  UNL     1      -1.368  -0.139  -1.479  1.00  0.00    -0.131 N 
ATOM      5  H2  UNL     1      -1.597  -0.800  -2.221  1.00  0.00     0.205 HD
HETATM    6  N8  UNL     1      -1.820   0.362   0.930  1.00  0.00    -0.167 N 
ATOM      7  H8  UNL     1      -1.749   1.342   1.202  1.00  0.00     0.186 HD
ENDROOT
BRANCH   4   8
HETATM    8  N3  UNL     1      -0.182   0.586  -1.532  1.00  0.00    -0.282 N 
HETATM    9  C4  UNL     1       0.844   0.097  -0.926  1.00  0.00     0.200 C 
ATOM     10  H3  UNL     1      -0.127   1.473  -2.033  1.00  0.00     0.188 HD
BRANCH   9  11
HETATM   11  N4  UNL     1       2.063   0.817  -0.965  1.00  0.00    -0.328 N 
ATOM     12  H4  UNL     1       2.080   1.822  -0.793  1.00  0.00     0.169 HD
BRANCH  11  13
HETATM   13  C5  UNL     1       3.254   0.113  -1.247  1.00  0.00     0.178 C 
HETATM   14  S1  UNL     1       3.200  -1.495  -1.518  1.00  0.00    -0.040 SA
BRANCH  13  15
HETATM   15  N5  UNL     1       4.484   0.838  -1.287  1.00  0.00    -0.310 N 
HETATM   16  C6  UNL     1       5.344   0.689  -0.329  1.00  0.00     0.203 C 
HETATM   17  N6  UNL     1       6.590   1.406  -0.344  1.00  0.00    -0.066 NA
HETATM   18  N7  UNL     1       5.063  -0.184   0.740  1.00  0.00    -0.066 NA
ATOM     19  H5  UNL     1       4.684   1.468  -2.064  1.00  0.00     0.170 HD
ENDBRANCH  13  15
ENDBRANCH  11  13
ENDBRANCH   9  11
ENDBRANCH   4   8
BRANCH   1  20
HETATM   20  C2  UNL     1      -4.539   0.061   0.365  1.00  0.00     0.134 C 
HETATM   21  C1  UNL     1      -5.869   0.183  -0.361  1.00  0.00     0.027 C 
ENDBRANCH   1  20
BRANCH   6  22
HETATM   22  C7  UNL     1      -1.489  -0.635   1.876  1.00  0.00     0.199 C 
HETATM   23  N9  UNL     1      -1.581  -2.005   1.522  1.00  0.00    -0.069 NA
HETATM   24  S2  UNL     1      -1.007  -0.200   3.364  1.00  0.00    -0.044 SA
ENDBRANCH   6  22
TORSDOF 6
