REMARK  6 active torsions:
REMARK  status: ('A' for Active; 'I' for Inactive)
REMARK    1  A    between atoms: C4_4  and  C5_5 
REMARK    2  A    between atoms: C5_5  and  N1_6 
REMARK       I    between atoms: N1_6  and  C6_8 
REMARK       I    between atoms: C6_8  and  N3_12 
REMARK    3  A    between atoms: N3_12  and  N4_14 
REMARK       I    between atoms: N4_14  and  C7_16 
REMARK    4  A    between atoms: C7_16  and  C8_18 
REMARK    5  A    between atoms: C8_18  and  N5_19 
REMARK       I    between atoms: N5_19  and  C9_21 
REMARK    6  A    between atoms: C9_21  and  C10_23 
REMARK       I    between atoms: C10_23  and  N6_25 
ROOT
HETATM    1  C1  UNL     1       5.779  -0.890   4.356  1.00  0.00     0.027 C 
HETATM    2  C2  UNL     1       5.683  -0.555   3.188  1.00  0.00    -0.026 C 
HETATM    3  C3  UNL     1       5.571  -0.179   1.826  1.00  0.00    -0.014 C 
HETATM    4  C4  UNL     1       5.472   0.157   0.667  1.00  0.00    -0.072 C 
ENDROOT
BRANCH   4   5
HETATM    5  C5  UNL     1       5.341   0.570  -0.739  1.00  0.00     0.233 C 
BRANCH   5   6
HETATM    6  N1  UNL     1       4.133  -0.028  -1.279  1.00  0.00    -0.215 N 
HETATM    7  C6  UNL     1       2.825   0.343  -0.866  1.00  0.00     0.687 C 
HETATM    8  N2  UNL     1       2.684   1.395  -0.174  1.00  0.00    -0.234 N 
HETATM    9  N3  UNL     1       1.745  -0.472  -1.249  1.00  0.00    -0.130 N 
ATOM     10  H22 UNL     1       3.467   1.986   0.104  1.00  0.00     0.174 HD
ATOM     11  H21 UNL     1       1.745   1.661   0.122  1.00  0.00     0.174 HD
ATOM     12  H3  UNL     1       1.770  -1.446  -0.948  1.00  0.00     0.205 HD
ATOM     13  H1  UNL     1       4.228  -0.752  -1.991  1.00  0.00     0.178 HD
BRANCH   9  14
HETATM   14  N4  UNL     1       0.642  -0.071  -2.003  1.00  0.00    -0.254 N 
HETATM   15  C7  UNL     1      -0.661  -0.361  -1.526  1.00  0.00     0.254 C 
HETATM   16  O1  UNL     1      -0.802  -0.967  -0.445  1.00  0.00    -0.270 OA
ATOM     17  H4  UNL     1       0.771   0.424  -2.885  1.00  0.00     0.190 HD
BRANCH  15  18
HETATM   18  C8  UNL     1      -1.871   0.041  -2.291  1.00  0.00     0.227 C 
BRANCH  18  19
HETATM   19  N5  UNL     1      -3.098  -0.344  -1.644  1.00  0.00    -0.344 N 
HETATM   20  C9  UNL     1      -3.454   0.172  -0.387  1.00  0.00     0.309 C 
HETATM   21  O2  UNL     1      -2.723   0.990   0.210  1.00  0.00    -0.262 OA
ATOM     22  H5  UNL     1      -3.721  -1.005  -2.108  1.00  0.00     0.163 HD
BRANCH  20  23
HETATM   23  C10 UNL     1      -4.713  -0.248   0.264  1.00  0.00     0.308 C 
HETATM   24  O3  UNL     1      -5.414  -1.084  -0.374  1.00  0.00    -0.262 OA
HETATM   25  N6  UNL     1      -5.061   0.281   1.517  1.00  0.00    -0.357 N 
HETATM   26  C11 UNL     1      -6.284  -0.121   2.160  1.00  0.00     0.149 C 
ATOM     27  H6  UNL     1      -4.444   0.953   1.974  1.00  0.00     0.162 HD
ENDBRANCH  20  23
ENDBRANCH  18  19
ENDBRANCH  15  18
ENDBRANCH   9  14
ENDBRANCH   5   6
ENDBRANCH   4   5
TORSDOF 6
