REMARK  13 active torsions:
REMARK  status: ('A' for Active; 'I' for Inactive)
REMARK    1  A    between atoms: C2_2  and  C3_3 
REMARK    2  A    between atoms: C3_3  and  C4_4 
REMARK    3  A    between atoms: C4_4  and  S1_5 
REMARK    4  A    between atoms: S1_5  and  C5_6 
REMARK    5  A    between atoms: C5_6  and  C6_7 
REMARK    6  A    between atoms: C6_7  and  N1_8 
REMARK    7  A    between atoms: N1_8  and  C7_10 
REMARK    8  A    between atoms: C7_10  and  C8_14 
REMARK    9  A    between atoms: C9_15  and  C10_16 
REMARK       I    between atoms: C10_16  and  N3_18 
REMARK   10  A    between atoms: N3_18  and  C11_20 
REMARK   11  A    between atoms: C11_20  and  C12_21 
REMARK   12  A    between atoms: C13_23  and  O3_24 
REMARK   13  A    between atoms: C14_26  and  O4_27 
ROOT
HETATM    1  C8  UNL     1      -0.556  -0.907   0.432  1.00  0.00     0.082 C 
HETATM    2  C9  UNL     1      -1.164   0.382   0.009  1.00  0.00     0.151 C 
HETATM    3  S2  UNL     1      -1.800  -0.056  -1.639  1.00  0.00    -0.147 SA
HETATM    4  C15 UNL     1      -2.055  -1.811  -1.305  1.00  0.00     0.080 C 
HETATM    5  C16 UNL     1      -1.513  -2.702  -2.381  1.00  0.00     0.247 C 
HETATM    6  N4  UNL     1      -1.107  -3.870  -1.623  1.00  0.00    -0.074 N 
ATOM      7  H41 UNL     1      -0.572  -4.568  -2.140  1.00  0.00     0.277 HD
ATOM      8  H42 UNL     1      -1.857  -4.512  -1.365  1.00  0.00     0.277 HD
HETATM    9  C17 UNL     1      -0.401  -3.228  -0.500  1.00  0.00     0.239 C 
HETATM   10  C18 UNL     1      -1.278  -2.075  -0.057  1.00  0.00     0.039 C 
ENDROOT
BRANCH   1  11
HETATM   11  C7  UNL     1       0.921  -0.880   0.180  1.00  0.00     0.076 C 
HETATM   12  N2  UNL     1       1.337  -0.179  -0.775  1.00  0.00    -0.389 N 
ATOM     13  H22 UNL     1       2.342  -0.161  -0.947  1.00  0.00     0.157 HD
ATOM     14  H21 UNL     1       0.700   0.368  -1.355  1.00  0.00     0.157 HD
BRANCH  11  15
HETATM   15  N1  UNL     1       1.804  -1.638   0.984  1.00  0.00    -0.379 N 
ATOM     16  H1  UNL     1       1.412  -2.524   1.303  1.00  0.00     0.160 HD
BRANCH  15  17
HETATM   17  C6  UNL     1       3.122  -1.406   1.430  1.00  0.00     0.131 C 
BRANCH  17  18
HETATM   18  C5  UNL     1       4.267  -1.463   0.503  1.00  0.00     0.093 C 
BRANCH  18  19
HETATM   19  S1  UNL     1       4.386  -0.288  -0.815  1.00  0.00    -0.168 SA
BRANCH  19  20
HETATM   20  C4  UNL     1       4.694   1.402  -0.282  1.00  0.00     0.074 C 
BRANCH  20  21
HETATM   21  C3  UNL     1       6.054   1.595   0.340  1.00  0.00     0.010 C 
BRANCH  21  22
HETATM   22  C2  UNL     1       7.093   1.221  -0.719  1.00  0.00    -0.004 C 
HETATM   23  C1  UNL     1       8.457   1.425  -0.082  1.00  0.00     0.005 C 
ENDBRANCH  21  22
ENDBRANCH  20  21
ENDBRANCH  19  20
ENDBRANCH  18  19
ENDBRANCH  17  18
ENDBRANCH  15  17
ENDBRANCH  11  15
ENDBRANCH   1  11
BRANCH   2  24
HETATM   24  C10 UNL     1      -2.317   0.719   0.898  1.00  0.00     0.232 C 
HETATM   25  O1  UNL     1      -2.144   0.957   2.113  1.00  0.00    -0.272 OA
HETATM   26  N3  UNL     1      -3.623   0.768   0.369  1.00  0.00    -0.358 N 
ATOM     27  H3  UNL     1      -3.756   0.574  -0.623  1.00  0.00     0.162 HD
BRANCH  26  28
HETATM   28  C11 UNL     1      -4.791   1.085   1.183  1.00  0.00     0.157 C 
BRANCH  28  29
HETATM   29  C12 UNL     1      -6.003   1.052   0.278  1.00  0.00     0.176 C 
HETATM   30  O2  UNL     1      -7.224   1.324   0.877  1.00  0.00    -0.349 OA
HETATM   31  C13 UNL     1      -7.637   1.795  -0.393  1.00  0.00     0.288 C 
HETATM   32  C14 UNL     1      -6.209   2.342  -0.519  1.00  0.00     0.203 C 
BRANCH  31  33
HETATM   33  O3  UNL     1      -8.583   2.788  -0.379  1.00  0.00    -0.369 OA
ATOM     34  H3  UNL     1      -8.860   3.104  -1.231  1.00  0.00     0.212 HD
ENDBRANCH  31  33
BRANCH  32  35
HETATM   35  O4  UNL     1      -6.108   3.507   0.223  1.00  0.00    -0.388 OA
ATOM     36  H4  UNL     1      -6.236   4.308  -0.272  1.00  0.00     0.210 HD
ENDBRANCH  32  35
ENDBRANCH  28  29
ENDBRANCH  26  28
ENDBRANCH   2  24
TORSDOF 13
