REMARK  11 active torsions:
REMARK  status: ('A' for Active; 'I' for Inactive)
REMARK    1  A    between atoms: C2_2  and  N1_3 
REMARK       I    between atoms: N1_3  and  C3_5 
REMARK    2  A    between atoms: C3_5  and  C4_7 
REMARK    3  A    between atoms: C5_8  and  N2_9 
REMARK    4  A    between atoms: N2_9  and  C6_11 
REMARK    5  A    between atoms: C6_11  and  C7_12 
REMARK    6  A    between atoms: C7_12  and  C8_13 
REMARK    7  A    between atoms: C7_12  and  S1_26 
REMARK    8  A    between atoms: C8_13  and  C9_15 
REMARK    9  A    between atoms: C9_15  and  O3_16 
REMARK   10  A    between atoms: C9_15  and  N3_18 
REMARK   11  A    between atoms: N3_18  and  C10_20 
ROOT
HETATM    1  C6  UNL     1       0.015   0.903   0.599  1.00  0.00     0.150 C 
ENDROOT
BRANCH   1   2
HETATM    2  N2  UNL     1      -0.645  -0.096   1.339  1.00  0.00    -0.391 N 
ATOM      3  H2  UNL     1      -0.330  -0.289   2.290  1.00  0.00     0.159 HD
BRANCH   2   4
HETATM    4  C5  UNL     1      -1.694  -0.820   0.835  1.00  0.00     0.021 C 
HETATM    5  C4  UNL     1      -3.105  -0.412   0.785  1.00  0.00     0.062 C 
HETATM    6  C20 UNL     1      -3.803  -1.238  -0.259  1.00  0.00     0.226 C 
HETATM    7  C19 UNL     1      -3.029  -1.490  -1.513  1.00  0.00     0.040 C 
HETATM    8  N4  UNL     1      -3.844  -2.629   0.289  1.00  0.00    -0.062 N 
HETATM    9  C18 UNL     1      -2.124  -2.669  -1.206  1.00  0.00     0.036 C 
HETATM   10  C17 UNL     1      -2.457  -3.040   0.210  1.00  0.00     0.192 C 
HETATM   11  C16 UNL     1      -1.661  -2.294   1.265  1.00  0.00     0.090 C 
ATOM     12  H42 UNL     1      -4.503  -3.253  -0.176  1.00  0.00     0.278 HD
ATOM     13  H41 UNL     1      -4.263  -2.712   1.215  1.00  0.00     0.278 HD
BRANCH   5  14
HETATM   14  C3  UNL     1      -3.543   0.943   0.859  1.00  0.00     0.251 C 
HETATM   15  N1  UNL     1      -4.854   1.333   0.455  1.00  0.00    -0.357 N 
ATOM     16  H1  UNL     1      -5.493   0.624   0.095  1.00  0.00     0.162 HD
HETATM   17  O1  UNL     1      -2.830   1.886   1.284  1.00  0.00    -0.268 OA
BRANCH  15  18
HETATM   18  C2  UNL     1      -5.307   2.711   0.541  1.00  0.00     0.118 C 
HETATM   19  C1  UNL     1      -4.492   3.663  -0.261  1.00  0.00     0.026 C 
ENDBRANCH  15  18
ENDBRANCH   5  14
ENDBRANCH   2   4
ENDBRANCH   1   2
BRANCH   1  20
HETATM   20  C7  UNL     1       0.937   0.228  -0.478  1.00  0.00     0.222 C 
BRANCH  20  21
HETATM   21  C8  UNL     1       1.903  -0.602   0.257  1.00  0.00     0.197 C 
HETATM   22  O2  UNL     1       1.801  -0.563   1.524  1.00  0.00    -0.292 OA
BRANCH  21  23
HETATM   23  C9  UNL     1       2.961  -1.476  -0.224  1.00  0.00     0.290 C 
BRANCH  23  24
HETATM   24  O3  UNL     1       3.456  -2.235   0.872  1.00  0.00    -0.370 OA
ATOM     25  H3  UNL     1       4.147  -2.806   0.558  1.00  0.00     0.212 HD
ENDBRANCH  23  24
BRANCH  23  26
HETATM   26  N3  UNL     1       4.092  -0.944  -0.886  1.00  0.00    -0.358 N 
ATOM     27  H3  UNL     1       4.188  -1.216  -1.864  1.00  0.00     0.162 HD
BRANCH  26  28
HETATM   28  C10 UNL     1       5.104  -0.098  -0.401  1.00  0.00     0.030 A 
HETATM   29  C11 UNL     1       6.038   0.481  -1.266  1.00  0.00     0.029 A 
HETATM   30  C12 UNL     1       7.037   1.313  -0.818  1.00  0.00     0.002 A 
HETATM   31  C13 UNL     1       7.149   1.604   0.517  1.00  0.00     0.000 A 
HETATM   32  C14 UNL     1       6.245   1.049   1.388  1.00  0.00     0.002 A 
HETATM   33  C15 UNL     1       5.233   0.204   0.919  1.00  0.00     0.029 A 
ENDBRANCH  26  28
ENDBRANCH  23  26
ENDBRANCH  21  23
ENDBRANCH  20  21
BRANCH  20  34
HETATM   34  S1  UNL     1       1.697   1.454  -1.455  1.00  0.00     0.115 S 
HETATM   35  O4  UNL     1       2.562   2.364  -0.673  1.00  0.00    -0.594 OA
HETATM   36  O5  UNL     1       2.393   0.796  -2.621  1.00  0.00    -0.594 OA
HETATM   37  O6  UNL     1       0.528   2.458  -2.192  1.00  0.00    -0.594 OA
ENDBRANCH  20  34
ENDBRANCH   1  20
TORSDOF 11
