REMARK  6 active torsions:
REMARK  status: ('A' for Active; 'I' for Inactive)
REMARK    1  A    between atoms: C4_6  and  N2_7 
REMARK    2  A    between atoms: N2_7  and  C5_9 
REMARK    3  A    between atoms: C5_9  and  C6_10 
REMARK    4  A    between atoms: C6_10  and  N3_11 
REMARK    5  A    between atoms: N3_11  and  C7_13 
REMARK    6  A    between atoms: C9_19  and  N6_20 
ROOT
HETATM    1  C1  UNL     1      -5.067   1.428  -3.265  1.00  0.00     0.021 C 
HETATM    2  C2  UNL     1      -4.430   0.929  -2.370  1.00  0.00    -0.041 C 
HETATM    3  C3  UNL     1      -3.674   0.338  -1.273  1.00  0.00     0.163 A 
HETATM    4  N1  UNL     1      -2.413   0.702  -1.018  1.00  0.00    -0.320 N 
ATOM      5  H1  UNL     1      -1.994   1.411  -1.619  1.00  0.00     0.169 HD
HETATM    6  C4  UNL     1      -1.660   0.200  -0.027  1.00  0.00     0.134 A 
HETATM    7  C10 UNL     1      -2.227  -0.752   0.778  1.00  0.00     0.122 A 
HETATM    8  N8  UNL     1      -1.793  -1.451   1.827  1.00  0.00    -0.346 N 
ATOM      9  H8  UNL     1      -0.863  -1.375   2.238  1.00  0.00     0.167 HD
HETATM   10  C11 UNL     1      -2.765  -2.271   2.261  1.00  0.00     0.184 A 
HETATM   11  N9  UNL     1      -3.836  -2.087   1.470  1.00  0.00    -0.332 N 
HETATM   12  C12 UNL     1      -5.113  -2.757   1.564  1.00  0.00     0.158 C 
HETATM   13  C13 UNL     1      -3.534  -1.149   0.536  1.00  0.00     0.141 A 
HETATM   14  N10 UNL     1      -4.224  -0.597  -0.479  1.00  0.00    -0.319 N 
ATOM     15  H10 UNL     1      -5.185  -0.894  -0.649  1.00  0.00     0.169 HD
ENDROOT
BRANCH   6  16
HETATM   16  N2  UNL     1      -0.325   0.608   0.215  1.00  0.00    -0.373 N 
ATOM     17  H2  UNL     1       0.209   0.197   0.981  1.00  0.00     0.161 HD
BRANCH  16  18
HETATM   18  C5  UNL     1       0.279   1.626  -0.647  1.00  0.00     0.141 C 
BRANCH  18  19
HETATM   19  C6  UNL     1       1.709   1.903  -0.201  1.00  0.00     0.157 C 
BRANCH  19  20
HETATM   20  N3  UNL     1       2.491   0.712  -0.277  1.00  0.00    -0.224 N 
ATOM     21  H3  UNL     1       1.995  -0.166  -0.429  1.00  0.00     0.177 HD
BRANCH  20  22
HETATM   22  C7  UNL     1       3.763   0.658  -0.170  1.00  0.00     0.693 A 
HETATM   23  N4  UNL     1       4.469   1.781   0.032  1.00  0.00    -0.187 N 
HETATM   24  C8  UNL     1       5.811   1.784   0.153  1.00  0.00     0.215 A 
ATOM     25  H4  UNL     1       3.970   2.668   0.097  1.00  0.00     0.185 HD
HETATM   26  N5  UNL     1       6.473   0.617   0.068  1.00  0.00    -0.187 N 
HETATM   27  C9  UNL     1       5.796  -0.520  -0.133  1.00  0.00     0.691 A 
ATOM     28  H5  UNL     1       7.489   0.598   0.156  1.00  0.00     0.185 HD
HETATM   29  N7  UNL     1       4.437  -0.500  -0.252  1.00  0.00    -0.023 N 
ATOM     30  H7  UNL     1       3.929  -1.371  -0.404  1.00  0.00     0.203 HD
BRANCH  27  31
HETATM   31  N6  UNL     1       6.417  -1.629  -0.214  1.00  0.00    -0.234 N 
ATOM     32  H62 UNL     1       7.433  -1.644  -0.125  1.00  0.00     0.174 HD
ATOM     33  H61 UNL     1       5.901  -2.495  -0.367  1.00  0.00     0.174 HD
ENDBRANCH  27  31
ENDBRANCH  20  22
ENDBRANCH  19  20
ENDBRANCH  18  19
ENDBRANCH  16  18
ENDBRANCH   6  16
TORSDOF 6
