REMARK  7 active torsions:
REMARK  status: ('A' for Active; 'I' for Inactive)
REMARK    1  A    between atoms: N1_2  and  C2_4 
REMARK    2  A    between atoms: C4_10  and  N4_11 
REMARK    3  A    between atoms: N4_11  and  C5_13 
REMARK    4  A    between atoms: C7_17  and  N6_18 
REMARK    5  A    between atoms: N6_18  and  C9_20 
REMARK    6  A    between atoms: C9_20  and  C10_21 
REMARK    7  A    between atoms: C10_21  and  O1_22 
ROOT
HETATM    1  C5  UNL     1       0.409  -1.650   0.328  1.00  0.00     0.699 A 
HETATM    2  N5  UNL     1      -0.756  -1.094   0.702  1.00  0.00    -0.183 N 
ATOM      3  H5  UNL     1      -0.959  -0.768   1.647  1.00  0.00     0.184 HD
HETATM    4  C6  UNL     1      -1.623  -1.021  -0.327  1.00  0.00     0.137 A 
HETATM    5  C7  UNL     1      -2.933  -0.533  -0.438  1.00  0.00     0.135 A 
HETATM    6  N7  UNL     1      -3.473  -0.635  -1.643  1.00  0.00    -0.337 N 
ATOM      7  H7  UNL     1      -4.426  -0.292  -1.762  1.00  0.00     0.168 HD
HETATM    8  C11 UNL     1      -2.861  -1.157  -2.722  1.00  0.00     0.183 A 
HETATM    9  N8  UNL     1      -1.615  -1.612  -2.583  1.00  0.00    -0.336 N 
ATOM     10  H8  UNL     1      -1.141  -2.011  -3.393  1.00  0.00     0.168 HD
HETATM   11  C12 UNL     1      -0.970  -1.561  -1.415  1.00  0.00     0.153 A 
HETATM   12  N9  UNL     1       0.257  -1.931  -0.979  1.00  0.00    -0.173 N 
ATOM     13  H9  UNL     1       0.971  -2.365  -1.564  1.00  0.00     0.186 HD
ENDROOT
BRANCH   1  14
HETATM   14  N4  UNL     1       1.568  -1.912   1.073  1.00  0.00    -0.021 N 
ATOM     15  H4  UNL     1       1.506  -2.645   1.780  1.00  0.00     0.203 HD
BRANCH  14  16
HETATM   16  C4  UNL     1       2.687  -1.325   0.952  1.00  0.00     0.712 A 
HETATM   17  N3  UNL     1       3.715  -1.685   1.741  1.00  0.00    -0.186 N 
HETATM   18  C3  UNL     1       4.932  -1.078   1.642  1.00  0.00     0.215 A 
ATOM     19  H3  UNL     1       3.582  -2.427   2.428  1.00  0.00     0.185 HD
HETATM   20  N2  UNL     1       5.096  -0.091   0.723  1.00  0.00    -0.187 N 
HETATM   21  C2  UNL     1       4.082   0.286  -0.077  1.00  0.00     0.693 A 
ATOM     22  H2  UNL     1       6.001   0.371   0.638  1.00  0.00     0.185 HD
HETATM   23  N10 UNL     1       2.904  -0.343   0.061  1.00  0.00    -0.022 N 
ATOM     24  H10 UNL     1       2.132  -0.060  -0.543  1.00  0.00     0.203 HD
BRANCH  21  25
HETATM   25  N1  UNL     1       4.240   1.225  -0.949  1.00  0.00    -0.230 N 
HETATM   26  C1  UNL     1       5.535   1.874  -1.057  1.00  0.00     0.165 C 
ATOM     27  H1  UNL     1       3.468   1.507  -1.553  1.00  0.00     0.177 HD
ENDBRANCH  21  25
ENDBRANCH  14  16
ENDBRANCH   1  14
BRANCH   5  28
HETATM   28  N6  UNL     1      -3.530  -0.011   0.729  1.00  0.00    -0.368 N 
HETATM   29  C8  UNL     1      -3.755  -1.001   1.800  1.00  0.00     0.151 C 
BRANCH  28  30
HETATM   30  C9  UNL     1      -3.923   1.316   1.015  1.00  0.00     0.150 C 
BRANCH  30  31
HETATM   31  C10 UNL     1      -3.722   2.345  -0.030  1.00  0.00     0.183 C 
BRANCH  31  32
HETATM   32  O1  UNL     1      -4.392   2.131  -1.224  1.00  0.00    -0.399 OA
ATOM     33  H1  UNL     1      -4.263   2.791  -1.895  1.00  0.00     0.209 HD
ENDBRANCH  31  32
ENDBRANCH  30  31
ENDBRANCH  28  30
ENDBRANCH   5  28
TORSDOF 7
