REMARK  8 active torsions:
REMARK  status: ('A' for Active; 'I' for Inactive)
REMARK    1  A    between atoms: C2_2  and  N1_3 
REMARK    2  A    between atoms: C2_2  and  C6_10 
REMARK    3  A    between atoms: C10_21  and  N7_22 
REMARK    4  A    between atoms: N7_22  and  C11_24 
REMARK    5  A    between atoms: C11_24  and  C12_25 
REMARK    6  A    between atoms: C12_25  and  O1_26 
REMARK    7  A    between atoms: C12_25  and  C13_28 
REMARK    8  A    between atoms: C13_28  and  O2_29 
ROOT
HETATM    1  C6  UNL     1      -1.144   1.457  -0.650  1.00  0.00     0.066 A 
HETATM    2  N3  UNL     1      -1.732   2.631  -0.952  1.00  0.00    -0.298 N 
ATOM      3  H3  UNL     1      -2.642   2.724  -1.404  1.00  0.00     0.187 HD
HETATM    4  N4  UNL     1      -0.968   3.647  -0.582  1.00  0.00    -0.280 N 
HETATM    5  C7  UNL     1      -1.204   5.071  -0.709  1.00  0.00     0.179 C 
HETATM    6  C8  UNL     1       0.147   3.122  -0.024  1.00  0.00     0.139 A 
HETATM    7  N5  UNL     1       1.227   3.719   0.503  1.00  0.00    -0.337 N 
ATOM      8  H5  UNL     1       1.277   4.738   0.520  1.00  0.00     0.168 HD
HETATM    9  C9  UNL     1       2.255   2.992   1.015  1.00  0.00     0.183 A 
HETATM   10  N6  UNL     1       2.154   1.653   0.977  1.00  0.00    -0.338 N 
ATOM     11  H6  UNL     1       2.923   1.104   1.362  1.00  0.00     0.168 HD
HETATM   12  C10 UNL     1       1.102   0.992   0.463  1.00  0.00     0.118 A 
HETATM   13  C14 UNL     1       0.068   1.755  -0.052  1.00  0.00     0.079 A 
ENDROOT
BRANCH   1  14
HETATM   14  C2  UNL     1      -1.671   0.064  -0.883  1.00  0.00     0.131 C 
HETATM   15  C1  UNL     1      -2.916   0.231  -1.752  1.00  0.00     0.039 C 
BRANCH  14  16
HETATM   16  N1  UNL     1      -2.124  -0.483   0.388  1.00  0.00    -0.370 N 
HETATM   17  C3  UNL     1      -2.721  -1.623   0.413  1.00  0.00     0.074 C 
HETATM   18  C4  UNL     1      -3.164  -2.709  -0.489  1.00  0.00     0.095 C 
HETATM   19  N2  UNL     1      -3.258  -2.358   1.502  1.00  0.00    -0.380 N 
HETATM   20  C5  UNL     1      -2.989  -3.566   0.768  1.00  0.00     0.128 C 
ATOM     21  H2  UNL     1      -3.660  -2.129   2.411  1.00  0.00     0.160 HD
ATOM     22  H1  UNL     1      -1.969   0.034   1.253  1.00  0.00     0.161 HD
ENDBRANCH  14  16
ENDBRANCH   1  14
BRANCH  12  23
HETATM   23  N7  UNL     1       0.987  -0.268   0.410  1.00  0.00    -0.373 N 
ATOM     24  H7  UNL     1       0.132  -0.637  -0.007  1.00  0.00     0.161 HD
BRANCH  23  25
HETATM   25  C11 UNL     1       1.952  -1.232   0.884  1.00  0.00     0.155 C 
BRANCH  25  26
HETATM   26  C12 UNL     1       3.072  -1.434  -0.118  1.00  0.00     0.159 C 
BRANCH  26  27
HETATM   27  O1  UNL     1       2.581  -1.899  -1.339  1.00  0.00    -0.392 OA
ATOM     28  H1  UNL     1       3.283  -2.026  -1.967  1.00  0.00     0.210 HD
ENDBRANCH  26  27
BRANCH  26  29
HETATM   29  C13 UNL     1       4.077  -2.403   0.465  1.00  0.00     0.197 C 
BRANCH  29  30
HETATM   30  O2  UNL     1       4.572  -1.949   1.674  1.00  0.00    -0.398 OA
ATOM     31  H2  UNL     1       5.203  -2.557   2.040  1.00  0.00     0.209 HD
ENDBRANCH  29  30
ENDBRANCH  26  29
ENDBRANCH  25  26
ENDBRANCH  23  25
ENDBRANCH  12  23
TORSDOF 8
