REMARK  5 active torsions:
REMARK  status: ('A' for Active; 'I' for Inactive)
REMARK    1  A    between atoms: C3_7  and  N3_8 
REMARK    2  A    between atoms: N4_11  and  C6_12 
REMARK    3  A    between atoms: C7_15  and  N6_16 
REMARK    4  A    between atoms: C8_21  and  C9_22 
REMARK    5  A    between atoms: C9_22  and  O1_23 
ROOT
HETATM    1  C6  UNL     1      -1.945   0.189  -0.117  1.00  0.00     0.142 A 
HETATM    2  N5  UNL     1      -2.178   1.150  -1.062  1.00  0.00    -0.175 N 
ATOM      3  H5  UNL     1      -1.386   1.487  -1.610  1.00  0.00     0.186 HD
HETATM    4  C7  UNL     1      -3.384   1.674  -1.309  1.00  0.00     0.677 A 
HETATM    5  N7  UNL     1      -4.436   1.238  -0.594  1.00  0.00    -0.192 N 
ATOM      6  H7  UNL     1      -5.362   1.627  -0.771  1.00  0.00     0.184 HD
HETATM    7  C8  UNL     1      -4.280   0.292   0.355  1.00  0.00     0.074 A 
HETATM    8  C10 UNL     1      -3.033  -0.248   0.609  1.00  0.00     0.114 A 
HETATM    9  C11 UNL     1      -2.840  -1.268   1.611  1.00  0.00     0.105 C 
HETATM   10  N8  UNL     1      -2.705  -2.099   2.412  1.00  0.00    -0.191 NA
ENDROOT
BRANCH   1  11
HETATM   11  N4  UNL     1      -0.619  -0.283   0.063  1.00  0.00    -0.362 N 
HETATM   12  C5  UNL     1       0.137  -0.052   1.254  1.00  0.00     0.145 C 
HETATM   13  C4  UNL     1       1.424  -0.879   1.182  1.00  0.00     0.161 C 
HETATM   14  N3  UNL     1       2.133  -0.571  -0.026  1.00  0.00    -0.213 N 
HETATM   15  C13 UNL     1       1.364  -0.384  -1.261  1.00  0.00     0.161 C 
HETATM   16  C12 UNL     1      -0.001  -1.038  -1.025  1.00  0.00     0.145 C 
BRANCH  14  17
HETATM   17  C3  UNL     1       3.560  -0.439  -0.089  1.00  0.00     0.696 A 
HETATM   18  N2  UNL     1       4.370  -1.452  -0.424  1.00  0.00    -0.131 N 
HETATM   19  N1  UNL     1       5.638  -1.023  -0.397  1.00  0.00    -0.275 N 
ATOM     20  H2  UNL     1       4.069  -2.397  -0.661  1.00  0.00     0.205 HD
HETATM   21  C2  UNL     1       5.644   0.280  -0.041  1.00  0.00     0.108 A 
ATOM     22  H1  UNL     1       6.462  -1.586  -0.610  1.00  0.00     0.189 HD
HETATM   23  C1  UNL     1       6.828   1.162   0.115  1.00  0.00     0.091 C 
HETATM   24  N9  UNL     1       4.348   0.619   0.145  1.00  0.00    -0.178 N 
ATOM     25  H9  UNL     1       4.019   1.544   0.422  1.00  0.00     0.185 HD
ENDBRANCH  14  17
ENDBRANCH   1  11
BRANCH   7  26
HETATM   26  C9  UNL     1      -5.435  -0.198   1.150  1.00  0.00     0.223 C 
BRANCH  26  27
HETATM   27  O1  UNL     1      -6.585   0.492   0.717  1.00  0.00    -0.395 OA
ATOM     28  H1  UNL     1      -7.324   0.179   1.225  1.00  0.00     0.209 HD
ENDBRANCH  26  27
ENDBRANCH   7  26
BRANCH   4  29
HETATM   29  N6  UNL     1      -3.562   2.593  -2.222  1.00  0.00    -0.234 N 
ATOM     30  H62 UNL     1      -2.764   2.924  -2.764  1.00  0.00     0.174 HD
ATOM     31  H61 UNL     1      -4.481   2.992  -2.410  1.00  0.00     0.174 HD
ENDBRANCH   4  29
TORSDOF 5
