REMARK  6 active torsions:
REMARK  status: ('A' for Active; 'I' for Inactive)
REMARK    1  A    between atoms: N2_5  and  C4_6 
REMARK    2  A    between atoms: C5_9  and  S1_10 
REMARK    3  A    between atoms: S1_10  and  C6_11 
REMARK    4  A    between atoms: C8_21  and  N8_22 
REMARK    5  A    between atoms: C9_25  and  C10_26 
REMARK    6  A    between atoms: C10_26  and  N9_27 
ROOT
HETATM    1  C4  UNL     1      -0.005  -0.067   0.234  1.00  0.00     0.117 A 
HETATM    2  N3  UNL     1       0.875   0.305   1.195  1.00  0.00    -0.322 N 
ATOM      3  H3  UNL     1       0.510   0.580   2.107  1.00  0.00     0.169 HD
HETATM    4  C5  UNL     1       2.194   0.329   1.008  1.00  0.00     0.155 A 
HETATM    5  N7  UNL     1       2.670  -0.036  -0.195  1.00  0.00    -0.322 N 
ATOM      6  H7  UNL     1       3.678  -0.022  -0.352  1.00  0.00     0.169 HD
HETATM    7  C8  UNL     1       1.856  -0.421  -1.204  1.00  0.00     0.112 A 
HETATM    8  C9  UNL     1       0.470  -0.437  -0.982  1.00  0.00     0.055 A 
ENDROOT
BRANCH   4   9
HETATM    9  S1  UNL     1       3.287   0.842   2.335  1.00  0.00    -0.016 SA
BRANCH   9  10
HETATM   10  C6  UNL     1       4.983   0.813   1.775  1.00  0.00     0.167 A 
HETATM   11  N4  UNL     1       6.073   1.132   2.485  1.00  0.00    -0.331 N 
HETATM   12  C7  UNL     1       7.137   0.976   1.685  1.00  0.00     0.199 A 
ATOM     13  H4  UNL     1       6.090   1.438   3.458  1.00  0.00     0.168 HD
HETATM   14  N5  UNL     1       6.693   0.558   0.477  1.00  0.00    -0.294 N 
HETATM   15  N6  UNL     1       5.394   0.465   0.549  1.00  0.00    -0.279 N 
ATOM     16  H5  UNL     1       7.268   0.353  -0.340  1.00  0.00     0.187 HD
ATOM     17  H6  UNL     1       4.783   0.171  -0.213  1.00  0.00     0.189 HD
ENDBRANCH   9  10
ENDBRANCH   4   9
BRANCH   1  18
HETATM   18  N2  UNL     1      -1.413  -0.069   0.479  1.00  0.00    -0.364 N 
HETATM   19  C3  UNL     1      -2.117   1.194   0.370  1.00  0.00     0.143 C 
HETATM   20  C2  UNL     1      -3.372   0.979  -0.419  1.00  0.00     0.136 C 
HETATM   21  N1  UNL     1      -4.198  -0.045   0.102  1.00  0.00    -0.414 N 
HETATM   22  C1  UNL     1      -5.264   0.361   0.955  1.00  0.00     0.143 C 
HETATM   23  C12 UNL     1      -3.569  -1.277   0.395  1.00  0.00     0.136 C 
HETATM   24  C11 UNL     1      -2.156  -1.232   0.838  1.00  0.00     0.143 C 
ENDBRANCH   1  18
BRANCH   7  25
HETATM   25  N8  UNL     1       2.299  -0.770  -2.363  1.00  0.00    -0.385 N 
ATOM     26  H82 UNL     1       3.306  -0.758  -2.524  1.00  0.00     0.157 HD
ATOM     27  H81 UNL     1       1.685  -1.060  -3.124  1.00  0.00     0.157 HD
ENDBRANCH   7  25
BRANCH   8  28
HETATM   28  C10 UNL     1      -0.412  -0.857  -2.066  1.00  0.00     0.275 C 
BRANCH  28  29
HETATM   29  N9  UNL     1       0.314  -1.211  -3.278  1.00  0.00    -0.075 N 
ATOM     30  H93 UNL     1       0.922  -0.448  -3.576  1.00  0.00     0.274 HD
ATOM     31  H92 UNL     1       1.021  -1.921  -3.086  1.00  0.00     0.274 HD
ATOM     32  H91 UNL     1      -0.303  -1.505  -4.036  1.00  0.00     0.274 HD
ENDBRANCH  28  29
ENDBRANCH   8  28
TORSDOF 6
