REMARK  7 active torsions:
REMARK  status: ('A' for Active; 'I' for Inactive)
REMARK    1  A    between atoms: N1_2  and  C2_3 
REMARK    2  A    between atoms: N1_2  and  C4_7 
REMARK    3  A    between atoms: C2_3  and  C3_4 
REMARK    4  A    between atoms: C3_4  and  O1_5 
REMARK    5  A    between atoms: C5_10  and  N3_11 
REMARK    6  A    between atoms: C11_22  and  N6_23 
REMARK    7  A    between atoms: C12_28  and  N8_29 
ROOT
HETATM    1  C4  UNL     1      -1.028  -0.078   0.400  1.00  0.00     0.136 A 
HETATM    2  N2  UNL     1       0.280  -0.528   0.541  1.00  0.00    -0.176 N 
ATOM      3  H2  UNL     1       0.417  -1.482   0.875  1.00  0.00     0.186 HD
HETATM    4  C5  UNL     1       1.347   0.180   0.277  1.00  0.00     0.683 A 
HETATM    5  N4  UNL     1       1.167   1.440  -0.166  1.00  0.00    -0.175 N 
ATOM      6  H4  UNL     1       1.986   2.010  -0.378  1.00  0.00     0.186 HD
HETATM    7  C10 UNL     1      -0.041   1.963  -0.336  1.00  0.00     0.154 A 
HETATM    8  N5  UNL     1      -0.183   3.214  -0.786  1.00  0.00    -0.175 N 
ATOM      9  H5  UNL     1       0.641   3.777  -0.995  1.00  0.00     0.186 HD
HETATM   10  C11 UNL     1      -1.393   3.722  -0.960  1.00  0.00     0.679 A 
HETATM   11  N7  UNL     1      -2.481   3.010  -0.696  1.00  0.00    -0.176 N 
ATOM     12  H7  UNL     1      -3.403   3.423  -0.839  1.00  0.00     0.186 HD
HETATM   13  C12 UNL     1      -2.379   1.750  -0.242  1.00  0.00     0.132 A 
HETATM   14  C13 UNL     1      -1.156   1.183  -0.045  1.00  0.00     0.098 A 
ENDROOT
BRANCH   1  15
HETATM   15  N1  UNL     1      -1.985  -1.028   0.791  1.00  0.00    -0.368 N 
HETATM   16  C1  UNL     1      -2.673  -0.868   2.033  1.00  0.00     0.151 C 
BRANCH  15  17
HETATM   17  C2  UNL     1      -2.185  -2.206   0.007  1.00  0.00     0.150 C 
BRANCH  17  18
HETATM   18  C3  UNL     1      -3.519  -2.443  -0.602  1.00  0.00     0.183 C 
BRANCH  18  19
HETATM   19  O1  UNL     1      -3.558  -3.633  -1.332  1.00  0.00    -0.399 OA
ATOM     20  H1  UNL     1      -4.411  -3.785  -1.721  1.00  0.00     0.209 HD
ENDBRANCH  18  19
ENDBRANCH  17  18
ENDBRANCH  15  17
ENDBRANCH   1  15
BRANCH   4  21
HETATM   21  N3  UNL     1       2.689  -0.274   0.421  1.00  0.00    -0.213 N 
HETATM   22  C6  UNL     1       3.819   0.572   0.070  1.00  0.00     0.167 C 
HETATM   23  C7  UNL     1       4.557  -0.191  -1.033  1.00  0.00     0.188 C 
HETATM   24  O2  UNL     1       4.877  -1.482  -0.635  1.00  0.00    -0.388 OA
HETATM   25  C8  UNL     1       4.527  -1.754   0.676  1.00  0.00     0.188 C 
HETATM   26  C9  UNL     1       3.025  -1.596   0.922  1.00  0.00     0.167 C 
ENDBRANCH   4  21
BRANCH  13  27
HETATM   27  N8  UNL     1      -3.438   1.119  -0.027  1.00  0.00    -0.384 N 
ATOM     28  H82 UNL     1      -4.354   1.544  -0.174  1.00  0.00     0.157 HD
ATOM     29  H81 UNL     1      -3.361   0.162   0.318  1.00  0.00     0.157 HD
ENDBRANCH  13  27
BRANCH  10  30
HETATM   30  N6  UNL     1      -1.579   4.942  -1.398  1.00  0.00    -0.234 N 
ATOM     31  H62 UNL     1      -0.743   5.489  -1.601  1.00  0.00     0.174 HD
ATOM     32  H61 UNL     1      -2.511   5.333  -1.532  1.00  0.00     0.174 HD
ENDBRANCH  10  30
TORSDOF 7
