REMARK  5 active torsions:
REMARK  status: ('A' for Active; 'I' for Inactive)
REMARK    1  A    between atoms: C3_3  and  N1_4 
REMARK    2  A    between atoms: N1_4  and  C4_6 
REMARK    3  A    between atoms: C6_10  and  C7_11 
REMARK    4  A    between atoms: C7_11  and  O1_12 
REMARK    5  A    between atoms: O1_12  and  C8_13 
ROOT
HETATM    1  C1  UNL     1       7.069   0.866  -0.834  1.00  0.00     0.014 C 
HETATM    2  C2  UNL     1       6.789  -0.165  -0.269  1.00  0.00    -0.097 C 
HETATM    3  C3  UNL     1       6.427  -1.413   0.418  1.00  0.00     0.231 C 
ENDROOT
BRANCH   3   4
HETATM    4  N1  UNL     1       5.280  -1.171   1.267  1.00  0.00    -0.216 N 
ATOM      5  H1  UNL     1       5.409  -1.173   2.279  1.00  0.00     0.178 HD
BRANCH   4   6
HETATM    6  C4  UNL     1       4.109  -0.954   0.796  1.00  0.00     0.678 A 
HETATM    7  N2  UNL     1       3.924  -0.947  -0.535  1.00  0.00    -0.201 N 
HETATM    8  C5  UNL     1       2.706  -0.722  -1.081  1.00  0.00     0.116 A 
ATOM      9  H2  UNL     1       4.721  -1.115  -1.149  1.00  0.00     0.183 HD
HETATM   10  C6  UNL     1       1.637  -0.496  -0.234  1.00  0.00    -0.002 A 
HETATM   11  C13 UNL     1       1.848  -0.507   1.125  1.00  0.00     0.116 A 
HETATM   12  N9  UNL     1       3.091  -0.737   1.641  1.00  0.00    -0.201 N 
ATOM     13  H9  UNL     1       3.242  -0.744   2.650  1.00  0.00     0.183 HD
BRANCH  10  14
HETATM   14  C7  UNL     1       0.302  -0.250  -0.837  1.00  0.00     0.220 C 
BRANCH  14  15
HETATM   15  O1  UNL     1      -0.690  -0.035   0.128  1.00  0.00    -0.317 OA
BRANCH  15  16
HETATM   16  C8  UNL     1      -1.990   0.208  -0.289  1.00  0.00     0.227 A 
HETATM   17  N3  UNL     1      -2.312   0.242  -1.586  1.00  0.00    -0.306 N 
HETATM   18  C9  UNL     1      -3.568   0.476  -2.022  1.00  0.00     0.134 A 
ATOM     19  H3  UNL     1      -1.577   0.084  -2.276  1.00  0.00     0.171 HD
HETATM   20  N4  UNL     1      -3.821   0.497  -3.282  1.00  0.00    -0.383 N 
HETATM   21  C10 UNL     1      -4.566   0.691  -1.098  1.00  0.00     0.139 A 
ATOM     22  H42 UNL     1      -3.082   0.338  -3.966  1.00  0.00     0.157 HD
ATOM     23  H41 UNL     1      -4.770   0.674  -3.611  1.00  0.00     0.157 HD
HETATM   24  N5  UNL     1      -5.884   0.945  -1.169  1.00  0.00    -0.279 N 
HETATM   25  C12 UNL     1      -4.249   0.659   0.247  1.00  0.00     0.158 A 
HETATM   26  N6  UNL     1      -6.344   1.062   0.063  1.00  0.00    -0.239 N 
ATOM     27  H5  UNL     1      -6.433   1.032  -2.025  1.00  0.00     0.189 HD
HETATM   28  N7  UNL     1      -5.389   0.896   0.951  1.00  0.00    -0.264 N 
ATOM     29  H6  UNL     1      -7.318   1.257   0.296  1.00  0.00     0.208 HD
HETATM   30  C11 UNL     1      -5.443   0.939   2.404  1.00  0.00     0.181 C 
HETATM   31  N8  UNL     1      -2.973   0.419   0.599  1.00  0.00    -0.305 N 
ATOM     32  H8  UNL     1      -2.741   0.396   1.592  1.00  0.00     0.171 HD
ENDBRANCH  15  16
ENDBRANCH  14  15
ENDBRANCH  10  14
ENDBRANCH   4   6
ENDBRANCH   3   4
TORSDOF 5
