REMARK  6 active torsions:
REMARK  status: ('A' for Active; 'I' for Inactive)
REMARK    1  A    between atoms: C2_2  and  C3_3 
REMARK    2  A    between atoms: C5_10  and  C6_11 
REMARK    3  A    between atoms: C6_11  and  N4_13 
REMARK    4  A    between atoms: N7_22  and  C10_23 
REMARK    5  A    between atoms: C10_23  and  C12_25 
REMARK    6  A    between atoms: C12_25  and  O1_26 
ROOT
HETATM    1  N4  UNL     1      -1.173  -1.077   0.260  1.00  0.00    -0.214 N 
ATOM      2  H4  UNL     1      -1.432  -1.991   0.631  1.00  0.00     0.178 HD
HETATM    3  C8  UNL     1       0.056  -0.707   0.257  1.00  0.00     0.709 A 
HETATM    4  N5  UNL     1       1.033  -1.648   0.766  1.00  0.00    -0.020 N 
ATOM      5  H5  UNL     1       0.748  -2.569   1.100  1.00  0.00     0.203 HD
HETATM    6  C9  UNL     1       2.384  -1.260   0.788  1.00  0.00     0.709 A 
HETATM    7  N6  UNL     1       3.298  -2.133   1.170  1.00  0.00    -0.233 N 
ATOM      8  H61 UNL     1       4.278  -1.851   1.186  1.00  0.00     0.174 HD
ATOM      9  H62 UNL     1       3.012  -3.056   1.497  1.00  0.00     0.174 HD
HETATM   10  N7  UNL     1       2.787   0.043   0.327  1.00  0.00    -0.100 N 
HETATM   11  N8  UNL     1       1.833   0.931  -0.100  1.00  0.00    -0.207 N 
HETATM   12  C13 UNL     1       2.216   1.921  -1.042  1.00  0.00     0.201 C 
HETATM   13  N9  UNL     1       0.533   0.540  -0.176  1.00  0.00    -0.115 N 
ATOM     14  H9  UNL     1      -0.140   1.196  -0.574  1.00  0.00     0.207 HD
ENDROOT
BRANCH   1  15
HETATM   15  C6  UNL     1      -2.209  -0.172  -0.276  1.00  0.00     0.149 C 
HETATM   16  C7  UNL     1      -2.104  -0.523  -1.822  1.00  0.00     0.039 C 
BRANCH  15  17
HETATM   17  C5  UNL     1      -3.558  -0.534   0.141  1.00  0.00     0.076 A 
HETATM   18  C3  UNL     1      -4.580   0.385   0.409  1.00  0.00     0.053 A 
HETATM   19  N1  UNL     1      -5.641  -0.291   0.864  1.00  0.00    -0.288 N 
HETATM   20  N2  UNL     1      -5.318  -1.548   0.884  1.00  0.00    -0.240 N 
ATOM     21  H1  UNL     1      -6.537   0.107   1.143  1.00  0.00     0.188 HD
HETATM   22  N3  UNL     1      -4.053  -1.725   0.449  1.00  0.00    -0.282 N 
ATOM     23  H2  UNL     1      -5.937  -2.300   1.187  1.00  0.00     0.208 HD
HETATM   24  C4  UNL     1      -3.513  -3.066   0.445  1.00  0.00     0.179 C 
BRANCH  18  25
HETATM   25  C2  UNL     1      -4.605   1.848   0.230  1.00  0.00     0.056 C 
HETATM   26  C1  UNL     1      -3.985   2.514   1.437  1.00  0.00     0.011 C 
ENDBRANCH  18  25
ENDBRANCH  15  17
ENDBRANCH   1  15
BRANCH  10  27
HETATM   27  C10 UNL     1       4.171   0.466   0.300  1.00  0.00     0.148 C 
HETATM   28  C11 UNL     1       4.852   0.439   1.643  1.00  0.00     0.037 C 
BRANCH  27  29
HETATM   29  C12 UNL     1       5.001  -0.200  -0.772  1.00  0.00     0.191 C 
BRANCH  29  30
HETATM   30  O1  UNL     1       6.308   0.339  -0.653  1.00  0.00    -0.399 OA
ATOM     31  H1  UNL     1       6.830  -0.080  -1.327  1.00  0.00     0.209 HD
ENDBRANCH  29  30
ENDBRANCH  27  29
ENDBRANCH  10  27
TORSDOF 6
