REMARK  7 active torsions:
REMARK  status: ('A' for Active; 'I' for Inactive)
REMARK    1  A    between atoms: C2_3  and  N2_4 
REMARK    2  A    between atoms: N2_4  and  C3_6 
REMARK    3  A    between atoms: C4_9  and  C5_10 
REMARK    4  A    between atoms: C6_13  and  C7_14 
REMARK    5  A    between atoms: C7_14  and  C8_15 
REMARK    6  A    between atoms: C8_15  and  O1_16 
REMARK    7  A    between atoms: C11_21  and  C12_22 
ROOT
HETATM    1  N1  UNL     1       7.159   1.565  -1.791  1.00  0.00    -0.196 NA
HETATM    2  C1  UNL     1       6.696   1.397  -0.730  1.00  0.00     0.078 C 
HETATM    3  C2  UNL     1       6.128   1.201   0.602  1.00  0.00     0.246 C 
ENDROOT
BRANCH   3   4
HETATM    4  N2  UNL     1       4.710   1.502   0.553  1.00  0.00    -0.358 N 
ATOM      5  H2  UNL     1       4.378   2.453   0.717  1.00  0.00     0.162 HD
BRANCH   4   6
HETATM    6  C3  UNL     1       3.853   0.531   0.294  1.00  0.00     0.145 A 
HETATM    7  N3  UNL     1       2.530   0.624   0.211  1.00  0.00    -0.333 N 
HETATM    8  C4  UNL     1       1.842  -0.451  -0.056  1.00  0.00     0.085 A 
ATOM      9  H3  UNL     1       2.062   1.519   0.353  1.00  0.00     0.168 HD
HETATM   10  C13 UNL     1       2.537  -1.622  -0.235  1.00  0.00     0.086 A 
HETATM   11  S1  UNL     1       4.152  -1.119  -0.011  1.00  0.00    -0.064 SA
BRANCH   8  12
HETATM   12  C5  UNL     1       0.353  -0.438  -0.163  1.00  0.00     0.134 A 
HETATM   13  N4  UNL     1      -0.340   0.717   0.017  1.00  0.00    -0.343 N 
HETATM   14  C6  UNL     1      -1.677   0.780  -0.068  1.00  0.00     0.036 A 
ATOM     15  H4  UNL     1       0.178   1.571   0.225  1.00  0.00     0.167 HD
HETATM   16  C9  UNL     1      -2.330  -0.425  -0.356  1.00  0.00     0.097 A 
HETATM   17  C10 UNL     1      -3.754  -0.372  -0.456  1.00  0.00     0.104 C 
HETATM   18  C11 UNL     1      -1.635  -1.597  -0.540  1.00  0.00     0.098 A 
HETATM   19  N5  UNL     1      -4.905  -0.304  -0.541  1.00  0.00    -0.191 NA
HETATM   20  N8  UNL     1      -0.300  -1.569  -0.437  1.00  0.00    -0.337 N 
ATOM     21  H8  UNL     1       0.229  -2.431  -0.571  1.00  0.00     0.168 HD
BRANCH  14  22
HETATM   22  C7  UNL     1      -2.433   2.042   0.141  1.00  0.00     0.084 C 
BRANCH  22  23
HETATM   23  C8  UNL     1      -3.070   2.092   1.511  1.00  0.00     0.170 C 
BRANCH  23  24
HETATM   24  O1  UNL     1      -3.768   3.288   1.657  1.00  0.00    -0.400 OA
ATOM     25  H1  UNL     1      -4.168   3.319   2.518  1.00  0.00     0.209 HD
ENDBRANCH  23  24
ENDBRANCH  22  23
ENDBRANCH  14  22
BRANCH  18  26
HETATM   26  C12 UNL     1      -2.297  -2.861  -0.839  1.00  0.00     0.138 C 
HETATM   27  N6  UNL     1      -1.523  -3.909  -0.991  1.00  0.00    -0.386 N 
ATOM     28  H62 UNL     1      -0.516  -3.779  -0.894  1.00  0.00     0.157 HD
ATOM     29  H61 UNL     1      -1.986  -4.793  -1.200  1.00  0.00     0.157 HD
HETATM   30  N7  UNL     1      -3.681  -3.040  -0.973  1.00  0.00    -0.081 NA
ENDBRANCH  18  26
ENDBRANCH   8  12
ENDBRANCH   4   6
ENDBRANCH   3   4
TORSDOF 7
