REMARK  8 active torsions:
REMARK  status: ('A' for Active; 'I' for Inactive)
REMARK    1  A    between atoms: C2_2  and  N1_4 
REMARK    2  A    between atoms: N1_4  and  C4_5 
REMARK    3  A    between atoms: N1_4  and  N3_9 
REMARK    4  A    between atoms: C4_5  and  C5_6 
REMARK    5  A    between atoms: N3_9  and  C6_11 
REMARK    6  A    between atoms: C6_11  and  N4_13 
REMARK    7  A    between atoms: N4_13  and  N5_15 
REMARK       I    between atoms: N5_15  and  C7_17 
REMARK    8  A    between atoms: C7_17  and  C8_19 
ROOT
HETATM    1  C6  UNL     1       0.454   0.349  -0.501  1.00  0.00     0.205 C 
HETATM    2  S1  UNL     1       0.118   0.663   1.053  1.00  0.00    -0.038 SA
ENDROOT
BRANCH   1   3
HETATM    3  N3  UNL     1       1.804   0.180  -0.954  1.00  0.00    -0.277 N 
ATOM      4  H3  UNL     1       1.936  -0.018  -1.946  1.00  0.00     0.189 HD
BRANCH   3   5
HETATM    5  N1  UNL     1       2.933   0.259  -0.182  1.00  0.00    -0.313 N 
BRANCH   5   6
HETATM    6  C2  UNL     1       3.226   1.554   0.331  1.00  0.00     0.094 C 
HETATM    7  C1  UNL     1       3.247   2.556  -0.843  1.00  0.00     0.033 C 
HETATM    8  C3  UNL     1       4.550   1.691   1.013  1.00  0.00     0.033 C 
ENDBRANCH   5   6
BRANCH   5   9
HETATM    9  C4  UNL     1       3.096  -0.809   0.739  1.00  0.00     0.242 C 
BRANCH   9  10
HETATM   10  C5  UNL     1       2.847  -2.137   0.127  1.00  0.00     0.250 C 
HETATM   11  N2  UNL     1       2.993  -3.336   0.863  1.00  0.00    -0.061 NA
HETATM   12  O1  UNL     1       2.504  -2.207  -1.064  1.00  0.00    -0.275 OA
ENDBRANCH   9  10
ENDBRANCH   5   9
ENDBRANCH   3   5
ENDBRANCH   1   3
BRANCH   1  13
HETATM   13  N4  UNL     1      -0.597   0.231  -1.465  1.00  0.00    -0.272 N 
ATOM     14  H4  UNL     1      -0.382   0.025  -2.441  1.00  0.00     0.189 HD
BRANCH  13  15
HETATM   15  N5  UNL     1      -1.898   0.398  -1.061  1.00  0.00    -0.267 N 
HETATM   16  C7  UNL     1      -2.605  -0.612  -0.391  1.00  0.00     0.243 C 
HETATM   17  O2  UNL     1      -2.010  -1.702  -0.162  1.00  0.00    -0.271 OA
ATOM     18  H5  UNL     1      -2.365   1.284  -1.254  1.00  0.00     0.190 HD
BRANCH  16  19
HETATM   19  C8  UNL     1      -4.031  -0.420   0.049  1.00  0.00     0.032 C 
HETATM   20  C9  UNL     1      -4.491  -1.691   0.714  1.00  0.00     0.025 C 
HETATM   21  C10 UNL     1      -4.897  -0.226  -1.203  1.00  0.00     0.025 C 
HETATM   22  C11 UNL     1      -4.198   0.778   0.936  1.00  0.00     0.025 C 
ENDBRANCH  16  19
ENDBRANCH  13  15
ENDBRANCH   1  13
TORSDOF 8
