REMARK  6 active torsions:
REMARK  status: ('A' for Active; 'I' for Inactive)
REMARK    1  A    between atoms: C1_2  and  N1_3 
REMARK    2  A    between atoms: N1_3  and  N2_5 
REMARK    3  A    between atoms: N2_5  and  C2_7 
REMARK    4  A    between atoms: C2_7  and  N3_9 
REMARK    5  A    between atoms: N3_9  and  C3_11 
REMARK    6  A    between atoms: C3_11  and  C4_12 
ROOT
HETATM    1  C4  UNL     1      -0.178  -0.232   0.838  1.00  0.00     0.206 C 
HETATM    2  C5  UNL     1      -0.799   0.382  -0.406  1.00  0.00     0.072 C 
HETATM    3  C6  UNL     1      -2.303   0.362  -0.173  1.00  0.00     0.064 C 
HETATM    4  C7  UNL     1      -2.707  -1.080  -0.024  1.00  0.00     0.040 C 
HETATM    5  C8  UNL     1      -4.035  -1.138  -0.735  1.00  0.00     0.029 C 
HETATM    6  C9  UNL     1      -4.099   0.136  -1.498  1.00  0.00     0.168 C 
HETATM    7  O2  UNL     1      -2.975   0.888  -1.238  1.00  0.00    -0.380 OA
HETATM    8  C10 UNL     1      -2.605   1.156   1.071  1.00  0.00     0.065 C 
HETATM    9  C11 UNL     1      -1.703   0.864   2.220  1.00  0.00     0.235 C 
HETATM   10  N4  UNL     1      -0.309   0.731   1.887  1.00  0.00    -0.069 N 
ATOM     11  H41 UNL     1       0.123   1.625   1.653  1.00  0.00     0.277 HD
ATOM     12  H42 UNL     1       0.266   0.505   2.698  1.00  0.00     0.277 HD
ENDROOT
BRANCH   1  13
HETATM   13  C3  UNL     1       1.185  -0.770   0.605  1.00  0.00     0.155 C 
BRANCH  13  14
HETATM   14  N3  UNL     1       2.168   0.163   0.165  1.00  0.00    -0.364 N 
ATOM     15  H3  UNL     1       1.922   1.145   0.040  1.00  0.00     0.162 HD
BRANCH  14  16
HETATM   16  C2  UNL     1       3.486  -0.278  -0.098  1.00  0.00     0.186 C 
HETATM   17  S1  UNL     1       3.844  -1.853   0.101  1.00  0.00    -0.040 SA
BRANCH  16  18
HETATM   18  N2  UNL     1       4.462   0.643  -0.530  1.00  0.00    -0.274 N 
ATOM     19  H2  UNL     1       4.208   1.624  -0.649  1.00  0.00     0.189 HD
BRANCH  18  20
HETATM   20  N1  UNL     1       5.781   0.232  -0.800  1.00  0.00    -0.275 N 
ATOM     21  H1  UNL     1       6.124   0.335  -1.755  1.00  0.00     0.189 HD
BRANCH  20  22
HETATM   22  C1  UNL     1       6.653  -0.307   0.149  1.00  0.00     0.368 C 
HETATM   23  O1  UNL     1       6.369  -0.487   1.355  1.00  0.00    -0.282 OA
ENDBRANCH  20  22
ENDBRANCH  18  20
ENDBRANCH  16  18
ENDBRANCH  14  16
ENDBRANCH  13  14
ENDBRANCH   1  13
TORSDOF 6
