REMARK  5 active torsions:
REMARK  status: ('A' for Active; 'I' for Inactive)
REMARK    1  A    between atoms: C2_2  and  N1_5 
REMARK       I    between atoms: N1_5  and  C5_7 
REMARK       I    between atoms: C5_7  and  N2_9 
REMARK    2  A    between atoms: N2_9  and  C6_11 
REMARK    3  A    between atoms: C6_11  and  C7_12 
REMARK       I    between atoms: C7_12  and  N3_14 
REMARK       I    between atoms: N3_14  and  C8_16 
REMARK    4  A    between atoms: C8_16  and  C9_18 
REMARK    5  A    between atoms: C9_18  and  O4_19 
ROOT
HETATM    1  C6  UNL     1       1.103   0.135  -0.213  1.00  0.00     0.116 A 
HETATM    2  C10 UNL     1       0.916   0.212  -1.712  1.00  0.00     0.041 A 
HETATM    3  C11 UNL     1       1.203  -1.256  -1.806  1.00  0.00     0.006 A 
HETATM    4  C12 UNL     1       1.285  -1.338  -0.324  1.00  0.00     0.041 A 
ENDROOT
BRANCH   1   5
HETATM    5  N2  UNL     1      -0.057   0.614   0.482  1.00  0.00    -0.325 N 
HETATM    6  C5  UNL     1      -1.377   0.162   0.297  1.00  0.00     0.317 C 
HETATM    7  N1  UNL     1      -2.459   0.731   1.057  1.00  0.00    -0.335 N 
HETATM    8  O1  UNL     1      -1.609  -0.744  -0.538  1.00  0.00    -0.247 OA
ATOM      9  H1  UNL     1      -2.254   1.468   1.732  1.00  0.00     0.165 HD
ATOM     10  H2  UNL     1       0.088   1.350   1.174  1.00  0.00     0.165 HD
BRANCH   7  11
HETATM   11  C2  UNL     1      -3.820   0.295   0.896  1.00  0.00     0.023 C 
HETATM   12  C1  UNL     1      -4.713   1.066   1.816  1.00  0.00     0.037 C 
HETATM   13  C3  UNL     1      -4.284   0.521  -0.531  1.00  0.00     0.037 C 
HETATM   14  C4  UNL     1      -3.854  -1.195   1.173  1.00  0.00     0.037 C 
ENDBRANCH   7  11
ENDBRANCH   1   5
BRANCH   1  15
HETATM   15  C7  UNL     1       2.360   0.817   0.245  1.00  0.00     0.252 C 
HETATM   16  O2  UNL     1       2.281   1.692   1.136  1.00  0.00    -0.270 OA
HETATM   17  N3  UNL     1       3.615   0.496  -0.301  1.00  0.00    -0.294 N 
HETATM   18  C8  UNL     1       4.776   1.163   0.158  1.00  0.00     0.247 C 
ATOM     19  H3  UNL     1       3.689  -0.217  -1.027  1.00  0.00     0.171 HD
HETATM   20  O3  UNL     1       4.641   2.035   1.054  1.00  0.00    -0.271 OA
BRANCH  18  21
HETATM   21  C9  UNL     1       6.117   0.832  -0.413  1.00  0.00     0.267 C 
BRANCH  21  22
HETATM   22  O4  UNL     1       5.960  -0.158  -1.376  1.00  0.00    -0.392 OA
ATOM     23  H4  UNL     1       6.812  -0.368  -1.739  1.00  0.00     0.210 HD
ENDBRANCH  21  22
ENDBRANCH  18  21
ENDBRANCH   1  15
TORSDOF 5
