REMARK  4 active torsions:
REMARK  status: ('A' for Active; 'I' for Inactive)
REMARK    1  A    between atoms: C2_2  and  N1_3 
REMARK    2  A    between atoms: C2_2  and  C12_22 
REMARK       I    between atoms: N1_3  and  C3_5 
REMARK       I    between atoms: C3_5  and  N4_10 
REMARK    3  A    between atoms: N4_10  and  N5_12 
REMARK       I    between atoms: N5_12  and  C5_14 
REMARK    4  A    between atoms: C5_14  and  C6_16 
ROOT
HETATM    1  N1  UNL     1      -2.531   0.362  -0.488  1.00  0.00    -0.210 N 
ATOM      2  H1  UNL     1      -2.269   1.277  -0.856  1.00  0.00     0.178 HD
HETATM    3  C3  UNL     1      -1.593  -0.703  -0.461  1.00  0.00     0.702 C 
HETATM    4  N2  UNL     1      -1.692  -1.655   0.356  1.00  0.00    -0.125 N 
ATOM      5  H2  UNL     1      -2.482  -1.626   1.001  1.00  0.00     0.197 HD
HETATM    6  C4  UNL     1      -0.845  -2.726   0.466  1.00  0.00     0.196 C 
HETATM    7  N3  UNL     1      -0.114  -3.635   0.572  1.00  0.00    -0.171 NA
HETATM    8  N4  UNL     1      -0.512  -0.672  -1.394  1.00  0.00    -0.129 N 
ATOM      9  H4  UNL     1      -0.616  -1.037  -2.341  1.00  0.00     0.205 HD
ENDROOT
BRANCH   1  10
HETATM   10  C2  UNL     1      -3.859   0.125   0.014  1.00  0.00     0.196 C 
HETATM   11  C1  UNL     1      -3.830  -0.281   1.468  1.00  0.00     0.044 C 
BRANCH  10  12
HETATM   12  C12 UNL     1      -4.730   1.286  -0.246  1.00  0.00     0.196 C 
HETATM   13  O2  UNL     1      -4.239   2.308  -0.835  1.00  0.00    -0.646 OA
HETATM   14  O3  UNL     1      -6.058   1.332   0.113  1.00  0.00    -0.646 OA
ENDBRANCH  10  12
ENDBRANCH   1  10
BRANCH   8  15
HETATM   15  N5  UNL     1       0.688  -0.122  -0.956  1.00  0.00    -0.251 N 
HETATM   16  C5  UNL     1       1.932  -0.763  -1.107  1.00  0.00     0.270 C 
HETATM   17  O1  UNL     1       1.984  -1.894  -1.674  1.00  0.00    -0.266 OA
ATOM     18  H5  UNL     1       0.665   0.791  -0.503  1.00  0.00     0.191 HD
BRANCH  16  19
HETATM   19  C6  UNL     1       3.172  -0.135  -0.612  1.00  0.00     0.033 A 
HETATM   20  C7  UNL     1       4.298  -0.884  -0.349  1.00  0.00     0.017 A 
HETATM   21  C8  UNL     1       5.458  -0.297   0.126  1.00  0.00     0.001 A 
HETATM   22  C9  UNL     1       5.540   1.061   0.356  1.00  0.00     0.000 A 
HETATM   23  C10 UNL     1       4.408   1.807   0.089  1.00  0.00     0.001 A 
HETATM   24  C11 UNL     1       3.241   1.220  -0.387  1.00  0.00     0.017 A 
ENDBRANCH  16  19
ENDBRANCH   8  15
TORSDOF 4
