REMARK  7 active torsions:
REMARK  status: ('A' for Active; 'I' for Inactive)
REMARK    1  A    between atoms: O1_2  and  C2_3 
REMARK    2  A    between atoms: C7_8  and  C8_9 
REMARK    3  A    between atoms: C8_9  and  O2_10 
REMARK    4  A    between atoms: C8_9  and  N1_12 
REMARK    5  A    between atoms: N1_12  and  N2_14 
REMARK       I    between atoms: N2_14  and  C9_16 
REMARK    6  A    between atoms: C9_16  and  C10_18 
REMARK    7  A    between atoms: C10_18  and  N3_20 
REMARK       I    between atoms: N3_20  and  C12_22 
ROOT
HETATM    1  N1  UNL     1      -0.599  -0.467  -0.442  1.00  0.00    -0.277 N 
ATOM      2  H1  UNL     1      -0.864   0.379  -0.947  1.00  0.00     0.189 HD
ENDROOT
BRANCH   1   3
HETATM    3  C8  UNL     1      -1.540  -1.189   0.283  1.00  0.00     0.168 C 
BRANCH   3   4
HETATM    4  C7  UNL     1      -2.942  -0.891   0.436  1.00  0.00     0.049 A 
HETATM    5  C2  UNL     1      -3.566   0.174  -0.127  1.00  0.00     0.082 A 
HETATM    6  C3  UNL     1      -4.931   0.418   0.053  1.00  0.00     0.038 A 
HETATM    7  C4  UNL     1      -5.686  -0.434   0.819  1.00  0.00     0.003 A 
HETATM    8  C5  UNL     1      -5.071  -1.514   1.394  1.00  0.00     0.001 A 
HETATM    9  C6  UNL     1      -3.747  -1.737   1.211  1.00  0.00     0.018 A 
BRANCH   5  10
HETATM   10  O1  UNL     1      -2.876   1.071  -0.907  1.00  0.00    -0.355 OA
HETATM   11  C1  UNL     1      -3.530   2.172  -1.487  1.00  0.00     0.210 C 
ENDBRANCH   5  10
ENDBRANCH   3   4
BRANCH   3  12
HETATM   12  O2  UNL     1      -1.066  -2.247   0.878  1.00  0.00    -0.344 OA
ATOM     13  H2  UNL     1      -0.142  -2.443   0.777  1.00  0.00     0.219 HD
ENDBRANCH   3  12
ENDBRANCH   1   3
BRANCH   1  14
HETATM   14  N2  UNL     1       0.744  -0.939  -0.462  1.00  0.00    -0.266 N 
HETATM   15  C9  UNL     1       1.810  -0.020  -0.444  1.00  0.00     0.258 C 
HETATM   16  O3  UNL     1       1.570   1.201  -0.412  1.00  0.00    -0.269 OA
ATOM     17  H2  UNL     1       0.933  -1.941  -0.489  1.00  0.00     0.190 HD
BRANCH  15  18
HETATM   18  C10 UNL     1       3.198  -0.518  -0.464  1.00  0.00     0.174 C 
HETATM   19  C11 UNL     1       3.366  -1.432  -1.632  1.00  0.00     0.042 C 
BRANCH  18  20
HETATM   20  N3  UNL     1       4.169   0.555  -0.438  1.00  0.00    -0.348 N 
HETATM   21  C12 UNL     1       5.094   0.704   0.612  1.00  0.00     0.214 C 
HETATM   22  C13 UNL     1       6.078   1.812   0.614  1.00  0.00     0.117 C 
HETATM   23  O4  UNL     1       5.097  -0.105   1.566  1.00  0.00    -0.274 OA
ATOM     24  H3  UNL     1       4.183   1.226  -1.206  1.00  0.00     0.163 HD
ENDBRANCH  18  20
ENDBRANCH  15  18
ENDBRANCH   1  14
TORSDOF 7
