REMARK  5 active torsions:
REMARK  status: ('A' for Active; 'I' for Inactive)
REMARK    1  A    between atoms: S1_2  and  N1_5 
REMARK    2  A    between atoms: N1_5  and  C2_7 
REMARK    3  A    between atoms: C2_7  and  C3_8 
REMARK       I    between atoms: C3_8  and  N2_10 
REMARK    4  A    between atoms: N2_10  and  N3_12 
REMARK       I    between atoms: N3_12  and  C4_14 
REMARK       I    between atoms: C4_14  and  N4_16 
REMARK    5  A    between atoms: N4_16  and  C5_18 
ROOT
HETATM    1  C3  UNL     1       1.261   0.122  -0.950  1.00  0.00     0.254 C 
HETATM    2  O3  UNL     1       0.780  -0.821  -1.640  1.00  0.00    -0.270 OA
HETATM    3  N2  UNL     1       0.495   1.261  -0.612  1.00  0.00    -0.265 N 
ATOM      4  H2  UNL     1       0.895   2.015  -0.054  1.00  0.00     0.190 HD
ENDROOT
BRANCH   3   5
HETATM    5  N3  UNL     1      -0.824   1.324  -1.064  1.00  0.00    -0.249 N 
HETATM    6  C4  UNL     1      -1.919   0.900  -0.263  1.00  0.00     0.339 C 
HETATM    7  O4  UNL     1      -1.659   0.468   0.863  1.00  0.00    -0.245 OA
HETATM    8  N4  UNL     1      -3.219   0.986  -0.768  1.00  0.00    -0.307 N 
ATOM      9  H4  UNL     1      -3.358   1.348  -1.711  1.00  0.00     0.170 HD
ATOM     10  H3  UNL     1      -1.008   1.686  -2.000  1.00  0.00     0.192 HD
BRANCH   8  11
HETATM   11  C5  UNL     1      -4.377   0.578   0.004  1.00  0.00     0.043 A 
HETATM   12  C6  UNL     1      -4.435   0.502   1.341  1.00  0.00     0.037 A 
HETATM   13  C7  UNL     1      -5.607   0.067   1.909  1.00  0.00     0.052 A 
HETATM   14  S2  UNL     1      -6.599  -0.224   0.563  1.00  0.00    -0.111 SA
HETATM   15  C8  UNL     1      -5.521   0.206  -0.681  1.00  0.00     0.079 A 
ENDBRANCH   8  11
ENDBRANCH   3   5
BRANCH   1  16
HETATM   16  C2  UNL     1       2.682   0.064  -0.458  1.00  0.00     0.236 C 
BRANCH  16  17
HETATM   17  N1  UNL     1       3.266  -1.178  -0.917  1.00  0.00    -0.311 N 
ATOM     18  H1  UNL     1       2.779  -1.878  -1.477  1.00  0.00     0.172 HD
BRANCH  17  19
HETATM   19  S1  UNL     1       4.908  -1.308  -0.382  1.00  0.00     0.223 S 
HETATM   20  C1  UNL     1       4.898  -1.306   1.384  1.00  0.00     0.185 C 
HETATM   21  O1  UNL     1       5.511  -2.591  -0.875  1.00  0.00    -0.206 OA
HETATM   22  O2  UNL     1       5.712  -0.131  -0.861  1.00  0.00    -0.206 OA
ENDBRANCH  17  19
ENDBRANCH  16  17
ENDBRANCH   1  16
TORSDOF 5
