REMARK  9 active torsions:
REMARK  status: ('A' for Active; 'I' for Inactive)
REMARK    1  A    between atoms: C2_2  and  O1_3 
REMARK    2  A    between atoms: C2_2  and  N1_5 
REMARK    3  A    between atoms: N1_5  and  C3_7 
REMARK    4  A    between atoms: C3_7  and  O2_8 
REMARK    5  A    between atoms: C4_10  and  N2_11 
REMARK    6  A    between atoms: N2_11  and  C5_13 
REMARK    7  A    between atoms: C5_13  and  N3_15 
REMARK    8  A    between atoms: N3_15  and  N4_17 
REMARK       I    between atoms: N4_17  and  C6_19 
REMARK    9  A    between atoms: C6_19  and  C7_21 
ROOT
HETATM    1  C5  UNL     1      -0.217   0.404   0.061  1.00  0.00     0.190 C 
HETATM    2  S1  UNL     1       0.136   1.965   0.327  1.00  0.00    -0.039 SA
ENDROOT
BRANCH   1   3
HETATM    3  N2  UNL     1      -1.562   0.080  -0.406  1.00  0.00    -0.338 N 
ATOM      4  H2  UNL     1      -1.862  -0.880  -0.574  1.00  0.00     0.167 HD
BRANCH   3   5
HETATM    5  C4  UNL     1      -2.415   1.177  -0.609  1.00  0.00     0.146 C 
HETATM    6  C3  UNL     1      -3.818   1.120  -0.841  1.00  0.00     0.157 C 
BRANCH   6   7
HETATM    7  N1  UNL     1      -4.871   0.248  -0.918  1.00  0.00    -0.321 N 
ATOM      8  H1  UNL     1      -5.720   0.741  -1.195  1.00  0.00     0.169 HD
BRANCH   7   9
HETATM    9  C2  UNL     1      -5.136  -1.109  -0.733  1.00  0.00     0.113 C 
HETATM   10  C1  UNL     1      -4.211  -2.202  -0.366  1.00  0.00     0.097 C 
BRANCH   9  11
HETATM   11  O1  UNL     1      -6.374  -1.482  -0.903  1.00  0.00    -0.350 OA
ATOM     12  H1  UNL     1      -6.968  -0.780  -1.139  1.00  0.00     0.219 HD
ENDBRANCH   9  11
ENDBRANCH   7   9
ENDBRANCH   6   7
BRANCH   6  13
HETATM   13  O2  UNL     1      -4.258   2.406  -1.064  1.00  0.00    -0.345 OA
ATOM     14  H2  UNL     1      -3.527   3.011  -1.011  1.00  0.00     0.219 HD
ENDBRANCH   6  13
ENDBRANCH   3   5
ENDBRANCH   1   3
BRANCH   1  15
HETATM   15  N3  UNL     1       0.734  -0.588   0.289  1.00  0.00    -0.273 N 
ATOM     16  H3  UNL     1       0.442  -1.547   0.102  1.00  0.00     0.189 HD
BRANCH  15  17
HETATM   17  N4  UNL     1       2.025  -0.417   0.739  1.00  0.00    -0.262 N 
HETATM   18  C6  UNL     1       2.948   0.370   0.011  1.00  0.00     0.293 C 
HETATM   19  O3  UNL     1       2.678   0.953  -1.060  1.00  0.00    -0.264 OA
ATOM     20  H4  UNL     1       2.319  -0.863   1.608  1.00  0.00     0.190 HD
BRANCH  18  21
HETATM   21  C7  UNL     1       4.313   0.494   0.581  1.00  0.00     0.144 A 
HETATM   22  C8  UNL     1       4.824  -0.213   1.661  1.00  0.00     0.045 A 
HETATM   23  C9  UNL     1       6.121   0.195   1.875  1.00  0.00     0.027 A 
HETATM   24  C10 UNL     1       6.342   1.156   0.889  1.00  0.00     0.143 A 
HETATM   25  O4  UNL     1       5.245   1.296   0.151  1.00  0.00    -0.317 OA
ENDBRANCH  18  21
ENDBRANCH  15  17
ENDBRANCH   1  15
TORSDOF 9
