REMARK  5 active torsions:
REMARK  status: ('A' for Active; 'I' for Inactive)
REMARK    1  A    between atoms: C1_2  and  C2_4 
REMARK    2  A    between atoms: C5_7  and  C6_8 
REMARK       I    between atoms: C6_8  and  N1_10 
REMARK    3  A    between atoms: N1_10  and  C7_12 
REMARK    4  A    between atoms: C13_18  and  O4_19 
REMARK    5  A    between atoms: C13_18  and  C14_21 
ROOT
HETATM    1  C7  UNL     1      -1.196  -0.385  -0.561  1.00  0.00     0.134 C 
HETATM    2  C8  UNL     1      -2.053  -1.390   0.177  1.00  0.00     0.012 C 
HETATM    3  C9  UNL     1      -3.378  -1.422  -0.520  1.00  0.00     0.007 C 
HETATM    4  C10 UNL     1      -4.070  -0.127  -0.082  1.00  0.00     0.009 C 
HETATM    5  C11 UNL     1      -3.008   0.614   0.646  1.00  0.00     0.033 C 
HETATM    6  C12 UNL     1      -2.400  -0.576   1.435  1.00  0.00     0.015 C 
HETATM    7  C13 UNL     1      -1.837   0.964  -0.199  1.00  0.00     0.170 C 
ENDROOT
BRANCH   1   8
HETATM    8  N1  UNL     1       0.174  -0.476  -0.134  1.00  0.00    -0.352 N 
HETATM    9  C6  UNL     1       1.222  -0.650  -1.065  1.00  0.00     0.223 C 
HETATM   10  O3  UNL     1       0.949  -0.725  -2.288  1.00  0.00    -0.273 OA
ATOM     11  H1  UNL     1       0.393  -0.414   0.860  1.00  0.00     0.163 HD
BRANCH   9  12
HETATM   12  C5  UNL     1       2.648  -0.750  -0.685  1.00  0.00     0.092 C 
HETATM   13  C2  UNL     1       3.185   0.485   0.052  1.00  0.00     0.100 C 
HETATM   14  C3  UNL     1       4.473   0.276  -0.741  1.00  0.00     0.017 C 
HETATM   15  C4  UNL     1       3.588  -0.359  -1.818  1.00  0.00     0.016 C 
BRANCH  13  16
HETATM   16  C1  UNL     1       3.383   0.289   1.489  1.00  0.00     0.177 C 
HETATM   17  O1  UNL     1       3.149   1.239   2.276  1.00  0.00    -0.648 OA
HETATM   18  O2  UNL     1       3.823  -0.911   2.014  1.00  0.00    -0.648 OA
ENDBRANCH  13  16
ENDBRANCH   9  12
ENDBRANCH   1   8
BRANCH   7  19
HETATM   19  O4  UNL     1      -0.909   1.736   0.522  1.00  0.00    -0.377 OA
ATOM     20  H4  UNL     1      -1.305   2.570   0.746  1.00  0.00     0.211 HD
ENDBRANCH   7  19
BRANCH   7  21
HETATM   21  C14 UNL     1      -2.175   1.730  -1.402  1.00  0.00     0.211 C 
HETATM   22  O5  UNL     1      -2.902   1.316  -2.334  1.00  0.00    -0.646 OA
HETATM   23  O6  UNL     1      -1.666   3.036  -1.562  1.00  0.00    -0.646 OA
ENDBRANCH   7  21
TORSDOF 5
