REMARK  8 active torsions:
REMARK  status: ('A' for Active; 'I' for Inactive)
REMARK       I    between atoms: C2_2  and  N1_4 
REMARK    1  A    between atoms: C7_9  and  N2_10 
REMARK    2  A    between atoms: N2_10  and  C8_12 
REMARK    3  A    between atoms: C8_12  and  C9_13 
REMARK    4  A    between atoms: C9_13  and  O2_14 
REMARK    5  A    between atoms: C10_16  and  O3_17 
REMARK    6  A    between atoms: C10_16  and  N3_19 
REMARK       I    between atoms: N3_19  and  C11_20 
REMARK       I    between atoms: C11_20  and  N5_22 
REMARK    7  A    between atoms: N5_22  and  N6_24 
REMARK    8  A    between atoms: N6_24  and  N7_25 
ROOT
HETATM    1  C8  UNL     1       1.874  -0.839  -0.261  1.00  0.00     0.099 C 
HETATM    2  C10 UNL     1       2.951   0.032   0.129  1.00  0.00     0.243 C 
ENDROOT
BRANCH   1   3
HETATM    3  N2  UNL     1       0.687  -0.231  -0.267  1.00  0.00    -0.359 N 
ATOM      4  H2  UNL     1       0.705   0.705  -0.671  1.00  0.00     0.165 HD
BRANCH   3   5
HETATM    5  C7  UNL     1      -0.577  -0.633   0.175  1.00  0.00     0.005 C 
HETATM    6  C6  UNL     1      -1.457  -1.552  -0.469  1.00  0.00     0.054 C 
HETATM    7  C5  UNL     1      -2.589  -1.852   0.532  1.00  0.00     0.007 C 
HETATM    8  C4  UNL     1      -3.845  -1.166   0.142  1.00  0.00     0.020 C 
HETATM    9  C3  UNL     1      -3.793   0.319   0.181  1.00  0.00     0.126 C 
HETATM   10  N1  UNL     1      -2.518   0.891   0.400  1.00  0.00    -0.347 N 
HETATM   11  C2  UNL     1      -2.444   2.314   0.106  1.00  0.00     0.216 C 
HETATM   12  C12 UNL     1      -1.282   0.427   0.948  1.00  0.00     0.178 C 
HETATM   13  C1  UNL     1      -3.788   3.072  -0.012  1.00  0.00     0.117 C 
HETATM   14  O1  UNL     1      -1.417   2.915  -0.042  1.00  0.00    -0.274 OA
ENDBRANCH   3   5
ENDBRANCH   1   3
BRANCH   1  15
HETATM   15  C9  UNL     1       2.249  -2.067  -0.973  1.00  0.00     0.226 C 
BRANCH  15  16
HETATM   16  O2  UNL     1       1.734  -3.290  -0.429  1.00  0.00    -0.395 OA
ATOM     17  H2  UNL     1       1.977  -4.085  -0.890  1.00  0.00     0.209 HD
ENDBRANCH  15  16
ENDBRANCH   1  15
BRANCH   2  18
HETATM   18  O3  UNL     1       2.405   0.820   1.261  1.00  0.00    -0.334 OA
ATOM     19  H3  UNL     1       3.116   1.395   1.518  1.00  0.00     0.220 HD
ENDBRANCH   2  18
BRANCH   2  20
HETATM   20  N3  UNL     1       4.194   0.322  -0.168  1.00  0.00    -0.345 NA
HETATM   21  C11 UNL     1       5.450   0.618  -0.462  1.00  0.00     0.296 C 
HETATM   22  N4  UNL     1       6.055   0.188  -1.656  1.00  0.00    -0.047 NA
HETATM   23  N5  UNL     1       6.376   1.423   0.200  1.00  0.00    -0.175 N 
ATOM     24  H5  UNL     1       7.321   1.136   0.454  1.00  0.00     0.207 HD
BRANCH  23  25
HETATM   25  N6  UNL     1       5.874   2.565   0.441  1.00  0.00    -0.240 NA
BRANCH  25  26
HETATM   26  N7  UNL     1       5.609   3.667   0.878  1.00  0.00    -0.260 N 
ATOM     27  H72 UNL     1       6.367   3.628   1.560  1.00  0.00     0.193 HD
ATOM     28  H71 UNL     1       5.206   4.584   1.071  1.00  0.00     0.193 HD
ENDBRANCH  25  26
ENDBRANCH  23  25
ENDBRANCH   2  20
TORSDOF 8
