REMARK  6 active torsions:
REMARK  status: ('A' for Active; 'I' for Inactive)
REMARK    1  A    between atoms: N1_3  and  N2_5 
REMARK       I    between atoms: N2_5  and  C3_7 
REMARK    2  A    between atoms: C3_7  and  C4_9 
REMARK    3  A    between atoms: C4_9  and  N4_14 
REMARK    4  A    between atoms: N3_10  and  O2_12 
REMARK    5  A    between atoms: N4_14  and  C5_16 
REMARK    6  A    between atoms: C5_16  and  C6_17 
REMARK       I    between atoms: N5_21  and  C10_22 
REMARK       I    between atoms: C10_22  and  N6_24 
ROOT
HETATM    1  N4  UNL     1       0.937  -0.830   0.938  1.00  0.00    -0.370 N 
ATOM      2  H4  UNL     1       0.463  -0.183   1.568  1.00  0.00     0.161 HD
ENDROOT
BRANCH   1   3
HETATM    3  C4  UNL     1       2.343  -0.828   0.831  1.00  0.00     0.192 C 
HETATM    4  N3  UNL     1       3.013  -1.717   1.468  1.00  0.00    -0.248 N 
ATOM      5  H3  UNL     1       4.031  -1.730   1.404  1.00  0.00     0.196 HD
BRANCH   3   6
HETATM    6  C3  UNL     1       3.021   0.178   0.005  1.00  0.00     0.305 C 
HETATM    7  N2  UNL     1       4.422   0.225  -0.135  1.00  0.00    -0.264 N 
ATOM      8  H2  UNL     1       5.003  -0.459   0.350  1.00  0.00     0.190 HD
HETATM    9  O1  UNL     1       2.325   1.030  -0.601  1.00  0.00    -0.263 OA
BRANCH   7  10
HETATM   10  N1  UNL     1       5.019   1.197  -0.930  1.00  0.00    -0.313 N 
HETATM   11  C2  UNL     1       5.906   2.021  -0.515  1.00  0.00     0.076 C 
HETATM   12  C1  UNL     1       6.473   3.014  -1.450  1.00  0.00     0.056 C 
ATOM     13  H1  UNL     1       4.732   1.257  -1.907  1.00  0.00     0.185 HD
ENDBRANCH   7  10
ENDBRANCH   3   6
BRANCH   4  14
HETATM   14  O2  UNL     1       2.364  -2.648   2.234  1.00  0.00    -0.288 OA
ATOM     15  H2  UNL     1       2.860  -3.306   2.706  1.00  0.00     0.244 HD
ENDBRANCH   4  14
ENDBRANCH   1   3
BRANCH   1  16
HETATM   16  C5  UNL     1       0.189  -1.756   0.147  1.00  0.00     0.127 C 
BRANCH  16  17
HETATM   17  C6  UNL     1      -1.301  -1.652   0.357  1.00  0.00     0.021 C 
HETATM   18  C7  UNL     1      -1.908  -2.714  -0.570  1.00  0.00     0.009 C 
HETATM   19  C8  UNL     1      -3.411  -2.718  -0.447  1.00  0.00     0.020 C 
HETATM   20  C9  UNL     1      -3.989  -1.389  -0.761  1.00  0.00     0.127 C 
HETATM   21  N5  UNL     1      -3.208  -0.257  -0.356  1.00  0.00    -0.334 N 
HETATM   22  C10 UNL     1      -3.853   1.013  -0.394  1.00  0.00     0.317 C 
HETATM   23  C12 UNL     1      -1.847  -0.297   0.078  1.00  0.00     0.133 C 
HETATM   24  O3  UNL     1      -5.067   1.145  -0.768  1.00  0.00    -0.247 OA
HETATM   25  N6  UNL     1      -3.165   2.209  -0.011  1.00  0.00    -0.347 N 
HETATM   26  C11 UNL     1      -3.818   3.496  -0.049  1.00  0.00     0.151 C 
ATOM     27  H6  UNL     1      -2.194   2.150   0.295  1.00  0.00     0.163 HD
ENDBRANCH  16  17
ENDBRANCH   1  16
TORSDOF 6
