REMARK  9 active torsions:
REMARK  status: ('A' for Active; 'I' for Inactive)
REMARK    1  A    between atoms: C2_2  and  C4_4 
REMARK    2  A    between atoms: C4_4  and  N1_5 
REMARK    3  A    between atoms: C4_4  and  C16_25 
REMARK       I    between atoms: N1_5  and  C5_7 
REMARK    4  A    between atoms: C5_7  and  C6_9 
REMARK    5  A    between atoms: C6_9  and  O2_11 
REMARK    6  A    between atoms: C6_9  and  N2_13 
REMARK       I    between atoms: N2_13  and  C8_15 
REMARK    7  A    between atoms: C8_15  and  O4_17 
REMARK    8  A    between atoms: O4_17  and  C9_18 
REMARK    9  A    between atoms: C9_18  and  C10_19 
ROOT
HETATM    1  C6  UNL     1       0.005   1.341   0.685  1.00  0.00     0.215 C 
HETATM    2  C7  UNL     1      -0.758   2.326  -0.186  1.00  0.00     0.082 C 
ENDROOT
BRANCH   1   3
HETATM    3  C5  UNL     1       1.008   0.707  -0.174  1.00  0.00     0.274 C 
HETATM    4  N1  UNL     1       2.394   0.881   0.149  1.00  0.00    -0.342 N 
ATOM      5  H1  UNL     1       2.669   1.435   0.960  1.00  0.00     0.163 HD
HETATM    6  O1  UNL     1       0.668   0.025  -1.172  1.00  0.00    -0.268 OA
BRANCH   4   7
HETATM    7  C4  UNL     1       3.386   0.268  -0.680  1.00  0.00     0.189 C 
BRANCH   7   8
HETATM    8  C2  UNL     1       4.180  -0.709   0.162  1.00  0.00     0.010 C 
HETATM    9  C1  UNL     1       4.861  -0.003   1.312  1.00  0.00     0.012 C 
HETATM   10  C3  UNL     1       5.138  -1.493  -0.692  1.00  0.00     0.012 C 
ENDBRANCH   7   8
BRANCH   7  11
HETATM   11  C16 UNL     1       4.254   1.312  -1.272  1.00  0.00     0.197 C 
HETATM   12  O5  UNL     1       4.056   2.544  -1.011  1.00  0.00    -0.646 OA
HETATM   13  O6  UNL     1       5.310   1.010  -2.125  1.00  0.00    -0.646 OA
ENDBRANCH   7  11
ENDBRANCH   4   7
ENDBRANCH   1   3
BRANCH   1  14
HETATM   14  O2  UNL     1       0.623   2.098   1.687  1.00  0.00    -0.363 OA
ATOM     15  H2  UNL     1      -0.027   2.509   2.244  1.00  0.00     0.213 HD
ENDBRANCH   1  14
BRANCH   1  16
HETATM   16  N2  UNL     1      -0.850   0.381   1.286  1.00  0.00    -0.297 N 
HETATM   17  C8  UNL     1      -1.756  -0.506   0.671  1.00  0.00     0.363 C 
HETATM   18  O3  UNL     1      -1.971  -0.591  -0.566  1.00  0.00    -0.238 OA
ATOM     19  H2  UNL     1      -0.802   0.325   2.303  1.00  0.00     0.168 HD
BRANCH  17  20
HETATM   20  O4  UNL     1      -2.522  -1.402   1.444  1.00  0.00    -0.299 OA
BRANCH  20  21
HETATM   21  C9  UNL     1      -3.431  -2.290   0.846  1.00  0.00     0.219 C 
BRANCH  21  22
HETATM   22  C10 UNL     1      -4.461  -1.545   0.111  1.00  0.00    -0.034 A 
HETATM   23  C11 UNL     1      -5.192  -0.593   0.784  1.00  0.00     0.009 A 
HETATM   24  C12 UNL     1      -6.179   0.137   0.151  1.00  0.00     0.001 A 
HETATM   25  C13 UNL     1      -6.421  -0.108  -1.184  1.00  0.00     0.000 A 
HETATM   26  C14 UNL     1      -5.713  -1.052  -1.899  1.00  0.00     0.001 A 
HETATM   27  C15 UNL     1      -4.742  -1.750  -1.219  1.00  0.00     0.009 A 
ENDBRANCH  21  22
ENDBRANCH  20  21
ENDBRANCH  17  20
ENDBRANCH   1  16
TORSDOF 9
