REMARK  10 active torsions:
REMARK  status: ('A' for Active; 'I' for Inactive)
REMARK    1  A    between atoms: C1_2  and  C2_4 
REMARK    2  A    between atoms: C2_4  and  C3_5 
REMARK    3  A    between atoms: C3_5  and  N2_6 
REMARK    4  A    between atoms: C3_5  and  C4_10 
REMARK    5  A    between atoms: C4_10  and  N3_11 
REMARK    6  A    between atoms: C4_10  and  C5_15 
REMARK    7  A    between atoms: C4_10  and  N4_17 
REMARK    8  A    between atoms: N4_17  and  C6_19 
REMARK    9  A    between atoms: C6_19  and  C7_20 
REMARK   10  A    between atoms: C6_19  and  C13_26 
ROOT
HETATM    1  C4  UNL     1       1.433   0.641  -0.638  1.00  0.00     0.274 C 
ENDROOT
BRANCH   1   2
HETATM    2  C3  UNL     1       2.103  -0.604   0.052  1.00  0.00     0.254 C 
BRANCH   2   3
HETATM    3  C2  UNL     1       3.574  -0.289   0.089  1.00  0.00     0.137 C 
BRANCH   3   4
HETATM    4  C1  UNL     1       4.374  -1.435   0.592  1.00  0.00     0.233 C 
HETATM    5  N1  UNL     1       5.776  -1.331   0.675  1.00  0.00    -0.062 NA
HETATM    6  O1  UNL     1       3.808  -2.481   0.940  1.00  0.00    -0.277 OA
ENDBRANCH   3   4
ENDBRANCH   2   3
BRANCH   2   7
HETATM    7  N2  UNL     1       1.934  -1.743  -0.823  1.00  0.00    -0.070 N 
ATOM      8  H23 UNL     1       2.336  -1.599  -1.749  1.00  0.00     0.274 HD
ATOM      9  H22 UNL     1       2.508  -2.542  -0.555  1.00  0.00     0.274 HD
ATOM     10  H21 UNL     1       0.937  -1.957  -0.848  1.00  0.00     0.274 HD
ENDBRANCH   2   7
ENDBRANCH   1   2
BRANCH   1  11
HETATM   11  N3  UNL     1       2.119   0.612  -1.949  1.00  0.00    -0.044 N 
ATOM     12  H33 UNL     1       3.138   0.617  -1.917  1.00  0.00     0.277 HD
ATOM     13  H32 UNL     1       2.058  -0.267  -2.463  1.00  0.00     0.277 HD
ATOM     14  H31 UNL     1       1.685   1.419  -2.396  1.00  0.00     0.277 HD
ENDBRANCH   1  11
BRANCH   1  15
HETATM   15  C5  UNL     1       1.878   1.780   0.159  1.00  0.00     0.294 C 
HETATM   16  O2  UNL     1       1.278   2.475   0.936  1.00  0.00    -0.302 OA
ENDBRANCH   1  15
BRANCH   1  17
HETATM   17  N4  UNL     1       0.083   0.388  -0.837  1.00  0.00    -0.371 N 
ATOM     18  H4  UNL     1      -0.249   0.385  -1.801  1.00  0.00     0.157 HD
BRANCH  17  19
HETATM   19  C6  UNL     1      -0.857   0.139   0.151  1.00  0.00     0.146 C 
BRANCH  19  20
HETATM   20  C7  UNL     1      -1.602   1.261   0.747  1.00  0.00    -0.031 A 
HETATM   21  C8  UNL     1      -2.095   2.311  -0.028  1.00  0.00     0.009 A 
HETATM   22  C9  UNL     1      -2.811   3.351   0.496  1.00  0.00     0.001 A 
HETATM   23  C10 UNL     1      -3.071   3.392   1.850  1.00  0.00     0.000 A 
HETATM   24  C11 UNL     1      -2.582   2.346   2.637  1.00  0.00     0.001 A 
HETATM   25  C12 UNL     1      -1.865   1.304   2.105  1.00  0.00     0.009 A 
ENDBRANCH  19  20
BRANCH  19  26
HETATM   26  C13 UNL     1      -1.833  -0.905  -0.333  1.00  0.00    -0.031 A 
HETATM   27  C14 UNL     1      -2.429  -0.824  -1.573  1.00  0.00     0.009 A 
HETATM   28  C15 UNL     1      -3.315  -1.773  -2.055  1.00  0.00     0.001 A 
HETATM   29  C16 UNL     1      -3.628  -2.854  -1.279  1.00  0.00     0.000 A 
HETATM   30  C17 UNL     1      -3.055  -2.974  -0.032  1.00  0.00     0.001 A 
HETATM   31  C18 UNL     1      -2.172  -2.008   0.422  1.00  0.00     0.009 A 
ENDBRANCH  19  26
ENDBRANCH  17  19
ENDBRANCH   1  17
TORSDOF 10
