REMARK  10 active torsions:
REMARK  status: ('A' for Active; 'I' for Inactive)
REMARK    1  A    between atoms: O1_2  and  C2_3 
REMARK       I    between atoms: C2_3  and  N1_5 
REMARK    2  A    between atoms: N1_5  and  C3_7 
REMARK    3  A    between atoms: C3_7  and  C4_8 
REMARK    4  A    between atoms: C3_7  and  C11_15 
REMARK    5  A    between atoms: C4_8  and  C5_9 
REMARK    6  A    between atoms: C11_15  and  O3_16 
REMARK    7  A    between atoms: C11_15  and  N2_18 
REMARK    8  A    between atoms: N2_18  and  C12_20 
REMARK    9  A    between atoms: C12_20  and  C13_21 
REMARK   10  A    between atoms: C12_20  and  C14_24 
ROOT
HETATM    1  C3  UNL     1      -0.135   1.028   0.272  1.00  0.00     0.161 C 
ENDROOT
BRANCH   1   2
HETATM    2  N1  UNL     1      -0.742   2.403   0.204  1.00  0.00    -0.325 N 
HETATM    3  C2  UNL     1      -0.202   3.493   0.889  1.00  0.00     0.360 C 
HETATM    4  O2  UNL     1       0.820   3.357   1.592  1.00  0.00    -0.239 OA
ATOM      5  H1  UNL     1      -1.578   2.544  -0.363  1.00  0.00     0.165 HD
BRANCH   3   6
HETATM    6  O1  UNL     1      -0.792   4.733   0.795  1.00  0.00    -0.309 OA
HETATM    7  C1  UNL     1      -0.341   5.886   1.433  1.00  0.00     0.215 C 
ENDBRANCH   3   6
ENDBRANCH   1   2
BRANCH   1   8
HETATM    8  C4  UNL     1       0.275   0.601  -1.067  1.00  0.00     0.038 C 
BRANCH   8   9
HETATM    9  C5  UNL     1       0.982  -0.693  -1.205  1.00  0.00    -0.012 C 
HETATM   10  C6  UNL     1       1.341  -0.982  -2.663  1.00  0.00     0.005 C 
HETATM   11  C7  UNL     1       2.785  -0.685  -2.973  1.00  0.00     0.000 C 
HETATM   12  C8  UNL     1       3.725  -1.523  -2.130  1.00  0.00     0.000 C 
HETATM   13  C9  UNL     1       3.051  -1.943  -0.838  1.00  0.00     0.000 C 
HETATM   14  C10 UNL     1       2.254  -0.746  -0.370  1.00  0.00     0.005 C 
ENDBRANCH   8   9
ENDBRANCH   1   8
BRANCH   1  15
HETATM   15  C11 UNL     1      -1.132   0.281   1.033  1.00  0.00     0.136 C 
BRANCH  15  16
HETATM   16  O3  UNL     1      -1.585   0.945   2.068  1.00  0.00    -0.348 OA
ATOM     17  H3  UNL     1      -2.234   0.459   2.563  1.00  0.00     0.219 HD
ENDBRANCH  15  16
BRANCH  15  18
HETATM   18  N2  UNL     1      -1.683  -0.967   0.872  1.00  0.00    -0.350 N 
ATOM     19  H2  UNL     1      -1.387  -1.542   0.083  1.00  0.00     0.162 HD
BRANCH  18  20
HETATM   20  C12 UNL     1      -2.701  -1.504   1.818  1.00  0.00     0.286 C 
BRANCH  20  21
HETATM   21  C13 UNL     1      -3.960  -1.763   1.114  1.00  0.00     0.207 C 
HETATM   22  O4  UNL     1      -4.052  -1.519  -0.112  1.00  0.00    -0.646 OA
HETATM   23  O5  UNL     1      -5.067  -2.275   1.761  1.00  0.00    -0.646 OA
ENDBRANCH  20  21
BRANCH  20  24
HETATM   24  C14 UNL     1      -2.185  -2.735   2.446  1.00  0.00     0.207 C 
HETATM   25  O6  UNL     1      -1.052  -3.185   2.166  1.00  0.00    -0.646 OA
HETATM   26  O7  UNL     1      -2.938  -3.441   3.372  1.00  0.00    -0.646 OA
ENDBRANCH  20  24
ENDBRANCH  18  20
ENDBRANCH  15  18
ENDBRANCH   1  15
TORSDOF 10
