REMARK  8 active torsions:
REMARK  status: ('A' for Active; 'I' for Inactive)
REMARK       I    between atoms: C2_2  and  N1_4 
REMARK    1  A    between atoms: N1_4  and  C3_6 
REMARK    2  A    between atoms: C3_6  and  C4_7 
REMARK    3  A    between atoms: C3_6  and  C11_20 
REMARK    4  A    between atoms: C4_7  and  C5_9 
REMARK    5  A    between atoms: C5_9  and  N2_12 
REMARK    6  A    between atoms: N2_12  and  C8_14 
REMARK    7  A    between atoms: C8_14  and  C9_15 
REMARK    8  A    between atoms: C8_14  and  C10_17 
ROOT
HETATM    1  C4  UNL     1      -0.284  -0.087   0.750  1.00  0.00     0.180 C 
HETATM    2  O2  UNL     1      -0.543   0.384   1.865  1.00  0.00    -0.293 OA
ENDROOT
BRANCH   1   3
HETATM    3  C3  UNL     1      -1.168   0.387  -0.361  1.00  0.00     0.190 C 
BRANCH   3   4
HETATM    4  N1  UNL     1      -1.310   1.795  -0.102  1.00  0.00    -0.346 N 
HETATM    5  C2  UNL     1      -2.195   2.799  -0.104  1.00  0.00     0.214 C 
HETATM    6  C1  UNL     1      -1.475   4.186   0.284  1.00  0.00     0.117 C 
HETATM    7  O1  UNL     1      -3.378   3.063  -0.289  1.00  0.00    -0.274 OA
ATOM      8  H1  UNL     1      -0.405   2.163   0.190  1.00  0.00     0.163 HD
ENDBRANCH   3   4
BRANCH   3   9
HETATM    9  C11 UNL     1      -2.413  -0.328  -0.415  1.00  0.00    -0.028 A 
HETATM   10  C12 UNL     1      -3.428  -0.212   0.496  1.00  0.00     0.009 A 
HETATM   11  C13 UNL     1      -4.641  -0.952   0.359  1.00  0.00     0.001 A 
HETATM   12  C14 UNL     1      -4.780  -1.804  -0.715  1.00  0.00     0.000 A 
HETATM   13  C15 UNL     1      -3.779  -1.936  -1.650  1.00  0.00     0.001 A 
HETATM   14  C16 UNL     1      -2.628  -1.214  -1.496  1.00  0.00     0.009 A 
ENDBRANCH   3   9
ENDBRANCH   1   3
BRANCH   1  15
HETATM   15  C5  UNL     1       0.840  -1.018   0.586  1.00  0.00     0.082 C 
HETATM   16  C6  UNL     1       1.516  -0.878   2.030  1.00  0.00     0.046 C 
HETATM   17  C7  UNL     1       0.478  -2.437   0.383  1.00  0.00     0.046 C 
BRANCH  15  18
HETATM   18  N2  UNL     1       1.808  -0.568  -0.323  1.00  0.00    -0.393 N 
ATOM     19  H2  UNL     1       1.532  -0.505  -1.303  1.00  0.00     0.155 HD
BRANCH  18  20
HETATM   20  C8  UNL     1       3.116  -0.199  -0.005  1.00  0.00     0.189 C 
BRANCH  20  21
HETATM   21  C9  UNL     1       3.487   0.967  -0.933  1.00  0.00     0.122 C 
HETATM   22  S1  UNL     1       5.153   1.537  -0.676  1.00  0.00    -0.095 SA
ENDBRANCH  20  21
BRANCH  20  23
HETATM   23  C10 UNL     1       4.028  -1.361  -0.418  1.00  0.00     0.197 C 
HETATM   24  O3  UNL     1       3.753  -2.514  -0.265  1.00  0.00    -0.646 OA
HETATM   25  O4  UNL     1       5.279  -1.020  -1.002  1.00  0.00    -0.646 OA
ENDBRANCH  20  23
ENDBRANCH  18  20
ENDBRANCH  15  18
ENDBRANCH   1  15
TORSDOF 8
