REMARK  4 active torsions:
REMARK  status: ('A' for Active; 'I' for Inactive)
REMARK    1  A    between atoms: C2_2  and  N1_3 
REMARK    2  A    between atoms: N1_3  and  C3_4 
REMARK       I    between atoms: N1_3  and  C5_6 
REMARK    3  A    between atoms: C5_6  and  O2_8 
REMARK    4  A    between atoms: O2_8  and  C6_9 
ROOT
HETATM    1  C6  UNL     1       0.016   1.687  -0.137  1.00  0.00     0.077 C 
HETATM    2  C7  UNL     1      -0.378   2.901  -0.893  1.00  0.00     0.078 C 
HETATM    3  C8  UNL     1       1.257   1.369   0.084  1.00  0.00     0.103 C 
HETATM    4  S1  UNL     1       1.946  -0.036   0.963  1.00  0.00    -0.050 SA
HETATM    5  C9  UNL     1       3.686   0.420   0.758  1.00  0.00     0.246 C 
HETATM    6  N2  UNL     1       3.590   1.794   0.401  1.00  0.00    -0.306 N 
ATOM      7  H2  UNL     1       4.291   2.487   0.665  1.00  0.00     0.167 HD
HETATM    8  C10 UNL     1       2.434   2.114  -0.354  1.00  0.00     0.264 C 
HETATM    9  O3  UNL     1       2.468   2.971  -1.307  1.00  0.00    -0.267 OA
HETATM   10  O4  UNL     1       4.471   0.174   1.834  1.00  0.00    -0.342 OA
HETATM   11  C11 UNL     1       4.774  -1.147   1.924  1.00  0.00     0.183 C 
HETATM   12  C12 UNL     1       5.527  -1.561   0.649  1.00  0.00     0.106 C 
HETATM   13  S2  UNL     1       4.495  -0.596  -0.538  1.00  0.00    -0.095 SA
ENDROOT
BRANCH   1  14
HETATM   14  O2  UNL     1      -0.995   0.870   0.345  1.00  0.00    -0.265 OA
BRANCH  14  15
HETATM   15  C5  UNL     1      -1.487  -0.177  -0.440  1.00  0.00     0.367 C 
HETATM   16  N1  UNL     1      -2.522  -1.016   0.047  1.00  0.00    -0.328 N 
HETATM   17  O1  UNL     1      -0.968  -0.319  -1.567  1.00  0.00    -0.238 OA
BRANCH  16  18
HETATM   18  C2  UNL     1      -3.000  -2.088  -0.800  1.00  0.00     0.123 C 
HETATM   19  C1  UNL     1      -4.155  -1.554  -1.657  1.00  0.00     0.026 C 
ENDBRANCH  16  18
BRANCH  16  20
HETATM   20  C3  UNL     1      -3.076  -0.797   1.358  1.00  0.00     0.123 C 
HETATM   21  C4  UNL     1      -4.255   0.152   1.333  1.00  0.00     0.026 C 
ENDBRANCH  16  20
ENDBRANCH  14  15
ENDBRANCH   1  14
TORSDOF 4
