REMARK  2 active torsions:
REMARK  status: ('A' for Active; 'I' for Inactive)
REMARK    1  A    between atoms: C3_4  and  C4_5 
REMARK    2  A    between atoms: C9_15  and  C10_16 
ROOT
HETATM    1  N1  UNL     1       1.448  -2.851  -2.292  1.00  0.00    -0.197 NA
HETATM    2  C1  UNL     1       0.948  -2.022  -1.657  1.00  0.00     0.067 C 
HETATM    3  C2  UNL     1       0.282  -0.966  -0.851  1.00  0.00     0.142 C 
HETATM    4  C3  UNL     1       0.957   0.311  -1.102  1.00  0.00     0.078 C 
HETATM    5  C7  UNL     1       0.149   1.545  -0.975  1.00  0.00     0.060 C 
HETATM    6  C8  UNL     1      -1.271   1.411  -1.274  1.00  0.00     0.001 C 
HETATM    7  S1  UNL     1      -1.981   2.461  -1.911  1.00  0.00    -0.089 SA
HETATM    8  C9  UNL     1      -1.972   0.171  -0.907  1.00  0.00     0.121 C 
HETATM    9  C14 UNL     1      -1.159  -1.069  -1.098  1.00  0.00     0.168 C 
HETATM   10  C15 UNL     1      -1.727  -2.103  -0.219  1.00  0.00     0.087 C 
HETATM   11  N4  UNL     1      -2.164  -2.926   0.474  1.00  0.00    -0.195 NA
HETATM   12  C16 UNL     1      -1.370  -1.565  -2.479  1.00  0.00     0.087 C 
HETATM   13  N5  UNL     1      -1.549  -1.942  -3.558  1.00  0.00    -0.195 NA
ENDROOT
BRANCH   4  14
HETATM   14  C4  UNL     1       2.159   0.446  -0.198  1.00  0.00     0.078 C 
HETATM   15  N2  UNL     1       2.347   1.367   0.679  1.00  0.00    -0.378 N 
HETATM   16  C5  UNL     1       3.597   1.217   1.382  1.00  0.00     0.140 C 
ATOM     17  H2  UNL     1       1.684   2.121   0.858  1.00  0.00     0.160 HD
HETATM   18  C6  UNL     1       3.999  -0.216   1.085  1.00  0.00     0.140 C 
HETATM   19  N3  UNL     1       3.285  -0.425  -0.167  1.00  0.00    -0.378 N 
ATOM     20  H3  UNL     1       3.548  -1.085  -0.899  1.00  0.00     0.160 HD
ENDBRANCH   4  14
BRANCH   8  21
HETATM   21  C10 UNL     1      -2.487   0.269   0.506  1.00  0.00     0.064 A 
HETATM   22  C11 UNL     1      -3.806   0.247   0.896  1.00  0.00     0.035 A 
HETATM   23  C12 UNL     1      -3.818   0.365   2.290  1.00  0.00     0.027 A 
HETATM   24  C13 UNL     1      -2.508   0.450   2.654  1.00  0.00     0.142 A 
HETATM   25  O1  UNL     1      -1.742   0.390   1.577  1.00  0.00    -0.326 OA
ENDBRANCH   8  21
TORSDOF 2
