REMARK  3 active torsions:
REMARK  status: ('A' for Active; 'I' for Inactive)
REMARK    1  A    between atoms: C2_2  and  N1_3 
REMARK       I    between atoms: N2_5  and  C3_7 
REMARK    2  A    between atoms: C3_7  and  C4_9 
REMARK    3  A    between atoms: C7_13  and  N3_14 
ROOT
HETATM    1  N1  UNL     1       0.167   0.434  -1.050  1.00  0.00    -0.317 N 
ATOM      2  H1  UNL     1       0.487   0.767  -1.959  1.00  0.00     0.181 HD
HETATM    3  N2  UNL     1       1.001   0.234  -0.144  1.00  0.00    -0.269 N 
ATOM      4  H2  UNL     1       0.684  -0.099   0.767  1.00  0.00     0.190 HD
HETATM    5  C3  UNL     1       2.398   0.465  -0.365  1.00  0.00     0.272 C 
HETATM    6  O1  UNL     1       2.677   1.310  -1.227  1.00  0.00    -0.266 OA
ENDROOT
BRANCH   1   7
HETATM    7  C2  UNL     1      -1.270   0.199  -0.833  1.00  0.00     0.102 C 
HETATM    8  C1  UNL     1      -1.933   0.468  -2.191  1.00  0.00     0.048 C 
HETATM    9  C8  UNL     1      -1.410  -1.216  -0.401  1.00  0.00     0.047 C 
HETATM   10  C9  UNL     1      -2.490  -1.512   0.568  1.00  0.00     0.081 C 
HETATM   11  C10 UNL     1      -3.647  -0.617   0.556  1.00  0.00     0.127 C 
HETATM   12  O4  UNL     1      -4.649  -0.902  -0.093  1.00  0.00    -0.298 OA
HETATM   13  C11 UNL     1      -3.780   0.684   1.275  1.00  0.00     0.085 C 
HETATM   14  C12 UNL     1      -3.119   1.720   0.356  1.00  0.00     0.088 C 
HETATM   15  C13 UNL     1      -1.719   1.203   0.148  1.00  0.00     0.156 C 
HETATM   16  O5  UNL     1      -0.918   1.715   0.908  1.00  0.00    -0.295 OA
ENDBRANCH   1   7
BRANCH   5  17
HETATM   17  C4  UNL     1       3.410  -0.298   0.423  1.00  0.00     0.073 A 
HETATM   18  C5  UNL     1       2.942  -1.128   1.443  1.00  0.00     0.069 A 
HETATM   19  S1  UNL     1       4.350  -1.744   2.143  1.00  0.00    -0.110 SA
HETATM   20  C6  UNL     1       5.506  -0.985   1.185  1.00  0.00     0.086 A 
HETATM   21  C7  UNL     1       4.745  -0.223   0.285  1.00  0.00     0.125 A 
BRANCH  21  22
HETATM   22  N3  UNL     1       5.483   0.563  -0.691  1.00  0.00    -0.114 N 
HETATM   23  O2  UNL     1       6.625   1.040  -0.371  1.00  0.00    -0.532 OA
HETATM   24  O3  UNL     1       5.087   0.875  -1.941  1.00  0.00    -0.532 OA
ENDBRANCH  21  22
ENDBRANCH   5  17
TORSDOF 3
