REMARK  3 active torsions:
REMARK  status: ('A' for Active; 'I' for Inactive)
REMARK    1  A    between atoms: C3_5  and  N2_6 
REMARK    2  A    between atoms: N2_6  and  C4_8 
REMARK    3  A    between atoms: N3_11  and  C7_12 
ROOT
HETATM    1  C4  UNL     1       2.097  -0.666   0.883  1.00  0.00     0.085 C 
HETATM    2  C5  UNL     1       0.997  -1.672   0.568  1.00  0.00     0.055 C 
HETATM    3  C6  UNL     1       0.250  -1.225  -0.645  1.00  0.00     0.275 C 
HETATM    4  N3  UNL     1      -0.362   0.074  -0.473  1.00  0.00     0.093 N 
HETATM    5  C14 UNL     1      -0.010   0.591   0.810  1.00  0.00     0.275 C 
HETATM    6  C15 UNL     1       1.499   0.703   0.871  1.00  0.00     0.055 C 
ENDROOT
BRANCH   1   7
HETATM    7  N2  UNL     1       3.153  -0.848  -0.062  1.00  0.00    -0.383 N 
ATOM      8  H2  UNL     1       3.001  -1.538  -0.798  1.00  0.00     0.160 HD
BRANCH   7   9
HETATM    9  C3  UNL     1       4.388  -0.163  -0.074  1.00  0.00     0.059 A 
HETATM   10  C2  UNL     1       4.791   0.748   0.879  1.00  0.00     0.119 A 
HETATM   11  N1  UNL     1       5.997   1.372   0.801  1.00  0.00    -0.360 N 
HETATM   12  C1  UNL     1       6.845   1.126  -0.208  1.00  0.00     0.180 A 
ATOM     13  H1  UNL     1       6.262   2.040   1.525  1.00  0.00     0.166 HD
HETATM   14  N4  UNL     1       6.477   0.244  -1.147  1.00  0.00    -0.360 N 
HETATM   15  C16 UNL     1       5.291  -0.385  -1.092  1.00  0.00     0.119 A 
ATOM     16  H4  UNL     1       7.111   0.046  -1.921  1.00  0.00     0.166 HD
ENDBRANCH   7   9
ENDBRANCH   1   7
BRANCH   4  17
HETATM   17  C7  UNL     1      -1.788   0.021  -0.708  1.00  0.00     0.223 C 
HETATM   18  C8  UNL     1      -2.447   1.352  -0.707  1.00  0.00     0.036 C 
HETATM   19  C9  UNL     1      -3.333   1.643   0.455  1.00  0.00     0.002 C 
HETATM   20  C10 UNL     1      -4.587   0.847   0.512  1.00  0.00     0.000 C 
HETATM   21  C11 UNL     1      -4.729  -0.179  -0.568  1.00  0.00     0.000 C 
HETATM   22  C12 UNL     1      -3.780  -1.335  -0.417  1.00  0.00     0.002 C 
HETATM   23  C13 UNL     1      -2.494  -0.883   0.277  1.00  0.00     0.036 C 
ENDBRANCH   4  17
TORSDOF 3
