REMARK  3 active torsions:
REMARK  status: ('A' for Active; 'I' for Inactive)
REMARK    1  A    between atoms: C2_2  and  C3_3 
REMARK    2  A    between atoms: C9_9  and  N1_10 
REMARK       I    between atoms: N1_10  and  C10_12 
REMARK    3  A    between atoms: C10_12  and  C11_14 
ROOT
HETATM    1  C3  UNL     1      -1.225   0.644   0.548  1.00  0.00     0.041 C 
HETATM    2  C4  UNL     1      -2.705   0.242   0.561  1.00  0.00    -0.023 C 
HETATM    3  C5  UNL     1      -3.125  -1.106   0.797  1.00  0.00    -0.029 C 
HETATM    4  C6  UNL     1      -3.356  -2.125  -0.309  1.00  0.00     0.038 C 
HETATM    5  C7  UNL     1      -2.066  -2.347  -1.170  1.00  0.00     0.086 C 
HETATM    6  C8  UNL     1      -1.215  -1.262  -0.883  1.00  0.00    -0.157 C 
HETATM    7  C9  UNL     1      -0.430  -0.150  -0.545  1.00  0.00     0.159 C 
ENDROOT
BRANCH   7   8
HETATM    8  N1  UNL     1       0.860  -0.422   0.102  1.00  0.00    -0.345 N 
HETATM    9  C10 UNL     1       2.088   0.115  -0.305  1.00  0.00     0.233 C 
HETATM   10  O1  UNL     1       2.117   0.890  -1.293  1.00  0.00    -0.272 OA
ATOM     11  H1  UNL     1       0.862  -1.048   0.907  1.00  0.00     0.163 HD
BRANCH   9  12
HETATM   12  C11 UNL     1       3.302  -0.239   0.428  1.00  0.00     0.151 C 
HETATM   13  C12 UNL     1       4.471   0.451  -0.189  1.00  0.00     0.036 C 
HETATM   14  C13 UNL     1       5.727   0.054   0.551  1.00  0.00     0.088 C 
HETATM   15  S1  UNL     1       5.421   0.694   2.254  1.00  0.00    -0.097 SA
HETATM   16  S2  UNL     1       3.272   0.442   2.141  1.00  0.00    -0.083 SA
ENDBRANCH   9  12
ENDBRANCH   7   8
BRANCH   1  17
HETATM   17  C2  UNL     1      -1.077   2.100   0.350  1.00  0.00     0.007 C 
HETATM   18  C1  UNL     1      -1.650   2.635  -0.917  1.00  0.00     0.006 C 
ENDBRANCH   1  17
TORSDOF 3
