REMARK  7 active torsions:
REMARK  status: ('A' for Active; 'I' for Inactive)
REMARK    1  A    between atoms: C2_2  and  C5_5 
REMARK    2  A    between atoms: C8_8  and  N1_9 
REMARK    3  A    between atoms: N1_9  and  C9_12 
REMARK    4  A    between atoms: C9_12  and  C10_13 
REMARK    5  A    between atoms: C10_13  and  C11_14 
REMARK    6  A    between atoms: C11_14  and  N2_15 
REMARK    7  A    between atoms: N2_15  and  C12_17 
ROOT
HETATM    1  C9  UNL     1      -0.412  -0.048  -0.298  1.00  0.00     0.234 C 
ENDROOT
BRANCH   1   2
HETATM    2  N1  UNL     1      -1.500  -0.956  -0.031  1.00  0.00    -0.071 N 
ATOM      3  H12 UNL     1      -1.648  -1.070   0.972  1.00  0.00     0.277 HD
ATOM      4  H11 UNL     1      -1.247  -1.915  -0.267  1.00  0.00     0.277 HD
BRANCH   2   5
HETATM    5  C8  UNL     1      -2.724  -0.556  -0.701  1.00  0.00     0.185 C 
HETATM    6  C7  UNL     1      -3.114   0.785  -0.140  1.00  0.00     0.033 C 
HETATM    7  C6  UNL     1      -4.573   0.995  -0.566  1.00  0.00     0.007 C 
HETATM    8  C5  UNL     1      -5.356   0.084   0.359  1.00  0.00    -0.007 C 
HETATM    9  C23 UNL     1      -4.935  -1.330   0.252  1.00  0.00     0.007 C 
HETATM   10  C22 UNL     1      -3.757  -1.602  -0.617  1.00  0.00     0.033 C 
BRANCH   8  11
HETATM   11  C2  UNL     1      -6.838   0.225   0.160  1.00  0.00    -0.048 C 
HETATM   12  C1  UNL     1      -7.560  -0.703   1.104  1.00  0.00     0.015 C 
HETATM   13  C3  UNL     1      -7.292   1.635   0.504  1.00  0.00     0.015 C 
HETATM   14  C4  UNL     1      -7.271  -0.116  -1.244  1.00  0.00     0.015 C 
ENDBRANCH   8  11
ENDBRANCH   2   5
ENDBRANCH   1   2
BRANCH   1  15
HETATM   15  C10 UNL     1       0.829  -0.507   0.403  1.00  0.00     0.046 C 
BRANCH  15  16
HETATM   16  C11 UNL     1       2.002   0.440   0.134  1.00  0.00     0.115 C 
BRANCH  16  17
HETATM   17  N2  UNL     1       3.127  -0.048   0.808  1.00  0.00    -0.416 N 
ATOM     18  H2  UNL     1       3.069  -0.902   1.362  1.00  0.00     0.153 HD
BRANCH  17  19
HETATM   19  C12 UNL     1       4.343   0.661   0.709  1.00  0.00     0.084 C 
HETATM   20  C13 UNL     1       4.935   0.777  -0.658  1.00  0.00     0.009 C 
HETATM   21  C14 UNL     1       5.366  -0.541  -1.241  1.00  0.00     0.011 C 
HETATM   22  C18 UNL     1       6.193   1.617  -0.530  1.00  0.00     0.011 C 
HETATM   23  C15 UNL     1       6.339  -1.218  -0.332  1.00  0.00    -0.013 C 
HETATM   24  C16 UNL     1       7.597  -0.368  -0.177  1.00  0.00     0.009 C 
HETATM   25  C21 UNL     1       5.685  -1.418   1.016  1.00  0.00     0.011 C 
HETATM   26  C17 UNL     1       7.200   0.974   0.390  1.00  0.00    -0.013 C 
HETATM   27  C19 UNL     1       6.618   0.731   1.770  1.00  0.00     0.011 C 
HETATM   28  C20 UNL     1       5.357  -0.056   1.588  1.00  0.00     0.009 C 
ENDBRANCH  17  19
ENDBRANCH  16  17
ENDBRANCH  15  16
ENDBRANCH   1  15
TORSDOF 7
