REMARK  6 active torsions:
REMARK  status: ('A' for Active; 'I' for Inactive)
REMARK    1  A    between atoms: C6_6  and  N1_7 
REMARK    2  A    between atoms: N1_7  and  C7_9 
REMARK    3  A    between atoms: C7_9  and  C8_10 
REMARK    4  A    between atoms: C8_10  and  C9_11 
REMARK    5  A    between atoms: C9_11  and  N2_12 
REMARK    6  A    between atoms: N2_12  and  C10_14 
ROOT
HETATM    1  C8  UNL     1       0.067   1.046   0.299  1.00  0.00     0.063 C 
ENDROOT
BRANCH   1   2
HETATM    2  C7  UNL     1      -0.670   1.318   1.578  1.00  0.00     0.057 C 
BRANCH   2   3
HETATM    3  N1  UNL     1      -2.009   1.667   1.500  1.00  0.00    -0.398 N 
ATOM      4  H1  UNL     1      -2.253   2.626   1.749  1.00  0.00     0.159 HD
BRANCH   3   5
HETATM    5  C6  UNL     1      -3.040   0.840   1.118  1.00  0.00     0.081 C 
HETATM    6  C5  UNL     1      -3.310  -0.383   1.948  1.00  0.00     0.026 C 
HETATM    7  C4  UNL     1      -4.211  -1.364   1.288  1.00  0.00     0.011 C 
HETATM    8  C2  UNL     1      -5.063  -0.859   0.186  1.00  0.00    -0.041 C 
HETATM    9  C1  UNL     1      -5.442  -2.079  -0.671  1.00  0.00     0.015 C 
HETATM   10  C3  UNL     1      -6.398  -0.371   0.764  1.00  0.00     0.015 C 
HETATM   11  C21 UNL     1      -4.455   0.140  -0.728  1.00  0.00    -0.039 C 
HETATM   12  C20 UNL     1      -3.002   0.409  -0.328  1.00  0.00     0.034 C 
HETATM   13  C22 UNL     1      -5.160   1.482  -0.717  1.00  0.00     0.015 C 
HETATM   14  C23 UNL     1      -4.404  -0.309  -2.174  1.00  0.00     0.015 C 
ENDBRANCH   3   5
ENDBRANCH   2   3
ENDBRANCH   1   2
BRANCH   1  15
HETATM   15  C9  UNL     1       1.517   0.704   0.655  1.00  0.00     0.119 C 
BRANCH  15  16
HETATM   16  N2  UNL     1       2.241   0.441  -0.522  1.00  0.00    -0.412 N 
ATOM     17  H2  UNL     1       1.784   0.494  -1.432  1.00  0.00     0.154 HD
BRANCH  16  18
HETATM   18  C10 UNL     1       3.610   0.103  -0.426  1.00  0.00     0.026 C 
HETATM   19  C11 UNL     1       3.897  -1.165   0.319  1.00  0.00     0.035 C 
HETATM   20  C12 UNL     1       5.371  -1.501   0.202  1.00  0.00    -0.012 C 
HETATM   21  C13 UNL     1       6.165  -0.400   0.840  1.00  0.00     0.009 C 
HETATM   22  C17 UNL     1       5.761  -1.688  -1.241  1.00  0.00     0.009 C 
HETATM   23  C14 UNL     1       5.906   0.894   0.111  1.00  0.00    -0.012 C 
HETATM   24  C15 UNL     1       6.371   0.746  -1.301  1.00  0.00     0.009 C 
HETATM   25  C19 UNL     1       4.440   1.202   0.223  1.00  0.00     0.035 C 
HETATM   26  C16 UNL     1       5.569  -0.363  -1.936  1.00  0.00    -0.012 C 
HETATM   27  C18 UNL     1       4.124  -0.004  -1.867  1.00  0.00     0.035 C 
ENDBRANCH  16  18
ENDBRANCH  15  16
ENDBRANCH   1  15
TORSDOF 6
