REMARK  8 active torsions:
REMARK  status: ('A' for Active; 'I' for Inactive)
REMARK    1  A    between atoms: C2_2  and  N1_3 
REMARK    2  A    between atoms: N1_3  and  C3_5 
REMARK    3  A    between atoms: C3_5  and  C5_7 
REMARK    4  A    between atoms: C5_7  and  C6_8 
REMARK    5  A    between atoms: C6_8  and  C7_9 
REMARK    6  A    between atoms: C8_10  and  C9_11 
REMARK    7  A    between atoms: C10_12  and  C11_13 
REMARK    8  A    between atoms: C19_21  and  O1_22 
ROOT
HETATM    1  C11 UNL     1      -1.766   0.433   0.910  1.00  0.00     0.016 C 
HETATM    2  C12 UNL     1      -2.182   1.639   1.731  1.00  0.00     0.009 C 
HETATM    3  C13 UNL     1      -3.587   1.494   2.207  1.00  0.00     0.001 C 
HETATM    4  C14 UNL     1      -4.136   0.092   2.087  1.00  0.00     0.006 C 
HETATM    5  C15 UNL     1      -3.994  -0.500   0.718  1.00  0.00     0.004 C 
HETATM    6  C16 UNL     1      -5.286  -0.573  -0.059  1.00  0.00    -0.017 C 
HETATM    7  C17 UNL     1      -5.295  -1.769  -1.013  1.00  0.00     0.018 C 
HETATM    8  C18 UNL     1      -6.429  -0.818   0.920  1.00  0.00     0.018 C 
HETATM    9  C19 UNL     1      -5.576   0.715  -0.781  1.00  0.00     0.126 C 
HETATM   10  C20 UNL     1      -4.453   1.047  -1.722  1.00  0.00     0.033 C 
HETATM   11  C21 UNL     1      -3.204   1.247  -0.921  1.00  0.00     0.012 C 
HETATM   12  C22 UNL     1      -2.851   0.074  -0.075  1.00  0.00    -0.033 C 
HETATM   13  C23 UNL     1      -2.240  -0.977  -1.013  1.00  0.00     0.016 C 
ENDROOT
BRANCH   1  14
HETATM   14  C10 UNL     1      -0.446   0.639   0.337  1.00  0.00    -0.021 C 
HETATM   15  C9  UNL     1       0.572  -0.115   0.723  1.00  0.00    -0.004 C 
BRANCH  15  16
HETATM   16  C8  UNL     1       1.910   0.040   0.193  1.00  0.00    -0.004 C 
HETATM   17  C7  UNL     1       2.884  -0.729   0.605  1.00  0.00    -0.027 C 
BRANCH  17  18
HETATM   18  C6  UNL     1       4.284  -0.623   0.102  1.00  0.00     0.029 C 
BRANCH  18  19
HETATM   19  C5  UNL     1       5.238  -0.313   1.235  1.00  0.00     0.028 C 
BRANCH  19  20
HETATM   20  C3  UNL     1       6.670  -0.208   0.716  1.00  0.00     0.072 C 
HETATM   21  C4  UNL     1       7.032  -1.578   0.205  1.00  0.00     0.031 C 
BRANCH  20  22
HETATM   22  N1  UNL     1       6.724   0.842  -0.249  1.00  0.00    -0.418 N 
ATOM     23  H1  UNL     1       5.885   1.355  -0.522  1.00  0.00     0.153 HD
BRANCH  22  24
HETATM   24  C2  UNL     1       7.990   1.145  -0.814  1.00  0.00     0.109 C 
HETATM   25  C1  UNL     1       8.589   0.137  -1.730  1.00  0.00     0.026 C 
ENDBRANCH  22  24
ENDBRANCH  20  22
ENDBRANCH  19  20
ENDBRANCH  18  19
ENDBRANCH  17  18
ENDBRANCH  15  16
ENDBRANCH   1  14
BRANCH   9  26
HETATM   26  O1  UNL     1      -6.798   0.618  -1.440  1.00  0.00    -0.395 OA
ATOM     27  H1  UNL     1      -6.981   1.431  -1.896  1.00  0.00     0.210 HD
ENDBRANCH   9  26
TORSDOF 8
