REMARK  7 active torsions:
REMARK  status: ('A' for Active; 'I' for Inactive)
REMARK    1  A    between atoms: C2_2  and  C3_3 
REMARK    2  A    between atoms: C3_3  and  N1_4 
REMARK    3  A    between atoms: C3_3  and  C4_8 
REMARK    4  A    between atoms: C13_17  and  N2_18 
REMARK    5  A    between atoms: N2_18  and  C14_20 
REMARK    6  A    between atoms: C14_20  and  C17_23 
REMARK    7  A    between atoms: C17_23  and  C18_24 
ROOT
HETATM    1  C4  UNL     1       3.569  -0.113   0.349  1.00  0.00     0.020 C 
HETATM    2  C5  UNL     1       4.332  -1.167  -0.367  1.00  0.00     0.007 C 
HETATM    3  C6  UNL     1       3.505  -2.062  -1.262  1.00  0.00     0.001 C 
HETATM    4  C7  UNL     1       2.672  -1.196  -2.153  1.00  0.00     0.005 C 
HETATM    5  C8  UNL     1       1.735  -0.385  -1.286  1.00  0.00    -0.005 C 
HETATM    6  C9  UNL     1       2.496   0.568  -0.432  1.00  0.00    -0.004 C 
HETATM    7  C10 UNL     1       1.516   1.286   0.455  1.00  0.00     0.006 C 
HETATM    8  C11 UNL     1       0.063   1.023   0.046  1.00  0.00     0.007 C 
HETATM    9  C12 UNL     1      -0.176  -0.442   0.301  1.00  0.00     0.012 C 
HETATM   10  C13 UNL     1      -1.560  -0.896  -0.093  1.00  0.00     0.081 C 
HETATM   11  C21 UNL     1      -1.263  -2.299  -0.640  1.00  0.00     0.025 C 
HETATM   12  C22 UNL     1       0.024  -2.095  -1.408  1.00  0.00     0.007 C 
HETATM   13  C23 UNL     1       0.832  -1.230  -0.462  1.00  0.00    -0.004 C 
ENDROOT
BRANCH  10  14
HETATM   14  N2  UNL     1      -2.356  -0.973   1.097  1.00  0.00    -0.409 N 
ATOM     15  H2  UNL     1      -1.964  -1.233   2.002  1.00  0.00     0.154 HD
BRANCH  14  16
HETATM   16  C14 UNL     1      -3.767  -0.652   0.917  1.00  0.00     0.019 C 
HETATM   17  C15 UNL     1      -4.403  -1.613  -0.051  1.00  0.00     0.037 C 
HETATM   18  C16 UNL     1      -4.392  -1.016   2.280  1.00  0.00     0.037 C 
BRANCH  16  19
HETATM   19  C17 UNL     1      -4.006   0.752   0.560  1.00  0.00     0.033 C 
BRANCH  19  20
HETATM   20  C18 UNL     1      -5.367   1.274   0.365  1.00  0.00    -0.020 C 
HETATM   21  C19 UNL     1      -6.227   0.723  -0.712  1.00  0.00     0.009 C 
HETATM   22  C20 UNL     1      -5.276   2.796   0.103  1.00  0.00     0.009 C 
ENDBRANCH  19  20
ENDBRANCH  16  19
ENDBRANCH  14  16
ENDBRANCH  10  14
BRANCH   1  23
HETATM   23  C3  UNL     1       4.563   0.857   0.947  1.00  0.00     0.187 C 
BRANCH  23  24
HETATM   24  C2  UNL     1       5.448   1.527  -0.052  1.00  0.00     0.028 C 
HETATM   25  C1  UNL     1       6.278   2.563   0.721  1.00  0.00     0.007 C 
ENDBRANCH  23  24
BRANCH  23  26
HETATM   26  N1  UNL     1       5.393   0.219   1.946  1.00  0.00    -0.075 N 
ATOM     27  H13 UNL     1       6.075  -0.420   1.537  1.00  0.00     0.274 HD
ATOM     28  H12 UNL     1       6.051   0.867   2.379  1.00  0.00     0.274 HD
ATOM     29  H11 UNL     1       4.789  -0.239   2.628  1.00  0.00     0.274 HD
ENDBRANCH  23  26
ENDBRANCH   1  23
TORSDOF 7
