REMARK  16 active torsions:
REMARK  status: ('A' for Active; 'I' for Inactive)
REMARK    1  A    between atoms: C2_2  and  C3_3 
REMARK    2  A    between atoms: C3_3  and  C4_4 
REMARK    3  A    between atoms: C4_4  and  C5_5 
REMARK    4  A    between atoms: C5_5  and  C6_6 
REMARK       I    between atoms: C6_6  and  N1_8 
REMARK    5  A    between atoms: N1_8  and  C7_10 
REMARK    6  A    between atoms: C8_11  and  O2_12 
REMARK    7  A    between atoms: C8_11  and  N2_14 
REMARK    8  A    between atoms: C10_16  and  C11_17 
REMARK    9  A    between atoms: C15_24  and  C16_25 
REMARK   10  A    between atoms: C16_25  and  C17_26 
REMARK   11  A    between atoms: C17_26  and  C18_27 
REMARK   12  A    between atoms: C18_27  and  C19_28 
REMARK   13  A    between atoms: C20_31  and  C21_32 
REMARK   14  A    between atoms: C21_32  and  C22_33 
REMARK   15  A    between atoms: C24_38  and  C25_39 
REMARK   16  A    between atoms: C25_39  and  C27_41 
ROOT
HETATM    1  N2  UNL     1       0.640  -1.646  -0.722  1.00  0.00    -0.322 N 
HETATM    2  C9  UNL     1       0.203  -2.504  -1.770  1.00  0.00     0.099 C 
HETATM    3  C10 UNL     1      -1.175  -2.784  -2.091  1.00  0.00     0.170 C 
HETATM    4  O3  UNL     1      -1.631  -2.215  -3.317  1.00  0.00    -0.310 OA
HETATM    5  C13 UNL     1      -2.410  -1.087  -3.253  1.00  0.00     0.268 C 
HETATM    6  O4  UNL     1      -2.414  -0.263  -4.189  1.00  0.00    -0.264 OA
HETATM    7  C14 UNL     1      -3.236  -0.893  -2.044  1.00  0.00     0.186 C 
HETATM    8  S1  UNL     1      -2.609   0.082  -0.778  1.00  0.00    -0.144 SA
HETATM    9  C15 UNL     1      -0.906   0.296  -0.406  1.00  0.00     0.065 C 
HETATM   10  C20 UNL     1      -0.991   1.494   0.572  1.00  0.00     0.154 C 
HETATM   11  O7  UNL     1      -1.877   1.286   1.605  1.00  0.00    -0.312 OA
HETATM   12  C23 UNL     1      -2.668   0.535   2.415  1.00  0.00     0.289 C 
HETATM   13  O8  UNL     1      -3.285   1.207   3.325  1.00  0.00    -0.262 OA
HETATM   14  C24 UNL     1      -2.974  -0.855   2.498  1.00  0.00     0.235 C 
HETATM   15  O9  UNL     1      -2.127  -1.685   1.707  1.00  0.00    -0.304 OA
HETATM   16  C29 UNL     1      -0.977  -1.775   1.045  1.00  0.00     0.284 C 
HETATM   17  O10 UNL     1      -0.355  -2.899   1.116  1.00  0.00    -0.263 OA
HETATM   18  C30 UNL     1      -0.165  -0.874   0.195  1.00  0.00     0.211 C 
ENDROOT
BRANCH   1  19
HETATM   19  C8  UNL     1       2.054  -1.622  -0.629  1.00  0.00     0.158 C 
HETATM   20  C7  UNL     1       2.765  -0.889   0.391  1.00  0.00     0.147 C 
BRANCH  20  21
HETATM   21  N1  UNL     1       4.079  -0.941   0.369  1.00  0.00    -0.333 N 
HETATM   22  C6  UNL     1       4.782  -0.228   1.360  1.00  0.00     0.221 C 
HETATM   23  O1  UNL     1       4.622  -0.465   2.582  1.00  0.00    -0.273 OA
ATOM     24  H1  UNL     1       4.573  -1.480  -0.342  1.00  0.00     0.168 HD
BRANCH  22  25
HETATM   25  C5  UNL     1       5.725   0.821   0.933  1.00  0.00     0.103 C 
BRANCH  25  26
HETATM   26  C4  UNL     1       6.390   1.421   2.152  1.00  0.00     0.013 C 
BRANCH  26  27
HETATM   27  C3  UNL     1       7.340   2.494   1.601  1.00  0.00     0.027 C 
BRANCH  27  28
HETATM   28  C2  UNL     1       8.285   1.741   0.710  1.00  0.00    -0.037 C 
HETATM   29  C1  UNL     1       8.392   2.012  -0.583  1.00  0.00     0.007 C 
ENDBRANCH  27  28
ENDBRANCH  26  27
ENDBRANCH  25  26
ENDBRANCH  22  25
ENDBRANCH  20  21
BRANCH  19  30
HETATM   30  O2  UNL     1       2.765  -2.288  -1.491  1.00  0.00    -0.345 OA
ATOM     31  H2  UNL     1       2.297  -2.770  -2.162  1.00  0.00     0.219 HD
ENDBRANCH  19  30
ENDBRANCH   1  19
BRANCH   3  32
HETATM   32  C11 UNL     1      -1.272  -4.295  -2.415  1.00  0.00     0.033 C 
HETATM   33  C12 UNL     1      -2.694  -4.670  -2.765  1.00  0.00     0.008 C 
ENDBRANCH   3  32
BRANCH   9  34
HETATM   34  C16 UNL     1      -0.106   0.809  -1.581  1.00  0.00     0.026 C 
BRANCH  34  35
HETATM   35  C17 UNL     1      -0.545   2.130  -2.148  1.00  0.00     0.012 C 
BRANCH  35  36
HETATM   36  C18 UNL     1       0.379   2.441  -3.347  1.00  0.00     0.113 C 
BRANCH  36  37
HETATM   37  C19 UNL     1       0.025   3.727  -3.954  1.00  0.00     0.172 C 
HETATM   38  O5  UNL     1       0.691   4.107  -4.950  1.00  0.00    -0.648 OA
HETATM   39  O6  UNL     1      -0.989   4.575  -3.525  1.00  0.00    -0.648 OA
ENDBRANCH  36  37
ENDBRANCH  35  36
ENDBRANCH  34  35
ENDBRANCH   9  34
BRANCH  10  40
HETATM   40  C21 UNL     1       0.288   2.163   0.854  1.00  0.00     0.045 C 
BRANCH  40  41
HETATM   41  C22 UNL     1       0.220   3.368   1.763  1.00  0.00     0.088 C 
HETATM   42  S2  UNL     1      -0.321   3.079   3.423  1.00  0.00    -0.098 SA
ENDBRANCH  40  41
ENDBRANCH  10  40
BRANCH  14  43
HETATM   43  C25 UNL     1      -4.317  -1.432   2.284  1.00  0.00     0.021 C 
HETATM   44  C26 UNL     1      -4.262  -2.981   2.488  1.00  0.00     0.013 C 
BRANCH  43  45
HETATM   45  C27 UNL     1      -5.541  -0.991   2.926  1.00  0.00     0.003 C 
HETATM   46  C28 UNL     1      -6.072   0.376   2.703  1.00  0.00     0.005 C 
ENDBRANCH  43  45
ENDBRANCH  14  43
TORSDOF 16
