REMARK  16 active torsions:
REMARK  status: ('A' for Active; 'I' for Inactive)
REMARK    1  A    between atoms: O1_2  and  C2_3 
REMARK    2  A    between atoms: C2_3  and  C3_5 
REMARK    3  A    between atoms: C3_5  and  N1_6 
REMARK    4  A    between atoms: C6_9  and  C7_10 
REMARK    5  A    between atoms: C7_10  and  C8_11 
REMARK    6  A    between atoms: C8_11  and  C9_12 
REMARK       I    between atoms: N2_13  and  C10_15 
REMARK    7  A    between atoms: C10_15  and  C11_17 
REMARK    8  A    between atoms: C14_21  and  C15_22 
REMARK    9  A    between atoms: C16_25  and  S1_26 
REMARK   10  A    between atoms: S1_26  and  C17_27 
REMARK   11  A    between atoms: C19_29  and  C20_30 
REMARK   12  A    between atoms: C20_30  and  O7_32 
REMARK   13  A    between atoms: O7_32  and  C21_33 
REMARK   14  A    between atoms: C25_37  and  O8_38 
REMARK   15  A    between atoms: C27_40  and  C28_41 
REMARK   16  A    between atoms: C28_41  and  C29_42 
ROOT
HETATM    1  C11 UNL     1       1.541  -0.129   0.546  1.00  0.00     0.124 C 
HETATM    2  C12 UNL     1       1.475  -1.157  -0.582  1.00  0.00     0.096 C 
HETATM    3  C13 UNL     1       1.480  -2.580  -0.084  1.00  0.00     0.033 C 
HETATM    4  N3  UNL     1       0.148  -0.696  -0.864  1.00  0.00    -0.363 N 
HETATM    5  C14 UNL     1      -1.118  -0.325  -1.444  1.00  0.00     0.122 C 
HETATM    6  C16 UNL     1      -1.754   0.549  -0.638  1.00  0.00     0.018 C 
HETATM    7  C27 UNL     1      -0.803   0.924   0.444  1.00  0.00     0.052 C 
HETATM    8  C30 UNL     1       0.057  -0.334   0.565  1.00  0.00     0.109 C 
ENDROOT
BRANCH   1   9
HETATM    9  C10 UNL     1       1.976   1.180   0.045  1.00  0.00     0.229 C 
HETATM   10  N2  UNL     1       2.250   2.181   1.032  1.00  0.00    -0.340 N 
HETATM   11  C9  UNL     1       3.473   2.483   1.356  1.00  0.00     0.064 C 
ATOM     12  H2  UNL     1       1.475   2.664   1.487  1.00  0.00     0.167 HD
HETATM   13  O3  UNL     1       2.128   1.497  -1.154  1.00  0.00    -0.273 OA
BRANCH  11  14
HETATM   14  C8  UNL     1       4.639   1.825   0.738  1.00  0.00     0.045 C 
BRANCH  14  15
HETATM   15  C7  UNL     1       5.151   0.764   1.676  1.00  0.00     0.010 C 
BRANCH  15  16
HETATM   16  C6  UNL     1       6.344   0.027   1.100  1.00  0.00    -0.011 C 
HETATM   17  C5  UNL     1       6.000  -0.655  -0.200  1.00  0.00     0.035 C 
HETATM   18  C4  UNL     1       7.163  -1.497  -0.635  1.00  0.00     0.273 C 
HETATM   19  N1  UNL     1       8.440  -0.781  -0.618  1.00  0.00     0.097 N 
HETATM   20  C32 UNL     1       8.213   0.626  -0.383  1.00  0.00     0.273 C 
HETATM   21  C31 UNL     1       7.556   0.895   0.969  1.00  0.00     0.035 C 
BRANCH  19  22
HETATM   22  C3  UNL     1       9.342  -1.378   0.322  1.00  0.00     0.382 C 
BRANCH  22  23
HETATM   23  C2  UNL     1      10.699  -0.859   0.351  1.00  0.00     0.286 C 
HETATM   24  O2  UNL     1      11.484  -1.309   1.247  1.00  0.00    -0.263 OA
BRANCH  23  25
HETATM   25  O1  UNL     1      11.215   0.070  -0.502  1.00  0.00    -0.325 OA
HETATM   26  C1  UNL     1      12.549   0.549  -0.441  1.00  0.00     0.213 C 
ENDBRANCH  23  25
ENDBRANCH  22  23
ENDBRANCH  19  22
ENDBRANCH  15  16
ENDBRANCH  14  15
ENDBRANCH  11  14
ENDBRANCH   1   9
BRANCH   7  27
HETATM   27  C28 UNL     1      -1.311   1.247   1.771  1.00  0.00     0.023 C 
BRANCH  27  28
HETATM   28  C29 UNL     1      -2.232   2.409   1.945  1.00  0.00     0.087 C 
HETATM   29  S2  UNL     1      -2.613   2.509   3.741  1.00  0.00    -0.098 SA
ENDBRANCH  27  28
ENDBRANCH   7  27
BRANCH   5  30
HETATM   30  C15 UNL     1      -1.483  -0.784  -2.763  1.00  0.00     0.227 C 
HETATM   31  O4  UNL     1      -2.473  -0.379  -3.379  1.00  0.00    -0.643 OA
HETATM   32  O5  UNL     1      -0.672  -1.754  -3.403  1.00  0.00    -0.643 OA
ENDBRANCH   5  30
BRANCH   6  33
HETATM   33  S1  UNL     1      -3.338   1.289  -0.889  1.00  0.00    -0.124 SA
BRANCH  33  34
HETATM   34  C17 UNL     1      -4.577   0.097  -1.265  1.00  0.00     0.083 C 
HETATM   35  C18 UNL     1      -5.730   0.538  -2.190  1.00  0.00     0.035 C 
HETATM   36  C19 UNL     1      -6.511  -0.510  -1.425  1.00  0.00     0.117 C 
HETATM   37  C25 UNL     1      -5.729   0.024  -0.208  1.00  0.00     0.148 C 
BRANCH  36  38
HETATM   38  C20 UNL     1      -7.953  -0.354  -1.385  1.00  0.00     0.266 C 
HETATM   39  O6  UNL     1      -8.500   0.599  -1.996  1.00  0.00    -0.265 OA
BRANCH  38  40
HETATM   40  O7  UNL     1      -8.740  -1.228  -0.692  1.00  0.00    -0.311 OA
BRANCH  40  41
HETATM   41  C21 UNL     1     -10.142  -1.169  -0.591  1.00  0.00     0.060 C 
HETATM   42  C22 UNL     1     -10.804  -1.274  -1.960  1.00  0.00     0.045 C 
HETATM   43  C23 UNL     1     -10.628   0.081   0.104  1.00  0.00     0.045 C 
HETATM   44  C24 UNL     1     -10.609  -2.361   0.214  1.00  0.00     0.045 C 
ENDBRANCH  40  41
ENDBRANCH  38  40
ENDBRANCH  36  38
BRANCH  37  45
HETATM   45  O8  UNL     1      -6.072   1.318   0.125  1.00  0.00    -0.389 OA
HETATM   46  C26 UNL     1      -6.216   1.506   1.489  1.00  0.00     0.202 C 
ENDBRANCH  37  45
ENDBRANCH  33  34
ENDBRANCH   6  33
TORSDOF 16
