REMARK  14 active torsions:
REMARK  status: ('A' for Active; 'I' for Inactive)
REMARK    1  A    between atoms: O1_2  and  C2_3 
REMARK    2  A    between atoms: C6_7  and  C7_8 
REMARK    3  A    between atoms: C7_8  and  C8_9 
REMARK    4  A    between atoms: C8_9  and  C9_10 
REMARK       I    between atoms: N1_15  and  C12_16 
REMARK    5  A    between atoms: C12_16  and  C13_18 
REMARK    6  A    between atoms: C13_18  and  S1_19 
REMARK    7  A    between atoms: S1_19  and  C14_20 
REMARK    8  A    between atoms: C15_25  and  C16_26 
REMARK    9  A    between atoms: C16_26  and  C17_27 
REMARK   10  A    between atoms: C17_27  and  C18_28 
REMARK   11  A    between atoms: C18_28  and  C19_29 
REMARK   12  A    between atoms: C19_29  and  C20_30 
REMARK   13  A    between atoms: C21_35  and  N6_36 
REMARK       I    between atoms: N6_36  and  C22_38 
REMARK   14  A    between atoms: C27_46  and  O6_47 
ROOT
HETATM    1  C13 UNL     1      -1.272  -2.848   1.577  1.00  0.00     0.185 C 
ENDROOT
BRANCH   1   2
HETATM    2  C12 UNL     1      -0.095  -3.026   0.709  1.00  0.00     0.229 C 
HETATM    3  N1  UNL     1       0.868  -2.064   0.382  1.00  0.00    -0.351 N 
HETATM    4  C11 UNL     1       1.975  -2.408  -0.527  1.00  0.00     0.127 C 
HETATM    5  C25 UNL     1       0.888  -0.717   0.890  1.00  0.00     0.127 C 
HETATM    6  C10 UNL     1       3.201  -1.678   0.067  1.00  0.00     0.041 C 
HETATM    7  C8  UNL     1       3.059  -0.256  -0.312  1.00  0.00     0.055 C 
HETATM    8  C26 UNL     1       1.616   0.191  -0.083  1.00  0.00     0.041 C 
HETATM    9  O4  UNL     1       0.036  -4.198   0.212  1.00  0.00    -0.273 OA
BRANCH   7  10
HETATM   10  C7  UNL     1       3.968   0.730   0.362  1.00  0.00     0.062 C 
BRANCH  10  11
HETATM   11  C6  UNL     1       5.397   0.544   0.110  1.00  0.00    -0.022 A 
HETATM   12  C5  UNL     1       5.969   1.291  -0.933  1.00  0.00     0.019 A 
HETATM   13  C3  UNL     1       7.292   1.104  -1.215  1.00  0.00    -0.027 A 
HETATM   14  C2  UNL     1       8.103   0.216  -0.526  1.00  0.00     0.082 A 
HETATM   15  C4  UNL     1       7.921   1.889  -2.326  1.00  0.00     0.051 C 
HETATM   16  C29 UNL     1       7.506  -0.496   0.489  1.00  0.00     0.006 A 
HETATM   17  C27 UNL     1       6.158  -0.351   0.828  1.00  0.00     0.083 A 
HETATM   18  C30 UNL     1       8.310  -1.465   1.277  1.00  0.00     0.054 C 
BRANCH  14  19
HETATM   19  O1  UNL     1       9.440   0.062  -0.853  1.00  0.00    -0.355 OA
HETATM   20  C1  UNL     1      10.508   0.782  -0.322  1.00  0.00     0.210 C 
ENDBRANCH  14  19
BRANCH  17  21
HETATM   21  O6  UNL     1       5.660  -1.116   1.873  1.00  0.00    -0.355 OA
HETATM   22  C28 UNL     1       5.732  -0.548   3.180  1.00  0.00     0.210 C 
ENDBRANCH  17  21
ENDBRANCH  10  11
ENDBRANCH   7  10
BRANCH   7  23
HETATM   23  C9  UNL     1       3.239  -0.175  -1.816  1.00  0.00     0.182 C 
HETATM   24  O2  UNL     1       3.711  -1.094  -2.496  1.00  0.00    -0.647 OA
HETATM   25  O3  UNL     1       2.835   1.017  -2.401  1.00  0.00    -0.647 OA
ENDBRANCH   7  23
ENDBRANCH   1   2
BRANCH   1  26
HETATM   26  S1  UNL     1      -2.752  -2.751   0.574  1.00  0.00    -0.083 SA
BRANCH  26  27
HETATM   27  C14 UNL     1      -2.799  -1.252  -0.387  1.00  0.00     0.162 A 
HETATM   28  N2  UNL     1      -2.273  -1.056  -1.601  1.00  0.00    -0.278 N 
HETATM   29  N3  UNL     1      -2.556   0.175  -1.962  1.00  0.00    -0.287 N 
ATOM     30  H2  UNL     1      -1.748  -1.738  -2.147  1.00  0.00     0.189 HD
HETATM   31  C15 UNL     1      -3.277   0.816  -0.991  1.00  0.00     0.099 A 
ATOM     32  H3  UNL     1      -2.276   0.597  -2.847  1.00  0.00     0.188 HD
HETATM   33  N7  UNL     1      -3.410  -0.087  -0.032  1.00  0.00    -0.319 N 
HETATM   34  C24 UNL     1      -4.065   0.063   1.255  1.00  0.00     0.159 C 
BRANCH  31  35
HETATM   35  C16 UNL     1      -3.722   2.225  -1.098  1.00  0.00     0.078 C 
BRANCH  35  36
HETATM   36  C17 UNL     1      -4.954   2.387  -1.916  1.00  0.00     0.008 C 
BRANCH  36  37
HETATM   37  C18 UNL     1      -6.205   1.758  -1.458  1.00  0.00     0.007 C 
BRANCH  37  38
HETATM   38  C19 UNL     1      -6.701   2.355  -0.187  1.00  0.00     0.066 C 
BRANCH  38  39
HETATM   39  C20 UNL     1      -7.955   1.590   0.183  1.00  0.00     0.069 A 
HETATM   40  N4  UNL     1      -8.492   0.558  -0.452  1.00  0.00    -0.296 N 
HETATM   41  N5  UNL     1      -9.551   0.018  -0.015  1.00  0.00    -0.279 N 
ATOM     42  H4  UNL     1      -8.050   0.197  -1.297  1.00  0.00     0.187 HD
HETATM   43  C21 UNL     1     -10.114   0.506   1.092  1.00  0.00     0.167 A 
ATOM     44  H5  UNL     1      -9.967  -0.777  -0.501  1.00  0.00     0.189 HD
HETATM   45  S2  UNL     1      -9.046   1.788   1.483  1.00  0.00    -0.038 SA
BRANCH  43  46
HETATM   46  N6  UNL     1     -11.196   0.087   1.704  1.00  0.00    -0.306 N 
HETATM   47  C22 UNL     1     -11.903  -1.019   1.177  1.00  0.00     0.219 C 
HETATM   48  C23 UNL     1     -12.647  -0.928  -0.093  1.00  0.00     0.117 C 
HETATM   49  O5  UNL     1     -11.895  -2.100   1.804  1.00  0.00    -0.274 OA
ATOM     50  H6  UNL     1     -11.524   0.553   2.550  1.00  0.00     0.171 HD
ENDBRANCH  43  46
ENDBRANCH  38  39
ENDBRANCH  37  38
ENDBRANCH  36  37
ENDBRANCH  35  36
ENDBRANCH  31  35
ENDBRANCH  26  27
ENDBRANCH   1  26
TORSDOF 14
