REMARK  19 active torsions:
REMARK  status: ('A' for Active; 'I' for Inactive)
REMARK    1  A    between atoms: C2_2  and  C3_3 
REMARK    2  A    between atoms: C3_3  and  C5_5 
REMARK    3  A    between atoms: C5_5  and  C6_6 
REMARK    4  A    between atoms: C6_6  and  C7_7 
REMARK    5  A    between atoms: C8_8  and  O1_9 
REMARK    6  A    between atoms: O1_9  and  C9_10 
REMARK    7  A    between atoms: C11_13  and  O3_14 
REMARK    8  A    between atoms: C12_16  and  O4_17 
REMARK    9  A    between atoms: O4_17  and  C13_18 
REMARK   10  A    between atoms: C13_18  and  C14_20 
REMARK   11  A    between atoms: C14_20  and  C15_21 
REMARK   12  A    between atoms: C15_21  and  C16_22 
REMARK   13  A    between atoms: C16_22  and  C17_23 
REMARK   14  A    between atoms: C20_26  and  O6_27 
REMARK   15  A    between atoms: O6_27  and  C21_28 
REMARK   16  A    between atoms: C25_33  and  O8_34 
REMARK   17  A    between atoms: O8_34  and  C26_35 
REMARK       I    between atoms: C26_35  and  N1_37 
REMARK   18  A    between atoms: N1_37  and  C28_39 
REMARK   19  A    between atoms: C33_44  and  O10_45 
ROOT
HETATM    1  C7  UNL     1      -1.984  -2.154  -0.771  1.00  0.00     0.030 C 
HETATM    2  C8  UNL     1      -3.116  -1.168  -0.984  1.00  0.00     0.168 C 
HETATM    3  C11 UNL     1      -3.174  -0.200   0.180  1.00  0.00     0.178 C 
HETATM    4  C12 UNL     1      -1.978   0.713  -0.092  1.00  0.00     0.170 C 
HETATM    5  C19 UNL     1      -0.732  -0.084   0.086  1.00  0.00     0.060 C 
HETATM    6  C20 UNL     1       0.460   0.619  -0.526  1.00  0.00     0.146 C 
HETATM    7  C23 UNL     1       1.746  -0.123  -0.196  1.00  0.00     0.060 C 
HETATM    8  C24 UNL     1       2.933   0.572  -0.805  1.00  0.00     0.043 C 
HETATM    9  C25 UNL     1       4.166  -0.279  -0.534  1.00  0.00     0.134 C 
HETATM   10  C30 UNL     1       3.893  -1.428   0.376  1.00  0.00     0.040 C 
HETATM   11  C31 UNL     1       2.749  -2.315  -0.073  1.00  0.00     0.026 C 
HETATM   12  C32 UNL     1       2.207  -2.951   1.188  1.00  0.00     0.014 C 
HETATM   13  C33 UNL     1       1.726  -1.505  -0.818  1.00  0.00     0.128 C 
HETATM   14  C34 UNL     1       0.406  -2.059  -0.978  1.00  0.00     0.167 C 
HETATM   15  O11 UNL     1       0.264  -2.979  -1.778  1.00  0.00    -0.294 OA
HETATM   16  C35 UNL     1      -0.767  -1.528  -0.189  1.00  0.00     0.074 C 
ENDROOT
BRANCH   4  17
HETATM   17  O4  UNL     1      -2.048   1.832   0.776  1.00  0.00    -0.313 OA
BRANCH  17  18
HETATM   18  C13 UNL     1      -2.230   3.087   0.249  1.00  0.00     0.259 C 
HETATM   19  O5  UNL     1      -2.342   3.185  -0.998  1.00  0.00    -0.265 OA
BRANCH  18  20
HETATM   20  C14 UNL     1      -2.301   4.337   1.037  1.00  0.00     0.111 C 
BRANCH  20  21
HETATM   21  C15 UNL     1      -2.868   4.123   2.398  1.00  0.00     0.010 C 
BRANCH  21  22
HETATM   22  C16 UNL     1      -4.271   3.589   2.400  1.00  0.00     0.000 C 
BRANCH  22  23
HETATM   23  C17 UNL     1      -5.238   4.527   1.686  1.00  0.00    -0.005 C 
HETATM   24  C18 UNL     1      -6.631   3.956   1.696  1.00  0.00     0.005 C 
ENDBRANCH  22  23
ENDBRANCH  21  22
ENDBRANCH  20  21
ENDBRANCH  18  20
ENDBRANCH  17  18
ENDBRANCH   4  17
BRANCH   3  25
HETATM   25  O3  UNL     1      -4.386   0.466   0.094  1.00  0.00    -0.390 OA
ATOM     26  H3  UNL     1      -4.422   1.073   0.824  1.00  0.00     0.210 HD
ENDBRANCH   3  25
BRANCH   2  27
HETATM   27  O1  UNL     1      -2.942  -0.465  -2.191  1.00  0.00    -0.313 OA
BRANCH  27  28
HETATM   28  C9  UNL     1      -3.892  -0.491  -3.202  1.00  0.00     0.255 C 
HETATM   29  C10 UNL     1      -3.756   0.222  -4.472  1.00  0.00     0.126 C 
HETATM   30  O2  UNL     1      -4.943  -1.175  -3.017  1.00  0.00    -0.266 OA
ENDBRANCH  27  28
ENDBRANCH   2  27
BRANCH   6  31
HETATM   31  O6  UNL     1       0.416   0.745  -1.923  1.00  0.00    -0.315 OA
BRANCH  31  32
HETATM   32  C21 UNL     1       0.612   1.917  -2.636  1.00  0.00     0.255 C 
HETATM   33  C22 UNL     1       0.563   2.064  -4.094  1.00  0.00     0.126 C 
HETATM   34  O7  UNL     1       0.857   2.962  -1.946  1.00  0.00    -0.266 OA
ENDBRANCH  31  32
ENDBRANCH   6  31
BRANCH   1  35
HETATM   35  C6  UNL     1      -2.583  -3.235   0.106  1.00  0.00     0.013 C 
BRANCH  35  36
HETATM   36  C5  UNL     1      -1.642  -4.364   0.425  1.00  0.00     0.038 C 
BRANCH  36  37
HETATM   37  C3  UNL     1      -2.241  -5.364   1.315  1.00  0.00    -0.068 C 
HETATM   38  C4  UNL     1      -2.575  -6.548   0.858  1.00  0.00     0.019 C 
BRANCH  37  39
HETATM   39  C2  UNL     1      -2.443  -5.061   2.720  1.00  0.00    -0.004 C 
HETATM   40  C1  UNL     1      -2.145  -3.941   3.312  1.00  0.00     0.012 C 
ENDBRANCH  37  39
ENDBRANCH  36  37
ENDBRANCH  35  36
ENDBRANCH   1  35
BRANCH  13  41
HETATM   41  O10 UNL     1       2.259  -1.407  -2.148  1.00  0.00    -0.381 OA
ATOM     42  H10 UNL     1       2.246  -2.273  -2.538  1.00  0.00     0.211 HD
ENDBRANCH  13  41
BRANCH   9  43
HETATM   43  O8  UNL     1       5.136   0.548   0.060  1.00  0.00    -0.298 OA
BRANCH  43  44
HETATM   44  C26 UNL     1       6.363   0.704  -0.581  1.00  0.00     0.362 C 
HETATM   45  O9  UNL     1       6.595   0.114  -1.673  1.00  0.00    -0.238 OA
HETATM   46  N1  UNL     1       7.392   1.522  -0.046  1.00  0.00    -0.333 N 
HETATM   47  C27 UNL     1       8.642   1.655  -0.741  1.00  0.00     0.155 C 
BRANCH  46  48
HETATM   48  C28 UNL     1       7.121   2.202   1.216  1.00  0.00     0.123 C 
HETATM   49  C29 UNL     1       7.556   1.318   2.362  1.00  0.00     0.026 C 
ENDBRANCH  46  48
ENDBRANCH  43  44
ENDBRANCH   9  43
TORSDOF 19
