REMARK  11 active torsions:
REMARK  status: ('A' for Active; 'I' for Inactive)
REMARK    1  A    between atoms: C2_2  and  C29_36 
REMARK    2  A    between atoms: C3_3  and  C4_4 
REMARK    3  A    between atoms: C15_15  and  N1_16 
REMARK       I    between atoms: N1_16  and  C16_18 
REMARK    4  A    between atoms: C16_18  and  C17_20 
REMARK    5  A    between atoms: C17_20  and  C18_21 
REMARK    6  A    between atoms: C18_21  and  C19_22 
REMARK    7  A    between atoms: C19_22  and  C20_23 
REMARK    8  A    between atoms: C20_23  and  C21_24 
REMARK    9  A    between atoms: C21_24  and  N2_25 
REMARK   10  A    between atoms: C26_31  and  C28_33 
REMARK   11  A    between atoms: C28_33  and  O2_34 
ROOT
HETATM    1  C4  UNL     1      -4.958   0.170  -0.163  1.00  0.00     0.004 C 
HETATM    2  C5  UNL     1      -3.777   0.684  -0.013  1.00  0.00    -0.067 C 
HETATM    3  C6  UNL     1      -3.533   2.151  -0.321  1.00  0.00     0.037 C 
HETATM    4  C7  UNL     1      -2.102   2.138  -0.817  1.00  0.00     0.047 C 
HETATM    5  C8  UNL     1      -1.454   1.278   0.238  1.00  0.00     0.174 C 
HETATM    6  C9  UNL     1      -1.356   2.078   1.509  1.00  0.00     0.043 C 
HETATM    7  C10 UNL     1      -0.499   3.332   1.276  1.00  0.00     0.009 C 
HETATM    8  C11 UNL     1       0.823   2.956   0.697  1.00  0.00     0.022 C 
HETATM    9  C12 UNL     1       1.940   3.301   1.695  1.00  0.00     0.012 C 
HETATM   10  C13 UNL     1       0.970   1.498   0.392  1.00  0.00     0.182 C 
HETATM   11  C14 UNL     1       1.774   0.697   1.364  1.00  0.00     0.052 C 
HETATM   12  C15 UNL     1       1.618   1.373  -1.017  1.00  0.00     0.151 C 
HETATM   13  C25 UNL     1       0.238   1.095  -1.510  1.00  0.00     0.302 C 
HETATM   14  N3  UNL     1      -0.153   0.827  -0.140  1.00  0.00     0.113 N 
HETATM   15  C26 UNL     1      -2.454   0.159   0.427  1.00  0.00     0.037 C 
HETATM   16  C27 UNL     1      -2.129  -1.041  -0.412  1.00  0.00     0.025 C 
ENDROOT
BRANCH  15  17
HETATM   17  C28 UNL     1      -2.518  -0.282   1.878  1.00  0.00     0.180 C 
BRANCH  17  18
HETATM   18  O2  UNL     1      -1.312  -0.795   2.259  1.00  0.00    -0.400 OA
ATOM     19  H2  UNL     1      -1.352  -1.071   3.167  1.00  0.00     0.209 HD
ENDBRANCH  17  18
ENDBRANCH  15  17
BRANCH  12  20
HETATM   20  N1  UNL     1       2.571   0.290  -1.054  1.00  0.00    -0.352 N 
HETATM   21  C16 UNL     1       3.934   0.405  -1.318  1.00  0.00     0.217 C 
HETATM   22  O1  UNL     1       4.417   1.560  -1.548  1.00  0.00    -0.274 OA
ATOM     23  H1  UNL     1       2.213  -0.647  -0.870  1.00  0.00     0.163 HD
BRANCH  21  24
HETATM   24  C17 UNL     1       4.813  -0.777  -1.336  1.00  0.00     0.103 C 
BRANCH  24  25
HETATM   25  C18 UNL     1       6.249  -0.327  -1.544  1.00  0.00     0.009 C 
BRANCH  25  26
HETATM   26  C19 UNL     1       7.215  -1.485  -1.605  1.00  0.00     0.002 C 
BRANCH  26  27
HETATM   27  C20 UNL     1       8.603  -0.952  -1.778  1.00  0.00     0.028 C 
BRANCH  27  28
HETATM   28  C21 UNL     1       9.145  -0.127  -0.665  1.00  0.00     0.236 C 
BRANCH  28  29
HETATM   29  N2  UNL     1       9.323  -0.763   0.596  1.00  0.00    -0.079 N 
HETATM   30  C22 UNL     1       8.234  -0.593   1.530  1.00  0.00     0.271 C 
HETATM   31  C23 UNL     1       9.710  -2.163   0.522  1.00  0.00     0.271 C 
HETATM   32  C24 UNL     1      10.469  -0.052   1.231  1.00  0.00     0.271 C 
ENDBRANCH  28  29
ENDBRANCH  27  28
ENDBRANCH  26  27
ENDBRANCH  25  26
ENDBRANCH  24  25
ENDBRANCH  21  24
ENDBRANCH  12  20
BRANCH   1  33
HETATM   33  C3  UNL     1      -5.417  -1.168   0.060  1.00  0.00     0.007 C 
HETATM   34  C2  UNL     1      -6.659  -1.626  -0.112  1.00  0.00    -0.062 C 
HETATM   35  C1  UNL     1      -6.855  -3.074   0.200  1.00  0.00     0.048 C 
BRANCH  34  36
HETATM   36  C29 UNL     1      -7.749  -0.831  -0.570  1.00  0.00     0.011 C 
HETATM   37  C30 UNL     1      -9.004  -1.098  -0.789  1.00  0.00    -0.056 C 
HETATM   38  C31 UNL     1      -9.675  -2.418  -0.594  1.00  0.00     0.038 C 
HETATM   39  C34 UNL     1      -9.858   0.052  -1.314  1.00  0.00     0.202 C 
HETATM   40  C32 UNL     1     -11.184  -2.138  -0.593  1.00  0.00     0.030 C 
HETATM   41  C33 UNL     1     -11.359  -0.819   0.167  1.00  0.00     0.168 C 
HETATM   42  O3  UNL     1     -11.056   0.187  -0.704  1.00  0.00    -0.387 OA
ENDBRANCH  34  36
ENDBRANCH   1  33
TORSDOF 11
