REMARK  10 active torsions:
REMARK  status: ('A' for Active; 'I' for Inactive)
REMARK    1  A    between atoms: C2_2  and  C4_4 
REMARK    2  A    between atoms: N1_5  and  C5_6 
REMARK    3  A    between atoms: N1_5  and  S1_27 
REMARK    4  A    between atoms: C14_15  and  O1_16 
REMARK    5  A    between atoms: S1_27  and  C24_30 
REMARK    6  A    between atoms: C24_30  and  C25_31 
REMARK    7  A    between atoms: C25_31  and  C26_32 
REMARK    8  A    between atoms: C26_32  and  C27_33 
REMARK    9  A    between atoms: C27_33  and  C28_34 
REMARK       I    between atoms: C28_34  and  N2_36 
REMARK   10  A    between atoms: N2_36  and  C29_38 
ROOT
HETATM    1  C5  UNL     1      -0.301  -0.744   1.268  1.00  0.00     0.109 C 
HETATM    2  C6  UNL     1      -0.575  -0.459   2.764  1.00  0.00     0.028 C 
HETATM    3  C7  UNL     1      -1.806   0.428   2.594  1.00  0.00     0.008 C 
HETATM    4  C8  UNL     1      -2.606  -0.376   1.605  1.00  0.00     0.000 C 
HETATM    5  C9  UNL     1      -3.530   0.431   0.779  1.00  0.00    -0.005 C 
HETATM    6  C10 UNL     1      -3.038   1.748   0.301  1.00  0.00     0.006 C 
HETATM    7  C11 UNL     1      -3.561   2.135  -1.075  1.00  0.00     0.006 C 
HETATM    8  C12 UNL     1      -5.009   1.727  -1.250  1.00  0.00    -0.004 C 
HETATM    9  C13 UNL     1      -5.837   2.607  -0.364  1.00  0.00     0.037 C 
HETATM   10  C14 UNL     1      -7.291   2.282  -0.347  1.00  0.00     0.118 C 
HETATM   11  C15 UNL     1      -7.613   0.941  -0.957  1.00  0.00     0.032 C 
HETATM   12  C16 UNL     1      -6.588  -0.040  -0.450  1.00  0.00     0.012 C 
HETATM   13  C17 UNL     1      -5.230   0.268  -1.076  1.00  0.00    -0.036 C 
HETATM   14  C18 UNL     1      -5.276  -0.392  -2.463  1.00  0.00     0.016 C 
HETATM   15  C19 UNL     1      -4.131  -0.438  -0.323  1.00  0.00    -0.002 C 
HETATM   16  C20 UNL     1      -3.100  -1.057  -1.199  1.00  0.00     0.006 C 
HETATM   17  C21 UNL     1      -1.707  -0.952  -0.676  1.00  0.00     0.012 C 
HETATM   18  C22 UNL     1      -1.599  -1.229   0.812  1.00  0.00    -0.018 C 
HETATM   19  C23 UNL     1      -1.981  -2.645   1.061  1.00  0.00     0.018 C 
ENDROOT
BRANCH   1  20
HETATM   20  N1  UNL     1       0.918  -1.340   1.171  1.00  0.00    -0.284 N 
HETATM   21  C4  UNL     1       1.252  -2.571   0.695  1.00  0.00     0.080 C 
BRANCH  21  22
HETATM   22  C2  UNL     1       2.124  -3.355   1.651  1.00  0.00     0.017 C 
HETATM   23  C1  UNL     1       1.445  -3.603   2.999  1.00  0.00     0.015 C 
HETATM   24  C3  UNL     1       2.310  -4.776   1.075  1.00  0.00     0.015 C 
ENDBRANCH  21  22
BRANCH  20  25
HETATM   25  S1  UNL     1       2.011  -0.153   0.460  1.00  0.00     0.232 S 
HETATM   26  O2  UNL     1       1.577   1.231   0.886  1.00  0.00    -0.205 OA
HETATM   27  O3  UNL     1       1.834  -0.189  -1.047  1.00  0.00    -0.205 OA
BRANCH  25  28
HETATM   28  C24 UNL     1       3.677  -0.408   0.857  1.00  0.00     0.163 C 
BRANCH  28  29
HETATM   29  C25 UNL     1       4.655   0.603   0.342  1.00  0.00     0.017 C 
BRANCH  29  30
HETATM   30  C26 UNL     1       4.728   0.753  -1.136  1.00  0.00     0.010 C 
BRANCH  30  31
HETATM   31  C27 UNL     1       5.752   1.758  -1.609  1.00  0.00     0.103 C 
BRANCH  31  32
HETATM   32  C28 UNL     1       7.128   1.380  -1.224  1.00  0.00     0.217 C 
HETATM   33  O4  UNL     1       7.442   0.301  -0.642  1.00  0.00    -0.274 OA
HETATM   34  N2  UNL     1       8.232   2.246  -1.499  1.00  0.00    -0.356 N 
ATOM     35  H2  UNL     1       8.041   3.131  -1.968  1.00  0.00     0.162 HD
BRANCH  34  36
HETATM   36  C29 UNL     1       9.601   1.944  -1.153  1.00  0.00     0.084 A 
HETATM   37  C30 UNL     1      10.650   2.299  -2.216  1.00  0.00     0.027 A 
HETATM   38  C31 UNL     1      10.579   3.039  -0.919  1.00  0.00     0.027 A 
ENDBRANCH  34  36
ENDBRANCH  31  32
ENDBRANCH  30  31
ENDBRANCH  29  30
ENDBRANCH  28  29
ENDBRANCH  25  28
ENDBRANCH  20  25
ENDBRANCH   1  20
BRANCH  10  39
HETATM   39  O1  UNL     1      -8.088   3.274  -0.915  1.00  0.00    -0.396 OA
ATOM     40  H1  UNL     1      -9.015   3.067  -0.904  1.00  0.00     0.210 HD
ENDBRANCH  10  39
TORSDOF 10
