REMARK  10 active torsions:
REMARK  status: ('A' for Active; 'I' for Inactive)
REMARK    1  A    between atoms: S1_2  and  C2_3 
REMARK    2  A    between atoms: C2_3  and  C3_4 
REMARK    3  A    between atoms: C3_4  and  C4_5 
REMARK    4  A    between atoms: C4_5  and  N1_6 
REMARK    5  A    between atoms: C4_5  and  C22_28 
REMARK       I    between atoms: N1_6  and  C5_8 
REMARK    6  A    between atoms: C5_8  and  C6_10 
REMARK    7  A    between atoms: C10_14  and  C11_15 
REMARK       I    between atoms: C11_15  and  N2_17 
REMARK    8  A    between atoms: N2_17  and  C12_18 
REMARK    9  A    between atoms: N2_17  and  C18_24 
REMARK       I    between atoms: C22_28  and  N3_30 
REMARK   10  A    between atoms: N3_30  and  C23_32 
ROOT
HETATM    1  N1  UNL     1      -0.458   0.445   0.191  1.00  0.00    -0.347 N 
ATOM      2  H1  UNL     1       0.242   0.435  -0.551  1.00  0.00     0.163 HD
HETATM    3  C5  UNL     1      -0.098  -0.014   1.478  1.00  0.00     0.223 C 
HETATM    4  O1  UNL     1      -0.967  -0.011   2.422  1.00  0.00    -0.273 OA
ENDROOT
BRANCH   1   5
HETATM    5  C4  UNL     1      -1.809   0.937  -0.113  1.00  0.00     0.177 C 
BRANCH   5   6
HETATM    6  C3  UNL     1      -1.735   2.178  -0.923  1.00  0.00     0.045 C 
BRANCH   6   7
HETATM    7  C2  UNL     1      -3.048   2.777  -1.319  1.00  0.00     0.076 C 
BRANCH   7   8
HETATM    8  S1  UNL     1      -2.779   4.317  -2.279  1.00  0.00    -0.173 SA
HETATM    9  C1  UNL     1      -2.038   5.618  -1.298  1.00  0.00     0.089 C 
ENDBRANCH   7   8
ENDBRANCH   6   7
ENDBRANCH   5   6
BRANCH   5  10
HETATM   10  C22 UNL     1      -2.574  -0.176  -0.723  1.00  0.00     0.241 C 
HETATM   11  O3  UNL     1      -1.954  -1.175  -1.147  1.00  0.00    -0.271 OA
HETATM   12  N3  UNL     1      -3.987  -0.072  -0.798  1.00  0.00    -0.351 N 
ATOM     13  H3  UNL     1      -4.469   0.753  -0.441  1.00  0.00     0.163 HD
BRANCH  12  14
HETATM   14  C23 UNL     1      -4.732  -1.166  -1.394  1.00  0.00     0.118 C 
HETATM   15  C24 UNL     1      -5.753  -0.711  -2.367  1.00  0.00     0.030 C 
HETATM   16  C25 UNL     1      -6.979  -0.121  -1.760  1.00  0.00     0.007 C 
HETATM   17  C26 UNL     1      -7.108  -0.251  -0.282  1.00  0.00     0.039 C 
HETATM   18  C27 UNL     1      -6.519  -1.494   0.258  1.00  0.00    -0.050 A 
HETATM   19  C28 UNL     1      -7.164  -2.158   1.295  1.00  0.00     0.007 A 
HETATM   20  C32 UNL     1      -5.347  -1.956  -0.286  1.00  0.00    -0.029 A 
HETATM   21  C29 UNL     1      -6.572  -3.311   1.758  1.00  0.00     0.001 A 
HETATM   22  C30 UNL     1      -5.377  -3.793   1.212  1.00  0.00     0.001 A 
HETATM   23  C31 UNL     1      -4.764  -3.115   0.188  1.00  0.00     0.010 A 
ENDBRANCH  12  14
ENDBRANCH   5  10
ENDBRANCH   1   5
BRANCH   3  24
HETATM   24  C6  UNL     1       1.268  -0.501   1.767  1.00  0.00     0.091 C 
HETATM   25  C7  UNL     1       1.222  -1.235   3.110  1.00  0.00     0.015 C 
HETATM   26  C8  UNL     1       1.254  -0.143   4.112  1.00  0.00     0.002 C 
HETATM   27  C9  UNL     1       1.842   1.047   3.431  1.00  0.00     0.015 C 
HETATM   28  C10 UNL     1       2.258   0.583   2.040  1.00  0.00     0.091 C 
BRANCH  28  29
HETATM   29  C11 UNL     1       3.629   0.069   2.040  1.00  0.00     0.225 C 
HETATM   30  O2  UNL     1       4.204  -0.147   3.171  1.00  0.00    -0.273 OA
HETATM   31  N2  UNL     1       4.432  -0.232   0.886  1.00  0.00    -0.342 N 
BRANCH  31  32
HETATM   32  C12 UNL     1       3.835  -0.001  -0.384  1.00  0.00     0.087 C 
HETATM   33  C13 UNL     1       3.662  -1.208  -1.270  1.00  0.00     0.025 C 
HETATM   34  C14 UNL     1       4.190  -0.984  -2.671  1.00  0.00     0.002 C 
HETATM   35  C15 UNL     1       3.592   0.235  -3.319  1.00  0.00     0.000 C 
HETATM   36  C16 UNL     1       3.428   1.382  -2.341  1.00  0.00     0.002 C 
HETATM   37  C17 UNL     1       4.452   1.105  -1.219  1.00  0.00     0.025 C 
ENDBRANCH  31  32
BRANCH  31  38
HETATM   38  C18 UNL     1       5.728  -0.737   1.149  1.00  0.00     0.087 C 
HETATM   39  C19 UNL     1       6.353  -1.855   0.442  1.00  0.00     0.025 C 
HETATM   40  C20 UNL     1       7.698  -1.247   0.932  1.00  0.00     0.004 C 
HETATM   41  C21 UNL     1       6.941   0.097   0.755  1.00  0.00     0.025 C 
ENDBRANCH  31  38
ENDBRANCH  28  29
ENDBRANCH   3  24
TORSDOF 10
