REMARK  10 active torsions:
REMARK  status: ('A' for Active; 'I' for Inactive)
REMARK    1  A    between atoms: C2_2  and  C3_3 
REMARK    2  A    between atoms: C6_6  and  C7_7 
REMARK    3  A    between atoms: C7_7  and  C8_8 
REMARK       I    between atoms: C8_8  and  N1_10 
REMARK    4  A    between atoms: N1_10  and  C9_12 
REMARK    5  A    between atoms: C9_12  and  C10_13 
REMARK    6  A    between atoms: C13_16  and  O2_17 
REMARK    7  A    between atoms: C19_23  and  C20_24 
REMARK    8  A    between atoms: C19_23  and  S1_27 
REMARK    9  A    between atoms: S1_27  and  N2_30 
REMARK   10  A    between atoms: N2_30  and  C23_32 
ROOT
HETATM    1  C3  UNL     1       0.707  -3.503  -1.234  1.00  0.00     0.012 C 
HETATM    2  C4  UNL     1       0.468  -2.828  -2.561  1.00  0.00     0.015 C 
HETATM    3  C5  UNL     1       0.333  -1.346  -2.252  1.00  0.00     0.017 C 
HETATM    4  C6  UNL     1       1.277  -1.308  -1.063  1.00  0.00     0.005 C 
HETATM    5  C17 UNL     1       0.513  -2.410  -0.281  1.00  0.00    -0.000 C 
HETATM    6  C18 UNL     1      -0.821  -1.666  -0.287  1.00  0.00     0.033 C 
HETATM    7  C19 UNL     1      -0.976  -0.977  -1.615  1.00  0.00     0.090 C 
ENDROOT
BRANCH   7   8
HETATM    8  C20 UNL     1      -2.202  -1.381  -2.389  1.00  0.00     0.003 C 
HETATM    9  C21 UNL     1      -2.263  -0.843  -3.795  1.00  0.00     0.011 C 
HETATM   10  C22 UNL     1      -2.785  -2.722  -2.274  1.00  0.00     0.011 C 
ENDBRANCH   7   8
BRANCH   7  11
HETATM   11  S1  UNL     1      -1.075   0.800  -1.514  1.00  0.00     0.236 S 
HETATM   12  O3  UNL     1       0.143   1.341  -0.885  1.00  0.00    -0.205 OA
HETATM   13  O4  UNL     1      -1.112   1.362  -2.965  1.00  0.00    -0.205 OA
BRANCH  11  14
HETATM   14  N2  UNL     1      -2.444   1.453  -0.833  1.00  0.00    -0.313 N 
ATOM     15  H2  UNL     1      -3.026   2.050  -1.420  1.00  0.00     0.172 HD
BRANCH  14  16
HETATM   16  C23 UNL     1      -2.855   1.243   0.485  1.00  0.00     0.101 C 
HETATM   17  C24 UNL     1      -2.861   2.558   1.299  1.00  0.00     0.010 C 
HETATM   18  C25 UNL     1      -3.647   3.629   0.615  1.00  0.00     0.011 C 
HETATM   19  C29 UNL     1      -3.396   2.279   2.678  1.00  0.00     0.011 C 
HETATM   20  C26 UNL     1      -5.072   3.155   0.451  1.00  0.00    -0.013 C 
HETATM   21  C27 UNL     1      -5.655   2.960   1.838  1.00  0.00     0.009 C 
HETATM   22  C32 UNL     1      -5.140   1.822  -0.247  1.00  0.00     0.011 C 
HETATM   23  C28 UNL     1      -4.865   1.915   2.581  1.00  0.00    -0.013 C 
HETATM   24  C30 UNL     1      -4.881   0.593   1.833  1.00  0.00     0.011 C 
HETATM   25  C31 UNL     1      -4.301   0.807   0.461  1.00  0.00     0.010 C 
ENDBRANCH  14  16
ENDBRANCH  11  14
ENDBRANCH   7  11
BRANCH   4  26
HETATM   26  C7  UNL     1       2.679  -1.615  -1.379  1.00  0.00     0.108 C 
BRANCH  26  27
HETATM   27  C8  UNL     1       3.500  -1.564  -0.154  1.00  0.00     0.218 C 
HETATM   28  O1  UNL     1       2.959  -1.279   0.929  1.00  0.00    -0.274 OA
HETATM   29  N1  UNL     1       4.879  -1.836  -0.219  1.00  0.00    -0.357 N 
ATOM     30  H1  UNL     1       5.289  -2.061  -1.126  1.00  0.00     0.162 HD
BRANCH  29  31
HETATM   31  C9  UNL     1       5.744  -1.811   0.945  1.00  0.00     0.161 C 
BRANCH  31  32
HETATM   32  C10 UNL     1       6.051  -0.430   1.404  1.00  0.00    -0.040 A 
HETATM   33  C11 UNL     1       6.697  -0.203   2.599  1.00  0.00     0.011 A 
HETATM   34  C12 UNL     1       6.993   1.062   3.053  1.00  0.00     0.037 A 
HETATM   35  C13 UNL     1       6.630   2.156   2.283  1.00  0.00     0.068 A 
HETATM   36  C15 UNL     1       5.985   1.956   1.088  1.00  0.00     0.037 A 
HETATM   37  C16 UNL     1       5.693   0.675   0.642  1.00  0.00     0.011 A 
BRANCH  35  38
HETATM   38  O2  UNL     1       6.935   3.422   2.755  1.00  0.00    -0.356 OA
HETATM   39  C14 UNL     1       6.620   4.610   2.069  1.00  0.00     0.210 C 
ENDBRANCH  35  38
ENDBRANCH  31  32
ENDBRANCH  29  31
ENDBRANCH  26  27
ENDBRANCH   4  26
BRANCH   1  40
HETATM   40  C2  UNL     1       0.094  -4.796  -1.016  1.00  0.00    -0.032 C 
HETATM   41  C1  UNL     1      -0.614  -5.077   0.035  1.00  0.00     0.007 C 
ENDBRANCH   1  40
TORSDOF 10
