REMARK  10 active torsions:
REMARK  status: ('A' for Active; 'I' for Inactive)
REMARK    1  A    between atoms: C2_2  and  N1_3 
REMARK    2  A    between atoms: C2_2  and  C23_29 
REMARK       I    between atoms: N1_3  and  C3_5 
REMARK    3  A    between atoms: C3_5  and  C4_7 
REMARK       I    between atoms: N2_11  and  C8_12 
REMARK    4  A    between atoms: C8_12  and  C9_14 
REMARK    5  A    between atoms: C9_14  and  O3_15 
REMARK    6  A    between atoms: O3_15  and  C10_16 
REMARK    7  A    between atoms: C11_17  and  C12_18 
REMARK    8  A    between atoms: C18_24  and  C19_25 
REMARK       I    between atoms: C23_29  and  N3_31 
REMARK    9  A    between atoms: N3_31  and  C24_33 
REMARK   10  A    between atoms: C28_37  and  C29_38 
ROOT
HETATM    1  C4  UNL     1       0.722   1.351  -1.811  1.00  0.00     0.096 C 
HETATM    2  C5  UNL     1       0.941  -0.096  -2.078  1.00  0.00     0.017 C 
HETATM    3  C6  UNL     1       1.068  -0.997  -0.888  1.00  0.00     0.021 C 
HETATM    4  C7  UNL     1       1.835  -0.409   0.266  1.00  0.00     0.126 C 
HETATM    5  N2  UNL     1       2.420   0.829  -0.209  1.00  0.00    -0.349 N 
HETATM    6  C8  UNL     1       3.816   1.032  -0.278  1.00  0.00     0.244 C 
HETATM    7  O2  UNL     1       4.343   2.085  -0.698  1.00  0.00    -0.271 OA
HETATM    8  C22 UNL     1       1.485   1.859  -0.605  1.00  0.00     0.139 C 
ENDROOT
BRANCH   1   9
HETATM    9  C3  UNL     1      -0.704   1.764  -1.756  1.00  0.00     0.224 C 
HETATM   10  N1  UNL     1      -1.560   1.280  -0.775  1.00  0.00    -0.348 N 
ATOM     11  H1  UNL     1      -1.174   0.628  -0.092  1.00  0.00     0.163 HD
HETATM   12  O1  UNL     1      -1.141   2.569  -2.617  1.00  0.00    -0.273 OA
BRANCH  10  13
HETATM   13  C2  UNL     1      -2.961   1.631  -0.648  1.00  0.00     0.172 C 
HETATM   14  C1  UNL     1      -3.135   2.342   0.673  1.00  0.00     0.042 C 
BRANCH  13  15
HETATM   15  C23 UNL     1      -3.856   0.485  -0.824  1.00  0.00     0.240 C 
HETATM   16  O4  UNL     1      -3.408  -0.660  -1.081  1.00  0.00    -0.271 OA
HETATM   17  N3  UNL     1      -5.250   0.638  -0.706  1.00  0.00    -0.354 N 
ATOM     18  H3  UNL     1      -5.633   1.559  -0.494  1.00  0.00     0.162 HD
BRANCH  17  19
HETATM   19  C24 UNL     1      -6.147  -0.470  -0.877  1.00  0.00     0.088 C 
HETATM   20  C25 UNL     1      -7.179  -0.254  -1.928  1.00  0.00     0.025 C 
HETATM   21  C26 UNL     1      -8.227   0.753  -1.571  1.00  0.00     0.002 C 
HETATM   22  C27 UNL     1      -8.348   1.098  -0.133  1.00  0.00     0.005 C 
HETATM   23  C28 UNL     1      -7.951   0.026   0.832  1.00  0.00    -0.005 C 
HETATM   24  C32 UNL     1      -6.859  -0.878   0.393  1.00  0.00     0.009 C 
HETATM   25  C33 UNL     1      -5.812  -1.040   1.493  1.00  0.00     0.012 C 
BRANCH  23  26
HETATM   26  C29 UNL     1      -9.186  -0.723   1.298  1.00  0.00    -0.018 C 
HETATM   27  C30 UNL     1      -8.899  -1.817   2.266  1.00  0.00     0.010 C 
HETATM   28  C31 UNL     1     -10.160   0.233   1.987  1.00  0.00     0.010 C 
ENDBRANCH  23  26
ENDBRANCH  17  19
ENDBRANCH  13  15
ENDBRANCH  10  13
ENDBRANCH   1   9
BRANCH   6  29
HETATM   29  C9  UNL     1       4.770  -0.065   0.172  1.00  0.00     0.278 C 
BRANCH  29  30
HETATM   30  O3  UNL     1       6.066   0.365  -0.043  1.00  0.00    -0.341 OA
BRANCH  30  31
HETATM   31  C10 UNL     1       7.200  -0.324   0.236  1.00  0.00     0.082 A 
HETATM   32  C11 UNL     1       7.829  -1.155  -0.670  1.00  0.00    -0.021 A 
HETATM   33  C15 UNL     1       9.000  -1.811  -0.265  1.00  0.00     0.010 A 
HETATM   34  C16 UNL     1       9.549  -1.669   0.986  1.00  0.00     0.001 A 
HETATM   35  C17 UNL     1       8.902  -0.837   1.865  1.00  0.00     0.010 A 
HETATM   36  C18 UNL     1       7.739  -0.162   1.514  1.00  0.00    -0.021 A 
BRANCH  32  37
HETATM   37  C12 UNL     1       7.284  -1.356  -2.024  1.00  0.00     0.013 C 
HETATM   38  C13 UNL     1       8.454  -1.912  -2.874  1.00  0.00     0.015 C 
HETATM   39  C14 UNL     1       6.254  -2.480  -2.089  1.00  0.00     0.015 C 
ENDBRANCH  32  37
BRANCH  36  40
HETATM   40  C19 UNL     1       7.107   0.748   2.495  1.00  0.00     0.013 C 
HETATM   41  C20 UNL     1       7.943   0.805   3.778  1.00  0.00     0.015 C 
HETATM   42  C21 UNL     1       7.003   2.123   1.878  1.00  0.00     0.015 C 
ENDBRANCH  36  40
ENDBRANCH  30  31
ENDBRANCH  29  30
ENDBRANCH   6  29
TORSDOF 10
