REMARK  9 active torsions:
REMARK  status: ('A' for Active; 'I' for Inactive)
REMARK    1  A    between atoms: C2_2  and  C3_3 
REMARK    2  A    between atoms: C7_7  and  O1_8 
REMARK    3  A    between atoms: O1_8  and  C8_9 
REMARK    4  A    between atoms: C9_11  and  C10_12 
REMARK    5  A    between atoms: C10_12  and  O3_13 
REMARK    6  A    between atoms: C11_15  and  O4_16 
REMARK    7  A    between atoms: C12_18  and  O5_19 
REMARK    8  A    between atoms: C13_21  and  C14_22 
REMARK    9  A    between atoms: C14_22  and  C15_23 
ROOT
HETATM    1  C3  UNL     1       1.999   2.991   0.687  1.00  0.00     0.073 C 
HETATM    2  C4  UNL     1       2.046   3.275  -0.793  1.00  0.00     0.155 C 
HETATM    3  C5  UNL     1       0.649   3.143  -1.327  1.00  0.00     0.004 C 
HETATM    4  C6  UNL     1      -0.127   2.117  -1.236  1.00  0.00     0.008 C 
HETATM    5  C7  UNL     1       0.061   0.760  -0.604  1.00  0.00     0.178 C 
HETATM    6  C13 UNL     1       1.150   0.636   0.320  1.00  0.00    -0.021 C 
HETATM    7  C19 UNL     1       2.296   1.617   0.210  1.00  0.00     0.164 C 
HETATM    8  O8  UNL     1       2.670   2.043  -1.003  1.00  0.00    -0.371 OA
ENDROOT
BRANCH   5   9
HETATM    9  O1  UNL     1      -1.187   0.610   0.088  1.00  0.00    -0.345 OA
BRANCH   9  10
HETATM   10  C8  UNL     1      -2.061  -0.241  -0.507  1.00  0.00     0.292 C 
HETATM   11  O2  UNL     1      -2.321  -1.267   0.435  1.00  0.00    -0.348 OA
HETATM   12  C9  UNL     1      -3.531  -1.765  -0.008  1.00  0.00     0.179 C 
HETATM   13  C11 UNL     1      -4.379  -0.511  -0.057  1.00  0.00     0.182 C 
HETATM   14  C12 UNL     1      -3.413   0.469  -0.668  1.00  0.00     0.204 C 
BRANCH  12  15
HETATM   15  C10 UNL     1      -4.135  -2.763   0.946  1.00  0.00     0.198 C 
BRANCH  15  16
HETATM   16  O3  UNL     1      -3.247  -3.819   1.087  1.00  0.00    -0.398 OA
ATOM     17  H3  UNL     1      -3.628  -4.448   1.688  1.00  0.00     0.209 HD
ENDBRANCH  15  16
ENDBRANCH  12  15
BRANCH  13  18
HETATM   18  O4  UNL     1      -5.538  -0.671  -0.790  1.00  0.00    -0.390 OA
ATOM     19  H4  UNL     1      -6.070   0.116  -0.821  1.00  0.00     0.210 HD
ENDBRANCH  13  18
BRANCH  14  20
HETATM   20  O5  UNL     1      -3.422   1.674   0.028  1.00  0.00    -0.388 OA
ATOM     21  H5  UNL     1      -4.258   2.113  -0.072  1.00  0.00     0.210 HD
ENDBRANCH  14  20
ENDBRANCH   9  10
ENDBRANCH   5   9
BRANCH   6  22
HETATM   22  C14 UNL     1       1.665  -0.715   0.623  1.00  0.00    -0.004 C 
BRANCH  22  23
HETATM   23  C15 UNL     1       2.267  -1.635  -0.296  1.00  0.00     0.110 C 
HETATM   24  C16 UNL     1       2.753  -2.897   0.583  1.00  0.00     0.045 C 
HETATM   25  C17 UNL     1       3.143  -3.854  -0.494  1.00  0.00     0.180 C 
HETATM   26  O6  UNL     1       2.532  -3.400  -1.697  1.00  0.00    -0.321 OA
HETATM   27  C18 UNL     1       1.549  -2.425  -1.293  1.00  0.00     0.266 C 
HETATM   28  O7  UNL     1       0.435  -2.469  -1.820  1.00  0.00    -0.265 OA
ENDBRANCH  22  23
ENDBRANCH   6  22
BRANCH   1  29
HETATM   29  C2  UNL     1       3.085   3.632   1.466  1.00  0.00    -0.027 C 
HETATM   30  C1  UNL     1       3.687   4.743   1.140  1.00  0.00     0.007 C 
ENDBRANCH   1  29
TORSDOF 9
