REMARK  10 active torsions:
REMARK  status: ('A' for Active; 'I' for Inactive)
REMARK    1  A    between atoms: O1_2  and  C2_3 
REMARK    2  A    between atoms: C2_3  and  C3_5 
REMARK    3  A    between atoms: C4_7  and  N1_8 
REMARK    4  A    between atoms: N1_8  and  C5_10 
REMARK    5  A    between atoms: C5_10  and  C6_11 
REMARK    6  A    between atoms: C5_10  and  C7_13 
REMARK    7  A    between atoms: C7_13  and  O4_14 
REMARK    8  A    between atoms: C7_13  and  N2_16 
REMARK    9  A    between atoms: C9_18  and  C10_19 
REMARK   10  A    between atoms: C10_19  and  O5_20 
ROOT
HETATM    1  N1  UNL     1      -0.291  -0.216   0.034  1.00  0.00    -0.394 N 
ATOM      2  H1  UNL     1      -0.219  -1.114   0.512  1.00  0.00     0.155 HD
ENDROOT
BRANCH   1   3
HETATM    3  C4  UNL     1       0.643   0.711   0.388  1.00  0.00     0.154 C 
HETATM    4  S1  UNL     1       1.709  -0.149   1.668  1.00  0.00    -0.128 SA
HETATM    5  C3  UNL     1       3.331   0.347   0.983  1.00  0.00     0.154 C 
HETATM    6  C15 UNL     1       2.949   0.624  -0.444  1.00  0.00     0.026 C 
HETATM    7  C12 UNL     1       1.637   1.372  -0.391  1.00  0.00     0.085 C 
HETATM    8  C14 UNL     1       3.937   1.625  -1.002  1.00  0.00     0.017 C 
HETATM    9  S2  UNL     1       2.288   2.815   0.611  1.00  0.00    -0.161 SA
HETATM   10  C13 UNL     1       3.968   2.829  -0.132  1.00  0.00     0.075 C 
BRANCH   5  11
HETATM   11  C2  UNL     1       4.353  -0.683   1.136  1.00  0.00     0.272 C 
HETATM   12  O2  UNL     1       4.054  -1.772   1.698  1.00  0.00    -0.264 OA
BRANCH  11  13
HETATM   13  O1  UNL     1       5.634  -0.484   0.681  1.00  0.00    -0.326 OA
HETATM   14  C1  UNL     1       6.684  -1.413   0.785  1.00  0.00     0.213 C 
ENDBRANCH  11  13
ENDBRANCH   5  11
ENDBRANCH   1   3
BRANCH   1  15
HETATM   15  C5  UNL     1      -1.315  -0.113  -0.875  1.00  0.00     0.199 C 
BRANCH  15  16
HETATM   16  C6  UNL     1      -0.851  -0.064  -2.276  1.00  0.00     0.260 C 
HETATM   17  O3  UNL     1       0.256  -0.207  -2.700  1.00  0.00    -0.304 OA
ENDBRANCH  15  16
BRANCH  15  18
HETATM   18  C7  UNL     1      -2.340  -1.255  -0.819  1.00  0.00     0.385 C 
BRANCH  18  19
HETATM   19  O4  UNL     1      -3.321  -1.051  -1.803  1.00  0.00    -0.366 OA
ATOM     20  H4  UNL     1      -3.955  -1.758  -1.768  1.00  0.00     0.212 HD
ENDBRANCH  18  19
BRANCH  18  21
HETATM   21  N2  UNL     1      -3.033  -1.306   0.451  1.00  0.00     0.120 N 
HETATM   22  C8  UNL     1      -3.832  -0.132   0.760  1.00  0.00     0.284 C 
HETATM   23  C9  UNL     1      -5.066  -0.953   1.043  1.00  0.00     0.066 C 
HETATM   24  C11 UNL     1      -4.295  -2.040   0.332  1.00  0.00     0.284 C 
BRANCH  23  25
HETATM   25  C10 UNL     1      -6.330  -0.492   0.361  1.00  0.00     0.172 C 
BRANCH  25  26
HETATM   26  O5  UNL     1      -6.660   0.813   0.741  1.00  0.00    -0.400 OA
ATOM     27  H5  UNL     1      -7.456   1.103   0.311  1.00  0.00     0.209 HD
ENDBRANCH  25  26
ENDBRANCH  23  25
ENDBRANCH  18  21
ENDBRANCH  15  18
ENDBRANCH   1  15
TORSDOF 10
