REMARK  18 active torsions:
REMARK  status: ('A' for Active; 'I' for Inactive)
REMARK    1  A    between atoms: O1_2  and  C2_3 
REMARK    2  A    between atoms: C3_4  and  O2_5 
REMARK    3  A    between atoms: O2_5  and  C4_6 
REMARK    4  A    between atoms: C5_8  and  C6_9 
REMARK    5  A    between atoms: C6_9  and  O4_10 
REMARK    6  A    between atoms: C7_12  and  O5_13 
REMARK    7  A    between atoms: O5_13  and  C8_14 
REMARK    8  A    between atoms: C10_17  and  O7_19 
REMARK    9  A    between atoms: C12_21  and  O8_22 
REMARK   10  A    between atoms: C14_24  and  O9_25 
REMARK   11  A    between atoms: C15_27  and  O10_28 
REMARK   12  A    between atoms: C17_30  and  O11_31 
REMARK   13  A    between atoms: O11_31  and  C18_32 
REMARK   14  A    between atoms: C21_36  and  O13_37 
REMARK   15  A    between atoms: C22_39  and  O14_40 
REMARK   16  A    between atoms: C23_42  and  O15_43 
REMARK   17  A    between atoms: C27_48  and  O17_49 
REMARK   18  A    between atoms: C28_51  and  O18_52 
ROOT
HETATM    1  C4  UNL     1      -0.848  -0.702   0.609  1.00  0.00     0.295 C 
HETATM    2  O3  UNL     1       0.208  -1.418   1.241  1.00  0.00    -0.348 OA
HETATM    3  C5  UNL     1       1.008  -1.829   0.119  1.00  0.00     0.180 C 
HETATM    4  C7  UNL     1       1.763  -0.599  -0.247  1.00  0.00     0.187 C 
HETATM    5  C15 UNL     1       0.728   0.406  -0.864  1.00  0.00     0.186 C 
HETATM    6  C17 UNL     1      -0.304   0.654   0.220  1.00  0.00     0.211 C 
ENDROOT
BRANCH   1   7
HETATM    7  O2  UNL     1      -1.853  -0.656   1.564  1.00  0.00    -0.326 OA
BRANCH   7   8
HETATM    8  C3  UNL     1      -2.890  -1.465   1.098  1.00  0.00     0.295 C 
HETATM    9  C2  UNL     1      -3.163  -2.618   2.041  1.00  0.00     0.207 C 
HETATM   10  C28 UNL     1      -4.674  -2.718   2.260  1.00  0.00     0.183 C 
HETATM   11  C27 UNL     1      -5.281  -2.762   0.856  1.00  0.00     0.178 C 
HETATM   12  C25 UNL     1      -5.001  -1.403   0.219  1.00  0.00     0.152 C 
HETATM   13  O16 UNL     1      -4.034  -0.709   0.951  1.00  0.00    -0.351 OA
HETATM   14  C26 UNL     1      -4.649  -1.519  -1.233  1.00  0.00     0.042 C 
BRANCH   9  15
HETATM   15  O1  UNL     1      -2.532  -2.470   3.258  1.00  0.00    -0.383 OA
HETATM   16  C1  UNL     1      -1.735  -3.577   3.541  1.00  0.00     0.202 C 
ENDBRANCH   9  15
BRANCH  10  17
HETATM   17  O18 UNL     1      -5.013  -3.874   2.918  1.00  0.00    -0.390 OA
ATOM     18  H18 UNL     1      -5.951  -3.936   3.054  1.00  0.00     0.210 HD
ENDBRANCH  10  17
BRANCH  11  19
HETATM   19  O17 UNL     1      -4.608  -3.710   0.096  1.00  0.00    -0.390 OA
ATOM     20  H17 UNL     1      -4.782  -4.556   0.492  1.00  0.00     0.210 HD
ENDBRANCH  11  19
ENDBRANCH   7   8
ENDBRANCH   1   7
BRANCH   6  21
HETATM   21  O11 UNL     1      -1.346   1.430  -0.129  1.00  0.00    -0.346 OA
BRANCH  21  22
HETATM   22  C18 UNL     1      -1.586   2.562   0.601  1.00  0.00     0.292 C 
HETATM   23  O12 UNL     1      -1.322   3.632  -0.220  1.00  0.00    -0.351 OA
HETATM   24  C19 UNL     1      -2.293   4.131  -1.006  1.00  0.00     0.152 C 
HETATM   25  C20 UNL     1      -2.442   3.225  -2.232  1.00  0.00     0.042 C 
HETATM   26  C21 UNL     1      -3.630   4.247  -0.364  1.00  0.00     0.178 C 
HETATM   27  C22 UNL     1      -3.975   2.914   0.268  1.00  0.00     0.183 C 
HETATM   28  C23 UNL     1      -2.868   2.700   1.304  1.00  0.00     0.207 C 
BRANCH  26  29
HETATM   29  O13 UNL     1      -4.627   4.656  -1.230  1.00  0.00    -0.390 OA
ATOM     30  H13 UNL     1      -5.481   4.730  -0.820  1.00  0.00     0.210 HD
ENDBRANCH  26  29
BRANCH  27  31
HETATM   31  O14 UNL     1      -5.141   3.114   1.005  1.00  0.00    -0.390 OA
ATOM     32  H14 UNL     1      -5.357   2.278   1.401  1.00  0.00     0.210 HD
ENDBRANCH  27  31
BRANCH  28  33
HETATM   33  O15 UNL     1      -2.842   3.886   2.058  1.00  0.00    -0.383 OA
HETATM   34  C24 UNL     1      -3.142   3.666   3.394  1.00  0.00     0.202 C 
ENDBRANCH  28  33
ENDBRANCH  21  22
ENDBRANCH   6  21
BRANCH   3  35
HETATM   35  C6  UNL     1       1.816  -2.963   0.605  1.00  0.00     0.198 C 
BRANCH  35  36
HETATM   36  O4  UNL     1       2.615  -3.581  -0.325  1.00  0.00    -0.398 OA
ATOM     37  H4  UNL     1       3.135  -4.311  -0.012  1.00  0.00     0.209 HD
ENDBRANCH  35  36
ENDBRANCH   3  35
BRANCH   5  38
HETATM   38  O10 UNL     1       0.235  -0.042  -2.049  1.00  0.00    -0.385 OA
HETATM   39  C16 UNL     1       0.564   0.739  -3.152  1.00  0.00     0.202 C 
ENDBRANCH   5  38
BRANCH   4  40
HETATM   40  O5  UNL     1       2.764  -0.836  -1.110  1.00  0.00    -0.348 OA
BRANCH  40  41
HETATM   41  C8  UNL     1       3.987  -0.215  -0.744  1.00  0.00     0.291 C 
HETATM   42  O6  UNL     1       4.092   0.790  -1.709  1.00  0.00    -0.355 OA
HETATM   43  C9  UNL     1       5.299   1.409  -1.800  1.00  0.00     0.211 C 
HETATM   44  C10 UNL     1       6.299   0.333  -2.251  1.00  0.00     0.104 C 
HETATM   45  C11 UNL     1       7.601   0.913  -2.681  1.00  0.00     0.051 C 
HETATM   46  C12 UNL     1       6.477  -0.540  -1.033  1.00  0.00     0.190 C 
HETATM   47  C14 UNL     1       5.122  -1.149  -0.720  1.00  0.00     0.205 C 
BRANCH  44  48
HETATM   48  O7  UNL     1       5.754  -0.440  -3.263  1.00  0.00    -0.385 OA
ATOM     49  H7  UNL     1       6.372  -1.105  -3.542  1.00  0.00     0.210 HD
ENDBRANCH  44  48
BRANCH  46  50
HETATM   50  O8  UNL     1       7.414  -1.529  -1.179  1.00  0.00    -0.385 OA
HETATM   51  C13 UNL     1       8.400  -1.356  -0.192  1.00  0.00     0.202 C 
ENDBRANCH  46  50
BRANCH  47  52
HETATM   52  O9  UNL     1       5.296  -1.714   0.569  1.00  0.00    -0.388 OA
ATOM     53  H9  UNL     1       6.029  -2.318   0.585  1.00  0.00     0.210 HD
ENDBRANCH  47  52
ENDBRANCH  40  41
ENDBRANCH   4  40
TORSDOF 18
