REMARK  16 active torsions:
REMARK  status: ('A' for Active; 'I' for Inactive)
REMARK    1  A    between atoms: C2_2  and  S1_3 
REMARK    2  A    between atoms: S1_3  and  N1_6 
REMARK       I    between atoms: N1_6  and  C3_8 
REMARK       I    between atoms: C3_8  and  N2_10 
REMARK    3  A    between atoms: N2_10  and  C4_12 
REMARK    4  A    between atoms: C5_14  and  C6_15 
REMARK    5  A    between atoms: C9_22  and  O9_23 
REMARK    6  A    between atoms: O9_23  and  N3_24 
REMARK    7  A    between atoms: N4_27  and  O10_28 
REMARK    8  A    between atoms: O10_28  and  S2_29 
REMARK    9  A    between atoms: S2_29  and  C11_32 
REMARK   10  A    between atoms: C11_32  and  C12_33 
REMARK   11  A    between atoms: C12_33  and  O13_35 
REMARK   12  A    between atoms: O13_35  and  C13_36 
REMARK   13  A    between atoms: C18_41  and  O14_42 
REMARK   14  A    between atoms: C18_41  and  C19_44 
REMARK   15  A    between atoms: C19_44  and  O15_45 
REMARK   16  A    between atoms: C21_48  and  O16_49 
ROOT
HETATM    1  C4  UNL     1      -4.274   0.148   0.201  1.00  0.00     0.261 C 
HETATM    2  O4  UNL     1      -3.795   1.235  -0.455  1.00  0.00    -0.329 OA
HETATM    3  C5  UNL     1      -2.444   1.356  -0.615  1.00  0.00     0.284 C 
HETATM    4  C7  UNL     1      -1.866   0.142  -1.300  1.00  0.00     0.310 C 
HETATM    5  O7  UNL     1      -0.861   0.180  -2.002  1.00  0.00    -0.261 OA
HETATM    6  O8  UNL     1      -2.605  -1.003  -1.038  1.00  0.00    -0.304 OA
HETATM    7  C8  UNL     1      -3.278  -0.979   0.205  1.00  0.00     0.233 C 
HETATM    8  C9  UNL     1      -2.357  -0.806   1.384  1.00  0.00     0.311 C 
HETATM    9  N4  UNL     1      -1.386   0.206   1.276  1.00  0.00    -0.212 N 
HETATM   10  C21 UNL     1      -1.733   1.449   0.715  1.00  0.00     0.302 C 
ENDROOT
BRANCH   9  11
HETATM   11  O10 UNL     1      -0.221  -0.165   0.886  1.00  0.00    -0.185 OA
BRANCH  11  12
HETATM   12  S2  UNL     1       0.940  -1.009   1.334  1.00  0.00     0.087 S 
HETATM   13  C10 UNL     1       0.799  -2.485   0.186  1.00  0.00     0.146 C 
HETATM   14  O11 UNL     1       1.870  -2.085   2.549  1.00  0.00    -0.241 OA
BRANCH  12  15
HETATM   15  C11 UNL     1       2.331   0.167   1.322  1.00  0.00     0.237 C 
BRANCH  15  16
HETATM   16  C12 UNL     1       3.680  -0.406   1.007  1.00  0.00     0.276 C 
HETATM   17  O12 UNL     1       3.685  -1.663   0.773  1.00  0.00    -0.264 OA
BRANCH  16  18
HETATM   18  O13 UNL     1       4.834   0.341   0.969  1.00  0.00    -0.290 OA
BRANCH  18  19
HETATM   19  C13 UNL     1       6.023  -0.300   0.666  1.00  0.00     0.148 C 
HETATM   20  C14 UNL     1       6.398  -0.381  -0.586  1.00  0.00    -0.054 C 
HETATM   21  C15 UNL     1       5.554   0.207  -1.648  1.00  0.00     0.036 C 
HETATM   22  C20 UNL     1       7.656  -1.047  -1.018  1.00  0.00     0.076 C 
HETATM   23  C16 UNL     1       6.478   0.974  -2.572  1.00  0.00     0.007 C 
HETATM   24  C17 UNL     1       7.776   1.285  -1.884  1.00  0.00     0.040 C 
HETATM   25  C18 UNL     1       8.564   0.032  -1.557  1.00  0.00     0.083 C 
BRANCH  25  26
HETATM   26  O14 UNL     1       9.188  -0.429  -2.715  1.00  0.00    -0.387 OA
ATOM     27  H14 UNL     1       9.682  -1.214  -2.510  1.00  0.00     0.210 HD
ENDBRANCH  25  26
BRANCH  25  28
HETATM   28  C19 UNL     1       9.664   0.331  -0.556  1.00  0.00     0.202 C 
BRANCH  28  29
HETATM   29  O15 UNL     1      10.494   1.297  -1.098  1.00  0.00    -0.398 OA
ATOM     30  H15 UNL     1      11.183   1.484  -0.471  1.00  0.00     0.209 HD
ENDBRANCH  28  29
ENDBRANCH  25  28
ENDBRANCH  18  19
ENDBRANCH  16  18
ENDBRANCH  15  16
ENDBRANCH  12  15
ENDBRANCH  11  12
ENDBRANCH   9  11
BRANCH   8  31
HETATM   31  O9  UNL     1      -3.137  -0.729   2.541  1.00  0.00    -0.256 OA
BRANCH  31  32
HETATM   32  N3  UNL     1      -2.965  -1.804   3.337  1.00  0.00    -0.309 N 
ATOM     33  H32 UNL     1      -2.336  -2.574   3.108  1.00  0.00     0.184 HD
ATOM     34  H31 UNL     1      -3.534  -1.748   4.181  1.00  0.00     0.184 HD
ENDBRANCH  31  32
ENDBRANCH   8  31
BRANCH  10  35
HETATM   35  O16 UNL     1      -2.496   2.273   1.530  1.00  0.00    -0.371 OA
ATOM     36  H16 UNL     1      -2.049   2.331   2.366  1.00  0.00     0.212 HD
ENDBRANCH  10  35
BRANCH   3  37
HETATM   37  C6  UNL     1      -2.147   2.582  -1.381  1.00  0.00     0.225 C 
HETATM   38  O5  UNL     1      -0.953   2.866  -1.625  1.00  0.00    -0.645 OA
HETATM   39  O6  UNL     1      -3.157   3.388  -1.813  1.00  0.00    -0.645 OA
ENDBRANCH   3  37
BRANCH   1  40
HETATM   40  N2  UNL     1      -5.536  -0.298  -0.411  1.00  0.00    -0.313 N 
HETATM   41  C3  UNL     1      -6.696  -0.337   0.383  1.00  0.00     0.331 C 
HETATM   42  N1  UNL     1      -7.920  -0.756  -0.163  1.00  0.00    -0.236 N 
HETATM   43  O3  UNL     1      -6.645   0.011   1.610  1.00  0.00    -0.246 OA
ATOM     44  H1  UNL     1      -7.954  -1.031  -1.145  1.00  0.00     0.183 HD
ATOM     45  H2  UNL     1      -5.569  -0.574  -1.393  1.00  0.00     0.167 HD
BRANCH  42  46
HETATM   46  S1  UNL     1      -9.372  -0.820   0.776  1.00  0.00     0.233 S 
HETATM   47  O1  UNL     1      -9.950  -2.195   0.747  1.00  0.00    -0.206 OA
HETATM   48  O2  UNL     1      -9.037  -0.441   2.183  1.00  0.00    -0.206 OA
BRANCH  46  49
HETATM   49  C2  UNL     1     -10.581   0.309   0.154  1.00  0.00     0.159 C 
HETATM   50  C1  UNL     1     -10.093   1.726   0.182  1.00  0.00     0.023 C 
ENDBRANCH  46  49
ENDBRANCH  42  46
ENDBRANCH   1  40
TORSDOF 16
