REMARK  16 active torsions:
REMARK  status: ('A' for Active; 'I' for Inactive)
REMARK    1  A    between atoms: O1_2  and  N1_3 
REMARK    2  A    between atoms: C2_5  and  C3_6 
REMARK    3  A    between atoms: C2_5  and  C22_53 
REMARK    4  A    between atoms: N4_11  and  C4_12 
REMARK    5  A    between atoms: C4_12  and  C5_13 
REMARK    6  A    between atoms: C5_13  and  O2_14 
REMARK    7  A    between atoms: C5_13  and  N5_16 
REMARK    8  A    between atoms: N5_16  and  C6_18 
REMARK    9  A    between atoms: N7_24  and  C9_25 
REMARK   10  A    between atoms: C11_27  and  N8_28 
REMARK   11  A    between atoms: C14_31  and  N9_32 
REMARK       I    between atoms: N11_39  and  C16_40 
REMARK   12  A    between atoms: C16_40  and  C17_42 
REMARK   13  A    between atoms: C17_42  and  C18_43 
REMARK   14  A    between atoms: C17_42  and  C20_46 
REMARK   15  A    between atoms: C20_46  and  O7_48 
REMARK   16  A    between atoms: C24_56  and  N13_57 
ROOT
HETATM    1  C6  UNL     1       0.580   0.349  -0.999  1.00  0.00     0.131 A 
HETATM    2  C7  UNL     1       1.142   0.459  -2.235  1.00  0.00     0.141 A 
HETATM    3  N6  UNL     1       0.156   0.914  -3.062  1.00  0.00    -0.315 N 
ATOM      4  H6  UNL     1       0.253   1.102  -4.060  1.00  0.00     0.170 HD
HETATM    5  C8  UNL     1      -0.956   1.071  -2.342  1.00  0.00     0.330 A 
HETATM    6  O3  UNL     1      -2.034   1.483  -2.840  1.00  0.00    -0.246 OA
HETATM    7  N7  UNL     1      -0.729   0.732  -1.071  1.00  0.00    -0.254 N 
ENDROOT
BRANCH   1   8
HETATM    8  N5  UNL     1       1.157  -0.124   0.181  1.00  0.00    -0.324 N 
ATOM      9  H5  UNL     1       0.608   0.037   1.026  1.00  0.00     0.169 HD
BRANCH   8  10
HETATM   10  C5  UNL     1       2.361  -0.779   0.379  1.00  0.00     0.139 C 
BRANCH  10  11
HETATM   11  C4  UNL     1       3.373  -1.249  -0.571  1.00  0.00     0.255 C 
BRANCH  11  12
HETATM   12  N4  UNL     1       4.578  -0.422  -0.605  1.00  0.00    -0.210 N 
HETATM   13  N3  UNL     1       4.833   0.614  -1.346  1.00  0.00    -0.224 N 
HETATM   14  N2  UNL     1       6.028   1.061  -1.081  1.00  0.00    -0.267 N 
ATOM     15  H3  UNL     1       4.194   1.017  -2.032  1.00  0.00     0.210 HD
HETATM   16  C3  UNL     1       6.586   0.327  -0.158  1.00  0.00     0.168 A 
ATOM     17  H2  UNL     1       6.463   1.867  -1.530  1.00  0.00     0.190 HD
HETATM   18  N12 UNL     1       5.656  -0.629   0.151  1.00  0.00    -0.264 N 
ATOM     19  H12 UNL     1       5.769  -1.372   0.841  1.00  0.00     0.190 HD
BRANCH  16  20
HETATM   20  C2  UNL     1       7.921   0.409   0.462  1.00  0.00     0.128 C 
HETATM   21  N1  UNL     1       8.180  -0.463   1.331  1.00  0.00    -0.261 N 
ATOM     22  H1  UNL     1       7.390  -1.096   1.455  1.00  0.00     0.194 HD
BRANCH  21  23
HETATM   23  O1  UNL     1       9.170  -0.793   2.122  1.00  0.00    -0.285 OA
HETATM   24  C1  UNL     1       9.701  -2.105   2.333  1.00  0.00     0.237 C 
ENDBRANCH  21  23
BRANCH  20  25
HETATM   25  C22 UNL     1       8.909   1.430   0.001  1.00  0.00     0.073 A 
HETATM   26  C23 UNL     1       8.532   2.495  -0.768  1.00  0.00     0.085 A 
HETATM   27  S1  UNL     1      10.037   3.274  -1.078  1.00  0.00    -0.064 SA
HETATM   28  C24 UNL     1      11.035   2.208  -0.221  1.00  0.00     0.142 A 
HETATM   29  N14 UNL     1      10.190   1.307   0.265  1.00  0.00    -0.335 N 
ATOM     30  H14 UNL     1      10.530   0.532   0.834  1.00  0.00     0.168 HD
BRANCH  28  31
HETATM   31  N13 UNL     1      12.345   2.229  -0.055  1.00  0.00    -0.380 N 
ATOM     32 2H13 UNL     1      12.994   2.921  -0.428  1.00  0.00     0.158 HD
ATOM     33 1H13 UNL     1      12.946   1.587   0.461  1.00  0.00     0.158 HD
ENDBRANCH  28  31
ENDBRANCH  20  25
ENDBRANCH  16  20
ENDBRANCH  11  12
ENDBRANCH  10  11
BRANCH  10  34
HETATM   34  O2  UNL     1       2.667  -1.042   1.629  1.00  0.00    -0.348 OA
ATOM     35  H2  UNL     1       2.011  -0.737   2.245  1.00  0.00     0.219 HD
ENDBRANCH  10  34
ENDBRANCH   8  10
ENDBRANCH   1   8
BRANCH   7  36
HETATM   36  C9  UNL     1      -1.685   0.743  -0.001  1.00  0.00     0.268 C 
HETATM   37  C10 UNL     1      -1.808  -0.614   0.638  1.00  0.00     0.106 C 
HETATM   38  C11 UNL     1      -3.209  -1.022   0.367  1.00  0.00     0.231 C 
HETATM   39  N11 UNL     1      -3.778   0.086  -0.391  1.00  0.00    -0.198 N 
HETATM   40  C16 UNL     1      -5.028   0.038  -1.037  1.00  0.00     0.259 C 
HETATM   41  O8  UNL     1      -2.953   1.129  -0.395  1.00  0.00    -0.246 OA
HETATM   42  O5  UNL     1      -5.662  -1.081  -0.942  1.00  0.00    -0.270 OA
BRANCH  38  43
HETATM   43  N8  UNL     1      -3.941  -1.368   1.540  1.00  0.00    -0.285 N 
HETATM   44  C12 UNL     1      -4.113  -2.659   1.857  1.00  0.00     0.102 A 
HETATM   45  C13 UNL     1      -4.798  -3.103   2.964  1.00  0.00     0.065 A 
HETATM   46  C14 UNL     1      -5.332  -2.120   3.783  1.00  0.00     0.103 A 
HETATM   47  N10 UNL     1      -5.147  -0.831   3.444  1.00  0.00    -0.295 N 
HETATM   48  C15 UNL     1      -4.470  -0.444   2.352  1.00  0.00     0.329 A 
ATOM     49  H10 UNL     1      -5.542  -0.111   4.049  1.00  0.00     0.172 HD
HETATM   50  O4  UNL     1      -4.359   0.786   2.133  1.00  0.00    -0.246 OA
BRANCH  46  51
HETATM   51  N9  UNL     1      -5.990  -2.462   4.847  1.00  0.00    -0.385 N 
ATOM     52  H92 UNL     1      -6.130  -3.439   5.104  1.00  0.00     0.157 HD
ATOM     53  H91 UNL     1      -6.383  -1.739   5.450  1.00  0.00     0.157 HD
ENDBRANCH  46  51
ENDBRANCH  38  43
BRANCH  40  54
HETATM   54  C17 UNL     1      -5.707   1.085  -1.797  1.00  0.00     0.177 C 
BRANCH  54  55
HETATM   55  C18 UNL     1      -6.152   2.247  -1.019  1.00  0.00     0.138 C 
HETATM   56  C19 UNL     1      -7.111   2.150   0.133  1.00  0.00     0.092 C 
HETATM   57  O6  UNL     1      -5.769   3.381  -1.260  1.00  0.00    -0.297 OA
ENDBRANCH  54  55
BRANCH  54  58
HETATM   58  C20 UNL     1      -6.732   0.552  -2.773  1.00  0.00     0.134 C 
HETATM   59  C21 UNL     1      -7.839  -0.234  -2.176  1.00  0.00     0.040 C 
BRANCH  58  60
HETATM   60  O7  UNL     1      -7.341   1.618  -3.478  1.00  0.00    -0.395 OA
ATOM     61  H7  UNL     1      -7.985   1.283  -4.091  1.00  0.00     0.210 HD
ENDBRANCH  58  60
ENDBRANCH  54  58
ENDBRANCH  40  54
ENDBRANCH   7  36
TORSDOF 16
