REMARK  17 active torsions:
REMARK  status: ('A' for Active; 'I' for Inactive)
REMARK    1  A    between atoms: C2_3  and  C3_4 
REMARK    2  A    between atoms: C4_5  and  C5_6 
REMARK    3  A    between atoms: C5_6  and  S1_7 
REMARK    4  A    between atoms: S1_7  and  C6_8 
REMARK    5  A    between atoms: C6_8  and  C7_9 
REMARK    6  A    between atoms: C7_9  and  S2_10 
REMARK    7  A    between atoms: S2_10  and  N2_11 
REMARK    8  A    between atoms: C8_16  and  C9_17 
REMARK       I    between atoms: N3_20  and  C10_21 
REMARK    9  A    between atoms: C10_21  and  C11_23 
REMARK   10  A    between atoms: C11_23  and  N4_24 
REMARK   11  A    between atoms: C12_29  and  C13_30 
REMARK   12  A    between atoms: C13_30  and  O6_31 
REMARK   13  A    between atoms: C13_30  and  O7_33 
REMARK   14  A    between atoms: C14_35  and  O8_36 
REMARK   15  A    between atoms: C20_48  and  C21_49 
REMARK   16  A    between atoms: C21_49  and  O11_50 
REMARK   17  A    between atoms: C22_52  and  O12_53 
ROOT
HETATM    1  C3  UNL     1      -0.018  -0.249  -0.780  1.00  0.00     0.123 C 
HETATM    2  C4  UNL     1       0.668   1.030  -0.529  1.00  0.00    -0.022 C 
HETATM    3  C8  UNL     1       1.824   0.787   0.124  1.00  0.00     0.119 C 
HETATM    4  N3  UNL     1       1.972  -0.645   0.225  1.00  0.00    -0.291 N 
HETATM    5  C10 UNL     1       3.064  -1.502   0.185  1.00  0.00     0.245 C 
HETATM    6  O5  UNL     1       2.853  -2.774   0.338  1.00  0.00    -0.271 OA
HETATM    7  C15 UNL     1       0.591  -1.139   0.326  1.00  0.00     0.215 C 
HETATM    8  C16 UNL     1       0.379  -2.483  -0.103  1.00  0.00     0.086 C 
HETATM    9  N7  UNL     1       0.177  -3.569  -0.452  1.00  0.00    -0.195 NA
ENDROOT
BRANCH   1  10
HETATM   10  C2  UNL     1      -1.475  -0.274  -0.624  1.00  0.00     0.095 A 
HETATM   11  N1  UNL     1      -2.360  -0.435  -1.620  1.00  0.00    -0.334 N 
HETATM   12  C1  UNL     1      -2.074  -0.561  -3.038  1.00  0.00     0.158 C 
HETATM   13  C18 UNL     1      -3.608  -0.466  -1.119  1.00  0.00     0.137 A 
HETATM   14  C17 UNL     1      -3.542  -0.322   0.225  1.00  0.00     0.075 A 
HETATM   15  C19 UNL     1      -4.922  -0.631  -1.755  1.00  0.00     0.312 C 
HETATM   16  N8  UNL     1      -2.210  -0.203   0.522  1.00  0.00    -0.344 N 
HETATM   17  C22 UNL     1      -4.761  -0.311   1.063  1.00  0.00     0.202 C 
ATOM     18  H8  UNL     1      -1.826  -0.080   1.459  1.00  0.00     0.167 HD
HETATM   19  C20 UNL     1      -5.872  -1.095   0.458  1.00  0.00     0.190 C 
HETATM   20  O10 UNL     1      -6.011  -0.625  -0.889  1.00  0.00    -0.306 OA
HETATM   21  O9  UNL     1      -5.048  -0.768  -2.997  1.00  0.00    -0.258 OA
BRANCH  17  22
HETATM   22  O12 UNL     1      -4.477  -0.655   2.384  1.00  0.00    -0.387 OA
ATOM     23  H12 UNL     1      -5.260  -0.648   2.922  1.00  0.00     0.210 HD
ENDBRANCH  17  22
BRANCH  19  24
HETATM   24  C21 UNL     1      -7.178  -0.831   1.155  1.00  0.00     0.199 C 
BRANCH  24  25
HETATM   25  O11 UNL     1      -8.211  -1.527   0.489  1.00  0.00    -0.398 OA
ATOM     26  H11 UNL     1      -9.036  -1.360   0.929  1.00  0.00     0.209 HD
ENDBRANCH  24  25
ENDBRANCH  19  24
ENDBRANCH   1  10
BRANCH   2  27
HETATM   27  C5  UNL     1       0.180   2.325  -1.010  1.00  0.00     0.111 C 
BRANCH  27  28
HETATM   28  S1  UNL     1      -1.370   2.834  -0.219  1.00  0.00    -0.164 SA
BRANCH  28  29
HETATM   29  C6  UNL     1      -1.810   4.446  -0.932  1.00  0.00     0.090 C 
BRANCH  29  30
HETATM   30  C7  UNL     1      -0.822   5.516  -0.548  1.00  0.00     0.173 C 
BRANCH  30  31
HETATM   31  S2  UNL     1      -0.718   5.764   1.201  1.00  0.00     0.225 S 
HETATM   32  O1  UNL     1      -0.206   4.521   1.906  1.00  0.00    -0.206 OA
HETATM   33  O2  UNL     1       0.268   6.874   1.445  1.00  0.00    -0.206 OA
BRANCH  31  34
HETATM   34  N2  UNL     1      -2.248   6.236   1.848  1.00  0.00    -0.328 N 
ATOM     35  H22 UNL     1      -3.090   6.352   1.284  1.00  0.00     0.168 HD
ATOM     36  H21 UNL     1      -2.188   6.379   2.856  1.00  0.00     0.168 HD
ENDBRANCH  31  34
ENDBRANCH  30  31
ENDBRANCH  29  30
ENDBRANCH  28  29
ENDBRANCH  27  28
ENDBRANCH   2  27
BRANCH   3  37
HETATM   37  C9  UNL     1       2.807   1.736   0.583  1.00  0.00     0.227 C 
HETATM   38  O3  UNL     1       3.860   1.520   1.208  1.00  0.00    -0.643 OA
HETATM   39  O4  UNL     1       2.622   3.118   0.333  1.00  0.00    -0.643 OA
ENDBRANCH   3  37
BRANCH   5  40
HETATM   40  C11 UNL     1       4.464  -1.152  -0.021  1.00  0.00     0.256 C 
BRANCH  40  41
HETATM   41  N4  UNL     1       5.256  -2.340  -0.399  1.00  0.00    -0.246 N 
HETATM   42  N5  UNL     1       5.544  -2.824  -1.574  1.00  0.00    -0.238 N 
HETATM   43  N6  UNL     1       6.286  -3.910  -1.508  1.00  0.00    -0.281 N 
ATOM     44  H5  UNL     1       5.229  -2.407  -2.450  1.00  0.00     0.208 HD
HETATM   45  C12 UNL     1       6.491  -4.145  -0.224  1.00  0.00     0.134 A 
ATOM     46  H6  UNL     1       6.634  -4.461  -2.293  1.00  0.00     0.188 HD
HETATM   47  C14 UNL     1       5.843  -3.156   0.514  1.00  0.00     0.188 A 
BRANCH  45  48
HETATM   48  C13 UNL     1       7.267  -5.277   0.380  1.00  0.00     0.311 C 
BRANCH  48  49
HETATM   49  O6  UNL     1       6.943  -6.471  -0.279  1.00  0.00    -0.366 OA
ATOM     50  H6  UNL     1       7.435  -7.188   0.104  1.00  0.00     0.213 HD
ENDBRANCH  48  49
BRANCH  48  51
HETATM   51  O7  UNL     1       6.852  -5.484   1.709  1.00  0.00    -0.366 OA
ATOM     52  H7  UNL     1       7.344  -6.201   2.092  1.00  0.00     0.213 HD
ENDBRANCH  48  51
ENDBRANCH  45  48
BRANCH  47  53
HETATM   53  O8  UNL     1       5.809  -3.034   1.892  1.00  0.00    -0.343 OA
ATOM     54  H8  UNL     1       6.220  -3.605   2.531  1.00  0.00     0.219 HD
ENDBRANCH  47  53
ENDBRANCH  40  41
ENDBRANCH   5  40
TORSDOF 17
