REMARK  0 active torsions:
REMARK  status: ('A' for Active; 'I' for Inactive)
ROOT
HETATM    1  C1  UNL     1      -1.897  -0.563   0.080  1.00  0.00     0.002 C 
HETATM    2  C2  UNL     1      -0.870  -1.209   0.959  1.00  0.00     0.002 C 
HETATM    3  C3  UNL     1       0.081  -2.010   0.078  1.00  0.00     0.027 C 
HETATM    4  C4  UNL     1       1.524  -1.640   0.330  1.00  0.00     0.232 C 
HETATM    5  N1  UNL     1       2.070  -0.782  -0.695  1.00  0.00    -0.074 N 
ATOM      6  H11 UNL     1       1.551  -0.884  -1.567  1.00  0.00     0.277 HD
ATOM      7  H12 UNL     1       2.983  -1.119  -1.001  1.00  0.00     0.277 HD
HETATM    8  C5  UNL     1       2.142   0.602  -0.302  1.00  0.00     0.259 C 
HETATM    9  C6  UNL     1       0.998   1.426  -0.887  1.00  0.00     0.259 C 
HETATM   10  N2  UNL     1       0.000   1.626   0.129  1.00  0.00    -0.074 N 
ATOM     11  H21 UNL     1       0.244   2.422   0.719  1.00  0.00     0.277 HD
ATOM     12  H22 UNL     1       0.040   0.879   0.822  1.00  0.00     0.277 HD
HETATM   13  C7  UNL     1      -1.333   1.768  -0.382  1.00  0.00     0.232 C 
HETATM   14  C8  UNL     1      -2.223   0.849   0.465  1.00  0.00     0.027 C 
ENDROOT
TORSDOF 0
