REMARK  2 active torsions:
REMARK  status: ('A' for Active; 'I' for Inactive)
REMARK    1  A    between atoms: O1_1  and  C1_3 
REMARK    2  A    between atoms: C6_8  and  O2_9 
ROOT
HETATM    1  C1  UNL     1       1.551   0.448   0.374  1.00  0.00     0.118 C 
HETATM    2  C2  UNL     1       1.292  -0.814  -0.429  1.00  0.00     0.032 C 
HETATM    3  C3  UNL     1       0.410  -1.721   0.360  1.00  0.00     0.002 C 
HETATM    4  C4  UNL     1      -1.010  -1.772  -0.113  1.00  0.00     0.002 C 
HETATM    5  C5  UNL     1      -1.509  -0.454  -0.655  1.00  0.00     0.032 C 
HETATM    6  C6  UNL     1      -1.276   0.587   0.418  1.00  0.00     0.118 C 
HETATM    7  C7  UNL     1      -0.539   1.776  -0.074  1.00  0.00     0.034 C 
HETATM    8  C8  UNL     1       0.903   1.601  -0.315  1.00  0.00     0.034 C 
ENDROOT
BRANCH   1   9
HETATM    9  O1  UNL     1       2.948   0.675   0.331  1.00  0.00    -0.396 OA
ATOM     10  H1  UNL     1       3.110   1.465   0.834  1.00  0.00     0.210 HD
ENDBRANCH   1   9
BRANCH   6  11
HETATM   11  O2  UNL     1      -2.522   0.994   0.944  1.00  0.00    -0.396 OA
ATOM     12  H2  UNL     1      -2.376   1.648   1.618  1.00  0.00     0.210 HD
ENDBRANCH   6  11
TORSDOF 2
