REMARK  1 active torsions:
REMARK  status: ('A' for Active; 'I' for Inactive)
REMARK    1  A    between atoms: N1_1  and  C1_5 
ROOT
HETATM    1  C1  UNL     1      -1.631  -0.109  -0.371  1.00  0.00     0.192 C 
HETATM    2  C2  UNL     1      -0.669   0.895  -0.890  1.00  0.00     0.033 C 
HETATM    3  C3  UNL     1       0.288   1.461   0.094  1.00  0.00     0.002 C 
HETATM    4  C4  UNL     1       1.715   1.011  -0.128  1.00  0.00     0.001 C 
HETATM    5  C5  UNL     1       1.881  -0.476  -0.043  1.00  0.00     0.010 C 
HETATM    6  C6  UNL     1       1.228  -1.108   1.133  1.00  0.00     0.074 C 
HETATM    7  S1  UNL     1      -0.143  -2.177   0.700  1.00  0.00    -0.167 SA
HETATM    8  C7  UNL     1      -1.174  -1.537  -0.616  1.00  0.00     0.106 C 
ENDROOT
BRANCH   1   9
HETATM    9  N1  UNL     1      -1.981   0.033   1.010  1.00  0.00    -0.074 N 
ATOM     10  H13 UNL     1      -1.139   0.041   1.585  1.00  0.00     0.274 HD
ATOM     11  H12 UNL     1      -2.329   0.975   1.188  1.00  0.00     0.274 HD
ATOM     12  H11 UNL     1      -2.642  -0.657   1.367  1.00  0.00     0.274 HD
ENDBRANCH   1   9
TORSDOF 1
