REMARK  0 active torsions:
REMARK  status: ('A' for Active; 'I' for Inactive)
ROOT
HETATM    1  S1  UNL     1       2.301  -1.817  -0.354  1.00  0.00     0.009 SA
HETATM    2  N1  UNL     1       1.266  -0.541   0.242  1.00  0.00    -0.243 NA
HETATM    3  C1  UNL     1       1.275   0.613  -0.616  1.00  0.00     0.108 C 
HETATM    4  C2  UNL     1      -0.113   1.258  -0.494  1.00  0.00    -0.000 C 
HETATM    5  C3  UNL     1      -0.408   1.355   0.978  1.00  0.00     0.007 C 
HETATM    6  C4  UNL     1      -0.770  -0.032   1.492  1.00  0.00     0.021 C 
HETATM    7  C5  UNL     1      -0.056  -1.016   0.559  1.00  0.00     0.070 C 
HETATM    8  C6  UNL     1      -0.950  -1.090  -0.677  1.00  0.00     0.021 C 
HETATM    9  C7  UNL     1      -1.066   0.313  -1.212  1.00  0.00     0.007 C 
ENDROOT
TORSDOF 0
