REMARK  2 active torsions:
REMARK  status: ('A' for Active; 'I' for Inactive)
REMARK    1  A    between atoms: N1_1  and  C1_5 
REMARK    2  A    between atoms: C6_10  and  C7_11 
ROOT
HETATM    1  C1  UNL     1       1.198  -1.096  -0.342  1.00  0.00     0.188 C 
HETATM    2  C2  UNL     1       2.655  -0.736  -0.641  1.00  0.00     0.033 C 
HETATM    3  C3  UNL     1       3.014   0.599  -0.017  1.00  0.00     0.002 C 
HETATM    4  C4  UNL     1       2.191   0.848   1.230  1.00  0.00     0.001 C 
HETATM    5  C5  UNL     1       0.718   0.958   0.908  1.00  0.00     0.007 C 
HETATM    6  C6  UNL     1       0.417   0.166  -0.344  1.00  0.00     0.020 C 
ENDROOT
BRANCH   6   7
HETATM    7  C7  UNL     1      -1.048   0.003  -0.597  1.00  0.00    -0.008 C 
HETATM    8  C8  UNL     1      -1.773  -0.845   0.379  1.00  0.00     0.005 C 
HETATM    9  C9  UNL     1      -3.207  -0.333   0.332  1.00  0.00     0.000 C 
HETATM   10  C10 UNL     1      -3.215   0.883  -0.537  1.00  0.00     0.000 C 
HETATM   11  C11 UNL     1      -1.754   1.343  -0.453  1.00  0.00     0.005 C 
ENDBRANCH   6   7
BRANCH   1  12
HETATM   12  N1  UNL     1       0.793  -2.049  -1.336  1.00  0.00    -0.075 N 
ATOM     13  H13 UNL     1       0.938  -1.720  -2.291  1.00  0.00     0.274 HD
ATOM     14  H12 UNL     1       1.406  -2.863  -1.386  1.00  0.00     0.274 HD
ATOM     15  H11 UNL     1      -0.178  -2.289  -1.137  1.00  0.00     0.274 HD
ENDBRANCH   1  12
TORSDOF 2
