REMARK  2 active torsions:
REMARK  status: ('A' for Active; 'I' for Inactive)
REMARK    1  A    between atoms: C1_2  and  C2_3 
REMARK    2  A    between atoms: C2_3  and  O2_4 
ROOT
HETATM    1  C2  UNL     1       1.215   0.007   0.148  1.00  0.00     0.110 C 
HETATM    2  C3  UNL     1       0.791  -1.272  -0.479  1.00  0.00     0.045 C 
HETATM    3  C4  UNL     1      -0.358  -1.966   0.155  1.00  0.00     0.003 C 
HETATM    4  C5  UNL     1      -1.544  -1.147   0.476  1.00  0.00     0.000 C 
HETATM    5  C6  UNL     1      -1.778   0.004  -0.475  1.00  0.00     0.000 C 
HETATM    6  C7  UNL     1      -1.518   1.309   0.203  1.00  0.00     0.000 C 
HETATM    7  C8  UNL     1      -0.275   2.004  -0.184  1.00  0.00     0.003 C 
HETATM    8  C9  UNL     1       0.821   1.162  -0.720  1.00  0.00     0.045 C 
ENDROOT
BRANCH   1   9
HETATM    9  C1  UNL     1       2.707   0.012   0.227  1.00  0.00     0.268 C 
HETATM   10  O1  UNL     1       3.341  -0.118  -0.818  1.00  0.00    -0.304 OA
ENDBRANCH   1   9
BRANCH   1  11
HETATM   11  O2  UNL     1       0.763   0.168   1.453  1.00  0.00    -0.383 OA
ATOM     12  H2  UNL     1      -0.186   0.165   1.403  1.00  0.00     0.211 HD
ENDBRANCH   1  11
TORSDOF 2
