REMARK  2 active torsions:
REMARK  status: ('A' for Active; 'I' for Inactive)
REMARK    1  A    between atoms: N1_1  and  C1_5 
REMARK    2  A    between atoms: C1_5  and  C2_6 
ROOT
HETATM    1  C2  UNL     1      -0.875   0.098  -0.306  1.00  0.00    -0.016 C 
HETATM    2  C3  UNL     1      -0.708   0.436   1.145  1.00  0.00     0.015 C 
HETATM    3  C4  UNL     1       0.751   0.278   1.546  1.00  0.00    -0.013 C 
HETATM    4  C5  UNL     1       1.517   1.345   0.774  1.00  0.00     0.009 C 
HETATM    5  C6  UNL     1       1.327   1.094  -0.697  1.00  0.00    -0.013 C 
HETATM    6  C7  UNL     1       1.934  -0.255  -1.033  1.00  0.00     0.009 C 
HETATM    7  C8  UNL     1       1.144  -1.300  -0.303  1.00  0.00    -0.013 C 
HETATM    8  C9  UNL     1       1.230  -1.113   1.197  1.00  0.00     0.009 C 
HETATM    9  C10 UNL     1      -0.330  -1.243  -0.686  1.00  0.00     0.015 C 
HETATM   10  C11 UNL     1      -0.111   1.152  -1.101  1.00  0.00     0.015 C 
ENDROOT
BRANCH   1  11
HETATM   11  C1  UNL     1      -2.313   0.184  -0.713  1.00  0.00     0.239 C 
BRANCH  11  12
HETATM   12  N1  UNL     1      -3.183  -0.696   0.002  1.00  0.00    -0.079 N 
ATOM     13  H13 UNL     1      -2.851  -1.658  -0.067  1.00  0.00     0.274 HD
ATOM     14  H12 UNL     1      -3.089  -0.550   1.007  1.00  0.00     0.274 HD
ATOM     15  H11 UNL     1      -4.163  -0.637  -0.275  1.00  0.00     0.274 HD
ENDBRANCH  11  12
ENDBRANCH   1  11
TORSDOF 2
