REMARK  2 active torsions:
REMARK  status: ('A' for Active; 'I' for Inactive)
REMARK    1  A    between atoms: O1_1  and  C1_3 
REMARK    2  A    between atoms: C1_3  and  C2_4 
ROOT
HETATM    1  C2  UNL     1      -1.863  -0.153   0.704  1.00  0.00     0.009 C 
HETATM    2  C3  UNL     1      -1.278   1.165   0.354  1.00  0.00     0.007 C 
HETATM    3  C4  UNL     1      -0.256   1.105  -0.758  1.00  0.00     0.010 C 
HETATM    4  C5  UNL     1       0.798   0.116  -0.308  1.00  0.00    -0.040 C 
HETATM    5  C6  UNL     1       1.527   0.560   0.916  1.00  0.00     0.009 C 
HETATM    6  C7  UNL     1       3.006   0.325   0.670  1.00  0.00     0.001 C 
HETATM    7  C8  UNL     1       3.080  -0.451  -0.639  1.00  0.00     0.001 C 
HETATM    8  C9  UNL     1       1.877   0.106  -1.379  1.00  0.00     0.009 C 
HETATM    9  C10 UNL     1       0.250  -1.257  -0.120  1.00  0.00     0.010 C 
HETATM   10  C11 UNL     1      -1.226  -1.332   0.041  1.00  0.00     0.007 C 
ENDROOT
BRANCH   1  11
HETATM   11  C1  UNL     1      -3.360  -0.188   0.369  1.00  0.00     0.168 C 
BRANCH  11  12
HETATM   12  O1  UNL     1      -3.593   0.026  -0.968  1.00  0.00    -0.400 OA
ATOM     13  H1  UNL     1      -4.520   0.004  -1.175  1.00  0.00     0.209 HD
ENDBRANCH  11  12
ENDBRANCH   1  11
TORSDOF 2
