REMARK  1 active torsions:
REMARK  status: ('A' for Active; 'I' for Inactive)
REMARK    1  A    between atoms: C1_2  and  C2_4 
ROOT
HETATM    1  C2  UNL     1       1.031  -0.144   0.157  1.00  0.00     0.087 C 
HETATM    2  C3  UNL     1       0.526  -1.320  -0.607  1.00  0.00     0.015 C 
HETATM    3  C4  UNL     1      -0.649  -2.000   0.006  1.00  0.00     0.001 C 
HETATM    4  C5  UNL     1      -1.789  -1.123   0.351  1.00  0.00     0.000 C 
HETATM    5  C6  UNL     1      -1.879   0.150  -0.415  1.00  0.00     0.000 C 
HETATM    6  C7  UNL     1      -1.411   1.302   0.436  1.00  0.00     0.000 C 
HETATM    7  C8  UNL     1      -0.196   1.986  -0.082  1.00  0.00     0.001 C 
HETATM    8  C9  UNL     1       0.821   1.093  -0.698  1.00  0.00     0.015 C 
ENDROOT
BRANCH   1   9
HETATM    9  C1  UNL     1       2.499  -0.248   0.404  1.00  0.00     0.177 C 
HETATM   10  O1  UNL     1       3.111  -1.261  -0.037  1.00  0.00    -0.648 OA
HETATM   11  O2  UNL     1       3.148   0.754   1.100  1.00  0.00    -0.648 OA
ENDBRANCH   1   9
TORSDOF 1
