REMARK  5 active torsions:
REMARK  status: ('A' for Active; 'I' for Inactive)
REMARK    1  A    between atoms: C3_4  and  O1_5 
REMARK    2  A    between atoms: N2_7  and  C4_8 
REMARK    3  A    between atoms: C4_8  and  C5_9 
REMARK    4  A    between atoms: C5_9  and  C7_11 
REMARK    5  A    between atoms: C5_9  and  C13_17 
ROOT
HETATM    1  C4  UNL     1       0.571   0.367  -0.656  1.00  0.00     0.106 C 
ENDROOT
BRANCH   1   2
HETATM    2  N2  UNL     1       1.984   0.380  -0.627  1.00  0.00    -0.139 N 
HETATM    3  C3  UNL     1       2.840  -0.028  -1.559  1.00  0.00     0.178 A 
HETATM    4  C2  UNL     1       4.113   0.175  -1.060  1.00  0.00     0.165 A 
HETATM    5  N1  UNL     1       4.047   0.698   0.151  1.00  0.00    -0.193 N 
HETATM    6  C1  UNL     1       5.168   1.068   1.036  1.00  0.00     0.175 C 
HETATM    7  C14 UNL     1       2.739   0.827   0.421  1.00  0.00     0.685 A 
HETATM    8  N3  UNL     1       2.340   1.338   1.537  1.00  0.00    -0.234 N 
ATOM      9  H32 UNL     1       2.903   1.672   2.319  1.00  0.00     0.174 HD
ATOM     10  H31 UNL     1       1.346   1.436   1.742  1.00  0.00     0.174 HD
BRANCH   3  11
HETATM   11  O1  UNL     1       2.585  -0.575  -2.855  1.00  0.00    -0.344 OA
ATOM     12  H1  UNL     1       1.710  -0.715  -3.198  1.00  0.00     0.219 HD
ENDBRANCH   3  11
ENDBRANCH   1   2
BRANCH   1  13
HETATM   13  C5  UNL     1      -0.250  -0.692  -0.045  1.00  0.00     0.058 C 
HETATM   14  C6  UNL     1      -0.045  -0.843   1.452  1.00  0.00     0.027 C 
BRANCH  13  15
HETATM   15  C7  UNL     1      -1.697  -0.281  -0.316  1.00  0.00     0.004 C 
HETATM   16  C8  UNL     1      -2.739  -1.234   0.146  1.00  0.00     0.006 C 
HETATM   17  C9  UNL     1      -4.095  -0.512   0.141  1.00  0.00     0.000 C 
HETATM   18  C10 UNL     1      -4.161   0.617  -0.826  1.00  0.00     0.000 C 
HETATM   19  C11 UNL     1      -3.118   1.673  -0.591  1.00  0.00     0.000 C 
HETATM   20  C12 UNL     1      -2.073   1.029   0.336  1.00  0.00     0.006 C 
ENDBRANCH  13  15
BRANCH  13  21
HETATM   21  C13 UNL     1      -0.026  -2.040  -0.637  1.00  0.00     0.267 C 
HETATM   22  F1  UNL     1       1.300  -2.472  -0.541  1.00  0.00    -0.206 F 
HETATM   23 CL1  UNL     1      -0.848  -3.323   0.357  1.00  0.00    -0.065 Cl
HETATM   24 CL2  UNL     1      -0.540  -2.189  -2.318  1.00  0.00    -0.065 Cl
ENDBRANCH  13  21
ENDBRANCH   1  13
TORSDOF 5
