REMARK  5 active torsions:
REMARK  status: ('A' for Active; 'I' for Inactive)
REMARK    1  A    between atoms: C1_4  and  S1_6 
REMARK    2  A    between atoms: S1_6  and  C2_7 
REMARK    3  A    between atoms: C2_7  and  C3_9 
REMARK    4  A    between atoms: C3_9  and  C4_11 
REMARK    5  A    between atoms: C4_11  and  C5_13 
ROOT
HETATM    1  C4  UNL     1      -0.563  -1.161   1.306  1.00  0.00     0.187 C 
HETATM    2  O2  UNL     1      -0.687  -1.419   2.564  1.00  0.00    -0.290 OA
ENDROOT
BRANCH   1   3
HETATM    3  C3  UNL     1       0.667  -1.614   0.652  1.00  0.00     0.238 C 
HETATM    4 CL1  UNL     1       1.717  -2.405   1.908  1.00  0.00    -0.107 Cl
BRANCH   3   5
HETATM    5  C2  UNL     1       1.510  -0.552   0.070  1.00  0.00     0.219 C 
HETATM    6  O1  UNL     1       1.145   0.583   0.032  1.00  0.00    -0.283 OA
BRANCH   5   7
HETATM    7  S1  UNL     1       3.103  -1.001  -0.586  1.00  0.00    -0.018 SA
BRANCH   7   8
HETATM    8  C1  UNL     1       4.080   0.424  -1.034  1.00  0.00     0.155 C 
HETATM    9  N1  UNL     1       5.306   0.238  -1.350  1.00  0.00    -0.382 N 
ATOM     10  H12 UNL     1       5.864   1.052  -1.606  1.00  0.00     0.157 HD
ATOM     11  H11 UNL     1       5.651  -0.721  -1.379  1.00  0.00     0.157 HD
HETATM   12  N2  UNL     1       3.603   1.749  -0.994  1.00  0.00    -0.075 NA
ENDBRANCH   7   8
ENDBRANCH   5   7
ENDBRANCH   3   5
ENDBRANCH   1   3
BRANCH   1  13
HETATM   13  C5  UNL     1      -1.669  -0.450   0.709  1.00  0.00     0.035 A 
HETATM   14  C6  UNL     1      -2.340  -0.997  -0.354  1.00  0.00     0.042 A 
HETATM   15  C7  UNL     1      -3.413  -0.355  -0.934  1.00  0.00     0.056 A 
HETATM   16 CL2  UNL     1      -4.248  -1.105  -2.301  1.00  0.00    -0.083 Cl
HETATM   17  C8  UNL     1      -3.854   0.860  -0.471  1.00  0.00     0.057 A 
HETATM   18 CL3  UNL     1      -5.235   1.668  -1.223  1.00  0.00    -0.082 Cl
HETATM   19  C9  UNL     1      -3.190   1.423   0.597  1.00  0.00     0.050 A 
HETATM   20  C10 UNL     1      -2.100   0.762   1.180  1.00  0.00     0.049 A 
HETATM   21 CL4  UNL     1      -1.303   1.517   2.544  1.00  0.00    -0.083 Cl
ENDBRANCH   1  13
TORSDOF 5
