REMARK  5 active torsions:
REMARK  status: ('A' for Active; 'I' for Inactive)
REMARK    1  A    between atoms: O1_2  and  C2_3 
REMARK    2  A    between atoms: C4_5  and  O2_6 
REMARK    3  A    between atoms: C5_8  and  C6_9 
REMARK    4  A    between atoms: C8_12  and  O4_13 
REMARK    5  A    between atoms: C9_15  and  C10_16 
ROOT
HETATM    1  C2  UNL     1       0.162   0.870   1.277  1.00  0.00     0.085 A 
HETATM    2  C3  UNL     1      -0.841   0.614   2.162  1.00  0.00     0.075 A 
HETATM    3  C4  UNL     1      -1.870  -0.320   1.898  1.00  0.00     0.085 A 
HETATM    4  C5  UNL     1      -1.866  -1.014   0.681  1.00  0.00     0.076 A 
HETATM    5  C8  UNL     1      -0.838  -0.740  -0.207  1.00  0.00     0.096 A 
HETATM    6  C9  UNL     1       0.141   0.178   0.095  1.00  0.00     0.048 A 
ENDROOT
BRANCH   6   7
HETATM    7  C10 UNL     1       1.180   0.409  -0.882  1.00  0.00     0.063 A 
HETATM    8  C11 UNL     1       1.002   1.387  -1.836  1.00  0.00     0.171 A 
HETATM    9  F1  UNL     1      -0.136   2.157  -1.892  1.00  0.00    -0.202 F 
HETATM   10  C12 UNL     1       2.018   1.574  -2.748  1.00  0.00     0.180 A 
HETATM   11  F2  UNL     1       1.885   2.528  -3.707  1.00  0.00    -0.201 F 
HETATM   12  C13 UNL     1       3.181   0.814  -2.719  1.00  0.00     0.117 A 
HETATM   13 CL1  UNL     1       4.470   1.056  -3.881  1.00  0.00    -0.077 Cl
HETATM   14  C14 UNL     1       3.329  -0.163  -1.745  1.00  0.00     0.180 A 
HETATM   15  F3  UNL     1       4.448  -0.919  -1.691  1.00  0.00    -0.201 F 
HETATM   16  C15 UNL     1       2.321  -0.360  -0.827  1.00  0.00     0.171 A 
HETATM   17  F4  UNL     1       2.514  -1.339   0.117  1.00  0.00    -0.202 F 
ENDBRANCH   6   7
BRANCH   1  18
HETATM   18  O1  UNL     1       1.178   1.810   1.567  1.00  0.00    -0.355 OA
HETATM   19  C1  UNL     1       1.141   2.491   2.807  1.00  0.00     0.210 C 
ENDBRANCH   1  18
BRANCH   5  20
HETATM   20  O4  UNL     1      -0.820  -1.431  -1.437  1.00  0.00    -0.359 OA
ATOM     21  H4  UNL     1      -0.115  -1.243  -2.046  1.00  0.00     0.217 HD
ENDBRANCH   5  20
BRANCH   4  22
HETATM   22  C6  UNL     1      -2.882  -1.984   0.337  1.00  0.00     0.161 C 
HETATM   23  C7  UNL     1      -2.903  -2.729  -0.936  1.00  0.00     0.097 C 
HETATM   24  O3  UNL     1      -3.817  -2.242   1.130  1.00  0.00    -0.293 OA
ENDBRANCH   4  22
BRANCH   3  25
HETATM   25  O2  UNL     1      -2.811  -0.481   2.865  1.00  0.00    -0.360 OA
ATOM     26  H2  UNL     1      -3.502  -1.108   2.688  1.00  0.00     0.217 HD
ENDBRANCH   3  25
TORSDOF 5
