REMARK  5 active torsions:
REMARK  status: ('A' for Active; 'I' for Inactive)
REMARK    1  A    between atoms: O1_2  and  C2_3 
REMARK    2  A    between atoms: C2_3  and  C3_5 
REMARK    3  A    between atoms: N1_9  and  C5_10 
REMARK    4  A    between atoms: C5_10  and  C6_11 
REMARK    5  A    between atoms: C12_21  and  O3_22 
ROOT
HETATM    1  C3  UNL     1       2.225  -0.476   0.348  1.00  0.00     0.134 A 
HETATM    2  S1  UNL     1       1.668  -1.082   1.829  1.00  0.00    -0.050 SA
HETATM    3  C4  UNL     1       0.050  -1.377   1.374  1.00  0.00     0.148 A 
HETATM    4  S2  UNL     1      -1.056  -1.999   2.424  1.00  0.00    -0.052 SA
HETATM    5  N1  UNL     1      -0.025  -1.004   0.105  1.00  0.00    -0.307 N 
HETATM    6  C12 UNL     1       1.114  -0.532  -0.435  1.00  0.00     0.168 A 
ENDROOT
BRANCH   5   7
HETATM    7  C5  UNL     1      -1.217  -1.171  -0.759  1.00  0.00     0.178 C 
BRANCH   7   8
HETATM    8  C6  UNL     1      -2.305  -0.261  -0.550  1.00  0.00     0.043 A 
HETATM    9  C7  UNL     1      -3.469  -0.719   0.080  1.00  0.00     0.166 A 
HETATM   10  F1  UNL     1      -3.686  -2.047   0.346  1.00  0.00    -0.202 F 
HETATM   11  C8  UNL     1      -4.513   0.097   0.383  1.00  0.00     0.158 A 
HETATM   12  F2  UNL     1      -5.658  -0.367   1.007  1.00  0.00    -0.203 F 
HETATM   13  C9  UNL     1      -4.493   1.434   0.083  1.00  0.00     0.090 A 
HETATM   14  C10 UNL     1      -3.378   1.926  -0.537  1.00  0.00     0.158 A 
HETATM   15  F3  UNL     1      -3.354   3.253  -0.841  1.00  0.00    -0.203 F 
HETATM   16  C11 UNL     1      -2.298   1.077  -0.845  1.00  0.00     0.166 A 
HETATM   17  F4  UNL     1      -1.288   1.712  -1.461  1.00  0.00    -0.202 F 
ENDBRANCH   7   8
ENDBRANCH   5   7
BRANCH   6  18
HETATM   18  O3  UNL     1       1.239  -0.090  -1.792  1.00  0.00    -0.345 OA
ATOM     19  H3  UNL     1       0.463  -0.129  -2.339  1.00  0.00     0.219 HD
ENDBRANCH   6  18
BRANCH   1  20
HETATM   20  C2  UNL     1       3.597  -0.011  -0.007  1.00  0.00     0.304 C 
HETATM   21  O2  UNL     1       3.816   0.393  -1.167  1.00  0.00    -0.259 OA
BRANCH  20  22
HETATM   22  O1  UNL     1       4.583  -0.044   0.968  1.00  0.00    -0.322 OA
HETATM   23  C1  UNL     1       5.890   0.385   0.667  1.00  0.00     0.213 C 
ENDBRANCH  20  22
ENDBRANCH   1  20
TORSDOF 5
