REMARK  9 active torsions:
REMARK  status: ('A' for Active; 'I' for Inactive)
REMARK    1  A    between atoms: C2_2  and  O1_3 
REMARK    2  A    between atoms: O1_3  and  C3_4 
REMARK    3  A    between atoms: C3_4  and  C4_6 
REMARK    4  A    between atoms: C5_7  and  C6_8 
REMARK    5  A    between atoms: C6_8  and  C7_11 
REMARK    6  A    between atoms: C8_16  and  C9_17 
REMARK    7  A    between atoms: C9_17  and  N1_18 
REMARK    8  A    between atoms: N1_18  and  C10_20 
REMARK    9  A    between atoms: C14_24  and  O3_25 
ROOT
HETATM    1  C4  UNL     1       1.634  -0.116   0.145  1.00  0.00     0.093 A 
HETATM    2  C5  UNL     1       1.568   1.225   0.267  1.00  0.00     0.083 A 
HETATM    3  S1  UNL     1      -0.169   1.506   0.290  1.00  0.00    -0.083 SA
HETATM    4  C8  UNL     1      -0.703  -0.095   0.153  1.00  0.00     0.054 A 
HETATM    5  C14 UNL     1       0.454  -0.803   0.090  1.00  0.00     0.101 A 
ENDROOT
BRANCH   2   6
HETATM    6  C6  UNL     1       2.470   2.360   0.546  1.00  0.00     0.373 C 
HETATM    7  F1  UNL     1       3.468   2.402  -0.448  1.00  0.00    -0.190 F 
HETATM    8  F2  UNL     1       1.794   3.582   0.312  1.00  0.00    -0.190 F 
BRANCH   6   9
HETATM    9  C7  UNL     1       3.094   2.462   1.875  1.00  0.00     0.459 C 
HETATM   10  F3  UNL     1       3.886   1.508   2.372  1.00  0.00    -0.165 F 
HETATM   11  F4  UNL     1       3.897   3.647   1.835  1.00  0.00    -0.165 F 
HETATM   12  F5  UNL     1       2.120   2.798   2.855  1.00  0.00    -0.165 F 
ENDBRANCH   6   9
ENDBRANCH   2   6
BRANCH   1  13
HETATM   13  C3  UNL     1       2.902  -0.833  -0.033  1.00  0.00     0.297 C 
HETATM   14  O2  UNL     1       2.890  -2.077  -0.227  1.00  0.00    -0.259 OA
BRANCH  13  15
HETATM   15  O1  UNL     1       4.109  -0.237  -0.013  1.00  0.00    -0.318 OA
BRANCH  15  16
HETATM   16  C2  UNL     1       5.356  -0.837  -0.182  1.00  0.00     0.174 C 
HETATM   17  C1  UNL     1       5.500  -1.523  -1.522  1.00  0.00     0.034 C 
ENDBRANCH  15  16
ENDBRANCH  13  15
ENDBRANCH   1  13
BRANCH   5  18
HETATM   18  O3  UNL     1       0.370  -2.216  -0.029  1.00  0.00    -0.358 OA
ATOM     19  H3  UNL     1      -0.450  -2.694  -0.067  1.00  0.00     0.217 HD
ENDBRANCH   5  18
BRANCH   4  20
HETATM   20  C9  UNL     1      -2.094  -0.593   0.112  1.00  0.00     0.105 C 
BRANCH  20  21
HETATM   21  N1  UNL     1      -3.028   0.262   0.186  1.00  0.00    -0.390 N 
ATOM     22  H1  UNL     1      -2.752   1.241   0.269  1.00  0.00     0.159 HD
BRANCH  21  23
HETATM   23  C10 UNL     1      -4.422  -0.014   0.164  1.00  0.00     0.018 C 
HETATM   24  C11 UNL     1      -5.064   0.831  -0.934  1.00  0.00     0.037 C 
HETATM   25  C12 UNL     1      -5.101   0.370   1.460  1.00  0.00     0.037 C 
HETATM   26  C13 UNL     1      -4.711  -1.460  -0.137  1.00  0.00     0.037 C 
ENDBRANCH  21  23
ENDBRANCH  20  21
ENDBRANCH   4  20
TORSDOF 9
