REMARK  5 active torsions:
REMARK  status: ('A' for Active; 'I' for Inactive)
REMARK    1  A    between atoms: O1_2  and  N1_3 
REMARK    2  A    between atoms: C2_5  and  N2_6 
REMARK    3  A    between atoms: C2_5  and  C10_19 
REMARK    4  A    between atoms: N2_6  and  C3_8 
REMARK    5  A    between atoms: C5_10  and  N3_11 
ROOT
HETATM    1  C3  UNL     1      -0.676   0.477  -0.398  1.00  0.00     0.042 A 
HETATM    2  C4  UNL     1      -0.852  -0.425   0.630  1.00  0.00     0.068 A 
HETATM    3  C5  UNL     1      -2.122  -0.942   0.904  1.00  0.00     0.126 A 
HETATM    4  C6  UNL     1      -3.203  -0.553   0.150  1.00  0.00     0.067 A 
HETATM    5 CL1  UNL     1      -4.766  -1.207   0.509  1.00  0.00    -0.082 Cl
HETATM    6  C7  UNL     1      -3.048   0.345  -0.880  1.00  0.00     0.035 A 
HETATM    7  C8  UNL     1      -1.775   0.851  -1.140  1.00  0.00    -0.034 A 
HETATM    8  C9  UNL     1      -1.570   1.821  -2.244  1.00  0.00     0.050 C 
ENDROOT
BRANCH   1   9
HETATM    9  N2  UNL     1       0.585   1.015  -0.699  1.00  0.00    -0.340 N 
ATOM     10  H2  UNL     1       0.651   1.680  -1.470  1.00  0.00     0.167 HD
BRANCH   9  11
HETATM   11  C2  UNL     1       1.778   0.688   0.008  1.00  0.00     0.157 C 
HETATM   12  N1  UNL     1       2.311  -0.439  -0.221  1.00  0.00    -0.251 N 
ATOM     13  H1  UNL     1       1.847  -1.042  -0.901  1.00  0.00     0.196 HD
BRANCH  12  14
HETATM   14  O1  UNL     1       3.446  -0.918   0.358  1.00  0.00    -0.284 OA
HETATM   15  C1  UNL     1       3.773  -2.279   0.161  1.00  0.00     0.237 C 
ENDBRANCH  12  14
BRANCH  11  16
HETATM   16  C10 UNL     1       2.324   1.681   0.966  1.00  0.00     0.248 C 
HETATM   17 CL2  UNL     1       1.136   2.033   2.257  1.00  0.00    -0.075 Cl
HETATM   18 CL3  UNL     1       2.605   3.247   0.125  1.00  0.00    -0.075 Cl
HETATM   19 CL4  UNL     1       3.820   1.165   1.750  1.00  0.00    -0.075 Cl
ENDBRANCH  11  16
ENDBRANCH   9  11
ENDBRANCH   1   9
BRANCH   3  20
HETATM   20  N3  UNL     1      -2.323  -1.868   1.958  1.00  0.00    -0.114 N 
HETATM   21  O2  UNL     1      -1.615  -1.935   2.979  1.00  0.00    -0.532 OA
HETATM   22  O3  UNL     1      -3.370  -2.748   1.841  1.00  0.00    -0.532 OA
ENDBRANCH   3  20
TORSDOF 5
