REMARK  4 active torsions:
REMARK  status: ('A' for Active; 'I' for Inactive)
REMARK    1  A    between atoms: C2_7  and  C3_8 
REMARK    2  A    between atoms: N3_12  and  C6_13 
REMARK    3  A    between atoms: C6_13  and  C7_14 
REMARK    4  A    between atoms: C7_14  and  C8_16 
ROOT
HETATM    1  C3  UNL     1      -1.051  -0.359  -0.031  1.00  0.00     0.104 A 
HETATM    2  C4  UNL     1      -0.689  -1.666   0.206  1.00  0.00     0.079 A 
HETATM    3  C5  UNL     1       0.642  -1.844  -0.117  1.00  0.00     0.122 A 
HETATM    4 CL1  UNL     1       1.541  -3.346   0.023  1.00  0.00    -0.063 Cl
HETATM    5  N3  UNL     1       1.065  -0.642  -0.545  1.00  0.00    -0.275 N 
HETATM    6  N4  UNL     1       0.069   0.237  -0.497  1.00  0.00    -0.293 N 
ATOM      7  H4  UNL     1       0.140   1.217  -0.771  1.00  0.00     0.187 HD
ENDROOT
BRANCH   1   8
HETATM    8  C2  UNL     1      -2.344   0.280   0.161  1.00  0.00     0.193 A 
HETATM    9  N2  UNL     1      -3.441  -0.338   0.626  1.00  0.00    -0.275 N 
HETATM   10  N1  UNL     1      -4.446   0.510   0.685  1.00  0.00    -0.268 N 
ATOM     11  H2  UNL     1      -3.489  -1.321   0.894  1.00  0.00     0.189 HD
HETATM   12  C1  UNL     1      -3.987   1.694   0.251  1.00  0.00     0.235 A 
ATOM     13  H1  UNL     1      -5.394   0.306   1.001  1.00  0.00     0.190 HD
HETATM   14  S1  UNL     1      -4.849   3.103   0.125  1.00  0.00    -0.031 SA
HETATM   15  O1  UNL     1      -2.727   1.511  -0.051  1.00  0.00    -0.262 OA
ENDBRANCH   1   8
BRANCH   5  16
HETATM   16  C6  UNL     1       2.445  -0.394  -0.992  1.00  0.00     0.204 C 
BRANCH  16  17
HETATM   17  C7  UNL     1       3.304   0.030   0.130  1.00  0.00     0.065 C 
HETATM   18 CL2  UNL     1       3.499  -1.056   1.488  1.00  0.00    -0.084 Cl
BRANCH  17  19
HETATM   19  C8  UNL     1       3.909   1.206   0.100  1.00  0.00     0.122 C 
HETATM   20 CL3  UNL     1       4.924   1.702   1.430  1.00  0.00    -0.069 Cl
HETATM   21 CL4  UNL     1       3.716   2.293  -1.256  1.00  0.00    -0.069 Cl
ENDBRANCH  17  19
ENDBRANCH  16  17
ENDBRANCH   5  16
TORSDOF 4
