REMARK  1 active torsions:
REMARK  status: ('A' for Active; 'I' for Inactive)
REMARK    1  A    between atoms: C2_7  and  C3_8 
ROOT
HETATM    1  C3  UNL     1       0.314  -0.189  -0.550  1.00  0.00     0.181 C 
HETATM    2  C4  UNL     1      -0.023   1.218  -0.102  1.00  0.00     0.066 C 
HETATM    3  C5  UNL     1      -1.202   1.184   0.854  1.00  0.00     0.235 C 
HETATM    4  N3  UNL     1      -2.433   0.861   0.195  1.00  0.00    -0.073 N 
ATOM      5  H31 UNL     1      -2.773   1.658  -0.344  1.00  0.00     0.277 HD
ATOM      6  H32 UNL     1      -3.192   0.776   0.871  1.00  0.00     0.277 HD
HETATM    7  C6  UNL     1      -2.355  -0.315  -0.631  1.00  0.00     0.258 C 
HETATM    8  C7  UNL     1      -1.565  -1.425  -0.011  1.00  0.00     0.196 C 
HETATM    9  O1  UNL     1      -0.283  -1.083   0.333  1.00  0.00    -0.378 OA
ENDROOT
BRANCH   1  10
HETATM   10  C2  UNL     1       1.811  -0.311  -0.478  1.00  0.00     0.099 A 
HETATM   11  N2  UNL     1       2.695  -0.364  -1.470  1.00  0.00    -0.293 N 
HETATM   12  N1  UNL     1       3.926  -0.469  -1.210  1.00  0.00    -0.269 N 
ATOM     13  H2  UNL     1       2.379  -0.320  -2.439  1.00  0.00     0.187 HD
HETATM   14  C1  UNL     1       4.334  -0.526   0.053  1.00  0.00     0.247 A 
ATOM     15  H1  UNL     1       4.606  -0.510  -1.969  1.00  0.00     0.190 HD
HETATM   16  F1  UNL     1       5.626  -0.640   0.516  1.00  0.00    -0.176 F 
HETATM   17  S1  UNL     1       2.843  -0.421   0.885  1.00  0.00    -0.023 SA
ENDBRANCH   1  10
TORSDOF 1
