REMARK  1 active torsions:
REMARK  status: ('A' for Active; 'I' for Inactive)
REMARK    1  A    between atoms: O1_2  and  C2_3 
ROOT
HETATM    1  C2  UNL     1       0.656   0.074   0.413  1.00  0.00     0.226 C 
HETATM    2  C3  UNL     1      -0.197  -1.151   0.526  1.00  0.00     0.125 C 
HETATM    3  C4  UNL     1      -1.235  -1.282  -0.543  1.00  0.00     0.249 C 
HETATM    4  F1  UNL     1      -0.608  -1.677  -1.709  1.00  0.00    -0.214 F 
HETATM    5  C5  UNL     1      -2.156  -2.361  -0.135  1.00  0.00     0.115 C 
HETATM    6  N1  UNL     1      -2.865  -3.222   0.187  1.00  0.00    -0.193 NA
HETATM    7  S1  UNL     1      -2.200   0.230  -0.759  1.00  0.00    -0.039 SA
HETATM    8  C6  UNL     1      -1.160   1.581  -0.229  1.00  0.00     0.156 C 
HETATM    9  N2  UNL     1      -1.627   2.931  -0.324  1.00  0.00    -0.075 NA
HETATM   10  N3  UNL     1      -0.023   1.289   0.221  1.00  0.00    -0.346 N 
ATOM     11  H3  UNL     1       0.520   2.104   0.506  1.00  0.00     0.163 HD
ENDROOT
BRANCH   1  12
HETATM   12  O1  UNL     1       1.619  -0.035  -0.584  1.00  0.00    -0.371 OA
HETATM   13  C1  UNL     1       2.867  -0.015   0.017  1.00  0.00     0.204 C 
ENDBRANCH   1  12
TORSDOF 1
