REMARK  2 active torsions:
REMARK  status: ('A' for Active; 'I' for Inactive)
REMARK    1  A    between atoms: S1_2  and  C2_3 
REMARK    2  A    between atoms: C2_3  and  C3_7 
ROOT
HETATM    1  C3  UNL     1       0.554   0.091  -0.277  1.00  0.00     0.240 C 
HETATM    2  C4  UNL     1       1.453  -1.030   0.213  1.00  0.00     0.214 C 
HETATM    3  O1  UNL     1       2.579  -0.389   0.782  1.00  0.00    -0.343 OA
HETATM    4  C5  UNL     1       3.018   0.500  -0.199  1.00  0.00     0.396 C 
HETATM    5 CL1  UNL     1       4.722   0.923  -0.007  1.00  0.00    -0.063 Cl
HETATM    6  O2  UNL     1       2.199   1.626  -0.144  1.00  0.00    -0.191 OA
HETATM    7  O3  UNL     1       0.977   1.330   0.135  1.00  0.00    -0.223 OA
ENDROOT
BRANCH   1   8
HETATM    8  C2  UNL     1      -0.825  -0.121   0.248  1.00  0.00     0.074 C 
HETATM    9  N1  UNL     1      -1.095  -1.121   0.984  1.00  0.00    -0.395 N 
ATOM     10  H12 UNL     1      -2.039  -1.266   1.343  1.00  0.00     0.156 HD
ATOM     11  H11 UNL     1      -0.351  -1.780   1.212  1.00  0.00     0.156 HD
BRANCH   8  12
HETATM   12  S1  UNL     1      -2.127   1.033  -0.151  1.00  0.00    -0.119 SA
HETATM   13  C1  UNL     1      -3.678   0.512   0.626  1.00  0.00     0.097 C 
ENDBRANCH   8  12
ENDBRANCH   1   8
TORSDOF 2
