REMARK  15 active torsions:
REMARK  status: ('A' for Active; 'I' for Inactive)
REMARK    1  A    between atoms: N1_1  and  N2_4 
REMARK    2  A    between atoms: N2_4  and  C1_5 
REMARK    3  A    between atoms: N2_4  and  C9_20 
REMARK    4  A    between atoms: C1_5  and  C2_6 
REMARK       I    between atoms: C2_6  and  N3_8 
REMARK    5  A    between atoms: N3_8  and  C3_10 
REMARK    6  A    between atoms: C3_10  and  C4_11 
REMARK    7  A    between atoms: C4_11  and  O2_12 
REMARK    8  A    between atoms: O2_12  and  N4_13 
REMARK    9  A    between atoms: N4_13  and  C5_15 
REMARK   10  A    between atoms: C9_20  and  C10_21 
REMARK   11  A    between atoms: C10_21  and  O4_22 
REMARK   12  A    between atoms: C10_21  and  C11_24 
REMARK   13  A    between atoms: C11_24  and  O5_25 
REMARK   14  A    between atoms: O5_25  and  C12_26 
REMARK   15  A    between atoms: C15_29  and  N5_30 
ROOT
HETATM    1  N2  UNL     1      -0.445   0.731   0.204  1.00  0.00    -0.227 NA
ENDROOT
BRANCH   1   2
HETATM    2  N1  UNL     1      -1.321   0.765   1.208  1.00  0.00    -0.363 NA
ATOM      3  H12 UNL     1      -1.025   1.142   2.108  1.00  0.00     0.171 HD
ATOM      4  H11 UNL     1      -1.808  -0.121   1.340  1.00  0.00     0.171 HD
ENDBRANCH   1   2
BRANCH   1   5
HETATM    5  C1  UNL     1       0.251   1.997   0.016  1.00  0.00     0.215 C 
BRANCH   5   6
HETATM    6  C2  UNL     1       1.698   1.766   0.045  1.00  0.00     0.232 C 
HETATM    7  O1  UNL     1       2.407   2.837  -0.018  1.00  0.00    -0.272 OA
HETATM    8  N3  UNL     1       2.242   0.490   0.133  1.00  0.00    -0.358 N 
ATOM      9  H3  UNL     1       1.607  -0.308   0.158  1.00  0.00     0.162 HD
BRANCH   8  10
HETATM   10  C3  UNL     1       3.586   0.254   0.187  1.00  0.00     0.151 C 
BRANCH  10  11
HETATM   11  C4  UNL     1       4.304   0.986  -1.070  1.00  0.00     0.220 C 
BRANCH  11  12
HETATM   12  O2  UNL     1       5.524   0.572  -0.859  1.00  0.00    -0.277 OA
BRANCH  12  13
HETATM   13  N4  UNL     1       6.634   1.195  -0.549  1.00  0.00    -0.245 N 
ATOM     14  H4  UNL     1       6.880   2.175  -0.689  1.00  0.00     0.196 HD
BRANCH  13  15
HETATM   15  C5  UNL     1       7.452   0.091   0.067  1.00  0.00     0.166 A 
HETATM   16  C6  UNL     1       8.208  -0.689  -0.712  1.00  0.00     0.060 A 
HETATM   17  C7  UNL     1       8.788  -1.603   0.131  1.00  0.00     0.029 A 
HETATM   18  C8  UNL     1       8.330  -1.298   1.395  1.00  0.00     0.144 A 
HETATM   19  O3  UNL     1       7.510  -0.232   1.285  1.00  0.00    -0.304 OA
ENDBRANCH  13  15
ENDBRANCH  12  13
ENDBRANCH  11  12
ENDBRANCH  10  11
ENDBRANCH   8  10
ENDBRANCH   5   6
ENDBRANCH   1   5
BRANCH   1  20
HETATM   20  C9  UNL     1      -0.854   0.209  -1.042  1.00  0.00     0.147 C 
BRANCH  20  21
HETATM   21  C10 UNL     1      -1.470  -1.133  -1.094  1.00  0.00     0.157 C 
BRANCH  21  22
HETATM   22  O4  UNL     1      -1.774  -1.528  -2.420  1.00  0.00    -0.392 OA
ATOM     23  H4  UNL     1      -2.170  -2.391  -2.453  1.00  0.00     0.210 HD
ENDBRANCH  21  22
BRANCH  21  24
HETATM   24  C11 UNL     1      -2.788  -1.193  -0.353  1.00  0.00     0.208 C 
BRANCH  24  25
HETATM   25  O5  UNL     1      -3.833  -0.465  -1.014  1.00  0.00    -0.349 OA
BRANCH  25  26
HETATM   26  C12 UNL     1      -5.098  -0.448  -0.419  1.00  0.00     0.069 A 
HETATM   27  C13 UNL     1      -6.164   0.187  -1.031  1.00  0.00     0.039 A 
HETATM   28  C14 UNL     1      -7.423   0.196  -0.427  1.00  0.00     0.039 A 
HETATM   29  C15 UNL     1      -7.677  -0.406   0.776  1.00  0.00     0.103 A 
HETATM   30  C16 UNL     1      -6.614  -1.031   1.367  1.00  0.00     0.039 A 
HETATM   31  C17 UNL     1      -5.351  -1.054   0.791  1.00  0.00     0.039 A 
BRANCH  29  32
HETATM   32  N5  UNL     1      -8.975  -0.434   1.396  1.00  0.00    -0.116 N 
HETATM   33  O6  UNL     1     -10.000   0.046   0.896  1.00  0.00    -0.532 OA
HETATM   34  O7  UNL     1      -9.099  -1.080   2.611  1.00  0.00    -0.532 OA
ENDBRANCH  29  32
ENDBRANCH  25  26
ENDBRANCH  24  25
ENDBRANCH  21  24
ENDBRANCH  20  21
ENDBRANCH   1  20
TORSDOF 15
