REMARK  13 active torsions:
REMARK  status: ('A' for Active; 'I' for Inactive)
REMARK    1  A    between atoms: C2_2  and  C3_4 
REMARK    2  A    between atoms: C3_4  and  N1_5 
REMARK    3  A    between atoms: N1_5  and  C4_6 
REMARK    4  A    between atoms: N1_5  and  C6_12 
REMARK    5  A    between atoms: C4_6  and  C5_7 
REMARK    6  A    between atoms: C5_7  and  O2_8 
REMARK    7  A    between atoms: O2_8  and  N2_9 
REMARK    8  A    between atoms: C6_12  and  C7_13 
REMARK    9  A    between atoms: C7_13  and  N3_14 
REMARK   10  A    between atoms: N3_14  and  C9_16 
REMARK   11  A    between atoms: C9_16  and  C10_17 
REMARK   12  A    between atoms: C12_22  and  N5_23 
REMARK       I    between atoms: N5_23  and  C13_25 
REMARK   13  A    between atoms: C16_29  and  O7_30 
ROOT
HETATM    1  C9  UNL     1       0.839   0.693  -0.568  1.00  0.00     0.092 C 
ENDROOT
BRANCH   1   2
HETATM    2  N3  UNL     1      -0.114  -0.128   0.156  1.00  0.00    -0.290 NA
HETATM    3  C8  UNL     1       0.022   0.116   1.603  1.00  0.00     0.116 C 
BRANCH   2   4
HETATM    4  C7  UNL     1      -1.461   0.285  -0.248  1.00  0.00     0.139 C 
BRANCH   4   5
HETATM    5  C6  UNL     1      -2.539  -0.595   0.373  1.00  0.00     0.078 C 
BRANCH   5   6
HETATM    6  N1  UNL     1      -3.785  -0.163  -0.053  1.00  0.00    -0.364 N 
BRANCH   6   7
HETATM    7  C3  UNL     1      -4.123   1.140   0.444  1.00  0.00     0.205 C 
BRANCH   7   8
HETATM    8  C2  UNL     1      -4.816   2.032  -0.496  1.00  0.00     0.141 C 
HETATM    9  C1  UNL     1      -5.241   3.361   0.009  1.00  0.00     0.092 C 
HETATM   10  O1  UNL     1      -5.037   1.711  -1.632  1.00  0.00    -0.297 OA
ENDBRANCH   7   8
ENDBRANCH   6   7
BRANCH   6  11
HETATM   11  C4  UNL     1      -4.902  -0.947  -0.230  1.00  0.00     0.092 C 
BRANCH  11  12
HETATM   12  C5  UNL     1      -4.776  -2.406  -0.535  1.00  0.00     0.252 C 
BRANCH  12  13
HETATM   13  O2  UNL     1      -4.106  -3.012   0.548  1.00  0.00    -0.216 OA
BRANCH  13  14
HETATM   14  N2  UNL     1      -3.824  -4.339   0.637  1.00  0.00     0.005 N 
HETATM   15  O3  UNL     1      -2.757  -4.702   1.151  1.00  0.00    -0.511 OA
HETATM   16  O4  UNL     1      -4.727  -5.245   0.159  1.00  0.00    -0.511 OA
ENDBRANCH  13  14
ENDBRANCH  12  13
ENDBRANCH  11  12
ENDBRANCH   6  11
ENDBRANCH   5   6
ENDBRANCH   4   5
ENDBRANCH   2   4
ENDBRANCH   1   2
BRANCH   1  17
HETATM   17  C10 UNL     1       2.239   0.392  -0.406  1.00  0.00     0.079 A 
HETATM   18  N4  UNL     1       2.718  -0.636   0.299  1.00  0.00    -0.319 N 
HETATM   19  C11 UNL     1       4.026  -0.909   0.411  1.00  0.00     0.273 A 
ATOM     20  H4  UNL     1       2.054  -1.245   0.777  1.00  0.00     0.169 HD
HETATM   21  O5  UNL     1       4.389  -1.896   1.095  1.00  0.00    -0.266 OA
HETATM   22  C12 UNL     1       4.985  -0.102  -0.226  1.00  0.00     0.106 A 
HETATM   23  C15 UNL     1       4.513   0.961  -0.956  1.00  0.00     0.074 A 
HETATM   24  C16 UNL     1       3.152   1.233  -1.065  1.00  0.00     0.095 A 
BRANCH  22  25
HETATM   25  N5  UNL     1       6.326  -0.461  -0.068  1.00  0.00    -0.323 N 
HETATM   26  C13 UNL     1       7.432   0.226  -0.582  1.00  0.00     0.218 C 
HETATM   27  C14 UNL     1       8.829  -0.278  -0.335  1.00  0.00     0.117 C 
HETATM   28  O6  UNL     1       7.343   1.268  -1.252  1.00  0.00    -0.274 OA
ATOM     29  H5  UNL     1       6.517  -1.304   0.473  1.00  0.00     0.169 HD
ENDBRANCH  22  25
BRANCH  24  30
HETATM   30  O7  UNL     1       2.713   2.300  -1.799  1.00  0.00    -0.358 OA
ATOM     31  H7  UNL     1       3.330   2.868  -2.244  1.00  0.00     0.217 HD
ENDBRANCH  24  30
ENDBRANCH   1  17
TORSDOF 13
