REMARK  13 active torsions:
REMARK  status: ('A' for Active; 'I' for Inactive)
REMARK    1  A    between atoms: O1_2  and  N1_3 
REMARK       I    between atoms: N1_3  and  C2_5 
REMARK    2  A    between atoms: C2_5  and  C3_7 
REMARK    3  A    between atoms: C3_7  and  O3_8 
REMARK    4  A    between atoms: O3_8  and  C4_9 
REMARK    5  A    between atoms: C4_9  and  N2_10 
REMARK    6  A    between atoms: C4_9  and  C5_14 
REMARK    7  A    between atoms: C5_14  and  C6_15 
REMARK    8  A    between atoms: C6_15  and  C7_16 
REMARK    9  A    between atoms: C7_16  and  N3_17 
REMARK   10  A    between atoms: C7_16  and  C17_31 
REMARK       I    between atoms: N3_17  and  C8_19 
REMARK   11  A    between atoms: C8_19  and  C9_21 
REMARK   12  A    between atoms: C12_24  and  O5_25 
REMARK   13  A    between atoms: C15_28  and  O6_29 
ROOT
HETATM    1  C7  UNL     1       0.310  -2.604   0.182  1.00  0.00     0.129 C 
ENDROOT
BRANCH   1   2
HETATM    2  C6  UNL     1       1.144  -2.418  -1.067  1.00  0.00     0.035 C 
BRANCH   2   3
HETATM    3  C5  UNL     1       1.852  -1.110  -1.127  1.00  0.00     0.063 C 
BRANCH   3   4
HETATM    4  C4  UNL     1       2.846  -0.887   0.007  1.00  0.00     0.318 C 
BRANCH   4   5
HETATM    5  O3  UNL     1       3.401   0.378  -0.243  1.00  0.00    -0.350 OA
BRANCH   5   6
HETATM    6  C3  UNL     1       3.193   1.226   0.817  1.00  0.00     0.275 C 
BRANCH   6   7
HETATM    7  C2  UNL     1       3.768   2.554   0.587  1.00  0.00     0.264 C 
HETATM    8  N1  UNL     1       4.452   2.888  -0.610  1.00  0.00    -0.234 N 
ATOM      9  H1  UNL     1       4.544   2.174  -1.333  1.00  0.00     0.197 HD
HETATM   10  O2  UNL     1       3.665   3.447   1.464  1.00  0.00    -0.269 OA
BRANCH   8  11
HETATM   11  O1  UNL     1       4.982   4.095  -0.836  1.00  0.00    -0.283 OA
HETATM   12  C1  UNL     1       6.375   4.012  -0.918  1.00  0.00     0.237 C 
ENDBRANCH   8  11
ENDBRANCH   6   7
ENDBRANCH   5   6
ENDBRANCH   4   5
BRANCH   4  13
HETATM   13  N2  UNL     1       3.885  -1.867  -0.119  1.00  0.00    -0.053 N 
ATOM     14  H23 UNL     1       4.363  -1.819  -1.019  1.00  0.00     0.277 HD
ATOM     15  H22 UNL     1       4.689  -1.666   0.476  1.00  0.00     0.277 HD
ATOM     16  H21 UNL     1       3.482  -2.786   0.063  1.00  0.00     0.277 HD
ENDBRANCH   4  13
ENDBRANCH   3   4
ENDBRANCH   2   3
ENDBRANCH   1   2
BRANCH   1  17
HETATM   17  N3  UNL     1      -0.761  -1.660   0.364  1.00  0.00    -0.347 N 
HETATM   18  C8  UNL     1      -1.525  -1.020  -0.596  1.00  0.00     0.255 C 
HETATM   19  O4  UNL     1      -1.272  -1.309  -1.815  1.00  0.00    -0.268 OA
ATOM     20  H3  UNL     1      -0.988  -1.432   1.332  1.00  0.00     0.163 HD
BRANCH  18  21
HETATM   21  C9  UNL     1      -2.577  -0.061  -0.386  1.00  0.00     0.065 A 
HETATM   22  C10 UNL     1      -3.238   0.463  -1.528  1.00  0.00     0.022 A 
HETATM   23  C11 UNL     1      -4.252   1.375  -1.451  1.00  0.00     0.038 A 
HETATM   24  C12 UNL     1      -4.689   1.836  -0.250  1.00  0.00     0.070 A 
HETATM   25  C14 UNL     1      -4.075   1.354   0.877  1.00  0.00     0.074 A 
HETATM   26  C15 UNL     1      -3.039   0.423   0.812  1.00  0.00     0.086 A 
BRANCH  24  27
HETATM   27  O5  UNL     1      -5.712   2.759  -0.134  1.00  0.00    -0.356 OA
HETATM   28  C13 UNL     1      -6.397   3.306  -1.235  1.00  0.00     0.210 C 
ENDBRANCH  24  27
BRANCH  26  29
HETATM   29  O6  UNL     1      -2.457  -0.028   1.984  1.00  0.00    -0.355 OA
HETATM   30  C16 UNL     1      -2.921   0.460   3.213  1.00  0.00     0.210 C 
ENDBRANCH  26  29
ENDBRANCH  18  21
ENDBRANCH   1  17
BRANCH   1  31
HETATM   31  C17 UNL     1      -0.049  -4.005   0.447  1.00  0.00    -0.001 C 
HETATM   32  C18 UNL     1      -0.847  -4.802  -0.538  1.00  0.00     0.065 C 
HETATM   33  N4  UNL     1       0.293  -4.621   1.517  1.00  0.00    -0.404 N 
ATOM     34  H42 UNL     1       0.837  -4.078   2.188  1.00  0.00     0.155 HD
ATOM     35  H41 UNL     1       0.044  -5.593   1.701  1.00  0.00     0.155 HD
ENDBRANCH   1  31
TORSDOF 13
