REMARK  9 active torsions:
REMARK  status: ('A' for Active; 'I' for Inactive)
REMARK    1  A    between atoms: N1_5  and  O1_7 
REMARK    2  A    between atoms: C6_10  and  O2_11 
REMARK    3  A    between atoms: C14_22  and  O5_23 
REMARK    4  A    between atoms: C15_25  and  O6_26 
REMARK    5  A    between atoms: O6_26  and  C16_27 
REMARK    6  A    between atoms: C19_31  and  O8_32 
REMARK    7  A    between atoms: C20_34  and  O9_35 
REMARK    8  A    between atoms: C21_37  and  O10_38 
REMARK    9  A    between atoms: C23_41  and  O11_42 
ROOT
HETATM    1  C1  UNL     1      -7.586  -1.600  -1.643  1.00  0.00     0.036 C 
HETATM    2  C2  UNL     1      -6.472  -0.608  -1.734  1.00  0.00    -0.021 C 
HETATM    3  C3  UNL     1      -6.019  -0.041  -0.628  1.00  0.00    -0.026 C 
HETATM    4  C4  UNL     1      -6.512  -0.292   0.738  1.00  0.00     0.041 C 
HETATM    5  N1  UNL     1      -7.608  -0.866   1.090  1.00  0.00    -0.273 N 
ATOM      6  H1  UNL     1      -8.257  -1.212   0.384  1.00  0.00     0.194 HD
HETATM    7  C5  UNL     1      -5.484   0.255   1.700  1.00  0.00     0.101 C 
HETATM    8  C6  UNL     1      -4.315   0.308   0.821  1.00  0.00     0.104 C 
HETATM    9  C7  UNL     1      -3.211   1.218   1.050  1.00  0.00     0.200 C 
HETATM   10  O3  UNL     1      -2.148   0.506   1.656  1.00  0.00    -0.232 OA
HETATM   11  O4  UNL     1      -1.041   1.174   1.676  1.00  0.00    -0.232 OA
HETATM   12  C8  UNL     1      -0.392   1.207   0.427  1.00  0.00     0.200 C 
HETATM   13  C9  UNL     1      -1.470   0.757  -0.574  1.00  0.00     0.027 C 
HETATM   14  C10 UNL     1      -0.967   0.737  -1.977  1.00  0.00     0.009 C 
HETATM   15  C11 UNL     1       0.133  -0.337  -2.027  1.00  0.00     0.015 C 
HETATM   16  C12 UNL     1       1.192   0.112  -1.084  1.00  0.00     0.018 C 
HETATM   17  C13 UNL     1       1.773   1.398  -1.584  1.00  0.00     0.021 C 
HETATM   18  C14 UNL     1       2.334  -0.866  -0.915  1.00  0.00     0.158 C 
HETATM   19  C15 UNL     1       2.783  -0.706   0.518  1.00  0.00     0.157 C 
HETATM   20  C22 UNL     1       1.901   0.403   1.116  1.00  0.00     0.076 C 
HETATM   21  C23 UNL     1       0.664   0.186   0.323  1.00  0.00     0.099 C 
HETATM   22  C24 UNL     1      -2.729   1.548  -0.375  1.00  0.00     0.028 C 
HETATM   23  C25 UNL     1      -3.787   0.937  -1.311  1.00  0.00     0.025 C 
HETATM   24  C26 UNL     1      -4.963   0.938  -0.436  1.00  0.00     0.019 C 
HETATM   25  C27 UNL     1      -5.530   2.290  -0.125  1.00  0.00     0.024 C 
ENDROOT
BRANCH  19  26
HETATM   26  O6  UNL     1       4.108  -0.487   0.707  1.00  0.00    -0.351 OA
BRANCH  26  27
HETATM   27  C16 UNL     1       4.730  -1.393   1.560  1.00  0.00     0.292 C 
HETATM   28  O7  UNL     1       5.310  -0.711   2.579  1.00  0.00    -0.351 OA
HETATM   29  C17 UNL     1       6.404   0.046   2.362  1.00  0.00     0.152 C 
HETATM   30  C18 UNL     1       5.953   1.407   1.822  1.00  0.00     0.042 C 
HETATM   31  C19 UNL     1       7.484  -0.582   1.566  1.00  0.00     0.178 C 
HETATM   32  C20 UNL     1       6.970  -1.322   0.389  1.00  0.00     0.183 C 
HETATM   33  C21 UNL     1       5.771  -2.144   0.777  1.00  0.00     0.204 C 
BRANCH  31  34
HETATM   34  O8  UNL     1       8.361   0.425   1.114  1.00  0.00    -0.390 OA
ATOM     35  H8  UNL     1       9.054   0.022   0.604  1.00  0.00     0.210 HD
ENDBRANCH  31  34
BRANCH  32  36
HETATM   36  O9  UNL     1       6.575  -0.420  -0.602  1.00  0.00    -0.390 OA
ATOM     37  H9  UNL     1       6.246  -0.894  -1.356  1.00  0.00     0.210 HD
ENDBRANCH  32  36
BRANCH  33  38
HETATM   38  O10 UNL     1       6.225  -3.274   1.460  1.00  0.00    -0.388 OA
ATOM     39  H10 UNL     1       6.883  -3.748   0.965  1.00  0.00     0.210 HD
ENDBRANCH  33  38
ENDBRANCH  26  27
ENDBRANCH  19  26
BRANCH  18  40
HETATM   40  O5  UNL     1       3.403  -0.568  -1.747  1.00  0.00    -0.392 OA
ATOM     41  H5  UNL     1       4.120  -1.182  -1.641  1.00  0.00     0.210 HD
ENDBRANCH  18  40
BRANCH  21  42
HETATM   42  O11 UNL     1       0.134  -1.051   0.655  1.00  0.00    -0.386 OA
ATOM     43  H11 UNL     1       0.815  -1.710   0.588  1.00  0.00     0.210 HD
ENDBRANCH  21  42
BRANCH   8  44
HETATM   44  O2  UNL     1      -3.933  -0.984   0.480  1.00  0.00    -0.386 OA
ATOM     45  H2  UNL     1      -3.174  -0.950  -0.091  1.00  0.00     0.210 HD
ENDBRANCH   8  44
BRANCH   5  46
HETATM   46  O1  UNL     1      -7.894  -1.008   2.414  1.00  0.00    -0.290 OA
ATOM     47  H1  UNL     1      -8.703  -1.432   2.674  1.00  0.00     0.244 HD
ENDBRANCH   5  46
TORSDOF 9
