REMARK  3 active torsions:
REMARK  status: ('A' for Active; 'I' for Inactive)
REMARK    1  A    between atoms: N6_19  and  C10_20 
REMARK    2  A    between atoms: C10_20  and  C11_21 
REMARK    3  A    between atoms: C11_21  and  O1_22 
ROOT
HETATM    1  C1  UNL     1       6.194  -2.927   0.831  1.00  0.00     0.143 C 
HETATM    2  N1  UNL     1       5.048  -2.264   0.281  1.00  0.00    -0.415 N 
HETATM    3  C2  UNL     1       3.796  -2.892   0.535  1.00  0.00     0.136 C 
HETATM    4  C3  UNL     1       2.963  -3.083  -0.740  1.00  0.00     0.141 C 
HETATM    5  N2  UNL     1       3.246  -4.387  -1.264  1.00  0.00    -0.363 N 
ATOM      6  H2  UNL     1       4.208  -4.561  -1.555  1.00  0.00     0.162 HD
HETATM    7  C4  UNL     1       2.420  -5.361  -1.407  1.00  0.00     0.184 C 
HETATM    8  N3  UNL     1       3.026  -6.558  -1.972  1.00  0.00    -0.064 NA
HETATM    9  N4  UNL     1       1.046  -5.340  -1.070  1.00  0.00    -0.363 N 
ATOM     10  H4  UNL     1       0.389  -5.538  -1.825  1.00  0.00     0.162 HD
HETATM   11  C5  UNL     1       0.478  -5.070   0.220  1.00  0.00     0.150 C 
HETATM   12  C6  UNL     1      -0.783  -4.273   0.190  1.00  0.00     0.251 C 
HETATM   13  N5  UNL     1      -1.380  -4.188  -1.125  1.00  0.00    -0.074 N 
ATOM     14  H51 UNL     1      -1.194  -5.034  -1.663  1.00  0.00     0.277 HD
ATOM     15  H52 UNL     1      -0.887  -3.508  -1.704  1.00  0.00     0.277 HD
HETATM   16  C7  UNL     1      -2.797  -3.902  -1.091  1.00  0.00     0.234 C 
HETATM   17  C8  UNL     1      -3.225  -3.026   0.039  1.00  0.00     0.057 C 
HETATM   18  C9  UNL     1      -3.756  -1.711  -0.494  1.00  0.00     0.274 C 
HETATM   19  N6  UNL     1      -4.867  -1.229   0.304  1.00  0.00     0.092 N 
HETATM   20  C12 UNL     1      -4.658   0.154   0.588  1.00  0.00     0.298 C 
HETATM   21  C13 UNL     1      -4.804   1.073  -0.574  1.00  0.00     0.198 C 
HETATM   22  O2  UNL     1      -3.662   1.879  -0.675  1.00  0.00    -0.388 OA
HETATM   23  C14 UNL     1      -3.502   2.619   0.482  1.00  0.00     0.195 C 
HETATM   24  C15 UNL     1      -3.924   4.056   0.277  1.00  0.00     0.258 C 
HETATM   25  N7  UNL     1      -3.116   4.918   1.091  1.00  0.00    -0.073 N 
ATOM     26  H71 UNL     1      -2.392   4.400   1.589  1.00  0.00     0.277 HD
ATOM     27  H72 UNL     1      -3.632   5.271   1.897  1.00  0.00     0.277 HD
HETATM   28  C16 UNL     1      -2.560   5.991   0.297  1.00  0.00     0.234 C 
HETATM   29  C17 UNL     1      -1.057   6.058   0.486  1.00  0.00     0.047 C 
HETATM   30  C18 UNL     1      -0.437   4.815  -0.135  1.00  0.00     0.121 C 
HETATM   31  N8  UNL     1       0.800   5.257  -0.859  1.00  0.00    -0.390 N 
ATOM     32  H8  UNL     1       0.775   6.022  -1.533  1.00  0.00     0.159 HD
HETATM   33  C19 UNL     1       2.013   4.565  -0.568  1.00  0.00     0.027 A 
HETATM   34  C20 UNL     1       2.433   3.445  -1.251  1.00  0.00     0.029 A 
HETATM   35  C21 UNL     1       3.648   2.743  -0.958  1.00  0.00     0.011 A 
HETATM   36  C22 UNL     1       4.504   3.136   0.043  1.00  0.00    -0.040 A 
HETATM   37  C23 UNL     1       4.103   4.248   0.737  1.00  0.00     0.011 A 
HETATM   38  C24 UNL     1       2.882   4.941   0.431  1.00  0.00     0.029 A 
HETATM   39  C25 UNL     1       5.772   2.436   0.374  1.00  0.00     0.161 C 
HETATM   40  N9  UNL     1       5.836   1.775   1.671  1.00  0.00    -0.357 N 
ATOM     41  H9  UNL     1       6.659   1.961   2.244  1.00  0.00     0.162 HD
HETATM   42  C26 UNL     1       4.879   0.913   2.201  1.00  0.00     0.219 C 
HETATM   43  O3  UNL     1       4.420   1.137   3.382  1.00  0.00    -0.274 OA
HETATM   44  C27 UNL     1       4.288  -0.289   1.552  1.00  0.00     0.122 C 
HETATM   45  C28 UNL     1       5.091  -0.843   0.426  1.00  0.00     0.125 C 
ENDROOT
BRANCH  19  46
HETATM   46  C10 UNL     1      -6.137  -1.508  -0.330  1.00  0.00     0.298 C 
BRANCH  46  47
HETATM   47  C11 UNL     1      -7.295  -1.004   0.515  1.00  0.00     0.194 C 
BRANCH  47  48
HETATM   48  O1  UNL     1      -8.519  -1.271  -0.094  1.00  0.00    -0.399 OA
ATOM     49  H1  UNL     1      -9.243  -0.956   0.434  1.00  0.00     0.209 HD
ENDBRANCH  47  48
ENDBRANCH  46  47
ENDBRANCH  19  46
TORSDOF 3
