REMARK  11 active torsions:
REMARK  status: ('A' for Active; 'I' for Inactive)
REMARK    1  A    between atoms: N2_5  and  C3_6 
REMARK    2  A    between atoms: C3_6  and  C4_7 
REMARK    3  A    between atoms: C4_7  and  N3_8 
REMARK    4  A    between atoms: C6_13  and  N4_14 
REMARK    5  A    between atoms: N4_14  and  C7_16 
REMARK    6  A    between atoms: C7_16  and  C8_17 
REMARK    7  A    between atoms: C8_17  and  S1_18 
REMARK    8  A    between atoms: S1_18  and  N5_19 
REMARK    9  A    between atoms: N7_27  and  C10_29 
REMARK   10  A    between atoms: C10_29  and  C11_30 
REMARK   11  A    between atoms: C11_30  and  O4_31 
ROOT
HETATM    1  C1  UNL     1      -3.541   1.756  -2.286  1.00  0.00     0.163 C 
HETATM    2  N1  UNL     1      -2.160   1.736  -1.824  1.00  0.00    -0.287 N 
HETATM    3  C2  UNL     1      -1.176   2.589  -2.103  1.00  0.00     0.330 A 
HETATM    4  O1  UNL     1      -1.243   3.609  -2.839  1.00  0.00    -0.246 OA
HETATM    5  N2  UNL     1      -0.033   2.216  -1.471  1.00  0.00    -0.291 N 
HETATM    6  C5  UNL     1      -0.343   1.101  -0.790  1.00  0.00     0.128 A 
HETATM    7  C6  UNL     1       0.374   0.252   0.037  1.00  0.00     0.148 A 
HETATM    8  N6  UNL     1      -0.235  -0.805   0.579  1.00  0.00    -0.175 N 
ATOM      9  H6  UNL     1       0.311  -1.418   1.184  1.00  0.00     0.186 HD
HETATM   10  C9  UNL     1      -1.528  -1.106   0.371  1.00  0.00     0.681 A 
HETATM   11  N7  UNL     1      -2.039  -2.153   0.938  1.00  0.00    -0.224 N 
ATOM     12  H7  UNL     1      -1.482  -2.758   1.541  1.00  0.00     0.177 HD
HETATM   13  N8  UNL     1      -2.240  -0.301  -0.423  1.00  0.00    -0.174 N 
ATOM     14  H8  UNL     1      -3.224  -0.506  -0.599  1.00  0.00     0.186 HD
HETATM   15  C12 UNL     1      -1.673   0.775  -0.992  1.00  0.00     0.158 A 
ENDROOT
BRANCH   7  16
HETATM   16  N4  UNL     1       1.616   0.523   0.247  1.00  0.00    -0.373 N 
ATOM     17  H4  UNL     1       2.002   1.350  -0.209  1.00  0.00     0.161 HD
BRANCH  16  18
HETATM   18  C7  UNL     1       2.491  -0.246   1.069  1.00  0.00     0.138 C 
BRANCH  18  19
HETATM   19  C8  UNL     1       3.055  -1.474   0.378  1.00  0.00     0.182 C 
BRANCH  19  20
HETATM   20  S1  UNL     1       4.115  -2.280   1.586  1.00  0.00     0.226 S 
HETATM   21  O2  UNL     1       5.232  -1.314   1.925  1.00  0.00    -0.206 OA
HETATM   22  O3  UNL     1       4.806  -3.667   0.938  1.00  0.00    -0.206 OA
BRANCH  20  23
HETATM   23  N5  UNL     1       3.348  -2.566   2.899  1.00  0.00    -0.328 N 
ATOM     24  H52 UNL     1       2.368  -2.323   3.045  1.00  0.00     0.168 HD
ATOM     25  H51 UNL     1       3.949  -3.023   3.584  1.00  0.00     0.168 HD
ENDBRANCH  20  23
ENDBRANCH  19  20
ENDBRANCH  18  19
ENDBRANCH  16  18
ENDBRANCH   7  16
BRANCH   5  26
HETATM   26  C3  UNL     1       1.242   2.898  -1.537  1.00  0.00     0.161 C 
BRANCH  26  27
HETATM   27  C4  UNL     1       1.272   3.931  -0.410  1.00  0.00     0.250 C 
BRANCH  27  28
HETATM   28  N3  UNL     1       2.523   4.659  -0.402  1.00  0.00    -0.078 N 
ATOM     29  H33 UNL     1       3.324   4.029  -0.355  1.00  0.00     0.274 HD
ATOM     30  H32 UNL     1       2.714   5.087  -1.308  1.00  0.00     0.274 HD
ATOM     31  H31 UNL     1       2.543   5.348   0.350  1.00  0.00     0.274 HD
ENDBRANCH  27  28
ENDBRANCH  26  27
ENDBRANCH   5  26
BRANCH  11  32
HETATM   32  C10 UNL     1      -3.438  -2.424   0.675  1.00  0.00     0.164 C 
BRANCH  32  33
HETATM   33  C11 UNL     1      -3.840  -3.734   1.333  1.00  0.00     0.184 C 
BRANCH  33  34
HETATM   34  O4  UNL     1      -3.034  -4.727   0.780  1.00  0.00    -0.399 OA
ATOM     35  H4  UNL     1      -3.285  -5.546   1.191  1.00  0.00     0.209 HD
ENDBRANCH  33  34
ENDBRANCH  32  33
ENDBRANCH  11  32
TORSDOF 11
