REMARK  11 active torsions:
REMARK  status: ('A' for Active; 'I' for Inactive)
REMARK    1  A    between atoms: C2_3  and  N2_4 
REMARK    2  A    between atoms: N2_4  and  C3_6 
REMARK    3  A    between atoms: C4_7  and  C5_8 
REMARK    4  A    between atoms: C5_8  and  C6_9 
REMARK    5  A    between atoms: C7_11  and  C8_12 
REMARK    6  A    between atoms: C8_12  and  O1_13 
REMARK    7  A    between atoms: O1_13  and  C9_14 
REMARK    8  A    between atoms: C9_14  and  C10_15 
REMARK    9  A    between atoms: C10_15  and  O2_16 
REMARK   10  A    between atoms: C10_15  and  C11_18 
REMARK   11  A    between atoms: C11_18  and  O3_19 
ROOT
HETATM    1  N1  UNL     1      -7.158   1.531  -1.289  1.00  0.00    -0.191 NA
HETATM    2  C1  UNL     1      -6.006   1.570  -1.327  1.00  0.00     0.105 C 
HETATM    3  C2  UNL     1      -4.559   1.647  -1.377  1.00  0.00     0.183 C 
ENDROOT
BRANCH   3   4
HETATM    4  N2  UNL     1      -3.886   0.393  -1.307  1.00  0.00    -0.351 N 
ATOM      5  H2  UNL     1      -3.283   0.115  -2.082  1.00  0.00     0.166 HD
BRANCH   4   6
HETATM    6  C3  UNL     1      -4.024  -0.485  -0.196  1.00  0.00     0.128 A 
HETATM    7  C4  UNL     1      -3.155  -0.293   0.886  1.00  0.00     0.070 A 
HETATM    8  N4  UNL     1      -3.285  -1.125   1.922  1.00  0.00    -0.306 N 
HETATM    9  C13 UNL     1      -4.190  -2.116   1.974  1.00  0.00     0.327 A 
ATOM     10  H4  UNL     1      -2.661  -1.001   2.720  1.00  0.00     0.171 HD
HETATM   11  O5  UNL     1      -4.294  -2.883   2.956  1.00  0.00    -0.247 OA
HETATM   12  N5  UNL     1      -5.026  -2.288   0.916  1.00  0.00    -0.274 N 
HETATM   13  C14 UNL     1      -4.962  -1.493  -0.168  1.00  0.00     0.278 A 
ATOM     14  H5  UNL     1      -5.718  -3.037   0.944  1.00  0.00     0.173 HD
HETATM   15  O6  UNL     1      -5.753  -1.690  -1.123  1.00  0.00    -0.265 OA
BRANCH   7  16
HETATM   16  C5  UNL     1      -2.180   0.774   0.829  1.00  0.00     0.056 C 
BRANCH  16  17
HETATM   17  C6  UNL     1      -0.929   0.516   0.428  1.00  0.00     0.077 A 
HETATM   18  S1  UNL     1      -0.218  -0.962  -0.067  1.00  0.00    -0.065 SA
HETATM   19  C7  UNL     1       1.351  -0.386  -0.389  1.00  0.00     0.099 A 
HETATM   20  N3  UNL     1       1.263   0.908  -0.105  1.00  0.00    -0.315 N 
HETATM   21  C12 UNL     1       0.126   1.384   0.308  1.00  0.00     0.263 A 
ATOM     22  H3  UNL     1       2.074   1.518  -0.209  1.00  0.00     0.170 HD
HETATM   23  O4  UNL     1      -0.070   2.630   0.613  1.00  0.00    -0.267 OA
BRANCH  19  24
HETATM   24  C8  UNL     1       2.421  -1.077  -0.826  1.00  0.00     0.172 C 
BRANCH  24  25
HETATM   25  O1  UNL     1       3.636  -0.451  -1.039  1.00  0.00    -0.358 OA
BRANCH  25  26
HETATM   26  C9  UNL     1       4.765  -0.977  -0.366  1.00  0.00     0.208 C 
BRANCH  26  27
HETATM   27  C10 UNL     1       6.017  -0.215  -0.677  1.00  0.00     0.165 C 
BRANCH  27  28
HETATM   28  O2  UNL     1       7.061  -0.819   0.037  1.00  0.00    -0.391 OA
ATOM     29  H2  UNL     1       7.855  -0.336  -0.160  1.00  0.00     0.210 HD
ENDBRANCH  27  28
BRANCH  27  30
HETATM   30  C11 UNL     1       5.957   1.222  -0.271  1.00  0.00     0.198 C 
BRANCH  30  31
HETATM   31  O3  UNL     1       4.965   1.938  -0.905  1.00  0.00    -0.398 OA
ATOM     32  H3  UNL     1       4.927   2.851  -0.647  1.00  0.00     0.209 HD
ENDBRANCH  30  31
ENDBRANCH  27  30
ENDBRANCH  26  27
ENDBRANCH  25  26
ENDBRANCH  24  25
ENDBRANCH  19  24
ENDBRANCH  16  17
ENDBRANCH   7  16
ENDBRANCH   4   6
ENDBRANCH   3   4
TORSDOF 11
