REMARK  9 active torsions:
REMARK  status: ('A' for Active; 'I' for Inactive)
REMARK    1  A    between atoms: O1_2  and  C2_3 
REMARK    2  A    between atoms: C2_3  and  C3_5 
REMARK    3  A    between atoms: C3_5  and  C4_6 
REMARK    4  A    between atoms: C4_6  and  N1_7 
REMARK       I    between atoms: N1_7  and  C5_9 
REMARK    5  A    between atoms: C5_9  and  C6_11 
REMARK    6  A    between atoms: C6_11  and  N2_12 
REMARK       I    between atoms: N2_12  and  C7_13 
REMARK    7  A    between atoms: C7_13  and  C8_15 
REMARK    8  A    between atoms: C8_15  and  N3_16 
REMARK    9  A    between atoms: C13_28  and  N6_29 
ROOT
HETATM    1  N3  UNL     1      -3.227  -0.635  -1.317  1.00  0.00    -0.274 N 
HETATM    2  C9  UNL     1      -3.703  -1.649  -2.098  1.00  0.00     0.331 A 
HETATM    3  O5  UNL     1      -3.174  -1.819  -3.222  1.00  0.00    -0.246 OA
HETATM    4  N4  UNL     1      -4.697  -2.442  -1.698  1.00  0.00    -0.274 N 
ATOM      5  H4  UNL     1      -5.010  -3.184  -2.324  1.00  0.00     0.173 HD
HETATM    6  C10 UNL     1      -5.304  -2.307  -0.508  1.00  0.00     0.269 A 
HETATM    7  O6  UNL     1      -6.235  -3.052  -0.141  1.00  0.00    -0.267 OA
HETATM    8  C11 UNL     1      -4.852  -1.297   0.304  1.00  0.00     0.145 A 
HETATM    9  C12 UNL     1      -5.431  -1.093   1.568  1.00  0.00     0.279 A 
HETATM   10  O7  UNL     1      -6.369  -1.837   1.940  1.00  0.00    -0.266 OA
HETATM   11  N5  UNL     1      -4.974  -0.104   2.359  1.00  0.00    -0.155 N 
ATOM     12  H5  UNL     1      -5.395   0.041   3.277  1.00  0.00     0.187 HD
HETATM   13  C13 UNL     1      -3.971   0.695   1.956  1.00  0.00     0.680 A 
HETATM   14  N7  UNL     1      -3.415   0.489   0.722  1.00  0.00    -0.175 N 
ATOM     15  H7  UNL     1      -2.655   1.099   0.421  1.00  0.00     0.186 HD
HETATM   16  C14 UNL     1      -3.824  -0.474  -0.101  1.00  0.00     0.149 A 
ENDROOT
BRANCH   1  17
HETATM   17  C8  UNL     1      -2.144   0.192  -1.765  1.00  0.00     0.254 C 
BRANCH  17  18
HETATM   18  C7  UNL     1      -0.844  -0.424  -1.231  1.00  0.00     0.309 C 
HETATM   19  N2  UNL     1       0.358   0.190  -1.473  1.00  0.00    -0.377 NA
HETATM   20  O4  UNL     1      -1.038  -1.478  -0.596  1.00  0.00    -0.255 OA
BRANCH  19  21
HETATM   21  C6  UNL     1       1.548   0.798  -1.713  1.00  0.00     0.260 C 
BRANCH  21  22
HETATM   22  C5  UNL     1       2.261   1.211  -0.452  1.00  0.00     0.270 C 
HETATM   23  N1  UNL     1       3.514   1.838  -0.448  1.00  0.00    -0.355 N 
ATOM     24  H1  UNL     1       3.963   2.019  -1.346  1.00  0.00     0.162 HD
HETATM   25  O3  UNL     1       1.682   0.968   0.623  1.00  0.00    -0.266 OA
BRANCH  23  26
HETATM   26  C4  UNL     1       4.207   2.243   0.749  1.00  0.00     0.132 C 
BRANCH  26  27
HETATM   27  C3  UNL     1       4.506   1.131   1.697  1.00  0.00     0.130 C 
BRANCH  27  28
HETATM   28  C2  UNL     1       5.344   0.085   1.060  1.00  0.00     0.259 C 
HETATM   29  O2  UNL     1       5.740  -0.923   1.732  1.00  0.00    -0.265 OA
BRANCH  28  30
HETATM   30  O1  UNL     1       5.738   0.133  -0.269  1.00  0.00    -0.326 OA
HETATM   31  C1  UNL     1       6.541  -0.904  -0.829  1.00  0.00     0.213 C 
ENDBRANCH  28  30
ENDBRANCH  27  28
ENDBRANCH  26  27
ENDBRANCH  23  26
ENDBRANCH  21  22
ENDBRANCH  19  21
ENDBRANCH  17  18
ENDBRANCH   1  17
BRANCH  13  32
HETATM   32  N6  UNL     1      -3.495   1.657   2.659  1.00  0.00    -0.234 N 
ATOM     33  H62 UNL     1      -3.909   1.810   3.578  1.00  0.00     0.174 HD
ATOM     34  H61 UNL     1      -2.734   2.263   2.353  1.00  0.00     0.174 HD
ENDBRANCH  13  32
TORSDOF 9
