REMARK  9 active torsions:
REMARK  status: ('A' for Active; 'I' for Inactive)
REMARK    1  A    between atoms: O1_2  and  N1_3 
REMARK    2  A    between atoms: C2_5  and  N2_6 
REMARK    3  A    between atoms: C2_5  and  C4_10 
REMARK       I    between atoms: C4_10  and  N4_12 
REMARK    4  A    between atoms: N5_17  and  O3_19 
REMARK    5  A    between atoms: C9_21  and  C10_22 
REMARK    6  A    between atoms: C10_22  and  O4_23 
REMARK    7  A    between atoms: C11_25  and  N6_26 
REMARK       I    between atoms: N6_26  and  C12_28 
REMARK    8  A    between atoms: C12_28  and  C13_30 
REMARK    9  A    between atoms: C13_30  and  N7_31 
REMARK       I    between atoms: N7_31  and  C14_33 
ROOT
HETATM    1  N2  UNL     1      -2.760  -1.041  -2.049  1.00  0.00    -0.273 N 
ATOM      2  H2  UNL     1      -2.148  -0.226  -2.005  1.00  0.00     0.180 HD
HETATM    3  C3  UNL     1      -3.116  -1.568  -3.306  1.00  0.00     0.183 C 
HETATM    4  N3  UNL     1      -3.424  -1.996  -4.333  1.00  0.00    -0.172 NA
ENDROOT
BRANCH   1   5
HETATM    5  C2  UNL     1      -3.230  -1.614  -0.852  1.00  0.00     0.203 C 
HETATM    6  N1  UNL     1      -4.401  -2.157  -0.871  1.00  0.00    -0.246 N 
ATOM      7  H1  UNL     1      -4.951  -2.161  -1.730  1.00  0.00     0.196 HD
BRANCH   6   8
HETATM    8  O1  UNL     1      -4.896  -2.723   0.262  1.00  0.00    -0.284 OA
HETATM    9  C1  UNL     1      -5.780  -3.829   0.222  1.00  0.00     0.237 C 
ENDBRANCH   6   8
BRANCH   5  10
HETATM   10  C4  UNL     1      -2.400  -1.575   0.336  1.00  0.00     0.292 C 
HETATM   11  O2  UNL     1      -2.855  -2.097   1.383  1.00  0.00    -0.264 OA
HETATM   12  N4  UNL     1      -1.148  -0.976   0.291  1.00  0.00    -0.325 N 
HETATM   13  C5  UNL     1      -0.831   0.224   0.430  1.00  0.00     0.019 C 
ATOM     14  H4  UNL     1      -0.370  -1.612   0.118  1.00  0.00     0.169 HD
HETATM   15  C6  UNL     1      -1.717   1.388   0.690  1.00  0.00     0.109 C 
HETATM   16  C11 UNL     1       0.536   0.788   0.368  1.00  0.00     0.142 C 
HETATM   17  C7  UNL     1      -0.820   2.477   1.126  1.00  0.00     0.024 C 
HETATM   18  N5  UNL     1      -1.078   3.712   1.196  1.00  0.00    -0.275 N 
HETATM   19  C9  UNL     1       0.454   1.825   1.469  1.00  0.00     0.085 C 
ATOM     20  H5  UNL     1      -0.330   4.323   1.524  1.00  0.00     0.193 HD
BRANCH  18  21
HETATM   21  O3  UNL     1      -2.260   4.302   0.875  1.00  0.00    -0.285 OA
HETATM   22  C8  UNL     1      -2.463   5.179  -0.196  1.00  0.00     0.237 C 
ENDBRANCH  18  21
BRANCH  19  23
HETATM   23  C10 UNL     1       1.625   2.771   1.451  1.00  0.00     0.177 C 
BRANCH  23  24
HETATM   24  O4  UNL     1       1.401   3.777   2.369  1.00  0.00    -0.400 OA
ATOM     25  H4  UNL     1       2.140   4.374   2.358  1.00  0.00     0.209 HD
ENDBRANCH  23  24
ENDBRANCH  19  23
BRANCH  16  26
HETATM   26  N6  UNL     1       1.547  -0.196   0.608  1.00  0.00    -0.349 N 
HETATM   27  C12 UNL     1       2.561  -0.431  -0.321  1.00  0.00     0.235 C 
HETATM   28  O5  UNL     1       2.637   0.201  -1.399  1.00  0.00    -0.272 OA
ATOM     29  H6  UNL     1       1.526  -0.735   1.474  1.00  0.00     0.163 HD
BRANCH  27  30
HETATM   30  C13 UNL     1       3.587  -1.457  -0.037  1.00  0.00     0.225 C 
BRANCH  30  31
HETATM   31  N7  UNL     1       4.549  -1.556  -1.110  1.00  0.00    -0.356 N 
HETATM   32  C14 UNL     1       5.601  -2.487  -1.004  1.00  0.00     0.182 C 
HETATM   33  N8  UNL     1       6.182  -2.950  -2.057  1.00  0.00    -0.374 N 
HETATM   34  N9  UNL     1       6.024  -2.920   0.270  1.00  0.00    -0.064 NA
ATOM     35  H82 UNL     1       5.876  -2.637  -2.978  1.00  0.00     0.158 HD
ATOM     36  H81 UNL     1       6.944  -3.624  -1.980  1.00  0.00     0.158 HD
ATOM     37  H7  UNL     1       4.468  -0.960  -1.934  1.00  0.00     0.162 HD
ENDBRANCH  30  31
ENDBRANCH  27  30
ENDBRANCH  16  26
ENDBRANCH   5  10
ENDBRANCH   1   5
TORSDOF 9
