REMARK  4 active torsions:
REMARK  status: ('A' for Active; 'I' for Inactive)
REMARK    1  A    between atoms: C2_5  and  C3_6 
REMARK    2  A    between atoms: C3_6  and  N3_7 
REMARK    3  A    between atoms: C3_6  and  N4_11 
REMARK    4  A    between atoms: C4_17  and  N6_18 
REMARK       I    between atoms: N6_18  and  C5_20 
ROOT
HETATM    1  C1  UNL     1      -0.770   3.040  -0.415  1.00  0.00     0.197 C 
HETATM    2  N1  UNL     1      -0.171   1.733  -0.167  1.00  0.00    -0.127 N 
HETATM    3  N2  UNL     1       1.111   1.406  -0.175  1.00  0.00    -0.269 N 
ATOM      4  H2  UNL     1       1.881   2.048  -0.363  1.00  0.00     0.189 HD
HETATM    5  C2  UNL     1       1.243   0.097   0.103  1.00  0.00     0.170 A 
HETATM    6  N5  UNL     1      -0.006  -0.364   0.282  1.00  0.00    -0.174 N 
ATOM      7  H5  UNL     1      -0.252  -1.327   0.509  1.00  0.00     0.185 HD
HETATM    8  C4  UNL     1      -0.876   0.638   0.116  1.00  0.00     0.702 A 
ENDROOT
BRANCH   5   9
HETATM    9  C3  UNL     1       2.494  -0.690   0.198  1.00  0.00     0.446 C 
BRANCH   9  10
HETATM   10  N3  UNL     1       2.397  -1.964  -0.492  1.00  0.00    -0.043 N 
ATOM     11  H33 UNL     1       1.597  -2.503  -0.160  1.00  0.00     0.277 HD
ATOM     12  H32 UNL     1       2.115  -1.836  -1.464  1.00  0.00     0.277 HD
ATOM     13  H31 UNL     1       3.259  -2.506  -0.427  1.00  0.00     0.277 HD
ENDBRANCH   9  10
BRANCH   9  14
HETATM   14  N4  UNL     1       3.575   0.067  -0.422  1.00  0.00    -0.043 N 
ATOM     15  H43 UNL     1       3.359   0.340  -1.381  1.00  0.00     0.277 HD
ATOM     16  H42 UNL     1       3.672   1.002  -0.026  1.00  0.00     0.277 HD
ATOM     17  H41 UNL     1       4.437  -0.475  -0.357  1.00  0.00     0.277 HD
ENDBRANCH   9  14
ENDBRANCH   5   9
BRANCH   8  18
HETATM   18  N6  UNL     1      -2.182   0.581   0.210  1.00  0.00    -0.162 N 
HETATM   19  C5  UNL     1      -2.807  -0.655   0.519  1.00  0.00     0.200 C 
HETATM   20  N7  UNL     1      -3.194  -0.834   1.730  1.00  0.00    -0.373 N 
HETATM   21  N8  UNL     1      -2.973  -1.620  -0.509  1.00  0.00    -0.063 NA
ATOM     22  H72 UNL     1      -3.075  -0.141   2.469  1.00  0.00     0.158 HD
ATOM     23  H71 UNL     1      -3.643  -1.722   1.952  1.00  0.00     0.158 HD
ATOM     24  H6  UNL     1      -2.745   1.419   0.062  1.00  0.00     0.187 HD
ENDBRANCH   8  18
TORSDOF 4
