REMARK  3 active torsions:
REMARK  status: ('A' for Active; 'I' for Inactive)
REMARK    1  A    between atoms: N1_1  and  C1_4 
REMARK    2  A    between atoms: N3_9  and  N4_10 
REMARK    3  A    between atoms: C4_15  and  C5_16 
ROOT
HETATM    1  C1  UNL     1       0.838   1.136   0.222  1.00  0.00     0.121 A 
HETATM    2  N2  UNL     1      -0.201   1.986   0.245  1.00  0.00    -0.292 N 
ATOM      3  H2  UNL     1      -0.029   2.981   0.388  1.00  0.00     0.172 HD
HETATM    4  C2  UNL     1      -1.473   1.550   0.082  1.00  0.00     0.348 A 
HETATM    5  O1  UNL     1      -2.462   2.337   0.101  1.00  0.00    -0.245 OA
HETATM    6  N3  UNL     1      -1.679   0.217  -0.107  1.00  0.00    -0.197 N 
HETATM    7  C3  UNL     1      -0.647  -0.657  -0.134  1.00  0.00     0.161 A 
HETATM    8  N5  UNL     1      -0.909  -2.028  -0.333  1.00  0.00    -0.079 NA
HETATM    9  C4  UNL     1       0.646  -0.213   0.032  1.00  0.00     0.116 A 
ENDROOT
BRANCH   1  10
HETATM   10  N1  UNL     1       2.047   1.567   0.379  1.00  0.00    -0.384 N 
ATOM     11  H12 UNL     1       2.189   2.567   0.520  1.00  0.00     0.157 HD
ATOM     12  H11 UNL     1       2.836   0.921   0.362  1.00  0.00     0.157 HD
ENDBRANCH   1  10
BRANCH   9  13
HETATM   13  C5  UNL     1       1.751  -1.168   0.001  1.00  0.00     0.272 C 
HETATM   14  N6  UNL     1       3.064  -0.654   0.178  1.00  0.00    -0.057 NA
HETATM   15  O2  UNL     1       1.585  -2.392  -0.171  1.00  0.00    -0.271 OA
ENDBRANCH   9  13
BRANCH   6  16
HETATM   16  N4  UNL     1      -2.967  -0.278  -0.279  1.00  0.00    -0.333 N 
ATOM     17  H42 UNL     1      -3.745   0.381  -0.259  1.00  0.00     0.177 HD
ATOM     18  H41 UNL     1      -3.121  -1.276  -0.421  1.00  0.00     0.177 HD
ENDBRANCH   6  16
TORSDOF 3
