REMARK  18 active torsions:
REMARK  status: ('A' for Active; 'I' for Inactive)
REMARK       I    between atoms: N2_3  and  C2_5 
REMARK       I    between atoms: C2_5  and  N3_6 
REMARK       I    between atoms: C2_5  and  N5_10 
REMARK    1  A    between atoms: N5_10  and  N6_12 
REMARK    2  A    between atoms: N6_12  and  C4_14 
REMARK    3  A    between atoms: C6_18  and  N8_19 
REMARK    4  A    between atoms: C7_24  and  S1_25 
REMARK    5  A    between atoms: S1_25  and  C8_26 
REMARK    6  A    between atoms: C8_26  and  C9_27 
REMARK    7  A    between atoms: C9_27  and  S2_28 
REMARK    8  A    between atoms: S2_28  and  S3_29 
REMARK    9  A    between atoms: S3_29  and  C10_30 
REMARK   10  A    between atoms: C10_30  and  C11_31 
REMARK   11  A    between atoms: C11_31  and  N10_32 
REMARK   12  A    between atoms: C13_38  and  N12_39 
REMARK   13  A    between atoms: N13_43  and  N14_44 
REMARK   14  A    between atoms: N15_48  and  C15_49 
REMARK   15  A    between atoms: C16_51  and  C17_52 
REMARK   16  A    between atoms: C17_52  and  O3_53 
REMARK   17  A    between atoms: C18_55  and  O4_56 
REMARK   18  A    between atoms: C19_58  and  O5_59 
ROOT
HETATM    1  N1  UNL     1      -8.475   0.393  -0.873  1.00  0.00    -0.171 NA
HETATM    2  C1  UNL     1      -8.018   1.426  -0.710  1.00  0.00     0.196 C 
HETATM    3  N2  UNL     1      -7.438   2.685  -0.518  1.00  0.00    -0.124 N 
ATOM      4  H2  UNL     1      -7.949   3.421  -0.031  1.00  0.00     0.197 HD
HETATM    5  C2  UNL     1      -6.235   2.904  -0.971  1.00  0.00     0.715 C 
HETATM    6  N3  UNL     1      -5.709   4.201  -0.742  1.00  0.00    -0.124 N 
ATOM      7  H3  UNL     1      -5.290   4.388   0.169  1.00  0.00     0.197 HD
HETATM    8  C3  UNL     1      -5.723   5.240  -1.674  1.00  0.00     0.196 C 
HETATM    9  N4  UNL     1      -5.722   6.089  -2.446  1.00  0.00    -0.171 NA
HETATM   10  N5  UNL     1      -5.516   1.888  -1.651  1.00  0.00    -0.116 N 
ATOM     11  H5  UNL     1      -5.539   1.903  -2.671  1.00  0.00     0.206 HD
ENDROOT
BRANCH  10  12
HETATM   12  N6  UNL     1      -4.788   0.882  -1.051  1.00  0.00    -0.117 N 
ATOM     13  H6  UNL     1      -5.290   0.054  -0.730  1.00  0.00     0.206 HD
BRANCH  12  14
HETATM   14  C4  UNL     1      -3.513   0.924  -0.871  1.00  0.00     0.708 A 
HETATM   15  N7  UNL     1      -2.755   1.936  -1.240  1.00  0.00    -0.182 N 
HETATM   16  C5  UNL     1      -1.500   1.655  -0.913  1.00  0.00     0.140 A 
ATOM     17  H7  UNL     1      -3.077   2.789  -1.698  1.00  0.00     0.184 HD
HETATM   18  C6  UNL     1      -0.312   2.327  -1.053  1.00  0.00     0.132 A 
HETATM   19  C14 UNL     1      -1.514   0.386  -0.306  1.00  0.00     0.185 A 
HETATM   20  N9  UNL     1       0.827   1.794  -0.624  1.00  0.00    -0.320 N 
HETATM   21  C7  UNL     1       0.841   0.587  -0.042  1.00  0.00     0.168 A 
ATOM     22  H9  UNL     1       1.700   2.309  -0.739  1.00  0.00     0.169 HD
HETATM   23  N13 UNL     1      -0.322  -0.078   0.099  1.00  0.00    -0.220 N 
HETATM   24  N15 UNL     1      -2.779  -0.077  -0.278  1.00  0.00    -0.107 N 
BRANCH  18  25
HETATM   25  N8  UNL     1      -0.322   3.512  -1.621  1.00  0.00    -0.383 N 
ATOM     26  H82 UNL     1      -1.196   3.921  -1.950  1.00  0.00     0.157 HD
ATOM     27  H81 UNL     1       0.561   4.012  -1.725  1.00  0.00     0.157 HD
ENDBRANCH  18  25
BRANCH  21  28
HETATM   28  S1  UNL     1       2.378  -0.131   0.535  1.00  0.00    -0.091 SA
BRANCH  28  29
HETATM   29  C8  UNL     1       3.175  -1.087  -0.774  1.00  0.00     0.093 C 
BRANCH  29  30
HETATM   30  C9  UNL     1       3.646  -0.263  -1.915  1.00  0.00     0.097 C 
BRANCH  30  31
HETATM   31  S2  UNL     1       4.952   0.901  -1.635  1.00  0.00    -0.097 SA
BRANCH  31  32
HETATM   32  S3  UNL     1       4.603   2.384  -0.206  1.00  0.00    -0.096 SA
BRANCH  32  33
HETATM   33  C10 UNL     1       5.251   1.894   1.406  1.00  0.00     0.105 C 
BRANCH  33  34
HETATM   34  C11 UNL     1       6.782   1.894   1.307  1.00  0.00     0.133 C 
BRANCH  34  35
HETATM   35  N10 UNL     1       7.144   0.958   0.276  1.00  0.00    -0.362 N 
HETATM   36  C12 UNL     1       8.244   0.252   0.439  1.00  0.00     0.212 A 
HETATM   37  O1  UNL     1       8.750  -0.632  -0.350  1.00  0.00    -0.210 OA
HETATM   38  S4  UNL     1       9.379   0.246   1.719  1.00  0.00    -0.007 SA
HETATM   39  N11 UNL     1       9.802  -1.230  -0.074  1.00  0.00    -0.236 N 
HETATM   40  C13 UNL     1      10.427  -0.945   1.075  1.00  0.00     0.166 A 
ATOM     41  H11 UNL     1      10.184  -1.928  -0.713  1.00  0.00     0.197 HD
ATOM     42  H10 UNL     1       6.566   0.844  -0.557  1.00  0.00     0.162 HD
BRANCH  40  43
HETATM   43  N12 UNL     1      11.541  -1.469   1.534  1.00  0.00    -0.378 N 
ATOM     44 2H12 UNL     1      12.165  -2.179   1.150  1.00  0.00     0.158 HD
ATOM     45 1H12 UNL     1      12.017  -1.252   2.409  1.00  0.00     0.158 HD
ENDBRANCH  40  43
ENDBRANCH  34  35
ENDBRANCH  33  34
ENDBRANCH  32  33
ENDBRANCH  31  32
ENDBRANCH  30  31
ENDBRANCH  29  30
ENDBRANCH  28  29
ENDBRANCH  21  28
BRANCH  23  46
HETATM   46  N14 UNL     1      -0.239  -1.320   0.708  1.00  0.00    -0.335 N 
ATOM     47 2H14 UNL     1       0.667  -1.673   1.016  1.00  0.00     0.177 HD
ATOM     48 1H14 UNL     1      -1.120  -1.824   0.815  1.00  0.00     0.177 HD
ENDBRANCH  23  46
BRANCH  24  49
HETATM   49  C15 UNL     1      -3.261  -1.291   0.235  1.00  0.00     0.175 C 
HETATM   50  O2  UNL     1      -2.781  -2.479  -0.233  1.00  0.00    -0.326 OA
HETATM   51  C16 UNL     1      -3.342  -3.454   0.562  1.00  0.00     0.185 C 
HETATM   52  C18 UNL     1      -3.746  -2.869   1.871  1.00  0.00     0.186 C 
HETATM   53  C19 UNL     1      -3.509  -1.378   1.715  1.00  0.00     0.225 C 
BRANCH  51  54
HETATM   54  C17 UNL     1      -4.428  -4.256  -0.109  1.00  0.00     0.199 C 
BRANCH  54  55
HETATM   55  O3  UNL     1      -5.505  -3.485  -0.530  1.00  0.00    -0.398 OA
ATOM     56  H3  UNL     1      -6.189  -3.990  -0.953  1.00  0.00     0.209 HD
ENDBRANCH  54  55
ENDBRANCH  51  54
BRANCH  52  57
HETATM   57  O4  UNL     1      -3.018  -3.372   2.951  1.00  0.00    -0.390 OA
ATOM     58  H4  UNL     1      -3.276  -2.999   3.786  1.00  0.00     0.210 HD
ENDBRANCH  52  57
BRANCH  53  59
HETATM   59  O5  UNL     1      -4.721  -0.752   2.083  1.00  0.00    -0.385 OA
ATOM     60  H5  UNL     1      -4.878  -0.807   3.018  1.00  0.00     0.210 HD
ENDBRANCH  53  59
ENDBRANCH  24  49
ENDBRANCH  12  14
ENDBRANCH  10  12
TORSDOF 18
