REMARK  16 active torsions:
REMARK  status: ('A' for Active; 'I' for Inactive)
REMARK    1  A    between atoms: C3_3  and  N1_4 
REMARK    2  A    between atoms: N1_4  and  C4_6 
REMARK    3  A    between atoms: C4_6  and  C5_7 
REMARK    4  A    between atoms: C5_7  and  N2_8 
REMARK    5  A    between atoms: C7_10  and  C8_11 
REMARK    6  A    between atoms: C11_15  and  O2_16 
REMARK    7  A    between atoms: C13_23  and  C14_24 
REMARK    8  A    between atoms: C14_24  and  N5_25 
REMARK    9  A    between atoms: C17_32  and  N8_33 
REMARK   10  A    between atoms: C19_35  and  C20_36 
REMARK   11  A    between atoms: C20_36  and  N9_37 
REMARK   12  A    between atoms: C20_36  and  C21_41 
REMARK   13  A    between atoms: C21_41  and  C22_42 
REMARK   14  A    between atoms: C24_53  and  N14_54 
REMARK   15  A    between atoms: N15_57  and  N16_58 
REMARK   16  A    between atoms: N17_64  and  O6_66 
ROOT
HETATM    1  N2  UNL     1      -2.003   1.546   0.231  1.00  0.00    -0.342 N 
HETATM    2  C6  UNL     1      -1.849   2.900   0.174  1.00  0.00     0.124 A 
HETATM    3  C7  UNL     1      -0.621   3.253   0.676  1.00  0.00     0.076 A 
HETATM    4  N4  UNL     1      -0.025   2.100   1.041  1.00  0.00    -0.341 N 
ATOM      5  H4  UNL     1       0.904   2.015   1.453  1.00  0.00     0.167 HD
HETATM    6  C13 UNL     1      -0.874   1.063   0.766  1.00  0.00     0.102 A 
ENDROOT
BRANCH   6   7
HETATM    7  C14 UNL     1      -0.589  -0.375   0.999  1.00  0.00     0.208 C 
BRANCH   7   8
HETATM    8  N5  UNL     1       0.221  -0.817  -0.113  1.00  0.00    -0.319 N 
HETATM    9  C15 UNL     1      -0.214  -1.317  -1.272  1.00  0.00     0.186 A 
HETATM   10  N6  UNL     1       0.835  -1.618  -2.073  1.00  0.00    -0.335 N 
HETATM   11  C16 UNL     1       1.969  -1.303  -1.416  1.00  0.00     0.167 A 
ATOM     12  H6  UNL     1       0.777  -2.014  -3.011  1.00  0.00     0.168 HD
HETATM   13  N7  UNL     1       3.314  -1.264  -1.434  1.00  0.00    -0.171 N 
HETATM   14  C23 UNL     1       1.564  -0.798  -0.178  1.00  0.00     0.169 A 
HETATM   15  C17 UNL     1       3.780  -0.763  -0.277  1.00  0.00     0.705 A 
ATOM     16  H7  UNL     1       3.896  -1.571  -2.213  1.00  0.00     0.186 HD
HETATM   17  N12 UNL     1       2.718  -0.486   0.471  1.00  0.00    -0.171 N 
ATOM     18  H12 UNL     1       2.762  -0.091   1.410  1.00  0.00     0.186 HD
BRANCH  15  19
HETATM   19  N8  UNL     1       5.168  -0.579   0.048  1.00  0.00    -0.080 N 
HETATM   20  C18 UNL     1       6.231  -0.932  -0.680  1.00  0.00     0.161 A 
HETATM   21  C19 UNL     1       7.352  -0.567   0.007  1.00  0.00     0.072 A 
HETATM   22  N10 UNL     1       6.943   0.007   1.152  1.00  0.00    -0.284 N 
HETATM   23  N11 UNL     1       5.623  -0.012   1.152  1.00  0.00    -0.001 NA
ATOM     24  H10 UNL     1       7.542   0.387   1.885  1.00  0.00     0.184 HD
BRANCH  21  25
HETATM   25  C20 UNL     1       8.761  -0.766  -0.430  1.00  0.00     0.245 C 
BRANCH  25  26
HETATM   26  N9  UNL     1       8.959  -0.405  -1.819  1.00  0.00    -0.069 N 
ATOM     27  H93 UNL     1       8.310  -0.905  -2.426  1.00  0.00     0.275 HD
ATOM     28  H92 UNL     1       8.648   0.549  -2.000  1.00  0.00     0.275 HD
ATOM     29  H91 UNL     1       9.924  -0.541  -2.118  1.00  0.00     0.275 HD
ENDBRANCH  25  26
BRANCH  25  30
HETATM   30  C21 UNL     1       9.091  -2.227  -0.246  1.00  0.00     0.152 C 
BRANCH  30  31
HETATM   31  C22 UNL     1      10.509  -2.444  -0.683  1.00  0.00     0.174 C 
HETATM   32  O3  UNL     1      10.983  -3.600  -0.603  1.00  0.00    -0.648 OA
HETATM   33  O4  UNL     1      11.299  -1.433  -1.163  1.00  0.00    -0.648 OA
ENDBRANCH  30  31
ENDBRANCH  25  30
ENDBRANCH  21  25
ENDBRANCH  15  19
ENDBRANCH   7   8
ENDBRANCH   6   7
BRANCH   1  34
HETATM   34  C5  UNL     1      -3.213   0.879  -0.211  1.00  0.00     0.149 C 
BRANCH  34  35
HETATM   35  C4  UNL     1      -4.198   0.825   0.933  1.00  0.00     0.141 C 
BRANCH  35  36
HETATM   36  N1  UNL     1      -5.445   0.191   0.611  1.00  0.00    -0.374 N 
ATOM     37  H1  UNL     1      -6.267   0.793   0.571  1.00  0.00     0.161 HD
BRANCH  36  38
HETATM   38  C3  UNL     1      -5.651  -1.177   0.345  1.00  0.00     0.125 C 
HETATM   39  C2  UNL     1      -6.931  -1.579   0.026  1.00  0.00     0.017 C 
HETATM   40  C1  UNL     1      -7.891  -0.491  -0.202  1.00  0.00     0.055 C 
HETATM   41  C26 UNL     1      -7.388  -2.882  -0.102  1.00  0.00     0.134 C 
HETATM   42  C25 UNL     1      -6.674  -4.046  -0.283  1.00  0.00     0.310 C 
HETATM   43  N17 UNL     1      -8.656  -3.021  -0.042  1.00  0.00    -0.263 N 
HETATM   44  N15 UNL     1      -5.322  -4.142  -0.359  1.00  0.00    -0.052 N 
HETATM   45  O5  UNL     1      -7.317  -5.122  -0.391  1.00  0.00    -0.263 OA
HETATM   46  C24 UNL     1      -4.379  -3.211  -0.097  1.00  0.00     0.701 C 
HETATM   47  N13 UNL     1      -4.561  -1.974   0.453  1.00  0.00    -0.175 N 
ATOM     48  H13 UNL     1      -3.788  -1.609   1.009  1.00  0.00     0.186 HD
ATOM     49  H17 UNL     1      -9.215  -2.178   0.093  1.00  0.00     0.194 HD
BRANCH  44  50
HETATM   50  N16 UNL     1      -4.826  -5.384  -0.766  1.00  0.00    -0.321 N 
ATOM     51 2H16 UNL     1      -3.810  -5.456  -0.823  1.00  0.00     0.178 HD
ATOM     52 1H16 UNL     1      -5.538  -6.087  -0.964  1.00  0.00     0.178 HD
ENDBRANCH  44  50
BRANCH  46  53
HETATM   53  N14 UNL     1      -3.176  -3.514  -0.391  1.00  0.00    -0.233 N 
ATOM     54 2H14 UNL     1      -2.464  -2.811  -0.193  1.00  0.00     0.174 HD
ATOM     55 1H14 UNL     1      -3.040  -4.438  -0.802  1.00  0.00     0.174 HD
ENDBRANCH  46  53
BRANCH  43  56
HETATM   56  O6  UNL     1      -9.318  -4.200  -0.143  1.00  0.00    -0.289 OA
ATOM     57  H6  UNL     1     -10.261  -4.303  -0.098  1.00  0.00     0.244 HD
ENDBRANCH  43  56
ENDBRANCH  36  38
ENDBRANCH  35  36
ENDBRANCH  34  35
ENDBRANCH   1  34
BRANCH   3  58
HETATM   58  C8  UNL     1      -0.069   4.596   0.793  1.00  0.00     0.064 A 
HETATM   59  C9  UNL     1      -0.795   5.669   0.381  1.00  0.00     0.089 A 
HETATM   60  C10 UNL     1      -0.343   6.977   0.459  1.00  0.00     0.208 A 
HETATM   61  O1  UNL     1      -1.056   7.928   0.063  1.00  0.00    -0.285 OA
HETATM   62  C11 UNL     1       0.907   7.168   0.986  1.00  0.00     0.131 A 
HETATM   63  C12 UNL     1       1.640   6.062   1.405  1.00  0.00     0.129 A 
HETATM   64  N3  UNL     1       1.156   4.798   1.308  1.00  0.00    -0.361 N 
ATOM     65  H3  UNL     1       1.718   4.007   1.624  1.00  0.00     0.165 HD
BRANCH  62  66
HETATM   66  O2  UNL     1       1.430   8.449   1.098  1.00  0.00    -0.356 OA
ATOM     67  H2  UNL     1       2.297   8.581   1.463  1.00  0.00     0.218 HD
ENDBRANCH  62  66
ENDBRANCH   3  58
TORSDOF 16
