REMARK  13 active torsions:
REMARK  status: ('A' for Active; 'I' for Inactive)
REMARK    1  A    between atoms: C3_6  and  O1_7 
REMARK    2  A    between atoms: O1_7  and  C4_8 
REMARK    3  A    between atoms: C4_8  and  C5_9 
REMARK    4  A    between atoms: C5_9  and  C6_10 
REMARK    5  A    between atoms: N3_12  and  C8_13 
REMARK    6  A    between atoms: C8_13  and  C9_14 
REMARK    7  A    between atoms: C12_17  and  N4_18 
REMARK       I    between atoms: N4_18  and  C13_19 
REMARK    8  A    between atoms: N4_18  and  C17_39 
REMARK    9  A    between atoms: C13_19  and  C14_21 
REMARK   10  A    between atoms: N7_26  and  C15_27 
REMARK   11  A    between atoms: C16_33  and  N10_34 
REMARK   12  A    between atoms: C25_59  and  N17_60 
REMARK   13  A    between atoms: C26_67  and  N20_68 
ROOT
HETATM    1  N1  UNL     1       8.140  -3.094   3.049  1.00  0.00    -0.188 NA
HETATM    2  C1  UNL     1       8.411  -2.086   2.541  1.00  0.00     0.137 C 
HETATM    3  C2  UNL     1       8.768  -0.835   1.926  1.00  0.00     0.205 A 
HETATM    4  N2  UNL     1       8.105  -0.426   0.841  1.00  0.00    -0.298 N 
ATOM      5  H2  UNL     1       7.354  -1.001   0.460  1.00  0.00     0.171 HD
HETATM    6  C3  UNL     1       8.421   0.735   0.250  1.00  0.00     0.239 A 
HETATM    7  N19 UNL     1       9.434   1.499   0.775  1.00  0.00    -0.155 N 
ATOM      8  H19 UNL     1       9.685   2.385   0.336  1.00  0.00     0.188 HD
HETATM    9  C26 UNL     1      10.090   1.081   1.860  1.00  0.00     0.681 A 
HETATM   10  N21 UNL     1       9.750  -0.090   2.431  1.00  0.00    -0.167 N 
ATOM     11  H21 UNL     1      10.250  -0.410   3.260  1.00  0.00     0.186 HD
ENDROOT
BRANCH   6  12
HETATM   12  O1  UNL     1       7.776   1.203  -0.864  1.00  0.00    -0.321 OA
BRANCH  12  13
HETATM   13  C4  UNL     1       6.728   0.593  -1.542  1.00  0.00     0.185 C 
BRANCH  13  14
HETATM   14  C5  UNL     1       5.516   0.435  -0.688  1.00  0.00     0.086 C 
BRANCH  14  15
HETATM   15  C6  UNL     1       4.431  -0.227  -1.498  1.00  0.00     0.044 A 
HETATM   16  C7  UNL     1       3.478   0.388  -2.274  1.00  0.00     0.135 A 
HETATM   17  N3  UNL     1       2.718  -0.580  -2.809  1.00  0.00    -0.188 N 
HETATM   18  C25 UNL     1       3.178  -1.758  -2.384  1.00  0.00     0.678 A 
HETATM   19  N18 UNL     1       4.232  -1.551  -1.576  1.00  0.00    -0.194 N 
ATOM     20  H18 UNL     1       4.781  -2.271  -1.107  1.00  0.00     0.184 HD
BRANCH  17  21
HETATM   21  C8  UNL     1       1.579  -0.338  -3.692  1.00  0.00     0.185 C 
BRANCH  21  22
HETATM   22  C9  UNL     1       0.312  -0.136  -2.932  1.00  0.00    -0.039 A 
HETATM   23  C10 UNL     1      -0.515  -1.187  -2.660  1.00  0.00     0.011 A 
HETATM   24  C11 UNL     1      -1.672  -0.990  -1.961  1.00  0.00     0.031 A 
HETATM   25  C12 UNL     1      -2.099   0.246  -1.481  1.00  0.00     0.044 A 
HETATM   26  C23 UNL     1      -1.254   1.293  -1.766  1.00  0.00     0.031 A 
HETATM   27  C24 UNL     1      -0.058   1.114  -2.483  1.00  0.00     0.011 A 
BRANCH  25  28
HETATM   28  N4  UNL     1      -3.319   0.394  -0.792  1.00  0.00    -0.260 N 
HETATM   29  C13 UNL     1      -3.643   1.488   0.004  1.00  0.00     0.301 C 
HETATM   30  O2  UNL     1      -2.784   2.399   0.203  1.00  0.00    -0.263 OA
BRANCH  29  31
HETATM   31  C14 UNL     1      -4.977   1.646   0.640  1.00  0.00     0.207 A 
HETATM   32  N5  UNL     1      -6.053   0.859   0.598  1.00  0.00    -0.264 N 
HETATM   33  N6  UNL     1      -7.009   1.408   1.316  1.00  0.00    -0.218 N 
ATOM     34  H5  UNL     1      -6.123  -0.024   0.092  1.00  0.00     0.190 HD
HETATM   35  N7  UNL     1      -6.564   2.565   1.836  1.00  0.00    -0.158 N 
ATOM     36  H6  UNL     1      -7.941   1.017   1.456  1.00  0.00     0.210 HD
HETATM   37  N11 UNL     1      -5.322   2.680   1.405  1.00  0.00    -0.255 N 
ATOM     38  H11 UNL     1      -4.705   3.461   1.629  1.00  0.00     0.191 HD
BRANCH  35  39
HETATM   39  C15 UNL     1      -7.334   3.426   2.666  1.00  0.00     0.214 A 
HETATM   40  N8  UNL     1      -8.556   3.880   2.438  1.00  0.00    -0.219 N 
HETATM   41  O3  UNL     1      -8.926   4.642   3.425  1.00  0.00    -0.153 OA
ATOM     42  H8  UNL     1      -9.120   3.666   1.616  1.00  0.00     0.198 HD
HETATM   43  N9  UNL     1      -7.967   4.706   4.316  1.00  0.00    -0.222 N 
HETATM   44  C16 UNL     1      -6.938   3.951   3.876  1.00  0.00     0.171 A 
ATOM     45  H9  UNL     1      -7.993   5.234   5.189  1.00  0.00     0.198 HD
BRANCH  44  46
HETATM   46  N10 UNL     1      -5.827   3.792   4.513  1.00  0.00    -0.381 N 
ATOM     47 2H10 UNL     1      -5.050   3.222   4.181  1.00  0.00     0.157 HD
ATOM     48 1H10 UNL     1      -5.534   4.181   5.409  1.00  0.00     0.157 HD
ENDBRANCH  44  46
ENDBRANCH  35  39
ENDBRANCH  29  31
BRANCH  28  49
HETATM   49  C17 UNL     1      -4.252  -0.688  -0.957  1.00  0.00     0.136 A 
HETATM   50  N12 UNL     1      -5.070  -0.672  -2.023  1.00  0.00    -0.337 N 
HETATM   51  C18 UNL     1      -5.954  -1.663  -2.233  1.00  0.00     0.183 A 
ATOM     52  H12 UNL     1      -5.019   0.104  -2.683  1.00  0.00     0.168 HD
HETATM   53  N13 UNL     1      -6.043  -2.699  -1.380  1.00  0.00    -0.337 N 
HETATM   54  C19 UNL     1      -5.254  -2.759  -0.308  1.00  0.00     0.141 A 
ATOM     55  H13 UNL     1      -6.718  -3.443  -1.555  1.00  0.00     0.168 HD
HETATM   56  N14 UNL     1      -5.334  -3.792   0.559  1.00  0.00    -0.176 N 
HETATM   57  C22 UNL     1      -4.328  -1.736  -0.073  1.00  0.00     0.121 A 
HETATM   58  C20 UNL     1      -4.551  -3.873   1.647  1.00  0.00     0.680 A 
ATOM     59  H14 UNL     1      -6.011  -4.534   0.382  1.00  0.00     0.186 HD
HETATM   60  N15 UNL     1      -4.668  -4.875   2.438  1.00  0.00    -0.234 N 
HETATM   61  N16 UNL     1      -3.646  -2.918   1.919  1.00  0.00    -0.155 N 
ATOM     62 2H15 UNL     1      -5.355  -5.600   2.231  1.00  0.00     0.174 HD
ATOM     63 1H15 UNL     1      -4.073  -4.937   3.264  1.00  0.00     0.174 HD
HETATM   64  C21 UNL     1      -3.539  -1.860   1.063  1.00  0.00     0.277 A 
ATOM     65  H16 UNL     1      -3.053  -2.982   2.746  1.00  0.00     0.187 HD
HETATM   66  O4  UNL     1      -2.704  -0.988   1.323  1.00  0.00    -0.266 OA
ENDBRANCH  28  49
ENDBRANCH  25  28
ENDBRANCH  21  22
ENDBRANCH  17  21
BRANCH  18  67
HETATM   67  N17 UNL     1       2.729  -2.955  -2.678  1.00  0.00    -0.234 N 
ATOM     68 2H17 UNL     1       1.929  -3.112  -3.291  1.00  0.00     0.174 HD
ATOM     69 1H17 UNL     1       3.081  -3.856  -2.353  1.00  0.00     0.174 HD
ENDBRANCH  18  67
ENDBRANCH  14  15
ENDBRANCH  13  14
ENDBRANCH  12  13
ENDBRANCH   6  12
BRANCH   9  70
HETATM   70  N20 UNL     1      11.059   1.786   2.383  1.00  0.00    -0.234 N 
ATOM     71 2H20 UNL     1      11.317   2.673   1.950  1.00  0.00     0.174 HD
ATOM     72 1H20 UNL     1      11.560   1.467   3.212  1.00  0.00     0.174 HD
ENDBRANCH   9  70
TORSDOF 13
