REMARK  23 active torsions:
REMARK  status: ('A' for Active; 'I' for Inactive)
REMARK    1  A    between atoms: C2_2  and  O1_3 
REMARK    2  A    between atoms: O1_3  and  C3_4 
REMARK    3  A    between atoms: C3_4  and  C4_6 
REMARK    4  A    between atoms: C5_8  and  O4_9 
REMARK    5  A    between atoms: O4_9  and  C6_10 
REMARK    6  A    between atoms: C7_11  and  C8_12 
REMARK    7  A    between atoms: N1_13  and  O5_15 
REMARK    8  A    between atoms: O5_15  and  C9_16 
REMARK    9  A    between atoms: C9_16  and  C10_17 
REMARK   10  A    between atoms: C10_17  and  O6_18 
REMARK   11  A    between atoms: C10_17  and  C11_20 
REMARK   12  A    between atoms: C11_20  and  O7_21 
REMARK   13  A    between atoms: C11_20  and  C12_23 
REMARK   14  A    between atoms: C12_23  and  O8_24 
REMARK   15  A    between atoms: C15_28  and  O9_29 
REMARK   16  A    between atoms: C16_31  and  O10_32 
REMARK   17  A    between atoms: C19_37  and  O12_38 
REMARK   18  A    between atoms: O12_38  and  C20_39 
REMARK   19  A    between atoms: C22_41  and  O13_42 
REMARK   20  A    between atoms: C23_44  and  O14_45 
REMARK   21  A    between atoms: C26_49  and  O15_50 
REMARK   22  A    between atoms: C29_54  and  O16_55 
REMARK   23  A    between atoms: C29_54  and  O17_57 
ROOT
HETATM    1  C4  UNL     1      -1.406   1.252  -1.322  1.00  0.00     0.260 C 
HETATM    2  O3  UNL     1      -0.548   1.837  -0.384  1.00  0.00    -0.342 OA
HETATM    3  C5  UNL     1       0.453   0.971   0.047  1.00  0.00     0.274 C 
HETATM    4  C17 UNL     1      -0.241   0.007   0.963  1.00  0.00     0.142 C 
HETATM    5  C18 UNL     1      -1.263  -0.705   0.155  1.00  0.00     0.163 C 
HETATM    6  O11 UNL     1      -1.302  -1.915   0.251  1.00  0.00    -0.295 OA
HETATM    7  C19 UNL     1      -2.165   0.111  -0.716  1.00  0.00     0.238 C 
ENDROOT
BRANCH   3   8
HETATM    8  O4  UNL     1       1.363   1.811   0.776  1.00  0.00    -0.316 OA
BRANCH   8   9
HETATM    9  C6  UNL     1       2.597   2.212   0.314  1.00  0.00     0.119 A 
HETATM   10  C7  UNL     1       3.720   1.458   0.570  1.00  0.00     0.018 A 
HETATM   11  C13 UNL     1       4.972   1.823   0.116  1.00  0.00     0.018 A 
HETATM   12  C14 UNL     1       5.140   2.983  -0.624  1.00  0.00     0.040 A 
HETATM   13  C15 UNL     1       4.062   3.744  -0.888  1.00  0.00     0.101 A 
HETATM   14  C16 UNL     1       2.781   3.377  -0.427  1.00  0.00     0.133 A 
BRANCH  10  15
HETATM   15  C8  UNL     1       3.606   0.268   1.395  1.00  0.00     0.128 C 
HETATM   16  N1  UNL     1       4.536  -0.497   1.680  1.00  0.00    -0.277 N 
ATOM     17  H1  UNL     1       4.181  -1.250   2.270  1.00  0.00     0.193 HD
BRANCH  16  18
HETATM   18  O5  UNL     1       5.816  -0.673   1.486  1.00  0.00    -0.278 OA
BRANCH  18  19
HETATM   19  C9  UNL     1       6.646  -1.366   2.431  1.00  0.00     0.235 C 
BRANCH  19  20
HETATM   20  C10 UNL     1       8.084  -1.396   1.932  1.00  0.00     0.175 C 
BRANCH  20  21
HETATM   21  O6  UNL     1       8.580  -0.100   1.773  1.00  0.00    -0.391 OA
ATOM     22  H6  UNL     1       9.477  -0.119   1.462  1.00  0.00     0.210 HD
ENDBRANCH  20  21
BRANCH  20  23
HETATM   23  C11 UNL     1       8.110  -2.099   0.611  1.00  0.00     0.172 C 
BRANCH  23  24
HETATM   24  O7  UNL     1       7.629  -3.400   0.715  1.00  0.00    -0.391 OA
ATOM     25  H7  UNL     1       7.646  -3.846  -0.124  1.00  0.00     0.210 HD
ENDBRANCH  23  24
BRANCH  23  26
HETATM   26  C12 UNL     1       9.489  -2.141  -0.001  1.00  0.00     0.198 C 
BRANCH  26  27
HETATM   27  O8  UNL     1      10.040  -0.873  -0.136  1.00  0.00    -0.398 OA
ATOM     28  H8  UNL     1      10.908  -0.899  -0.521  1.00  0.00     0.209 HD
ENDBRANCH  26  27
ENDBRANCH  23  26
ENDBRANCH  20  23
ENDBRANCH  19  20
ENDBRANCH  18  19
ENDBRANCH  16  18
ENDBRANCH  10  15
BRANCH  13  29
HETATM   29  O9  UNL     1       4.193   4.919  -1.628  1.00  0.00    -0.358 OA
ATOM     30  H9  UNL     1       3.432   5.456  -1.814  1.00  0.00     0.217 HD
ENDBRANCH  13  29
BRANCH  14  31
HETATM   31  O10 UNL     1       1.739   4.201  -0.726  1.00  0.00    -0.356 OA
ATOM     32  H10 UNL     1       1.864   4.996  -1.231  1.00  0.00     0.218 HD
ENDBRANCH  14  31
ENDBRANCH   8   9
ENDBRANCH   3   8
BRANCH   1  33
HETATM   33  C3  UNL     1      -2.142   2.339  -1.925  1.00  0.00     0.291 C 
HETATM   34  O2  UNL     1      -2.893   2.292  -2.941  1.00  0.00    -0.262 OA
BRANCH  33  35
HETATM   35  O1  UNL     1      -2.040   3.627  -1.340  1.00  0.00    -0.320 OA
BRANCH  35  36
HETATM   36  C2  UNL     1      -2.740   4.745  -1.884  1.00  0.00     0.174 C 
HETATM   37  C1  UNL     1      -4.210   4.411  -1.821  1.00  0.00     0.034 C 
ENDBRANCH  35  36
ENDBRANCH  33  35
ENDBRANCH   1  33
BRANCH   7  38
HETATM   38  O12 UNL     1      -3.433   0.369  -0.200  1.00  0.00    -0.319 OA
BRANCH  38  39
HETATM   39  C20 UNL     1      -4.117  -0.657   0.480  1.00  0.00     0.157 C 
HETATM   40  C21 UNL     1      -5.161  -1.254  -0.068  1.00  0.00     0.064 A 
HETATM   41  C22 UNL     1      -5.638  -0.892  -1.321  1.00  0.00     0.115 A 
HETATM   42  C27 UNL     1      -5.772  -2.313   0.639  1.00  0.00     0.018 A 
HETATM   43  C23 UNL     1      -6.681  -1.522  -1.905  1.00  0.00     0.108 A 
HETATM   44  C24 UNL     1      -7.297  -2.557  -1.240  1.00  0.00     0.008 A 
HETATM   45  C25 UNL     1      -8.440  -3.227  -1.907  1.00  0.00     0.054 C 
HETATM   46  C26 UNL     1      -6.853  -2.944   0.004  1.00  0.00     0.085 A 
HETATM   47  C28 UNL     1      -5.354  -2.742   1.802  1.00  0.00     0.080 C 
HETATM   48  C29 UNL     1      -4.193  -2.138   2.465  1.00  0.00     0.267 C 
HETATM   49  N2  UNL     1      -3.650  -1.019   1.789  1.00  0.00    -0.312 N 
ATOM     50  H2  UNL     1      -2.920  -0.464   2.236  1.00  0.00     0.167 HD
BRANCH  41  51
HETATM   51  O13 UNL     1      -4.993   0.145  -1.929  1.00  0.00    -0.357 OA
ATOM     52  H13 UNL     1      -5.319   0.393  -2.786  1.00  0.00     0.217 HD
ENDBRANCH  41  51
BRANCH  43  53
HETATM   53  O14 UNL     1      -7.152  -1.144  -3.178  1.00  0.00    -0.357 OA
ATOM     54  H14 UNL     1      -7.885  -1.587  -3.589  1.00  0.00     0.217 HD
ENDBRANCH  43  53
BRANCH  46  55
HETATM   55  O15 UNL     1      -7.503  -3.989   0.637  1.00  0.00    -0.359 OA
ATOM     56  H15 UNL     1      -7.197  -4.256   1.496  1.00  0.00     0.217 HD
ENDBRANCH  46  55
BRANCH  48  57
HETATM   57  O16 UNL     1      -3.227  -3.119   2.755  1.00  0.00    -0.345 OA
ATOM     58  H16 UNL     1      -2.475  -2.728   3.184  1.00  0.00     0.215 HD
ENDBRANCH  48  57
BRANCH  48  59
HETATM   59  O17 UNL     1      -4.683  -1.640   3.707  1.00  0.00    -0.345 OA
ATOM     60  H17 UNL     1      -3.931  -1.249   4.136  1.00  0.00     0.215 HD
ENDBRANCH  48  59
ENDBRANCH  38  39
ENDBRANCH   7  38
TORSDOF 23
