REMARK  7 active torsions:
REMARK  status: ('A' for Active; 'I' for Inactive)
REMARK    1  A    between atoms: N1_2  and  C3_4 
REMARK    2  A    between atoms: C7_8  and  C8_9 
REMARK    3  A    between atoms: C8_9  and  C9_10 
REMARK    4  A    between atoms: C8_9  and  N3_17 
REMARK    5  A    between atoms: C16_20  and  N4_21 
REMARK    6  A    between atoms: N4_21  and  S1_23 
REMARK    7  A    between atoms: S1_23  and  C17_26 
ROOT
HETATM    1  N3  UNL     1      -0.441  -0.600  -0.126  1.00  0.00    -0.278 N 
HETATM    2  C15 UNL     1       0.856   0.017   0.026  1.00  0.00     0.257 A 
HETATM    3  O1  UNL     1       1.358   0.440   1.119  1.00  0.00    -0.270 OA
HETATM    4  C16 UNL     1       1.565   0.109  -1.255  1.00  0.00     0.221 A 
HETATM    5  C26 UNL     1       0.644  -0.622  -2.179  1.00  0.00     0.002 A 
HETATM    6  C27 UNL     1       0.784  -0.951  -3.515  1.00  0.00     0.012 A 
HETATM    7  C28 UNL     1      -0.222  -1.628  -4.174  1.00  0.00     0.001 A 
HETATM    8  C29 UNL     1      -1.386  -1.991  -3.521  1.00  0.00     0.002 A 
HETATM    9  C30 UNL     1      -1.508  -1.659  -2.205  1.00  0.00     0.031 A 
HETATM   10  C31 UNL     1      -0.503  -0.976  -1.521  1.00  0.00     0.051 A 
ENDROOT
BRANCH   4  11
HETATM   11  N4  UNL     1       1.668   1.504  -1.632  1.00  0.00    -0.297 N 
ATOM     12  H4  UNL     1       0.863   2.129  -1.664  1.00  0.00     0.173 HD
BRANCH  11  13
HETATM   13  S1  UNL     1       3.245   2.012  -2.017  1.00  0.00     0.261 S 
HETATM   14  O2  UNL     1       3.750   1.334  -3.272  1.00  0.00    -0.200 OA
HETATM   15  O3  UNL     1       3.157   3.490  -2.377  1.00  0.00    -0.200 OA
BRANCH  13  16
HETATM   16  C17 UNL     1       4.375   1.883  -0.714  1.00  0.00     0.102 A 
HETATM   17  C18 UNL     1       5.478   1.056  -0.753  1.00  0.00     0.040 A 
HETATM   18  C19 UNL     1       6.358   0.961   0.296  1.00  0.00    -0.008 A 
HETATM   19  C20 UNL     1       7.471   0.136   0.278  1.00  0.00     0.019 A 
HETATM   20  C23 UNL     1       6.147   1.712   1.438  1.00  0.00     0.047 A 
HETATM   21  C21 UNL     1       8.328   0.083   1.375  1.00  0.00     0.075 A 
HETATM   22  C22 UNL     1       8.078   0.847   2.485  1.00  0.00     0.245 A 
HETATM   23  O4  UNL     1       8.800   0.857   3.516  1.00  0.00    -0.268 OA
HETATM   24  N5  UNL     1       6.993   1.636   2.476  1.00  0.00    -0.323 N 
ATOM     25  H5  UNL     1       6.802   2.207   3.300  1.00  0.00     0.169 HD
HETATM   26  C24 UNL     1       5.055   2.550   1.511  1.00  0.00     0.056 A 
HETATM   27  C25 UNL     1       4.175   2.627   0.427  1.00  0.00     0.059 A 
HETATM   28 CL1  UNL     1       2.827   3.739   0.632  1.00  0.00    -0.083 Cl
ENDBRANCH  13  16
ENDBRANCH  11  13
ENDBRANCH   4  11
BRANCH   1  29
HETATM   29  C8  UNL     1      -1.383  -0.832   0.916  1.00  0.00     0.064 C 
BRANCH  29  30
HETATM   30  C7  UNL     1      -2.498   0.178   1.004  1.00  0.00    -0.006 A 
HETATM   31  C6  UNL     1      -3.053   0.411   2.275  1.00  0.00     0.014 A 
HETATM   32  C5  UNL     1      -4.055   1.311   2.512  1.00  0.00     0.003 A 
HETATM   33  C4  UNL     1      -4.562   2.037   1.466  1.00  0.00     0.029 A 
HETATM   34  C3  UNL     1      -4.035   1.827   0.213  1.00  0.00     0.030 A 
HETATM   35  C32 UNL     1      -3.007   0.900  -0.010  1.00  0.00     0.043 A 
BRANCH  34  36
HETATM   36  N1  UNL     1      -4.567   2.585  -0.874  1.00  0.00    -0.390 N 
HETATM   37  C1  UNL     1      -5.636   3.544  -0.666  1.00  0.00     0.149 C 
HETATM   38  C2  UNL     1      -4.053   2.418  -2.216  1.00  0.00     0.149 C 
ENDBRANCH  34  36
ENDBRANCH  29  30
BRANCH  29  39
HETATM   39  C9  UNL     1      -1.812  -2.202   1.139  1.00  0.00     0.008 A 
HETATM   40  C10 UNL     1      -0.829  -3.186   1.160  1.00  0.00     0.016 A 
HETATM   41  C11 UNL     1      -1.097  -4.512   1.364  1.00  0.00     0.018 A 
HETATM   42  C12 UNL     1      -2.422  -4.879   1.557  1.00  0.00     0.090 A 
HETATM   43  N2  UNL     1      -3.391  -3.931   1.539  1.00  0.00    -0.370 N 
HETATM   44  C13 UNL     1      -4.788  -4.300   1.741  1.00  0.00     0.154 C 
HETATM   45  C14 UNL     1      -3.103  -2.638   1.338  1.00  0.00     0.103 A 
ENDBRANCH  29  39
ENDBRANCH   1  29
TORSDOF 7
