REMARK  10 active torsions:
REMARK  status: ('A' for Active; 'I' for Inactive)
REMARK    1  A    between atoms: C2_2  and  C3_3 
REMARK    2  A    between atoms: C6_6  and  C7_7 
REMARK    3  A    between atoms: C7_7  and  C8_8 
REMARK    4  A    between atoms: C8_8  and  C9_9 
REMARK    5  A    between atoms: C12_14  and  C13_15 
REMARK    6  A    between atoms: C19_22  and  C20_23 
REMARK    7  A    between atoms: C20_23  and  C21_24 
REMARK    8  A    between atoms: C22_26  and  C23_27 
REMARK    9  A    between atoms: C23_27  and  C24_28 
REMARK   10  A    between atoms: C27_31  and  N1_32 
REMARK       I    between atoms: N1_32  and  C28_34 
ROOT
HETATM    1  C9  UNL     1      -3.452  -1.130   0.042  1.00  0.00    -0.003 C 
HETATM    2  C10 UNL     1      -2.421  -0.632   0.645  1.00  0.00     0.016 C 
HETATM    3  S1  UNL     1      -2.400   0.664   1.915  1.00  0.00    -0.047 SA
HETATM    4  C11 UNL     1      -1.018  -0.152   2.726  1.00  0.00     0.225 C 
HETATM    5  O1  UNL     1      -0.789  -0.192   3.936  1.00  0.00    -0.279 OA
HETATM    6  C12 UNL     1      -0.278  -0.733   1.571  1.00  0.00     0.043 C 
HETATM    7  C19 UNL     1      -0.939  -0.979   0.491  1.00  0.00    -0.002 C 
ENDROOT
BRANCH   7   8
HETATM    8  C20 UNL     1      -0.583  -1.294  -0.893  1.00  0.00     0.038 C 
BRANCH   8   9
HETATM    9  C21 UNL     1       0.532  -1.282  -1.575  1.00  0.00     0.075 A 
HETATM   10  S2  UNL     1       2.150  -0.895  -1.251  1.00  0.00    -0.067 SA
HETATM   11  C22 UNL     1       2.861  -1.185  -2.762  1.00  0.00     0.078 A 
HETATM   12  N2  UNL     1       1.815  -1.576  -3.474  1.00  0.00    -0.317 N 
HETATM   13  C32 UNL     1       0.646  -1.639  -2.928  1.00  0.00     0.263 A 
ATOM     14  H2  UNL     1       1.933  -1.828  -4.455  1.00  0.00     0.169 HD
HETATM   15  O3  UNL     1      -0.405  -2.015  -3.586  1.00  0.00    -0.267 OA
BRANCH  11  16
HETATM   16  C23 UNL     1       4.145  -1.056  -3.159  1.00  0.00     0.048 C 
BRANCH  16  17
HETATM   17  C24 UNL     1       5.168  -0.604  -2.234  1.00  0.00    -0.033 A 
HETATM   18  C25 UNL     1       5.622   0.696  -2.289  1.00  0.00     0.014 A 
HETATM   19  C26 UNL     1       6.592   1.146  -1.425  1.00  0.00     0.030 A 
HETATM   20  C27 UNL     1       7.175   0.329  -0.447  1.00  0.00     0.034 A 
HETATM   21  C30 UNL     1       6.705  -0.961  -0.413  1.00  0.00     0.030 A 
HETATM   22  C31 UNL     1       5.717  -1.431  -1.288  1.00  0.00     0.014 A 
BRANCH  20  23
HETATM   23  N1  UNL     1       8.166   0.854   0.404  1.00  0.00    -0.328 N 
HETATM   24  C28 UNL     1       8.833   0.231   1.460  1.00  0.00     0.218 C 
HETATM   25  C29 UNL     1       9.866   1.055   2.206  1.00  0.00     0.117 C 
HETATM   26  O2  UNL     1       8.664  -0.940   1.854  1.00  0.00    -0.274 OA
ATOM     27  H1  UNL     1       8.433   1.822   0.224  1.00  0.00     0.169 HD
ENDBRANCH  20  23
ENDBRANCH  16  17
ENDBRANCH  11  16
ENDBRANCH   8   9
ENDBRANCH   7   8
BRANCH   6  28
HETATM   28  C13 UNL     1       1.116  -1.169   1.909  1.00  0.00    -0.021 A 
HETATM   29  C14 UNL     1       1.502  -2.492   1.810  1.00  0.00     0.014 A 
HETATM   30  C15 UNL     1       2.746  -2.933   2.170  1.00  0.00     0.024 A 
HETATM   31  C16 UNL     1       3.655  -2.017   2.653  1.00  0.00     0.034 A 
HETATM   32 CL1  UNL     1       5.280  -2.479   3.144  1.00  0.00    -0.084 Cl
HETATM   33  C17 UNL     1       3.305  -0.669   2.769  1.00  0.00     0.024 A 
HETATM   34  C18 UNL     1       2.042  -0.276   2.394  1.00  0.00     0.014 A 
ENDBRANCH   6  28
BRANCH   1  35
HETATM   35  C8  UNL     1      -4.797  -0.599   0.409  1.00  0.00     0.056 C 
BRANCH  35  36
HETATM   36  C7  UNL     1      -5.479   0.018  -0.733  1.00  0.00    -0.012 C 
BRANCH  36  37
HETATM   37  C6  UNL     1      -6.572   0.736  -0.657  1.00  0.00    -0.040 A 
HETATM   38  C5  UNL     1      -7.168   1.293  -1.775  1.00  0.00     0.012 A 
HETATM   39  C4  UNL     1      -8.320   2.046  -1.676  1.00  0.00     0.012 A 
HETATM   40  C3  UNL     1      -8.924   2.274  -0.446  1.00  0.00    -0.040 A 
HETATM   41  C34 UNL     1      -8.335   1.723   0.668  1.00  0.00     0.012 A 
HETATM   42  C33 UNL     1      -7.171   0.962   0.565  1.00  0.00     0.012 A 
BRANCH  40  43
HETATM   43  C2  UNL     1     -10.042   3.007  -0.356  1.00  0.00    -0.020 C 
HETATM   44  C1  UNL     1     -10.683   3.602  -1.542  1.00  0.00     0.037 C 
ENDBRANCH  40  43
ENDBRANCH  36  37
ENDBRANCH  35  36
ENDBRANCH   1  35
TORSDOF 10
