REMARK  8 active torsions:
REMARK  status: ('A' for Active; 'I' for Inactive)
REMARK    1  A    between atoms: C2_2  and  N2_4 
REMARK       I    between atoms: N2_4  and  C3_5 
REMARK    2  A    between atoms: C3_5  and  C4_7 
REMARK    3  A    between atoms: C7_10  and  N3_11 
REMARK    4  A    between atoms: C15_20  and  C16_21 
REMARK    5  A    between atoms: C15_20  and  C22_27 
REMARK    6  A    between atoms: N4_33  and  C28_34 
REMARK    7  A    between atoms: C31_37  and  S1_38 
REMARK    8  A    between atoms: S1_38  and  N5_39 
ROOT
HETATM    1  C4  UNL     1       2.441  -1.458  -0.444  1.00  0.00     0.124 A 
HETATM    2  C5  UNL     1       1.850  -2.698  -0.447  1.00  0.00     0.041 A 
HETATM    3  C6  UNL     1       0.579  -2.506  -0.058  1.00  0.00     0.052 A 
HETATM    4  C7  UNL     1       0.365  -1.104   0.200  1.00  0.00     0.119 A 
HETATM    5  N4  UNL     1       1.530  -0.538  -0.053  1.00  0.00    -0.291 N 
ENDROOT
BRANCH   4   6
HETATM    6  N3  UNL     1      -0.910  -0.639   0.651  1.00  0.00    -0.276 N 
HETATM    7  C8  UNL     1      -1.174  -0.290   2.061  1.00  0.00     0.261 C 
HETATM    8  O2  UNL     1      -0.430   0.320   2.839  1.00  0.00    -0.267 OA
HETATM    9  C9  UNL     1      -2.536  -0.845   2.313  1.00  0.00     0.042 A 
HETATM   10  C10 UNL     1      -3.157  -1.165   3.526  1.00  0.00     0.018 A 
HETATM   11  C14 UNL     1      -2.950  -1.395   1.124  1.00  0.00    -0.004 A 
HETATM   12  C11 UNL     1      -4.201  -2.078   3.457  1.00  0.00     0.001 A 
HETATM   13  C12 UNL     1      -4.635  -2.665   2.288  1.00  0.00     0.001 A 
HETATM   14  C13 UNL     1      -3.977  -2.299   1.101  1.00  0.00     0.011 A 
HETATM   15  C15 UNL     1      -2.216  -0.522   0.102  1.00  0.00     0.125 C 
BRANCH  15  16
HETATM   16  C16 UNL     1      -2.526  -0.748  -1.259  1.00  0.00    -0.020 A 
HETATM   17  C17 UNL     1      -3.845  -0.935  -1.657  1.00  0.00     0.010 A 
HETATM   18  C18 UNL     1      -4.189  -1.155  -2.983  1.00  0.00     0.001 A 
HETATM   19  C19 UNL     1      -3.241  -1.202  -3.980  1.00  0.00     0.000 A 
HETATM   20  C20 UNL     1      -1.931  -1.018  -3.603  1.00  0.00     0.001 A 
HETATM   21  C21 UNL     1      -1.589  -0.794  -2.261  1.00  0.00     0.010 A 
ENDBRANCH  15  16
BRANCH  15  22
HETATM   22  C22 UNL     1      -2.813   0.853   0.451  1.00  0.00    -0.020 A 
HETATM   23  C23 UNL     1      -2.048   1.998   0.324  1.00  0.00     0.010 A 
HETATM   24  C24 UNL     1      -2.518   3.259   0.641  1.00  0.00     0.001 A 
HETATM   25  C25 UNL     1      -3.786   3.397   1.098  1.00  0.00     0.000 A 
HETATM   26  C26 UNL     1      -4.570   2.273   1.236  1.00  0.00     0.001 A 
HETATM   27  C27 UNL     1      -4.092   0.981   0.912  1.00  0.00     0.010 A 
ENDBRANCH  15  22
ENDBRANCH   4   6
BRANCH   5  28
HETATM   28  C28 UNL     1       1.936   0.831   0.056  1.00  0.00     0.041 A 
HETATM   29  C29 UNL     1       2.566   1.221   1.202  1.00  0.00     0.031 A 
HETATM   30  C30 UNL     1       3.018   2.507   1.337  1.00  0.00     0.027 A 
HETATM   31  C31 UNL     1       2.819   3.391   0.292  1.00  0.00     0.079 A 
HETATM   32  C32 UNL     1       2.186   3.021  -0.873  1.00  0.00     0.027 A 
HETATM   33  C33 UNL     1       1.743   1.699  -0.967  1.00  0.00     0.031 A 
BRANCH  31  34
HETATM   34  S1  UNL     1       3.457   5.015   0.527  1.00  0.00     0.256 S 
HETATM   35  O3  UNL     1       3.707   5.644  -0.819  1.00  0.00    -0.201 OA
HETATM   36  O4  UNL     1       4.729   4.883   1.298  1.00  0.00    -0.201 OA
BRANCH  34  37
HETATM   37  N5  UNL     1       2.297   5.925   1.423  1.00  0.00    -0.324 N 
ATOM     38  H52 UNL     1       1.400   5.569   1.753  1.00  0.00     0.169 HD
ATOM     39  H51 UNL     1       2.667   6.866   1.559  1.00  0.00     0.169 HD
ENDBRANCH  34  37
ENDBRANCH  31  34
ENDBRANCH   5  28
BRANCH   1  40
HETATM   40  C3  UNL     1       3.873  -1.277  -0.799  1.00  0.00     0.344 C 
HETATM   41  N2  UNL     1       4.713  -2.282  -1.047  1.00  0.00    -0.355 NA
HETATM   42  O1  UNL     1       4.270  -0.061  -0.853  1.00  0.00    -0.249 OA
BRANCH  41  43
HETATM   43  C2  UNL     1       5.458  -3.167  -1.269  1.00  0.00     0.166 C 
HETATM   44  C1  UNL     1       6.551  -3.136  -2.315  1.00  0.00     0.102 C 
HETATM   45  N1  UNL     1       5.437  -4.442  -0.549  1.00  0.00    -0.072 NA
ENDBRANCH  41  43
ENDBRANCH   1  40
TORSDOF 8
