REMARK  7 active torsions:
REMARK  status: ('A' for Active; 'I' for Inactive)
REMARK    1  A    between atoms: C3_4  and  N2_5 
REMARK       I    between atoms: N2_5  and  C4_7 
REMARK    2  A    between atoms: C4_7  and  C5_9 
REMARK    3  A    between atoms: C12_16  and  C13_17 
REMARK    4  A    between atoms: C13_17  and  N3_18 
REMARK    5  A    between atoms: N3_18  and  C14_19 
REMARK    6  A    between atoms: N3_18  and  S1_26 
REMARK    7  A    between atoms: S1_26  and  C20_29 
ROOT
HETATM    1  C5  UNL     1      -2.483  -0.992  -0.611  1.00  0.00     0.033 A 
HETATM    2  C6  UNL     1      -2.862  -0.944  -1.935  1.00  0.00     0.020 A 
HETATM    3  C7  UNL     1      -1.925  -0.669  -2.884  1.00  0.00     0.038 A 
HETATM    4  C8  UNL     1      -0.595  -0.438  -2.515  1.00  0.00     0.076 A 
HETATM    5  C9  UNL     1      -0.167  -0.474  -1.201  1.00  0.00    -0.022 A 
HETATM    6  C10 UNL     1      -1.184  -0.763  -0.276  1.00  0.00     0.027 A 
HETATM    7  C11 UNL     1       1.072  -0.293  -0.441  1.00  0.00     0.063 C 
HETATM    8  C12 UNL     1       2.372  -0.676  -1.160  1.00  0.00     0.098 C 
HETATM    9  C26 UNL     1       2.101  -0.632  -2.538  1.00  0.00    -0.146 C 
HETATM   10  C27 UNL     1       1.609  -0.499  -3.857  1.00  0.00     0.256 C 
HETATM   11  O4  UNL     1       0.178  -0.176  -3.677  1.00  0.00    -0.340 OA
ENDROOT
BRANCH   8  12
HETATM   12  C13 UNL     1       3.547   0.185  -0.765  1.00  0.00     0.099 C 
BRANCH  12  13
HETATM   13  N3  UNL     1       3.967   0.179   0.569  1.00  0.00    -0.250 N 
BRANCH  13  14
HETATM   14  C14 UNL     1       3.664   1.128   1.571  1.00  0.00     0.049 A 
HETATM   15  C15 UNL     1       2.637   0.962   2.495  1.00  0.00     0.034 A 
HETATM   16  C16 UNL     1       2.372   1.882   3.495  1.00  0.00     0.044 A 
HETATM   17  C17 UNL     1       3.132   3.022   3.614  1.00  0.00     0.116 A 
HETATM   18  F1  UNL     1       2.843   3.902   4.605  1.00  0.00    -0.206 F 
HETATM   19  C18 UNL     1       4.143   3.191   2.709  1.00  0.00     0.044 A 
HETATM   20  C19 UNL     1       4.429   2.296   1.708  1.00  0.00     0.034 A 
ENDBRANCH  13  14
BRANCH  13  21
HETATM   21  S1  UNL     1       5.053  -1.108   1.055  1.00  0.00     0.268 S 
HETATM   22  O2  UNL     1       5.335  -1.063   2.528  1.00  0.00    -0.200 OA
HETATM   23  O3  UNL     1       4.453  -2.453   0.780  1.00  0.00    -0.200 OA
BRANCH  21  24
HETATM   24  C20 UNL     1       6.497  -0.950   0.105  1.00  0.00     0.080 A 
HETATM   25  C21 UNL     1       7.582  -0.184   0.451  1.00  0.00     0.027 A 
HETATM   26  C22 UNL     1       8.699  -0.108  -0.351  1.00  0.00     0.028 A 
HETATM   27  C23 UNL     1       8.779  -0.800  -1.541  1.00  0.00     0.046 A 
HETATM   28  N4  UNL     1       9.883  -0.775  -2.416  1.00  0.00    -0.102 NA
HETATM   29  C24 UNL     1       7.678  -1.579  -1.895  1.00  0.00     0.028 A 
HETATM   30  C25 UNL     1       6.571  -1.643  -1.082  1.00  0.00     0.027 A 
ENDBRANCH  21  24
ENDBRANCH  13  21
ENDBRANCH  12  13
ENDBRANCH   8  12
BRANCH   1  31
HETATM   31  C4  UNL     1      -3.526  -1.298   0.378  1.00  0.00     0.257 C 
HETATM   32  N2  UNL     1      -4.836  -1.536  -0.036  1.00  0.00    -0.308 N 
ATOM     33  H2  UNL     1      -4.964  -2.323  -0.672  1.00  0.00     0.170 HD
HETATM   34  O1  UNL     1      -3.227  -1.343   1.595  1.00  0.00    -0.267 OA
BRANCH  32  35
HETATM   35  C3  UNL     1      -5.897  -0.897   0.278  1.00  0.00     0.124 A 
HETATM   36  C2  UNL     1      -5.900   0.190   1.125  1.00  0.00     0.139 A 
HETATM   37  N1  UNL     1      -7.057   0.842   1.421  1.00  0.00    -0.356 N 
HETATM   38  C1  UNL     1      -7.095   1.988   2.307  1.00  0.00     0.156 C 
HETATM   39  C33 UNL     1      -8.219   0.430   0.885  1.00  0.00     0.061 A 
HETATM   40  C28 UNL     1      -8.234  -0.648   0.042  1.00  0.00     0.060 A 
HETATM   41  C32 UNL     1      -9.412   1.096   1.181  1.00  0.00     0.032 A 
HETATM   42  N5  UNL     1      -7.083  -1.277  -0.237  1.00  0.00    -0.339 N 
HETATM   43  C29 UNL     1      -9.445  -1.059  -0.505  1.00  0.00     0.032 A 
ATOM     44  H5  UNL     1      -7.106  -2.079  -0.867  1.00  0.00     0.167 HD
HETATM   45  C30 UNL     1     -10.631  -0.430  -0.236  1.00  0.00     0.002 A 
HETATM   46  C31 UNL     1     -10.589   0.656   0.618  1.00  0.00     0.002 A 
ENDBRANCH  32  35
ENDBRANCH   1  31
TORSDOF 7
