REMARK  5 active torsions:
REMARK  status: ('A' for Active; 'I' for Inactive)
REMARK    1  A    between atoms: O1_2  and  C2_3 
REMARK    2  A    between atoms: C5_6  and  C6_7 
REMARK    3  A    between atoms: C19_23  and  C20_24 
REMARK    4  A    between atoms: C20_24  and  C21_25 
REMARK    5  A    between atoms: C33_43  and  O5_44 
ROOT
HETATM    1  C6  UNL     1       2.256  -0.615  -0.380  1.00  0.00     0.141 C 
HETATM    2  C7  UNL     1       2.899  -1.960  -0.355  1.00  0.00     0.004 C 
HETATM    3  C8  UNL     1       2.346  -3.086   0.058  1.00  0.00     0.010 C 
HETATM    4  C9  UNL     1       1.018  -3.399   0.595  1.00  0.00    -0.036 A 
HETATM    5  C10 UNL     1       1.148  -4.295   1.687  1.00  0.00     0.011 A 
HETATM    6  C11 UNL     1       0.092  -4.788   2.401  1.00  0.00     0.001 A 
HETATM    7  C12 UNL     1      -1.133  -4.354   1.988  1.00  0.00     0.007 A 
HETATM    8  C13 UNL     1      -1.328  -3.458   0.902  1.00  0.00    -0.057 A 
HETATM    9  C14 UNL     1      -0.253  -2.977   0.203  1.00  0.00     0.018 A 
HETATM   10  C15 UNL     1      -2.789  -3.206   0.724  1.00  0.00     0.052 C 
HETATM   11  C16 UNL     1      -3.387  -3.405  -0.618  1.00  0.00     0.078 C 
HETATM   12  C17 UNL     1      -3.897  -4.853  -0.782  1.00  0.00     0.020 C 
HETATM   13  C18 UNL     1      -4.467  -2.482  -0.998  1.00  0.00     0.222 C 
HETATM   14  O2  UNL     1      -5.666  -2.896  -0.806  1.00  0.00    -0.273 OA
HETATM   15  N1  UNL     1      -4.301  -1.204  -1.547  1.00  0.00    -0.347 N 
ATOM     16  H1  UNL     1      -4.834  -0.958  -2.381  1.00  0.00     0.163 HD
HETATM   17  C19 UNL     1      -3.394  -0.205  -0.975  1.00  0.00     0.181 C 
HETATM   18  C27 UNL     1      -2.851   0.689  -2.003  1.00  0.00     0.243 C 
HETATM   19  O3  UNL     1      -3.628   0.944  -2.988  1.00  0.00    -0.271 OA
HETATM   20  N2  UNL     1      -1.581   1.298  -2.038  1.00  0.00    -0.342 N 
HETATM   21  C28 UNL     1      -1.376   2.447  -2.948  1.00  0.00     0.153 C 
HETATM   22  C29 UNL     1      -0.423   0.917  -1.267  1.00  0.00     0.174 C 
HETATM   23  C30 UNL     1       0.042   2.183  -0.554  1.00  0.00     0.042 C 
HETATM   24  C31 UNL     1       0.675   0.380  -2.130  1.00  0.00     0.241 C 
HETATM   25  O4  UNL     1       0.554   0.651  -3.375  1.00  0.00    -0.271 OA
HETATM   26  N3  UNL     1       1.772  -0.357  -1.724  1.00  0.00    -0.347 N 
ATOM     27  H3  UNL     1       2.318  -0.779  -2.475  1.00  0.00     0.163 HD
ENDROOT
BRANCH   1  28
HETATM   28  C5  UNL     1       3.335   0.429  -0.170  1.00  0.00    -0.029 A 
HETATM   29  C4  UNL     1       4.226   0.624  -1.202  1.00  0.00     0.012 A 
HETATM   30  C3  UNL     1       5.240   1.538  -1.109  1.00  0.00     0.040 A 
HETATM   31  C2  UNL     1       5.366   2.276   0.044  1.00  0.00     0.101 A 
HETATM   32  C33 UNL     1       4.460   2.071   1.084  1.00  0.00     0.102 A 
HETATM   33  C32 UNL     1       3.452   1.148   0.966  1.00  0.00     0.049 A 
BRANCH  31  34
HETATM   34  O1  UNL     1       6.388   3.196   0.135  1.00  0.00    -0.353 OA
HETATM   35  C1  UNL     1       7.298   3.390  -0.925  1.00  0.00     0.210 C 
ENDBRANCH  31  34
BRANCH  32  36
HETATM   36  O5  UNL     1       4.658   2.856   2.210  1.00  0.00    -0.353 OA
HETATM   37  C34 UNL     1       3.771   2.697   3.301  1.00  0.00     0.210 C 
ENDBRANCH  32  36
ENDBRANCH   1  28
BRANCH  17  38
HETATM   38  C20 UNL     1      -4.196   0.484   0.087  1.00  0.00     0.073 C 
BRANCH  38  39
HETATM   39  C21 UNL     1      -3.548   1.545   0.827  1.00  0.00    -0.056 A 
HETATM   40  C22 UNL     1      -3.649   2.851   0.398  1.00  0.00     0.009 A 
HETATM   41  C23 UNL     1      -3.044   3.897   1.086  1.00  0.00     0.024 A 
HETATM   42  C24 UNL     1      -2.326   3.628   2.222  1.00  0.00     0.034 A 
HETATM   43 CL1  UNL     1      -1.552   4.952   3.105  1.00  0.00    -0.084 Cl
HETATM   44  C25 UNL     1      -2.216   2.328   2.664  1.00  0.00     0.024 A 
HETATM   45  C26 UNL     1      -2.828   1.285   1.965  1.00  0.00     0.009 A 
ENDBRANCH  38  39
ENDBRANCH  17  38
TORSDOF 5
