REMARK  5 active torsions:
REMARK  status: ('A' for Active; 'I' for Inactive)
REMARK    1  A    between atoms: C4_4  and  C5_5 
REMARK    2  A    between atoms: C5_5  and  C6_6 
REMARK    3  A    between atoms: C6_6  and  C7_7 
REMARK    4  A    between atoms: C7_7  and  C8_8 
REMARK    5  A    between atoms: C8_8  and  C9_9 
ROOT
HETATM    1  C6  UNL     1      -0.024  -1.325   1.414  1.00  0.00     0.005 C 
ENDROOT
BRANCH   1   2
HETATM    2  C5  UNL     1       1.309  -1.807   0.922  1.00  0.00     0.038 C 
BRANCH   2   3
HETATM    3  C4  UNL     1       2.203  -0.733   0.471  1.00  0.00    -0.058 A 
HETATM    4  C3  UNL     1       2.193  -0.313  -0.837  1.00  0.00     0.007 A 
HETATM    5  C2  UNL     1       2.999   0.684  -1.335  1.00  0.00     0.001 A 
HETATM    6  C1  UNL     1       3.878   1.306  -0.456  1.00  0.00     0.000 A 
HETATM    7  C13 UNL     1       3.914   0.910   0.864  1.00  0.00     0.001 A 
HETATM    8  C12 UNL     1       3.093  -0.093   1.326  1.00  0.00     0.007 A 
ENDBRANCH   2   3
ENDBRANCH   1   2
BRANCH   1   9
HETATM    9  C7  UNL     1      -0.810  -0.579   0.376  1.00  0.00     0.006 C 
BRANCH   9  10
HETATM   10  C8  UNL     1      -2.124  -0.166   1.041  1.00  0.00     0.053 C 
BRANCH  10  11
HETATM   11  C9  UNL     1      -2.980   0.596   0.056  1.00  0.00    -0.010 A 
HETATM   12  N1  UNL     1      -3.429   1.752   0.102  1.00  0.00    -0.376 N 
HETATM   13  C10 UNL     1      -4.073   1.687  -1.115  1.00  0.00     0.066 A 
ATOM     14  H1  UNL     1      -3.349   2.493   0.798  1.00  0.00     0.164 HD
HETATM   15  C11 UNL     1      -3.573   0.307  -1.236  1.00  0.00     0.097 A 
ENDBRANCH  10  11
ENDBRANCH   9  10
ENDBRANCH   1   9
TORSDOF 5
