REMARK  5 active torsions:
REMARK  status: ('A' for Active; 'I' for Inactive)
REMARK    1  A    between atoms: C5_5  and  C6_6 
REMARK    2  A    between atoms: C6_6  and  O1_7 
REMARK    3  A    between atoms: O1_7  and  C7_8 
REMARK    4  A    between atoms: C7_8  and  C8_9 
REMARK    5  A    between atoms: C8_9  and  C9_10 
ROOT
HETATM    1  C1  UNL     1      -4.107   0.118   0.423  1.00  0.00     0.000 C 
HETATM    2  C2  UNL     1      -3.375  -1.195   0.110  1.00  0.00     0.000 C 
HETATM    3  C3  UNL     1      -2.412  -0.892  -0.986  1.00  0.00     0.000 C 
HETATM    4  C4  UNL     1      -1.011  -0.565  -0.460  1.00  0.00     0.007 C 
HETATM    5  C5  UNL     1      -0.838   0.863  -0.121  1.00  0.00     0.009 C 
HETATM    6  C12 UNL     1      -2.161   1.592   0.074  1.00  0.00     0.007 C 
HETATM    7  C13 UNL     1      -3.042   0.985   1.110  1.00  0.00     0.000 C 
ENDROOT
BRANCH   5   8
HETATM    8  C6  UNL     1       0.023   1.177   1.035  1.00  0.00     0.172 C 
BRANCH   8   9
HETATM    9  O1  UNL     1       1.328   0.860   1.074  1.00  0.00    -0.391 OA
BRANCH   9  10
HETATM   10  C7  UNL     1       1.685  -0.428   1.006  1.00  0.00     0.168 C 
BRANCH  10  11
HETATM   11  C8  UNL     1       3.210  -0.610   1.177  1.00  0.00     0.031 C 
BRANCH  11  12
HETATM   12  C9  UNL     1       3.976   0.111   0.124  1.00  0.00    -0.013 A 
HETATM   13  C10 UNL     1       3.817  -0.181  -1.313  1.00  0.00     0.005 A 
HETATM   14  C11 UNL     1       5.028  -0.730  -0.591  1.00  0.00     0.005 A 
ENDBRANCH  11  12
ENDBRANCH  10  11
ENDBRANCH   9  10
ENDBRANCH   8   9
ENDBRANCH   5   8
TORSDOF 5
