REMARK  5 active torsions:
REMARK  status: ('A' for Active; 'I' for Inactive)
REMARK    1  A    between atoms: N1_4  and  C4_5 
REMARK    2  A    between atoms: C4_5  and  C5_6 
REMARK    3  A    between atoms: C5_6  and  C6_7 
REMARK    4  A    between atoms: C6_7  and  C7_8 
REMARK    5  A    between atoms: C7_8  and  C8_9 
ROOT
HETATM    1  C5  UNL     1       1.314   1.097  -0.272  1.00  0.00     0.020 C 
ENDROOT
BRANCH   1   2
HETATM    2  C4  UNL     1       1.838  -0.093   0.479  1.00  0.00     0.128 C 
BRANCH   2   3
HETATM    3  N1  UNL     1       3.302  -0.172   0.354  1.00  0.00    -0.366 N 
HETATM    4  C3  UNL     1       3.994  -0.825  -0.604  1.00  0.00     0.090 A 
HETATM    5  C2  UNL     1       5.344  -0.692  -0.416  1.00  0.00     0.019 A 
HETATM    6  C1  UNL     1       5.494   0.084   0.716  1.00  0.00     0.019 A 
HETATM    7  C13 UNL     1       4.218   0.378   1.154  1.00  0.00     0.090 A 
ENDBRANCH   2   3
ENDBRANCH   1   2
BRANCH   1   8
HETATM    8  C6  UNL     1      -0.179   1.231  -0.169  1.00  0.00     0.002 C 
BRANCH   8   9
HETATM    9  C7  UNL     1      -0.852   0.004  -0.738  1.00  0.00     0.005 C 
BRANCH   9  10
HETATM   10  C8  UNL     1      -2.343   0.217  -0.608  1.00  0.00    -0.014 C 
HETATM   11  C9  UNL     1      -2.727   0.395   0.832  1.00  0.00     0.004 C 
HETATM   12  C10 UNL     1      -3.981  -0.433   1.068  1.00  0.00     0.000 C 
HETATM   13  C11 UNL     1      -4.475  -0.676  -0.342  1.00  0.00     0.000 C 
HETATM   14  C12 UNL     1      -3.147  -0.993  -1.047  1.00  0.00     0.004 C 
ENDBRANCH   9  10
ENDBRANCH   8   9
ENDBRANCH   1   8
TORSDOF 5
