REMARK  5 active torsions:
REMARK  status: ('A' for Active; 'I' for Inactive)
REMARK    1  A    between atoms: C4_4  and  C5_5 
REMARK    2  A    between atoms: C5_5  and  C6_6 
REMARK    3  A    between atoms: C6_6  and  C7_7 
REMARK    4  A    between atoms: C7_7  and  C8_8 
REMARK    5  A    between atoms: C8_8  and  N1_9 
ROOT
HETATM    1  C6  UNL     1       0.385  -0.141   0.187  1.00  0.00     0.006 C 
ENDROOT
BRANCH   1   2
HETATM    2  C5  UNL     1       1.295   0.585  -0.757  1.00  0.00     0.038 C 
BRANCH   2   3
HETATM    3  C4  UNL     1       2.699   0.324  -0.359  1.00  0.00    -0.058 A 
HETATM    4  C3  UNL     1       3.365   1.133   0.536  1.00  0.00     0.007 A 
HETATM    5  C2  UNL     1       4.671   0.883   0.900  1.00  0.00     0.001 A 
HETATM    6  C1  UNL     1       5.303  -0.203   0.347  1.00  0.00     0.000 A 
HETATM    7  C14 UNL     1       4.652  -1.033  -0.557  1.00  0.00     0.001 A 
HETATM    8  C13 UNL     1       3.352  -0.754  -0.897  1.00  0.00     0.007 A 
ENDBRANCH   2   3
ENDBRANCH   1   2
BRANCH   1   9
HETATM    9  C7  UNL     1      -1.062   0.101  -0.187  1.00  0.00     0.021 C 
BRANCH   9  10
HETATM   10  C8  UNL     1      -2.013  -0.601   0.722  1.00  0.00     0.128 C 
BRANCH  10  11
HETATM   11  N1  UNL     1      -3.365  -0.294   0.264  1.00  0.00    -0.366 N 
HETATM   12  C9  UNL     1      -4.133   0.748   0.662  1.00  0.00     0.090 A 
HETATM   13  C10 UNL     1      -5.342   0.721   0.023  1.00  0.00     0.019 A 
HETATM   14  C11 UNL     1      -5.336  -0.379  -0.808  1.00  0.00     0.019 A 
HETATM   15  C12 UNL     1      -4.094  -0.983  -0.631  1.00  0.00     0.090 A 
ENDBRANCH  10  11
ENDBRANCH   9  10
ENDBRANCH   1   9
TORSDOF 5
