REMARK  9 active torsions:
REMARK  status: ('A' for Active; 'I' for Inactive)
REMARK       I    between atoms: N1_2  and  C2_4 
REMARK    1  A    between atoms: C2_4  and  C3_6 
REMARK    2  A    between atoms: C3_6  and  O2_7 
REMARK    3  A    between atoms: N2_10  and  C5_11 
REMARK    4  A    between atoms: N6_22  and  N7_23 
REMARK    5  A    between atoms: N7_23  and  C11_24 
REMARK    6  A    between atoms: C11_24  and  C12_25 
REMARK    7  A    between atoms: C12_25  and  O3_26 
REMARK    8  A    between atoms: O3_26  and  N8_27 
REMARK    9  A    between atoms: N8_27  and  C13_29 
ROOT
HETATM    1  C3  UNL     1      -0.324  -1.421  -0.226  1.00  0.00     0.248 C 
HETATM    2  C4  UNL     1      -1.616  -0.729   0.004  1.00  0.00     0.214 C 
HETATM    3  N2  UNL     1      -1.950   0.288  -0.941  1.00  0.00    -0.206 N 
HETATM    4  C9  UNL     1      -1.087   0.574  -2.025  1.00  0.00     0.187 C 
HETATM    5  C10 UNL     1       0.350   0.274  -1.829  1.00  0.00     0.103 C 
HETATM    6  N6  UNL     1       0.690  -0.696  -0.866  1.00  0.00    -0.264 N 
ENDROOT
BRANCH   3   7
HETATM    7  C5  UNL     1      -3.150   1.007  -0.784  1.00  0.00     0.696 A 
HETATM    8  N3  UNL     1      -4.075   0.858   0.188  1.00  0.00    -0.178 N 
HETATM    9  C6  UNL     1      -5.088   1.697   0.039  1.00  0.00     0.110 A 
ATOM     10  H3  UNL     1      -4.002   0.180   0.947  1.00  0.00     0.185 HD
HETATM   11  C7  UNL     1      -6.301   1.851   0.891  1.00  0.00     0.091 C 
HETATM   12  N4  UNL     1      -4.811   2.419  -1.070  1.00  0.00    -0.270 N 
HETATM   13  C8  UNL     1      -5.686   3.467  -1.588  1.00  0.00     0.179 C 
HETATM   14  N5  UNL     1      -3.655   2.006  -1.560  1.00  0.00    -0.129 N 
ATOM     15  H5  UNL     1      -3.207   2.380  -2.396  1.00  0.00     0.206 HD
ENDBRANCH   3   7
BRANCH   1  16
HETATM   16  C2  UNL     1       0.174  -1.917   1.081  1.00  0.00     0.276 C 
HETATM   17  N1  UNL     1       0.321  -3.291   1.399  1.00  0.00    -0.361 N 
HETATM   18  C1  UNL     1       0.811  -3.725   2.686  1.00  0.00     0.149 C 
ATOM     19  H1  UNL     1       0.074  -3.991   0.700  1.00  0.00     0.162 HD
HETATM   20  O1  UNL     1       0.484  -1.070   1.952  1.00  0.00    -0.268 OA
ENDBRANCH   1  16
BRANCH   1  21
HETATM   21  O2  UNL     1      -0.598  -2.570  -1.006  1.00  0.00    -0.361 OA
ATOM     22  H2  UNL     1      -0.917  -2.252  -1.843  1.00  0.00     0.213 HD
ENDBRANCH   1  21
BRANCH   6  23
HETATM   23  N7  UNL     1       1.739  -0.280  -0.038  1.00  0.00    -0.134 NA
BRANCH  23  24
HETATM   24  C11 UNL     1       2.942  -1.059  -0.258  1.00  0.00     0.164 C 
BRANCH  24  25
HETATM   25  C12 UNL     1       4.024  -0.551   0.668  1.00  0.00     0.219 C 
BRANCH  25  26
HETATM   26  O3  UNL     1       4.305   0.797   0.427  1.00  0.00    -0.277 OA
BRANCH  26  27
HETATM   27  N8  UNL     1       5.260   1.267   1.235  1.00  0.00    -0.243 N 
ATOM     28  H8  UNL     1       4.996   1.789   2.071  1.00  0.00     0.196 HD
BRANCH  27  29
HETATM   29  C13 UNL     1       6.633   1.054   0.952  1.00  0.00     0.204 C 
HETATM   30  N9  UNL     1       7.058   0.334  -0.197  1.00  0.00    -0.068 NA
HETATM   31  S1  UNL     1       7.784   1.637   1.952  1.00  0.00    -0.043 SA
ENDBRANCH  27  29
ENDBRANCH  26  27
ENDBRANCH  25  26
ENDBRANCH  24  25
ENDBRANCH  23  24
ENDBRANCH   6  23
TORSDOF 9
