REMARK  10 active torsions:
REMARK  status: ('A' for Active; 'I' for Inactive)
REMARK    1  A    between atoms: N1_1  and  S1_4 
REMARK    2  A    between atoms: S1_4  and  N2_6 
REMARK    3  A    between atoms: S1_4  and  O5_21 
REMARK    4  A    between atoms: N2_6  and  N3_8 
REMARK       I    between atoms: N3_8  and  C1_10 
REMARK    5  A    between atoms: C1_10  and  C2_12 
REMARK    6  A    between atoms: C3_13  and  O3_14 
REMARK    7  A    between atoms: O5_21  and  C5_22 
REMARK    8  A    between atoms: C5_22  and  C6_23 
REMARK    9  A    between atoms: C6_23  and  O6_24 
REMARK   10  A    between atoms: O6_24  and  S3_25 
ROOT
HETATM    1  N2  UNL     1      -1.030  -0.147   1.262  1.00  0.00    -0.219 N 
ATOM      2  H2  UNL     1      -0.847  -0.206   2.264  1.00  0.00     0.200 HD
ENDROOT
BRANCH   1   3
HETATM    3  S1  UNL     1       0.065   0.411   0.306  1.00  0.00     0.247 S 
HETATM    4  O1  UNL     1      -0.439   0.318  -1.095  1.00  0.00    -0.197 OA
BRANCH   3   5
HETATM    5  N1  UNL     1       0.287   2.081   0.680  1.00  0.00    -0.322 N 
ATOM      6  H12 UNL     1       0.102   2.857   0.044  1.00  0.00     0.169 HD
ATOM      7  H11 UNL     1       0.632   2.145   1.638  1.00  0.00     0.169 HD
ENDBRANCH   3   5
BRANCH   3   8
HETATM    8  O5  UNL     1       1.488  -0.458   0.434  1.00  0.00    -0.273 OA
BRANCH   8   9
HETATM    9  C5  UNL     1       2.581   0.244  -0.046  1.00  0.00     0.218 C 
BRANCH   9  10
HETATM   10  C6  UNL     1       3.808  -0.619   0.112  1.00  0.00     0.220 C 
BRANCH  10  11
HETATM   11  O6  UNL     1       4.956   0.029  -0.355  1.00  0.00    -0.255 OA
BRANCH  11  12
HETATM   12  S3  UNL     1       6.315  -0.914  -0.184  1.00  0.00     0.251 S 
HETATM   13  O7  UNL     1       6.429  -1.937  -1.283  1.00  0.00    -0.572 OA
HETATM   14  O8  UNL     1       6.241  -1.670   1.123  1.00  0.00    -0.572 OA
HETATM   15  O9  UNL     1       7.688   0.051  -0.161  1.00  0.00    -0.572 OA
ENDBRANCH  11  12
ENDBRANCH  10  11
ENDBRANCH   9  10
ENDBRANCH   8   9
ENDBRANCH   3   8
ENDBRANCH   1   3
BRANCH   1  16
HETATM   16  N3  UNL     1      -2.278  -0.573   0.749  1.00  0.00    -0.256 N 
HETATM   17  C1  UNL     1      -3.156   0.355   0.201  1.00  0.00     0.279 C 
HETATM   18  O2  UNL     1      -2.786   1.579   0.185  1.00  0.00    -0.266 OA
ATOM     19  H3  UNL     1      -2.533  -1.560   0.781  1.00  0.00     0.191 HD
BRANCH  17  20
HETATM   20  C2  UNL     1      -4.488   0.064  -0.371  1.00  0.00     0.143 A 
HETATM   21  C3  UNL     1      -4.971  -1.213  -0.399  1.00  0.00     0.145 A 
HETATM   22  S2  UNL     1      -6.515  -1.002  -1.146  1.00  0.00     0.015 SA
HETATM   23  N4  UNL     1      -6.466   0.647  -1.375  1.00  0.00    -0.290 N 
HETATM   24  C4  UNL     1      -5.292   1.024  -0.889  1.00  0.00     0.270 A 
ATOM     25  H4  UNL     1      -7.183   1.238  -1.797  1.00  0.00     0.177 HD
HETATM   26  O4  UNL     1      -4.984   2.284  -0.939  1.00  0.00    -0.266 OA
BRANCH  21  27
HETATM   27  O3  UNL     1      -4.413  -2.430   0.045  1.00  0.00    -0.352 OA
ATOM     28  H3  UNL     1      -4.749  -3.318   0.026  1.00  0.00     0.218 HD
ENDBRANCH  21  27
ENDBRANCH  17  20
ENDBRANCH   1  16
TORSDOF 10
