REMARK  8 active torsions:
REMARK  status: ('A' for Active; 'I' for Inactive)
REMARK    1  A    between atoms: O1_2  and  C2_3 
REMARK    2  A    between atoms: C4_5  and  N1_6 
REMARK    3  A    between atoms: C5_8  and  C6_9 
REMARK    4  A    between atoms: C7_14  and  N4_15 
REMARK    5  A    between atoms: N4_15  and  N5_17 
REMARK    6  A    between atoms: C9_24  and  C10_25 
REMARK    7  A    between atoms: N8_28  and  C11_29 
REMARK    8  A    between atoms: C16_38  and  O4_39 
ROOT
HETATM    1  C2  UNL     1      -1.523   3.162  -0.665  1.00  0.00     0.105 A 
HETATM    2  C3  UNL     1      -0.306   2.532  -0.585  1.00  0.00     0.070 A 
HETATM    3  C4  UNL     1      -0.189   1.198  -0.208  1.00  0.00     0.051 A 
HETATM    4  C9  UNL     1      -1.312   0.483   0.093  1.00  0.00     0.063 A 
HETATM    5  C15 UNL     1      -2.571   1.091   0.022  1.00  0.00     0.098 A 
HETATM    6  N10 UNL     1      -3.776   0.404   0.323  1.00  0.00    -0.098 NA
HETATM    7  C16 UNL     1      -2.633   2.409  -0.354  1.00  0.00     0.127 A 
ENDROOT
BRANCH   3   8
HETATM    8  N1  UNL     1       1.111   0.671  -0.164  1.00  0.00    -0.363 N 
HETATM    9  C5  UNL     1       2.021   1.033  -1.004  1.00  0.00     0.125 C 
ATOM     10  H1  UNL     1       1.343  -0.017   0.552  1.00  0.00     0.165 HD
BRANCH   9  11
HETATM   11  C6  UNL     1       3.372   0.477  -0.947  1.00  0.00     0.132 A 
HETATM   12  N2  UNL     1       3.761  -0.434  -0.044  1.00  0.00    -0.280 N 
HETATM   13  N3  UNL     1       4.996  -0.913  -0.028  1.00  0.00    -0.130 N 
ATOM     14  H2  UNL     1       3.089  -0.767   0.648  1.00  0.00     0.188 HD
HETATM   15  C7  UNL     1       5.891  -0.473  -0.944  1.00  0.00     0.713 A 
ATOM     16  H3  UNL     1       5.270  -1.607   0.668  1.00  0.00     0.205 HD
HETATM   17  N6  UNL     1       5.537   0.432  -1.856  1.00  0.00    -0.151 N 
HETATM   18  C8  UNL     1       4.292   0.912  -1.869  1.00  0.00     0.289 A 
ATOM     19  H6  UNL     1       6.217   0.757  -2.543  1.00  0.00     0.188 HD
HETATM   20  O2  UNL     1       3.953   1.780  -2.745  1.00  0.00    -0.265 OA
BRANCH  15  21
HETATM   21  N4  UNL     1       7.087  -0.930  -0.937  1.00  0.00    -0.137 N 
ATOM     22  H4  UNL     1       7.368  -1.624  -0.244  1.00  0.00     0.205 HD
BRANCH  21  23
HETATM   23  N5  UNL     1       7.998  -0.475  -1.879  1.00  0.00    -0.331 N 
ATOM     24  H52 UNL     1       7.701   0.219  -2.565  1.00  0.00     0.177 HD
ATOM     25  H51 UNL     1       8.951  -0.839  -1.873  1.00  0.00     0.177 HD
ENDBRANCH  21  23
ENDBRANCH  15  21
ENDBRANCH   9  11
ENDBRANCH   3   8
BRANCH   4  26
HETATM   26  C10 UNL     1      -1.320  -0.925   0.501  1.00  0.00     0.138 A 
HETATM   27  N7  UNL     1      -2.422  -1.649   0.812  1.00  0.00    -0.278 N 
HETATM   28  N8  UNL     1      -2.058  -2.855   1.131  1.00  0.00    -0.237 N 
ATOM     29  H7  UNL     1      -3.382  -1.304   0.798  1.00  0.00     0.189 HD
HETATM   30  C14 UNL     1      -0.727  -2.958   1.039  1.00  0.00     0.343 A 
HETATM   31  O3  UNL     1      -0.007  -3.986   1.273  1.00  0.00    -0.245 OA
HETATM   32  N9  UNL     1      -0.284  -1.730   0.641  1.00  0.00    -0.291 N 
ATOM     33  H9  UNL     1       0.690  -1.476   0.478  1.00  0.00     0.172 HD
BRANCH  28  34
HETATM   34  C11 UNL     1      -2.945  -3.934   1.528  1.00  0.00     0.105 C 
HETATM   35  C12 UNL     1      -2.575  -5.239   0.905  1.00  0.00     0.034 C 
HETATM   36  C13 UNL     1      -2.944  -4.103   3.038  1.00  0.00     0.034 C 
ENDBRANCH  28  34
ENDBRANCH   4  26
BRANCH   1  37
HETATM   37  O1  UNL     1      -1.600   4.489  -1.044  1.00  0.00    -0.353 OA
HETATM   38  C1  UNL     1      -0.495   5.279  -1.361  1.00  0.00     0.210 C 
ENDBRANCH   1  37
BRANCH   7  39
HETATM   39  O4  UNL     1      -3.884   3.018  -0.426  1.00  0.00    -0.351 OA
HETATM   40  C17 UNL     1      -4.461   3.675   0.670  1.00  0.00     0.210 C 
ENDBRANCH   7  39
TORSDOF 8
