REMARK  7 active torsions:
REMARK  status: ('A' for Active; 'I' for Inactive)
REMARK    1  A    between atoms: C3_5  and  C4_6 
REMARK       I    between atoms: C4_6  and  N2_8 
REMARK    2  A    between atoms: N2_8  and  C5_10 
REMARK    3  A    between atoms: C5_10  and  C6_11 
REMARK    4  A    between atoms: C5_10  and  C10_23 
REMARK    5  A    between atoms: C7_14  and  C8_15 
REMARK    6  A    between atoms: N9_30  and  C12_31 
REMARK    7  A    between atoms: C14_36  and  N12_37 
ROOT
HETATM    1  C12 UNL     1      -1.901  -3.878   0.376  1.00  0.00     0.259 C 
HETATM    2  C13 UNL     1      -3.308  -3.661   0.712  1.00  0.00     0.079 C 
HETATM    3  N10 UNL     1      -4.435  -3.476   0.988  1.00  0.00    -0.196 NA
ENDROOT
BRANCH   1   4
HETATM    4  N9  UNL     1      -1.526  -3.080  -0.785  1.00  0.00    -0.271 N 
HETATM    5  C10 UNL     1      -1.037  -1.828  -0.781  1.00  0.00     0.135 A 
HETATM    6  N7  UNL     1      -0.837  -1.499  -2.078  1.00  0.00    -0.283 N 
HETATM    7  N8  UNL     1      -1.188  -2.508  -2.857  1.00  0.00    -0.250 N 
ATOM      8  H7  UNL     1      -0.470  -0.606  -2.406  1.00  0.00     0.188 HD
HETATM    9  C11 UNL     1      -1.624  -3.513  -2.075  1.00  0.00     0.343 A 
ATOM     10  H8  UNL     1      -1.137  -2.522  -3.876  1.00  0.00     0.192 HD
HETATM   11  O2  UNL     1      -2.050  -4.655  -2.438  1.00  0.00    -0.245 OA
BRANCH   5  12
HETATM   12  C5  UNL     1      -0.769  -0.979   0.408  1.00  0.00     0.238 C 
BRANCH  12  13
HETATM   13  N2  UNL     1       0.550  -0.364   0.227  1.00  0.00    -0.255 N 
HETATM   14  C4  UNL     1       1.600  -0.579   1.133  1.00  0.00     0.300 C 
HETATM   15  O1  UNL     1       1.408  -1.318   2.129  1.00  0.00    -0.263 OA
HETATM   16  S1  UNL     1       0.799   0.668  -1.174  1.00  0.00     0.049 SA
BRANCH  14  17
HETATM   17  C3  UNL     1       2.892   0.025   0.952  1.00  0.00     0.191 A 
HETATM   18  N1  UNL     1       3.179   0.823  -0.078  1.00  0.00    -0.327 N 
HETATM   19  C2  UNL     1       4.357   1.412  -0.299  1.00  0.00     0.095 A 
ATOM     20  H1  UNL     1       2.436   0.998  -0.754  1.00  0.00     0.169 HD
HETATM   21  C1  UNL     1       4.595   2.293  -1.481  1.00  0.00     0.089 C 
HETATM   22  N13 UNL     1       5.345   1.183   0.593  1.00  0.00    -0.181 N 
HETATM   23  C14 UNL     1       5.105   0.386   1.648  1.00  0.00     0.678 A 
ATOM     24  H13 UNL     1       6.263   1.610   0.467  1.00  0.00     0.185 HD
HETATM   25  N11 UNL     1       3.909  -0.188   1.837  1.00  0.00    -0.171 N 
ATOM     26  H11 UNL     1       3.758  -0.788   2.648  1.00  0.00     0.186 HD
BRANCH  23  27
HETATM   27  N12 UNL     1       6.033   0.153   2.513  1.00  0.00    -0.234 N 
ATOM     28 2H12 UNL     1       5.851  -0.452   3.314  1.00  0.00     0.174 HD
ATOM     29 1H12 UNL     1       6.943   0.590   2.369  1.00  0.00     0.174 HD
ENDBRANCH  23  27
ENDBRANCH  14  17
ENDBRANCH  12  13
BRANCH  12  30
HETATM   30  C6  UNL     1      -1.819   0.054   0.548  1.00  0.00     0.114 A 
HETATM   31  N3  UNL     1      -1.981   1.182  -0.207  1.00  0.00    -0.340 N 
HETATM   32  C7  UNL     1      -3.072   1.835   0.275  1.00  0.00     0.090 A 
ATOM     33  H3  UNL     1      -1.393   1.478  -0.986  1.00  0.00     0.167 HD
HETATM   34  C9  UNL     1      -3.580   1.108   1.325  1.00  0.00     0.122 A 
HETATM   35  N6  UNL     1      -2.803   0.024   1.477  1.00  0.00    -0.351 N 
ATOM     36  H6  UNL     1      -2.933  -0.704   2.179  1.00  0.00     0.166 HD
BRANCH  32  37
HETATM   37  C8  UNL     1      -3.632   3.091  -0.214  1.00  0.00     0.138 C 
HETATM   38  N4  UNL     1      -4.675   3.628   0.316  1.00  0.00    -0.386 N 
ATOM     39  H42 UNL     1      -5.124   3.161   1.104  1.00  0.00     0.157 HD
ATOM     40  H41 UNL     1      -5.066   4.506  -0.026  1.00  0.00     0.157 HD
HETATM   41  N5  UNL     1      -3.002   3.746  -1.319  1.00  0.00    -0.081 NA
ENDBRANCH  32  37
ENDBRANCH  12  30
ENDBRANCH   5  12
ENDBRANCH   1   4
TORSDOF 7
