REMARK  11 active torsions:
REMARK  status: ('A' for Active; 'I' for Inactive)
REMARK    1  A    between atoms: C2_3  and  O1_4 
REMARK    2  A    between atoms: C4_7  and  N2_8 
REMARK    3  A    between atoms: C5_11  and  C6_12 
REMARK    4  A    between atoms: C6_12  and  O4_18 
REMARK    5  A    between atoms: N3_13  and  N4_15 
REMARK    6  A    between atoms: O4_18  and  N5_19 
REMARK       I    between atoms: N5_19  and  C7_21 
REMARK    7  A    between atoms: C7_21  and  C8_23 
REMARK    8  A    between atoms: C8_23  and  N6_24 
REMARK    9  A    between atoms: N6_24  and  N7_25 
REMARK       I    between atoms: N7_25  and  C9_27 
REMARK   10  A    between atoms: C9_27  and  C10_29 
REMARK   11  A    between atoms: C12_35  and  N10_36 
ROOT
HETATM    1  O4  UNL     1      -1.682   1.384   1.551  1.00  0.00    -0.214 OA
ENDROOT
BRANCH   1   2
HETATM    2  C6  UNL     1      -2.392   1.613   0.336  1.00  0.00     0.202 C 
HETATM    3  N3  UNL     1      -2.112   2.738  -0.200  1.00  0.00    -0.284 N 
ATOM      4  H3  UNL     1      -2.588   2.954  -1.076  1.00  0.00     0.188 HD
BRANCH   2   5
HETATM    5  C5  UNL     1      -3.310   0.619  -0.163  1.00  0.00     0.120 A 
HETATM    6  C4  UNL     1      -4.011   0.711  -1.311  1.00  0.00     0.127 A 
HETATM    7  C3  UNL     1      -4.997  -0.270  -1.630  1.00  0.00     0.093 A 
HETATM    8  C2  UNL     1      -5.229  -1.312  -0.766  1.00  0.00     0.146 A 
HETATM    9  N1  UNL     1      -4.510  -1.374   0.369  1.00  0.00    -0.298 N 
HETATM   10  C1  UNL     1      -4.799  -2.506   1.254  1.00  0.00     0.161 C 
HETATM   11  C13 UNL     1      -3.581  -0.476   0.701  1.00  0.00     0.266 A 
HETATM   12  O7  UNL     1      -2.934  -0.566   1.760  1.00  0.00    -0.267 OA
BRANCH   6  13
HETATM   13  N2  UNL     1      -3.840   1.715  -2.268  1.00  0.00    -0.114 N 
HETATM   14  O2  UNL     1      -2.806   2.240  -2.660  1.00  0.00    -0.532 OA
HETATM   15  O3  UNL     1      -4.991   2.153  -2.960  1.00  0.00    -0.532 OA
ENDBRANCH   6  13
BRANCH   8  16
HETATM   16  O1  UNL     1      -6.178  -2.289  -1.034  1.00  0.00    -0.346 OA
ATOM     17  H1  UNL     1      -6.686  -2.245  -1.836  1.00  0.00     0.219 HD
ENDBRANCH   8  16
ENDBRANCH   2   5
BRANCH   3  18
HETATM   18  N4  UNL     1      -1.249   3.681   0.267  1.00  0.00    -0.343 N 
ATOM     19  H42 UNL     1      -0.782   3.447   1.143  1.00  0.00     0.176 HD
ATOM     20  H41 UNL     1      -1.025   4.579  -0.161  1.00  0.00     0.176 HD
ENDBRANCH   3  18
ENDBRANCH   1   2
BRANCH   1  21
HETATM   21  N5  UNL     1      -0.389   1.780   1.701  1.00  0.00    -0.222 N 
HETATM   22  C7  UNL     1       0.652   1.238   0.918  1.00  0.00     0.296 C 
HETATM   23  O5  UNL     1       0.425   0.366   0.044  1.00  0.00    -0.264 OA
ATOM     24  H5  UNL     1      -0.166   2.489   2.400  1.00  0.00     0.198 HD
BRANCH  22  25
HETATM   25  C8  UNL     1       2.079   1.681   1.091  1.00  0.00     0.285 C 
BRANCH  25  26
HETATM   26  N6  UNL     1       2.968   1.091   0.257  1.00  0.00    -0.330 NA
BRANCH  26  27
HETATM   27  N7  UNL     1       3.684   0.491  -0.390  1.00  0.00    -0.199 N 
HETATM   28  C9  UNL     1       4.157  -0.792  -0.648  1.00  0.00     0.285 C 
HETATM   29  O6  UNL     1       3.438  -1.639  -1.223  1.00  0.00    -0.265 OA
ATOM     30  H7  UNL     1       4.160   1.137  -1.020  1.00  0.00     0.205 HD
BRANCH  28  31
HETATM   31  C10 UNL     1       5.522  -1.134  -0.232  1.00  0.00     0.096 A 
HETATM   32  C11 UNL     1       6.394  -0.260   0.428  1.00  0.00     0.128 A 
HETATM   33  N8  UNL     1       7.530  -0.928   0.631  1.00  0.00    -0.309 N 
HETATM   34  N9  UNL     1       7.439  -2.153   0.149  1.00  0.00    -0.285 N 
ATOM     35  H8  UNL     1       8.354  -0.545   1.094  1.00  0.00     0.186 HD
HETATM   36  C12 UNL     1       6.198  -2.312  -0.395  1.00  0.00     0.131 A 
ATOM     37  H9  UNL     1       8.172  -2.861   0.178  1.00  0.00     0.188 HD
BRANCH  36  38
HETATM   38  N10 UNL     1       5.815  -3.410  -0.944  1.00  0.00    -0.384 N 
ATOM     39 2H10 UNL     1       4.887  -3.529  -1.351  1.00  0.00     0.157 HD
ATOM     40 1H10 UNL     1       6.319  -4.288  -1.066  1.00  0.00     0.157 HD
ENDBRANCH  36  38
ENDBRANCH  28  31
ENDBRANCH  26  27
ENDBRANCH  25  26
ENDBRANCH  22  25
ENDBRANCH   1  21
TORSDOF 11
