REMARK  11 active torsions:
REMARK  status: ('A' for Active; 'I' for Inactive)
REMARK    1  A    between atoms: C2_2  and  C3_3 
REMARK    2  A    between atoms: C3_3  and  N1_4 
REMARK       I    between atoms: N1_4  and  C4_6 
REMARK    3  A    between atoms: C4_6  and  C5_8 
REMARK    4  A    between atoms: C7_13  and  N4_14 
REMARK    5  A    between atoms: C10_22  and  N7_23 
REMARK    6  A    between atoms: N7_23  and  C11_24 
REMARK    7  A    between atoms: C14_27  and  N8_28 
REMARK    8  A    between atoms: C16_32  and  N9_33 
REMARK    9  A    between atoms: N9_33  and  O4_34 
REMARK   10  A    between atoms: N10_36  and  N11_38 
REMARK   11  A    between atoms: N11_38  and  N12_40 
ROOT
HETATM    1  C5  UNL     1      -0.113   2.054  -1.003  1.00  0.00     0.108 A 
HETATM    2  C6  UNL     1      -0.477   2.708  -2.157  1.00  0.00     0.158 A 
HETATM    3  N2  UNL     1      -0.223   2.197  -3.379  1.00  0.00    -0.081 N 
HETATM    4  N3  UNL     1      -0.497   2.682  -4.588  1.00  0.00    -0.111 N 
ATOM      5  H3  UNL     1      -0.970   3.562  -4.791  1.00  0.00     0.207 HD
HETATM    6  C7  UNL     1      -0.038   1.803  -5.490  1.00  0.00     0.706 A 
HETATM    7  N5  UNL     1       0.519   0.776  -4.803  1.00  0.00    -0.019 N 
ATOM      8  H5  UNL     1       0.956  -0.050  -5.213  1.00  0.00     0.203 HD
HETATM    9  C8  UNL     1       0.397   1.033  -3.480  1.00  0.00     0.722 A 
HETATM   10  N6  UNL     1       0.769   0.369  -2.364  1.00  0.00    -0.157 N 
HETATM   11  C9  UNL     1       1.452  -0.886  -2.618  1.00  0.00     0.178 C 
HETATM   12  C10 UNL     1       0.545   0.820  -1.107  1.00  0.00     0.213 A 
ENDROOT
BRANCH  12  13
HETATM   13  N7  UNL     1       0.924   0.269  -0.130  1.00  0.00    -0.383 NA
BRANCH  13  14
HETATM   14  C11 UNL     1       1.426  -0.510   0.841  1.00  0.00     0.140 A 
HETATM   15  C12 UNL     1       2.466   0.094   1.662  1.00  0.00     0.050 A 
HETATM   16  C13 UNL     1       3.012  -0.681   2.638  1.00  0.00     0.039 A 
HETATM   17  C14 UNL     1       2.647  -1.974   2.887  1.00  0.00     0.105 A 
HETATM   18  C15 UNL     1       1.676  -2.522   2.113  1.00  0.00     0.073 A 
HETATM   19  C16 UNL     1       1.051  -1.809   1.085  1.00  0.00     0.125 A 
BRANCH  17  20
HETATM   20  N8  UNL     1       3.290  -2.652   3.927  1.00  0.00    -0.116 N 
HETATM   21  O2  UNL     1       2.957  -3.841   4.167  1.00  0.00    -0.532 OA
HETATM   22  O3  UNL     1       4.266  -2.075   4.680  1.00  0.00    -0.532 OA
ENDBRANCH  17  20
BRANCH  19  23
HETATM   23  N9  UNL     1       0.029  -2.451   0.335  1.00  0.00    -0.144 N 
HETATM   24  N10 UNL     1      -1.157  -2.058   0.355  1.00  0.00    -0.202 N 
ATOM     25  H10 UNL     1      -1.363  -1.247   0.939  1.00  0.00     0.212 HD
BRANCH  23  26
HETATM   26  O4  UNL     1       0.378  -3.531  -0.435  1.00  0.00    -0.266 OA
ATOM     27  H4  UNL     1      -0.305  -3.960  -0.936  1.00  0.00     0.247 HD
ENDBRANCH  23  26
BRANCH  24  28
HETATM   28  N11 UNL     1      -2.199  -2.604  -0.324  1.00  0.00    -0.233 N 
ATOM     29  H11 UNL     1      -3.142  -2.290  -0.095  1.00  0.00     0.209 HD
BRANCH  28  30
HETATM   30  N12 UNL     1      -2.047  -3.571  -1.317  1.00  0.00    -0.330 N 
ATOM     31 2H12 UNL     1      -1.097  -3.873  -1.533  1.00  0.00     0.178 HD
ATOM     32 1H12 UNL     1      -2.829  -3.981  -1.827  1.00  0.00     0.178 HD
ENDBRANCH  28  30
ENDBRANCH  24  28
ENDBRANCH  19  23
ENDBRANCH  13  14
ENDBRANCH  12  13
BRANCH   1  33
HETATM   33  C4  UNL     1      -0.484   2.650   0.277  1.00  0.00     0.258 C 
HETATM   34  N1  UNL     1      -1.280   1.916   1.176  1.00  0.00    -0.357 N 
ATOM     35  H1  UNL     1      -1.588   0.975   0.931  1.00  0.00     0.162 HD
HETATM   36  O1  UNL     1      -0.104   3.791   0.552  1.00  0.00    -0.267 OA
BRANCH  34  37
HETATM   37  C3  UNL     1      -1.670   2.502   2.470  1.00  0.00     0.122 C 
BRANCH  37  38
HETATM   38  C2  UNL     1      -2.590   1.513   3.146  1.00  0.00     0.015 C 
HETATM   39  C1  UNL     1      -1.867   0.207   3.291  1.00  0.00     0.006 C 
ENDBRANCH  37  38
ENDBRANCH  34  37
ENDBRANCH   1  33
BRANCH   6  40
HETATM   40  N4  UNL     1      -0.106   1.913  -6.774  1.00  0.00    -0.233 N 
ATOM     41  H42 UNL     1      -0.525   2.686  -7.291  1.00  0.00     0.174 HD
ATOM     42  H41 UNL     1       0.243   1.244  -7.460  1.00  0.00     0.174 HD
ENDBRANCH   6  40
TORSDOF 11
