REMARK  8 active torsions:
REMARK  status: ('A' for Active; 'I' for Inactive)
REMARK    1  A    between atoms: O1_2  and  C2_3 
REMARK       I    between atoms: C2_3  and  N1_5 
REMARK    2  A    between atoms: N1_5  and  C3_7 
REMARK    3  A    between atoms: C3_7  and  C5_9 
REMARK    4  A    between atoms: C3_7  and  C6_16 
REMARK    5  A    between atoms: C7_20  and  C8_21 
REMARK    6  A    between atoms: N9_30  and  C11_32 
REMARK    7  A    between atoms: C11_32  and  C12_33 
REMARK    8  A    between atoms: C12_33  and  O4_34 
ROOT
HETATM    1  C6  UNL     1       1.351   0.057   0.388  1.00  0.00     0.077 A 
HETATM    2  N6  UNL     1       1.577   1.357   0.631  1.00  0.00    -0.261 N 
ATOM      3  H6  UNL     1       2.470   1.751   0.927  1.00  0.00     0.194 HD
HETATM    4  O3  UNL     1       0.517   2.023   0.439  1.00  0.00    -0.233 OA
HETATM    5  C7  UNL     1      -0.503   1.236   0.055  1.00  0.00     0.150 A 
HETATM    6  C13 UNL     1       0.015  -0.011   0.019  1.00  0.00     0.005 A 
HETATM    7  C14 UNL     1      -0.623  -1.268  -0.356  1.00  0.00     0.054 C 
ENDROOT
BRANCH   5   8
HETATM    8  C8  UNL     1      -1.864   1.748  -0.231  1.00  0.00     0.146 A 
HETATM    9  N7  UNL     1      -1.922   3.092  -0.445  1.00  0.00    -0.321 N 
HETATM   10  C9  UNL     1      -2.951   3.838  -0.775  1.00  0.00     0.147 A 
ATOM     11  H7  UNL     1      -1.039   3.591  -0.333  1.00  0.00     0.169 HD
HETATM   12  N8  UNL     1      -2.866   5.130  -0.954  1.00  0.00    -0.379 N 
HETATM   13  S1  UNL     1      -4.413   2.958  -0.951  1.00  0.00    -0.018 SA
ATOM     14  H82 UNL     1      -1.997   5.653  -0.849  1.00  0.00     0.158 HD
ATOM     15  H81 UNL     1      -3.665   5.709  -1.210  1.00  0.00     0.158 HD
HETATM   16  C10 UNL     1      -4.185   1.297  -0.652  1.00  0.00     0.149 A 
HETATM   17  N9  UNL     1      -5.092   0.400  -0.707  1.00  0.00    -0.368 N 
HETATM   18  N10 UNL     1      -2.915   0.935  -0.329  1.00  0.00    -0.320 N 
ATOM     19  H9  UNL     1      -6.022   0.738  -0.953  1.00  0.00     0.161 HD
ATOM     20  H10 UNL     1      -2.751  -0.055  -0.144  1.00  0.00     0.169 HD
BRANCH  17  21
HETATM   21  C11 UNL     1      -4.998  -0.992  -0.477  1.00  0.00     0.147 C 
BRANCH  21  22
HETATM   22  C12 UNL     1      -5.059  -1.396   0.979  1.00  0.00     0.183 C 
BRANCH  22  23
HETATM   23  O4  UNL     1      -6.265  -0.982   1.538  1.00  0.00    -0.399 OA
ATOM     24  H4  UNL     1      -6.303  -1.236   2.453  1.00  0.00     0.209 HD
ENDBRANCH  22  23
ENDBRANCH  21  22
ENDBRANCH  17  21
ENDBRANCH   5   8
BRANCH   1  25
HETATM   25  C3  UNL     1       2.380  -0.984   0.507  1.00  0.00     0.136 C 
HETATM   26  C4  UNL     1       1.789  -1.978   1.550  1.00  0.00     0.054 C 
BRANCH  25  27
HETATM   27  N1  UNL     1       3.546  -0.419   1.152  1.00  0.00    -0.315 N 
HETATM   28  C2  UNL     1       4.421   0.518   0.569  1.00  0.00     0.361 C 
HETATM   29  O2  UNL     1       4.224   0.925  -0.593  1.00  0.00    -0.238 OA
ATOM     30  H1  UNL     1       3.750  -0.723   2.104  1.00  0.00     0.166 HD
BRANCH  28  31
HETATM   31  O1  UNL     1       5.526   1.034   1.230  1.00  0.00    -0.309 OA
HETATM   32  C1  UNL     1       6.354   1.961   0.595  1.00  0.00     0.215 C 
ENDBRANCH  28  31
ENDBRANCH  25  27
BRANCH  25  33
HETATM   33  C5  UNL     1       2.701  -1.716  -0.713  1.00  0.00     0.142 A 
HETATM   34  N2  UNL     1       3.003  -3.019  -0.809  1.00  0.00    -0.271 N 
HETATM   35  N3  UNL     1       3.230  -3.339  -2.081  1.00  0.00    -0.007 NA
ATOM     36  H2  UNL     1       3.052  -3.668  -0.024  1.00  0.00     0.185 HD
HETATM   37  N4  UNL     1       3.066  -2.226  -2.776  1.00  0.00    -0.007 NA
HETATM   38  N5  UNL     1       2.746  -1.237  -1.956  1.00  0.00    -0.271 N 
ATOM     39  H5  UNL     1       2.564  -0.271  -2.229  1.00  0.00     0.185 HD
ENDBRANCH  25  33
ENDBRANCH   1  25
TORSDOF 8
