REMARK  11 active torsions:
REMARK  status: ('A' for Active; 'I' for Inactive)
REMARK    1  A    between atoms: O1_1  and  C1_3 
REMARK    2  A    between atoms: C3_5  and  C4_6 
REMARK    3  A    between atoms: C10_14  and  C11_15 
REMARK    4  A    between atoms: C11_15  and  O2_16 
REMARK    5  A    between atoms: C11_15  and  C12_19 
REMARK    6  A    between atoms: C12_19  and  N2_20 
REMARK    7  A    between atoms: N3_23  and  C15_24 
REMARK    8  A    between atoms: C15_24  and  C16_25 
REMARK    9  A    between atoms: C16_25  and  C17_26 
REMARK   10  A    between atoms: C17_26  and  N4_27 
REMARK   11  A    between atoms: N5_30  and  C20_31 
ROOT
HETATM    1  N2  UNL     1      -1.600  -0.681  -0.398  1.00  0.00    -0.347 N 
HETATM    2  C13 UNL     1      -0.823  -1.519   0.405  1.00  0.00     0.098 C 
HETATM    3  C14 UNL     1       0.390  -1.962  -0.397  1.00  0.00     0.318 C 
HETATM    4  N3  UNL     1       1.159  -0.822  -0.846  1.00  0.00     0.097 N 
HETATM    5  C28 UNL     1       0.508   0.431  -0.532  1.00  0.00     0.318 C 
HETATM    6  C29 UNL     1      -0.947   0.450  -0.878  1.00  0.00     0.098 C 
ENDROOT
BRANCH   4   7
HETATM    7  C15 UNL     1       2.438  -0.798  -0.165  1.00  0.00     0.275 C 
BRANCH   7   8
HETATM    8  C16 UNL     1       3.357  -1.899  -0.575  1.00  0.00     0.050 C 
BRANCH   8   9
HETATM    9  C17 UNL     1       4.639  -1.786   0.218  1.00  0.00     0.129 C 
BRANCH   9  10
HETATM   10  N4  UNL     1       5.344  -0.572   0.081  1.00  0.00    -0.371 N 
HETATM   11  C18 UNL     1       5.928  -0.305  -1.158  1.00  0.00     0.083 C 
HETATM   12  C19 UNL     1       7.348   0.119  -1.156  1.00  0.00     0.169 C 
HETATM   13  N5  UNL     1       7.821   0.549   0.120  1.00  0.00    -0.357 N 
HETATM   14  C26 UNL     1       6.909   1.023   1.124  1.00  0.00     0.169 C 
HETATM   15  C27 UNL     1       5.744   0.100   1.246  1.00  0.00     0.083 C 
BRANCH  13  16
HETATM   16  C20 UNL     1       9.248   0.577   0.428  1.00  0.00     0.120 A 
HETATM   17  C21 UNL     1       9.704   0.359   1.706  1.00  0.00     0.137 A 
HETATM   18  N6  UNL     1      11.027   0.450   1.913  1.00  0.00    -0.355 N 
HETATM   19  C22 UNL     1      11.902   0.749   0.895  1.00  0.00     0.102 A 
ATOM     20  H6  UNL     1      11.394   0.293   2.852  1.00  0.00     0.166 HD
HETATM   21  S1  UNL     1      13.587   0.959   0.757  1.00  0.00    -0.080 SA
HETATM   22  C25 UNL     1      11.454   0.965  -0.373  1.00  0.00     0.090 A 
HETATM   23  C23 UNL     1      13.689   1.318  -0.905  1.00  0.00     0.078 A 
HETATM   24  C24 UNL     1      12.392   1.264  -1.318  1.00  0.00     0.070 A 
HETATM   25 CL1  UNL     1      12.010   1.583  -3.040  1.00  0.00    -0.081 Cl
HETATM   26  N7  UNL     1      10.102   0.867  -0.559  1.00  0.00    -0.338 N 
ATOM     27  H7  UNL     1       9.728   1.023  -1.495  1.00  0.00     0.167 HD
ENDBRANCH  13  16
ENDBRANCH   9  10
ENDBRANCH   8   9
ENDBRANCH   7   8
ENDBRANCH   4   7
BRANCH   1  28
HETATM   28  C12 UNL     1      -2.978  -0.839  -0.494  1.00  0.00     0.124 C 
BRANCH  28  29
HETATM   29  C11 UNL     1      -3.817  -0.539   0.710  1.00  0.00     0.191 C 
HETATM   30 BR1  UNL     1      -3.545   1.310   1.224  1.00  0.00    -0.041 Br
BRANCH  29  31
HETATM   31  C10 UNL     1      -5.255  -0.741   0.398  1.00  0.00     0.063 A 
HETATM   32  N1  UNL     1      -6.177   0.241   0.447  1.00  0.00    -0.359 N 
HETATM   33  C3  UNL     1      -7.469   0.025   0.167  1.00  0.00     0.016 A 
ATOM     34  H1  UNL     1      -5.880   1.182   0.706  1.00  0.00     0.165 HD
HETATM   35  C2  UNL     1      -7.880  -1.248  -0.188  1.00  0.00     0.061 A 
HETATM   36  C1  UNL     1      -6.977  -2.294  -0.256  1.00  0.00     0.069 A 
HETATM   37  C30 UNL     1      -5.661  -2.012   0.044  1.00  0.00     0.066 A 
BRANCH  33  38
HETATM   38  C4  UNL     1      -8.478   1.133   0.234  1.00  0.00     0.036 C 
HETATM   39  C5  UNL     1      -9.346   0.955   1.481  1.00  0.00     0.011 C 
HETATM   40  C6  UNL     1     -10.409   2.008   1.452  1.00  0.00     0.001 C 
HETATM   41  C7  UNL     1     -10.256   2.990   0.316  1.00  0.00     0.000 C 
HETATM   42  C8  UNL     1     -10.264   2.310  -1.019  1.00  0.00     0.001 C 
HETATM   43  C9  UNL     1      -9.397   1.094  -0.958  1.00  0.00     0.011 C 
ENDBRANCH  33  38
BRANCH  36  44
HETATM   44  O1  UNL     1      -7.358  -3.575  -0.608  1.00  0.00    -0.361 OA
ATOM     45  H1  UNL     1      -6.738  -4.293  -0.655  1.00  0.00     0.217 HD
ENDBRANCH  36  44
ENDBRANCH  29  31
BRANCH  29  46
HETATM   46  O2  UNL     1      -3.510  -1.311   1.810  1.00  0.00    -0.369 OA
ATOM     47  H2  UNL     1      -2.590  -1.182   2.010  1.00  0.00     0.212 HD
ENDBRANCH  29  46
ENDBRANCH  28  29
ENDBRANCH   1  28
TORSDOF 11
