REMARK  13 active torsions:
REMARK  status: ('A' for Active; 'I' for Inactive)
REMARK    1  A    between atoms: C3_3  and  C4_4 
REMARK    2  A    between atoms: C5_5  and  C6_6 
REMARK    3  A    between atoms: C6_6  and  C7_7 
REMARK    4  A    between atoms: C7_7  and  O2_9 
REMARK    5  A    between atoms: O2_9  and  C8_10 
REMARK    6  A    between atoms: C8_10  and  O3_11 
REMARK    7  A    between atoms: C12_16  and  O4_18 
REMARK    8  A    between atoms: C17_23  and  C18_24 
REMARK    9  A    between atoms: C19_27  and  C20_28 
REMARK   10  A    between atoms: C20_28  and  O7_29 
REMARK   11  A    between atoms: O7_29  and  C21_30 
REMARK   12  A    between atoms: C21_30  and  C22_32 
REMARK   13  A    between atoms: C26_37  and  O9_38 
ROOT
HETATM    1  C8  UNL     1      -2.327  -0.749  -0.789  1.00  0.00     0.223 C 
HETATM    2  C9  UNL     1      -2.008  -1.328   0.529  1.00  0.00    -0.008 C 
HETATM    3  C10 UNL     1      -2.486  -2.464   0.908  1.00  0.00    -0.042 C 
HETATM    4  C11 UNL     1      -2.192  -3.024   2.236  1.00  0.00     0.047 C 
HETATM    5  C12 UNL     1      -3.116  -3.348  -0.195  1.00  0.00     0.083 C 
HETATM    6  C13 UNL     1      -2.813  -4.791   0.273  1.00  0.00     0.051 C 
HETATM    7  C15 UNL     1      -2.239  -3.156  -1.422  1.00  0.00     0.080 C 
HETATM    8  C16 UNL     1      -1.507  -1.874  -1.572  1.00  0.00     0.192 C 
HETATM    9  O5  UNL     1      -0.257  -1.718  -1.112  1.00  0.00    -0.372 OA
HETATM   10  C17 UNL     1       0.199  -1.591   0.120  1.00  0.00     0.149 C 
HETATM   11  C30 UNL     1      -0.757  -0.753   1.102  1.00  0.00     0.074 C 
ENDROOT
BRANCH  10  12
HETATM   12  C18 UNL     1       1.515  -0.914   0.241  1.00  0.00     0.156 C 
HETATM   13  N1  UNL     1       1.623   0.418  -0.232  1.00  0.00    -0.091 NA
HETATM   14  O6  UNL     1       2.818   0.622  -0.742  1.00  0.00    -0.277 OA
HETATM   15  C19 UNL     1       3.588  -0.503  -0.766  1.00  0.00     0.192 C 
HETATM   16  C29 UNL     1       2.611  -1.634  -0.528  1.00  0.00     0.139 C 
HETATM   17 CL1  UNL     1       2.057  -2.250  -2.086  1.00  0.00    -0.120 Cl
BRANCH  15  18
HETATM   18  C20 UNL     1       4.656  -0.460   0.281  1.00  0.00     0.214 C 
BRANCH  18  19
HETATM   19  O7  UNL     1       5.597   0.541   0.211  1.00  0.00    -0.315 OA
BRANCH  19  20
HETATM   20  C21 UNL     1       5.504   1.889   0.342  1.00  0.00     0.293 C 
HETATM   21  O8  UNL     1       4.408   2.429   0.582  1.00  0.00    -0.259 OA
BRANCH  20  22
HETATM   22  C22 UNL     1       6.723   2.708   0.196  1.00  0.00     0.042 A 
HETATM   23  C23 UNL     1       6.635   4.091   0.344  1.00  0.00     0.019 A 
HETATM   24  C24 UNL     1       7.772   4.868   0.206  1.00  0.00     0.023 A 
HETATM   25  C25 UNL     1       9.012   4.311  -0.079  1.00  0.00     0.044 A 
HETATM   26 BR1  UNL     1      10.531   5.439  -0.256  1.00  0.00    -0.048 Br
HETATM   27  C26 UNL     1       9.092   2.943  -0.223  1.00  0.00     0.086 A 
HETATM   28  C28 UNL     1       7.951   2.181  -0.083  1.00  0.00     0.055 A 
BRANCH  27  29
HETATM   29  O9  UNL     1      10.320   2.373  -0.507  1.00  0.00    -0.355 OA
HETATM   30  C27 UNL     1      10.404   0.979  -0.656  1.00  0.00     0.210 C 
ENDBRANCH  27  29
ENDBRANCH  20  22
ENDBRANCH  19  20
ENDBRANCH  18  19
ENDBRANCH  15  18
ENDBRANCH  10  12
BRANCH   1  31
HETATM   31  O2  UNL     1      -3.623  -0.707  -1.208  1.00  0.00    -0.276 OA
BRANCH  31  32
HETATM   32  C7  UNL     1      -4.557   0.276  -0.831  1.00  0.00     0.265 C 
HETATM   33  O1  UNL     1      -4.132   1.136  -0.067  1.00  0.00    -0.265 OA
BRANCH  32  34
HETATM   34  C6  UNL     1      -5.910   0.220  -1.345  1.00  0.00     0.138 C 
BRANCH  34  35
HETATM   35  C5  UNL     1      -6.846   1.265  -0.939  1.00  0.00    -0.017 C 
HETATM   36  C4  UNL     1      -6.694   2.292  -0.163  1.00  0.00    -0.004 C 
BRANCH  36  37
HETATM   37  C3  UNL     1      -7.862   3.179   0.050  1.00  0.00    -0.005 C 
HETATM   38  C2  UNL     1      -7.731   4.220   0.828  1.00  0.00    -0.031 C 
HETATM   39  C1  UNL     1      -6.469   4.557   1.508  1.00  0.00     0.036 C 
ENDBRANCH  36  37
ENDBRANCH  34  35
ENDBRANCH  32  34
ENDBRANCH  31  32
ENDBRANCH   1  31
BRANCH   1  40
HETATM   40  O3  UNL     1      -1.663   0.396  -1.136  1.00  0.00    -0.359 OA
ATOM     41  H3  UNL     1      -0.759   0.367  -0.844  1.00  0.00     0.213 HD
ENDBRANCH   1  40
BRANCH   5  42
HETATM   42  O4  UNL     1      -4.432  -3.247  -0.307  1.00  0.00    -0.381 OA
HETATM   43  C14 UNL     1      -5.101  -4.000  -1.222  1.00  0.00     0.203 C 
ENDBRANCH   5  42
TORSDOF 13
