REMARK  11 active torsions:
REMARK  status: ('A' for Active; 'I' for Inactive)
REMARK    1  A    between atoms: O1_2  and  C2_3 
REMARK    2  A    between atoms: C4_5  and  C5_6 
REMARK    3  A    between atoms: C5_6  and  C6_8 
REMARK    4  A    between atoms: N1_12  and  N2_13 
REMARK    5  A    between atoms: N2_13  and  C8_14 
REMARK    6  A    between atoms: C16_28  and  C17_29 
REMARK    7  A    between atoms: C19_31  and  O4_32 
REMARK    8  A    between atoms: C21_34  and  O5_35 
REMARK    9  A    between atoms: C23_37  and  O6_38 
REMARK   10  A    between atoms: C27_42  and  O7_43 
REMARK   11  A    between atoms: C29_45  and  O8_46 
ROOT
HETATM    1  C6  UNL     1       0.500   0.251   1.284  1.00  0.00     0.241 A 
HETATM    2  O3  UNL     1       0.410   1.492   1.924  1.00  0.00    -0.307 OA
HETATM    3  C7  UNL     1      -0.542   2.422   1.912  1.00  0.00     0.247 A 
HETATM    4  S1  UNL     1      -0.509   3.877   2.622  1.00  0.00    -0.030 SA
HETATM    5  N1  UNL     1      -1.761   2.104   1.177  1.00  0.00    -0.165 N 
HETATM    6  C15 UNL     1      -1.745   0.808   0.554  1.00  0.00     0.145 A 
HETATM    7  C16 UNL     1      -0.777  -0.061   0.571  1.00  0.00     0.008 A 
ENDROOT
BRANCH   1   8
HETATM    8  C5  UNL     1       1.490   0.507   0.152  1.00  0.00     0.193 C 
HETATM    9  O2  UNL     1       1.175   1.413  -0.692  1.00  0.00    -0.289 OA
BRANCH   8  10
HETATM   10  C4  UNL     1       2.738  -0.180  -0.029  1.00  0.00     0.018 A 
HETATM   11  C3  UNL     1       3.483   0.016  -1.205  1.00  0.00     0.055 A 
HETATM   12  C2  UNL     1       4.701  -0.539  -1.443  1.00  0.00     0.105 A 
HETATM   13  C29 UNL     1       5.259  -1.360  -0.459  1.00  0.00     0.135 A 
HETATM   14  C27 UNL     1       4.583  -1.593   0.714  1.00  0.00     0.105 A 
HETATM   15  C26 UNL     1       3.352  -1.001   0.892  1.00  0.00     0.055 A 
BRANCH  12  16
HETATM   16  O1  UNL     1       5.414  -0.321  -2.625  1.00  0.00    -0.353 OA
HETATM   17  C1  UNL     1       4.812   0.516  -3.593  1.00  0.00     0.210 C 
ENDBRANCH  12  16
BRANCH  13  18
HETATM   18  O8  UNL     1       6.493  -1.935  -0.673  1.00  0.00    -0.351 OA
HETATM   19  C30 UNL     1       7.732  -1.391  -0.343  1.00  0.00     0.210 C 
ENDBRANCH  13  18
BRANCH  14  20
HETATM   20  O7  UNL     1       5.144  -2.415   1.702  1.00  0.00    -0.353 OA
HETATM   21  C28 UNL     1       4.482  -2.677   2.917  1.00  0.00     0.210 C 
ENDBRANCH  14  20
ENDBRANCH   8  10
ENDBRANCH   1   8
BRANCH   7  22
HETATM   22  C17 UNL     1      -0.943  -1.339  -0.150  1.00  0.00    -0.020 A 
HETATM   23  C18 UNL     1      -1.942  -1.519  -1.061  1.00  0.00     0.052 A 
HETATM   24  C19 UNL     1      -2.188  -2.738  -1.703  1.00  0.00     0.105 A 
HETATM   25  C21 UNL     1      -1.364  -3.791  -1.379  1.00  0.00     0.135 A 
HETATM   26  C23 UNL     1      -0.334  -3.655  -0.458  1.00  0.00     0.105 A 
HETATM   27  C25 UNL     1      -0.150  -2.416   0.139  1.00  0.00     0.052 A 
BRANCH  24  28
HETATM   28  O4  UNL     1      -3.205  -2.904  -2.625  1.00  0.00    -0.353 OA
HETATM   29  C20 UNL     1      -4.022  -1.789  -2.921  1.00  0.00     0.210 C 
ENDBRANCH  24  28
BRANCH  25  30
HETATM   30  O5  UNL     1      -1.571  -5.002  -1.985  1.00  0.00    -0.351 OA
HETATM   31  C22 UNL     1      -0.909  -5.262  -3.208  1.00  0.00     0.210 C 
ENDBRANCH  25  30
BRANCH  26  32
HETATM   32  O6  UNL     1       0.441  -4.754  -0.189  1.00  0.00    -0.353 OA
HETATM   33  C24 UNL     1       1.489  -4.672   0.741  1.00  0.00     0.210 C 
ENDBRANCH  26  32
ENDBRANCH   7  22
BRANCH   5  34
HETATM   34  N2  UNL     1      -2.783   2.893   1.067  1.00  0.00    -0.278 NA
BRANCH  34  35
HETATM   35  C8  UNL     1      -3.598   3.722   0.943  1.00  0.00     0.283 A 
HETATM   36  N3  UNL     1      -4.955   3.544   1.018  1.00  0.00    -0.313 N 
HETATM   37  C9  UNL     1      -5.561   4.708   0.816  1.00  0.00     0.064 A 
ATOM     38  H3  UNL     1      -5.425   2.657   1.200  1.00  0.00     0.170 HD
HETATM   39  C10 UNL     1      -6.894   5.103   0.781  1.00  0.00     0.057 A 
HETATM   40  C14 UNL     1      -4.607   5.655   0.609  1.00  0.00     0.064 A 
HETATM   41  C11 UNL     1      -7.200   6.422   0.539  1.00  0.00     0.058 A 
HETATM   42 CL1  UNL     1      -8.871   6.950   0.485  1.00  0.00    -0.082 Cl
HETATM   43  C12 UNL     1      -6.240   7.381   0.329  1.00  0.00     0.058 A 
HETATM   44 CL2  UNL     1      -6.647   9.057   0.023  1.00  0.00    -0.082 Cl
HETATM   45  C13 UNL     1      -4.926   6.986   0.365  1.00  0.00     0.057 A 
HETATM   46  N4  UNL     1      -3.434   5.045   0.689  1.00  0.00    -0.313 N 
ATOM     47  H4  UNL     1      -2.531   5.506   0.575  1.00  0.00     0.170 HD
ENDBRANCH  34  35
ENDBRANCH   5  34
TORSDOF 11
