REMARK  10 active torsions:
REMARK  status: ('A' for Active; 'I' for Inactive)
REMARK    1  A    between atoms: C2_2  and  C4_4 
REMARK    2  A    between atoms: C4_4  and  N1_5 
REMARK    3  A    between atoms: C4_4  and  C23_38 
REMARK    4  A    between atoms: N1_5  and  S1_7 
REMARK    5  A    between atoms: S1_7  and  C5_10 
REMARK    6  A    between atoms: C8_14  and  N2_15 
REMARK    7  A    between atoms: N2_15  and  C9_17 
REMARK    8  A    between atoms: C9_17  and  C10_18 
REMARK       I    between atoms: N3_21  and  C13_22 
REMARK       I    between atoms: C13_22  and  N4_24 
REMARK    9  A    between atoms: N4_24  and  C14_26 
REMARK   10  A    between atoms: C21_33  and  N5_34 
ROOT
HETATM    1  C5  UNL     1      -3.520   0.368   2.775  1.00  0.00     0.083 A 
HETATM    2  C6  UNL     1      -3.345   1.419   1.907  1.00  0.00     0.051 A 
HETATM    3  C7  UNL     1      -2.089   1.783   1.403  1.00  0.00     0.064 A 
HETATM    4 CL1  UNL     1      -1.992   3.184   0.337  1.00  0.00    -0.082 Cl
HETATM    5  C8  UNL     1      -0.959   1.077   1.771  1.00  0.00     0.083 A 
HETATM    6  C21 UNL     1      -1.103  -0.002   2.655  1.00  0.00     0.132 A 
HETATM    7  C22 UNL     1      -2.380  -0.313   3.121  1.00  0.00     0.063 A 
ENDROOT
BRANCH   5   8
HETATM    8  N2  UNL     1       0.345   1.364   1.294  1.00  0.00    -0.386 N 
ATOM      9  H2  UNL     1       1.120   1.164   1.927  1.00  0.00     0.159 HD
BRANCH   8  10
HETATM   10  C9  UNL     1       0.681   1.902   0.022  1.00  0.00     0.124 C 
BRANCH  10  11
HETATM   11  C10 UNL     1       0.327   1.008  -1.155  1.00  0.00     0.006 C 
HETATM   12  C11 UNL     1       1.086  -0.299  -1.052  1.00  0.00     0.026 C 
HETATM   13  C12 UNL     1       2.058  -0.457  -2.215  1.00  0.00     0.128 C 
HETATM   14  N3  UNL     1       2.779   0.766  -2.358  1.00  0.00    -0.334 N 
HETATM   15  C13 UNL     1       4.144   0.906  -2.072  1.00  0.00     0.318 C 
HETATM   16  C19 UNL     1       1.998   1.911  -2.820  1.00  0.00     0.128 C 
HETATM   17  O3  UNL     1       4.652   2.071  -2.262  1.00  0.00    -0.247 OA
HETATM   18  N4  UNL     1       4.961  -0.147  -1.598  1.00  0.00    -0.338 N 
ATOM     19  H4  UNL     1       4.551  -1.069  -1.450  1.00  0.00     0.164 HD
HETATM   20  C20 UNL     1       0.550   1.758  -2.422  1.00  0.00     0.026 C 
BRANCH  18  21
HETATM   21  C14 UNL     1       6.377   0.057  -1.317  1.00  0.00     0.086 C 
HETATM   22  C15 UNL     1       7.271  -0.909  -2.027  1.00  0.00     0.025 C 
HETATM   23  C16 UNL     1       8.498  -0.964  -1.178  1.00  0.00     0.002 C 
HETATM   24  C17 UNL     1       8.088  -0.619   0.216  1.00  0.00     0.002 C 
HETATM   25  C18 UNL     1       6.672  -0.142   0.156  1.00  0.00     0.025 C 
ENDBRANCH  18  21
ENDBRANCH  10  11
ENDBRANCH   8  10
ENDBRANCH   5   8
BRANCH   6  26
HETATM   26  N5  UNL     1      -0.019  -0.775   3.104  1.00  0.00    -0.113 N 
HETATM   27  O4  UNL     1       0.979  -1.087   2.480  1.00  0.00    -0.532 OA
HETATM   28  O5  UNL     1      -0.104  -1.272   4.407  1.00  0.00    -0.532 OA
ENDBRANCH   6  26
BRANCH   1  29
HETATM   29  S1  UNL     1      -5.088  -0.065   3.409  1.00  0.00     0.259 S 
HETATM   30  O1  UNL     1      -5.964   1.168   3.547  1.00  0.00    -0.201 OA
HETATM   31  O2  UNL     1      -4.947  -0.608   4.830  1.00  0.00    -0.201 OA
BRANCH  29  32
HETATM   32  N1  UNL     1      -5.952  -1.203   2.513  1.00  0.00    -0.300 N 
ATOM     33  H1  UNL     1      -6.241  -2.118   2.860  1.00  0.00     0.173 HD
BRANCH  32  34
HETATM   34  C4  UNL     1      -6.227  -0.700   1.181  1.00  0.00     0.197 C 
BRANCH  34  35
HETATM   35  C2  UNL     1      -5.799  -1.626   0.103  1.00  0.00     0.011 C 
HETATM   36  C1  UNL     1      -6.108  -1.015  -1.259  1.00  0.00     0.012 C 
HETATM   37  C3  UNL     1      -4.342  -1.923   0.187  1.00  0.00     0.012 C 
ENDBRANCH  34  35
BRANCH  34  38
HETATM   38  C23 UNL     1      -7.700  -0.392   1.069  1.00  0.00     0.197 C 
HETATM   39  O6  UNL     1      -8.427  -0.616   2.066  1.00  0.00    -0.646 OA
HETATM   40  O7  UNL     1      -8.296   0.119  -0.056  1.00  0.00    -0.646 OA
ENDBRANCH  34  38
ENDBRANCH  32  34
ENDBRANCH  29  32
ENDBRANCH   1  29
TORSDOF 10
