REMARK  12 active torsions:
REMARK  status: ('A' for Active; 'I' for Inactive)
REMARK    1  A    between atoms: N1_8  and  C5_9 
REMARK    2  A    between atoms: C5_9  and  C6_10 
REMARK       I    between atoms: N2_20  and  C15_21 
REMARK       I    between atoms: C15_21  and  N3_23 
REMARK    3  A    between atoms: N3_23  and  C16_25 
REMARK    4  A    between atoms: C16_25  and  C17_26 
REMARK    5  A    between atoms: C17_26  and  C18_27 
REMARK    6  A    between atoms: C18_27  and  C19_28 
REMARK    7  A    between atoms: C19_28  and  C20_29 
REMARK    8  A    between atoms: C20_29  and  C21_30 
REMARK    9  A    between atoms: C21_30  and  C22_31 
REMARK   10  A    between atoms: C22_31  and  C23_32 
REMARK   11  A    between atoms: C23_32  and  O5_33 
REMARK   12  A    between atoms: N4_35  and  O6_37 
ROOT
HETATM    1  O1  UNL     1      -5.629  -4.829  -0.654  1.00  0.00    -0.271 OA
HETATM    2  C1  UNL     1      -4.471  -4.730  -1.186  1.00  0.00     0.241 C 
HETATM    3  C2  UNL     1      -4.374  -3.906  -2.402  1.00  0.00     0.270 C 
HETATM    4  O2  UNL     1      -4.375  -2.553  -2.232  1.00  0.00    -0.380 OA
HETATM    5  C3  UNL     1      -5.476  -2.004  -1.604  1.00  0.00     0.197 C 
HETATM    6  C4  UNL     1      -5.099  -0.540  -1.292  1.00  0.00     0.227 C 
HETATM    7  O3  UNL     1      -4.344  -0.561  -0.169  1.00  0.00    -0.276 OA
HETATM    8  N1  UNL     1      -3.871   0.542   0.335  1.00  0.00    -0.269 N 
HETATM    9  C12 UNL     1      -2.745   1.065  -0.338  1.00  0.00     0.157 C 
HETATM   10  C13 UNL     1      -1.683   0.032  -0.653  1.00  0.00     0.042 C 
HETATM   11  C14 UNL     1      -0.975  -0.460   0.557  1.00  0.00     0.129 C 
HETATM   12  N2  UNL     1      -0.395  -1.758   0.348  1.00  0.00    -0.334 N 
HETATM   13  C15 UNL     1       0.846  -1.917  -0.306  1.00  0.00     0.318 C 
HETATM   14  O4  UNL     1       1.315  -3.071  -0.494  1.00  0.00    -0.247 OA
HETATM   15  N3  UNL     1       1.594  -0.811  -0.760  1.00  0.00    -0.343 N 
ATOM     16  H3  UNL     1       1.212   0.123  -0.611  1.00  0.00     0.164 HD
HETATM   17  C24 UNL     1      -1.069  -2.940   0.838  1.00  0.00     0.129 C 
HETATM   18  C25 UNL     1      -2.060  -3.450  -0.156  1.00  0.00     0.039 C 
HETATM   19  C26 UNL     1      -2.108  -4.960  -0.236  1.00  0.00     0.124 C 
HETATM   20  N5  UNL     1      -3.436  -5.430  -0.535  1.00  0.00    -0.359 N 
ATOM     21  H5  UNL     1      -3.653  -6.382  -0.241  1.00  0.00     0.162 HD
ENDROOT
BRANCH  15  22
HETATM   22  C16 UNL     1       2.872  -0.927  -1.425  1.00  0.00     0.124 C 
BRANCH  22  23
HETATM   23  C17 UNL     1       3.931  -1.592  -0.567  1.00  0.00     0.020 C 
BRANCH  23  24
HETATM   24  C18 UNL     1       4.171  -0.850   0.705  1.00  0.00     0.002 C 
BRANCH  24  25
HETATM   25  C19 UNL     1       4.632   0.559   0.505  1.00  0.00     0.000 C 
BRANCH  25  26
HETATM   26  C20 UNL     1       5.935   0.567  -0.246  1.00  0.00     0.000 C 
BRANCH  26  27
HETATM   27  C21 UNL     1       6.436   1.962  -0.469  1.00  0.00     0.008 C 
BRANCH  27  28
HETATM   28  C22 UNL     1       6.655   2.647   0.842  1.00  0.00     0.086 C 
BRANCH  28  29
HETATM   29  C23 UNL     1       7.179   4.040   0.612  1.00  0.00     0.135 C 
HETATM   30  N4  UNL     1       7.369   4.411  -0.593  1.00  0.00    -0.251 N 
ATOM     31  H4  UNL     1       7.150   3.730  -1.321  1.00  0.00     0.196 HD
BRANCH  29  32
HETATM   32  O5  UNL     1       7.429   4.858   1.724  1.00  0.00    -0.348 OA
ATOM     33  H5  UNL     1       7.760   5.737   1.579  1.00  0.00     0.219 HD
ENDBRANCH  29  32
BRANCH  30  34
HETATM   34  O6  UNL     1       7.834   5.623  -1.010  1.00  0.00    -0.288 OA
ATOM     35  H6  UNL     1       7.976   5.899  -1.908  1.00  0.00     0.244 HD
ENDBRANCH  30  34
ENDBRANCH  28  29
ENDBRANCH  27  28
ENDBRANCH  26  27
ENDBRANCH  25  26
ENDBRANCH  24  25
ENDBRANCH  23  24
ENDBRANCH  22  23
ENDBRANCH  15  22
BRANCH   8  36
HETATM   36  C5  UNL     1      -4.691   1.398   1.085  1.00  0.00     0.128 C 
BRANCH  36  37
HETATM   37  C6  UNL     1      -3.915   2.567   1.560  1.00  0.00    -0.019 A 
HETATM   38  C7  UNL     1      -3.953   3.774   0.875  1.00  0.00     0.014 A 
HETATM   39  C8  UNL     1      -3.228   4.856   1.324  1.00  0.00     0.024 A 
HETATM   40  C9  UNL     1      -2.441   4.774   2.468  1.00  0.00     0.034 A 
HETATM   41 CL1  UNL     1      -1.541   6.169   2.996  1.00  0.00    -0.084 Cl
HETATM   42  C10 UNL     1      -2.390   3.576   3.164  1.00  0.00     0.024 A 
HETATM   43  C11 UNL     1      -3.124   2.496   2.702  1.00  0.00     0.014 A 
ENDBRANCH  36  37
ENDBRANCH   8  36
TORSDOF 12
