REMARK  12 active torsions:
REMARK  status: ('A' for Active; 'I' for Inactive)
REMARK    1  A    between atoms: C3_3  and  S1_4 
REMARK    2  A    between atoms: S1_4  and  N1_7 
REMARK    3  A    between atoms: N1_7  and  C4_9 
REMARK    4  A    between atoms: C4_9  and  C5_10 
REMARK    5  A    between atoms: C4_9  and  C12_17 
REMARK    6  A    between atoms: C5_10  and  C6_11 
REMARK    7  A    between atoms: C12_17  and  O3_18 
REMARK    8  A    between atoms: N2_20  and  O4_22 
REMARK    9  A    between atoms: C15_26  and  N3_27 
REMARK       I    between atoms: N3_27  and  C16_29 
REMARK   10  A    between atoms: C16_29  and  C17_31 
REMARK   11  A    between atoms: C17_31  and  C18_32 
REMARK   12  A    between atoms: C18_32  and  C19_33 
REMARK       I    between atoms: C19_33  and  N4_35 
ROOT
HETATM    1  C1  UNL     1      -1.043  -3.933   3.364  1.00  0.00     0.052 C 
HETATM    2  C2  UNL     1      -0.518  -2.765   2.561  1.00  0.00    -0.015 A 
HETATM    3  C3  UNL     1      -1.414  -1.871   2.000  1.00  0.00     0.087 A 
HETATM    4  C13 UNL     1      -0.895  -0.844   1.287  1.00  0.00     0.028 A 
HETATM    5  C14 UNL     1       0.495  -0.698   1.127  1.00  0.00     0.033 A 
HETATM    6  C15 UNL     1       1.396  -1.569   1.671  1.00  0.00     0.057 A 
HETATM    7  C24 UNL     1       0.834  -2.621   2.404  1.00  0.00     0.068 A 
HETATM    8 CL1  UNL     1       1.924  -3.796   3.145  1.00  0.00    -0.081 Cl
ENDROOT
BRANCH   3   9
HETATM    9  S1  UNL     1      -3.104  -2.067   2.260  1.00  0.00     0.260 S 
HETATM   10  O1  UNL     1      -3.356  -1.803   3.759  1.00  0.00    -0.200 OA
HETATM   11  O2  UNL     1      -3.387  -3.560   2.017  1.00  0.00    -0.200 OA
BRANCH   9  12
HETATM   12  N1  UNL     1      -4.181  -1.103   1.425  1.00  0.00    -0.303 N 
ATOM     13  H1  UNL     1      -4.797  -0.463   1.927  1.00  0.00     0.173 HD
BRANCH  12  14
HETATM   14  C4  UNL     1      -4.231  -1.183   0.009  1.00  0.00     0.169 C 
BRANCH  14  15
HETATM   15  C5  UNL     1      -4.130   0.078  -0.731  1.00  0.00     0.038 C 
BRANCH  15  16
HETATM   16  C6  UNL     1      -5.126   1.150  -0.485  1.00  0.00    -0.012 C 
HETATM   17  C7  UNL     1      -4.722   2.345  -1.394  1.00  0.00     0.005 C 
HETATM   18  C8  UNL     1      -5.905   3.241  -1.646  1.00  0.00     0.000 C 
HETATM   19  C9  UNL     1      -6.907   2.600  -2.586  1.00  0.00     0.000 C 
HETATM   20  C10 UNL     1      -6.873   1.112  -2.281  1.00  0.00     0.000 C 
HETATM   21  C11 UNL     1      -6.545   0.883  -0.817  1.00  0.00     0.005 C 
ENDBRANCH  15  16
ENDBRANCH  14  15
BRANCH  14  22
HETATM   22  C12 UNL     1      -5.352  -2.088  -0.445  1.00  0.00     0.159 C 
HETATM   23  N2  UNL     1      -6.082  -2.732   0.396  1.00  0.00    -0.249 N 
ATOM     24  H2  UNL     1      -5.887  -2.619   1.391  1.00  0.00     0.196 HD
BRANCH  22  25
HETATM   25  O3  UNL     1      -5.616  -2.245  -1.792  1.00  0.00    -0.347 OA
ATOM     26  H3  UNL     1      -6.321  -2.814  -2.078  1.00  0.00     0.219 HD
ENDBRANCH  22  25
BRANCH  23  27
HETATM   27  O4  UNL     1      -7.095  -3.551   0.030  1.00  0.00    -0.288 OA
ATOM     28  H4  UNL     1      -7.634  -4.027   0.651  1.00  0.00     0.244 HD
ENDBRANCH  23  27
ENDBRANCH  14  22
ENDBRANCH  12  14
ENDBRANCH   9  12
ENDBRANCH   3   9
BRANCH   6  29
HETATM   29  N3  UNL     1       2.809  -1.490   1.554  1.00  0.00    -0.326 N 
HETATM   30  C16 UNL     1       3.567  -0.536   0.876  1.00  0.00     0.222 C 
HETATM   31  O5  UNL     1       3.083   0.415   0.257  1.00  0.00    -0.273 OA
ATOM     32  H3  UNL     1       3.337  -2.224   2.026  1.00  0.00     0.169 HD
BRANCH  30  33
HETATM   33  C17 UNL     1       5.053  -0.645   0.882  1.00  0.00     0.112 C 
BRANCH  33  34
HETATM   34  C18 UNL     1       5.696   0.462   0.099  1.00  0.00     0.112 C 
BRANCH  34  35
HETATM   35  C19 UNL     1       7.165   0.375   0.091  1.00  0.00     0.220 C 
HETATM   36  O6  UNL     1       7.775  -0.552   0.698  1.00  0.00    -0.273 OA
HETATM   37  N4  UNL     1       7.925   1.336  -0.602  1.00  0.00    -0.348 N 
HETATM   38  C20 UNL     1       9.389   1.281  -0.632  1.00  0.00     0.152 C 
HETATM   39  C23 UNL     1       7.328   2.435  -1.327  1.00  0.00     0.152 C 
HETATM   40  C21 UNL     1       9.773   1.759  -2.032  1.00  0.00     0.187 C 
HETATM   41  O7  UNL     1       9.489   3.104  -2.178  1.00  0.00    -0.388 OA
HETATM   42  C22 UNL     1       8.377   3.528  -1.483  1.00  0.00     0.187 C 
ENDBRANCH  34  35
ENDBRANCH  33  34
ENDBRANCH  30  33
ENDBRANCH   6  29
TORSDOF 12
