REMARK  5 active torsions:
REMARK  status: ('A' for Active; 'I' for Inactive)
REMARK    1  A    between atoms: O1_2  and  C2_3 
REMARK    2  A    between atoms: C9_11  and  C10_12 
REMARK    3  A    between atoms: C10_12  and  C11_13 
REMARK    4  A    between atoms: C11_13  and  C12_14 
REMARK    5  A    between atoms: C12_14  and  C13_15 
ROOT
HETATM    1  C2  UNL     1      -3.782   0.612   0.085  1.00  0.00     0.324 C 
HETATM    2  O2  UNL     1      -3.020  -0.076   1.066  1.00  0.00    -0.347 OA
HETATM    3  C3  UNL     1      -2.125  -0.841   0.352  1.00  0.00     0.170 C 
HETATM    4  C4  UNL     1      -1.789  -2.101   1.169  1.00  0.00     0.014 C 
HETATM    5  C5  UNL     1      -3.123  -2.860   1.320  1.00  0.00     0.012 C 
HETATM    6  C6  UNL     1      -0.883  -3.027   0.418  1.00  0.00     0.007 C 
HETATM    7  C7  UNL     1       0.208  -2.281  -0.364  1.00  0.00     0.011 C 
HETATM    8  C8  UNL     1       0.276  -0.915   0.219  1.00  0.00     0.059 C 
HETATM    9  C9  UNL     1       1.581  -0.218   0.129  1.00  0.00     0.139 C 
HETATM   10  O3  UNL     1       1.518   0.894   1.023  1.00  0.00    -0.313 OA
HETATM   11  C16 UNL     1       0.208   1.342   1.334  1.00  0.00     0.291 C 
HETATM   12  O4  UNL     1      -0.114   1.750   2.475  1.00  0.00    -0.262 OA
HETATM   13  C17 UNL     1      -0.712   1.279   0.198  1.00  0.00     0.265 C 
HETATM   14  O5  UNL     1      -1.905   1.920   0.276  1.00  0.00    -0.330 OA
HETATM   15  C18 UNL     1      -2.721   1.380  -0.717  1.00  0.00     0.244 C 
HETATM   16  C19 UNL     1      -3.490   2.581  -1.299  1.00  0.00     0.087 C 
HETATM   17  O6  UNL     1      -2.166   0.733  -1.728  1.00  0.00    -0.195 OA
HETATM   18  O7  UNL     1      -1.135  -0.050  -1.578  1.00  0.00    -0.220 OA
HETATM   19  C20 UNL     1      -0.935  -0.146  -0.194  1.00  0.00     0.164 C 
ENDROOT
BRANCH   9  20
HETATM   20  C10 UNL     1       2.088   0.084  -1.219  1.00  0.00     0.033 C 
BRANCH  20  21
HETATM   21  C11 UNL     1       3.424   0.797  -1.151  1.00  0.00     0.003 C 
BRANCH  21  22
HETATM   22  C12 UNL     1       4.465  -0.020  -0.460  1.00  0.00     0.005 C 
BRANCH  22  23
HETATM   23  C13 UNL     1       5.753   0.803  -0.460  1.00  0.00    -0.014 A 
HETATM   24  C14 UNL     1       6.974   0.201   0.185  1.00  0.00     0.005 A 
HETATM   25  C15 UNL     1       6.278   1.328   0.848  1.00  0.00     0.005 A 
ENDBRANCH  22  23
ENDBRANCH  21  22
ENDBRANCH  20  21
ENDBRANCH   9  20
BRANCH   1  26
HETATM   26  O1  UNL     1      -4.531   1.544   0.761  1.00  0.00    -0.361 OA
HETATM   27  C1  UNL     1      -5.887   1.446   0.542  1.00  0.00     0.205 C 
ENDBRANCH   1  26
TORSDOF 5
