REMARK  5 active torsions:
REMARK  status: ('A' for Active; 'I' for Inactive)
REMARK    1  A    between atoms: C3_4  and  C4_5 
REMARK    2  A    between atoms: C4_5  and  N1_6 
REMARK    3  A    between atoms: N2_9  and  C7_10 
REMARK    4  A    between atoms: C7_10  and  C8_11 
REMARK    5  A    between atoms: C9_16  and  N5_17 
ROOT
HETATM    1  C8  UNL     1      -1.232  -1.168   0.777  1.00  0.00     0.098 A 
HETATM    2  N3  UNL     1      -2.056  -1.282   1.817  1.00  0.00    -0.294 N 
ATOM      3  H3  UNL     1      -1.751  -1.773   2.658  1.00  0.00     0.187 HD
HETATM    4  N4  UNL     1      -3.208  -0.785   1.763  1.00  0.00    -0.279 N 
ATOM      5  H4  UNL     1      -3.836  -0.875   2.562  1.00  0.00     0.189 HD
HETATM    6  C9  UNL     1      -3.616  -0.143   0.673  1.00  0.00     0.163 A 
HETATM    7  S2  UNL     1      -2.227  -0.285  -0.313  1.00  0.00    -0.036 SA
ENDROOT
BRANCH   1   8
HETATM    8  C7  UNL     1       0.168  -1.690   0.643  1.00  0.00     0.338 C 
BRANCH   8   9
HETATM    9  N2  UNL     1       0.779  -1.229  -0.564  1.00  0.00     0.097 N 
HETATM   10  C6  UNL     1       2.116  -1.821  -0.588  1.00  0.00     0.292 C 
HETATM   11  C5  UNL     1       3.005  -0.844   0.197  1.00  0.00     0.147 C 
HETATM   12  N1  UNL     1       3.299   0.220  -0.699  1.00  0.00    -0.405 N 
HETATM   13  C15 UNL     1       2.106   0.747  -1.261  1.00  0.00     0.147 C 
HETATM   14  C14 UNL     1       0.825   0.183  -0.747  1.00  0.00     0.292 C 
BRANCH  12  15
HETATM   15  C4  UNL     1       4.300   1.144  -0.313  1.00  0.00     0.163 C 
BRANCH  15  16
HETATM   16  C3  UNL     1       5.607   0.415  -0.187  1.00  0.00    -0.000 A 
HETATM   17  S1  UNL     1       6.086  -1.116  -0.760  1.00  0.00    -0.105 SA
HETATM   18  C2  UNL     1       7.688  -1.145  -0.181  1.00  0.00     0.050 A 
HETATM   19  C1  UNL     1       7.802   0.065   0.454  1.00  0.00     0.008 A 
HETATM   20  C16 UNL     1       6.733   0.868   0.452  1.00  0.00     0.017 A 
ENDBRANCH  15  16
ENDBRANCH  12  15
ENDBRANCH   8   9
ENDBRANCH   1   8
BRANCH   6  21
HETATM   21  N5  UNL     1      -4.870   0.488   0.407  1.00  0.00    -0.356 N 
HETATM   22  C10 UNL     1      -5.066   1.126  -0.873  1.00  0.00     0.151 C 
HETATM   23  C11 UNL     1      -6.547   1.298  -1.097  1.00  0.00     0.187 C 
HETATM   24  O1  UNL     1      -7.299   0.254  -0.605  1.00  0.00    -0.388 OA
HETATM   25  C12 UNL     1      -7.227   0.073   0.747  1.00  0.00     0.187 C 
HETATM   26  C13 UNL     1      -5.924   0.505   1.364  1.00  0.00     0.151 C 
ENDBRANCH   6  21
TORSDOF 5
