REMARK  7 active torsions:
REMARK  status: ('A' for Active; 'I' for Inactive)
REMARK    1  A    between atoms: C9_10  and  O2_11 
REMARK    2  A    between atoms: O2_11  and  C10_12 
REMARK    3  A    between atoms: C12_16  and  O5_17 
REMARK    4  A    between atoms: C14_19  and  O6_20 
REMARK    5  A    between atoms: O6_20  and  C15_21 
REMARK    6  A    between atoms: C15_21  and  C16_23 
REMARK    7  A    between atoms: C16_23  and  C17_25 
ROOT
HETATM    1  C1  UNL     1       1.551  -3.402  -0.406  1.00  0.00     0.017 C 
HETATM    2  C2  UNL     1       0.857  -2.633   0.381  1.00  0.00    -0.059 C 
HETATM    3  C3  UNL     1       0.463  -3.111   1.714  1.00  0.00     0.036 C 
HETATM    4  C4  UNL     1      -0.853  -2.521   2.098  1.00  0.00     0.010 C 
HETATM    5  C5  UNL     1      -1.656  -2.191   0.858  1.00  0.00     0.005 C 
HETATM    6  C6  UNL     1      -3.042  -1.798   1.323  1.00  0.00     0.011 C 
HETATM    7  C7  UNL     1      -1.040  -1.059   0.077  1.00  0.00     0.109 C 
HETATM    8  C8  UNL     1      -1.419   0.258   0.584  1.00  0.00     0.198 C 
HETATM    9  O1  UNL     1      -1.345   0.726   1.706  1.00  0.00    -0.291 OA
HETATM   10  C9  UNL     1      -1.961   1.011  -0.595  1.00  0.00     0.344 C 
HETATM   11  O4  UNL     1      -2.539   0.008  -1.343  1.00  0.00    -0.323 OA
HETATM   12  C12 UNL     1      -1.621  -1.046  -1.316  1.00  0.00     0.282 C 
HETATM   13  C14 UNL     1       0.448  -1.280  -0.025  1.00  0.00     0.182 C 
ENDROOT
BRANCH  12  14
HETATM   14  O5  UNL     1      -2.248  -2.251  -1.612  1.00  0.00    -0.365 OA
HETATM   15  C13 UNL     1      -1.696  -2.740  -2.798  1.00  0.00     0.204 C 
ENDBRANCH  12  14
BRANCH  13  16
HETATM   16  O6  UNL     1       1.178  -0.260   0.622  1.00  0.00    -0.304 OA
BRANCH  16  17
HETATM   17  C15 UNL     1       2.012   0.633  -0.031  1.00  0.00     0.330 C 
HETATM   18  O7  UNL     1       2.108   0.510  -1.266  1.00  0.00    -0.256 OA
BRANCH  17  19
HETATM   19  C16 UNL     1       2.701   1.629   0.754  1.00  0.00     0.227 C 
HETATM   20  O8  UNL     1       2.572   1.711   2.000  1.00  0.00    -0.286 OA
BRANCH  19  21
HETATM   21  C17 UNL     1       3.594   2.591   0.065  1.00  0.00     0.058 C 
HETATM   22  C18 UNL     1       4.706   1.815  -0.637  1.00  0.00     0.018 C 
HETATM   23  C19 UNL     1       4.202   3.568   1.074  1.00  0.00     0.018 C 
ENDBRANCH  19  21
ENDBRANCH  17  19
ENDBRANCH  16  17
ENDBRANCH  13  16
BRANCH  10  24
HETATM   24  O2  UNL     1      -2.854   2.013  -0.210  1.00  0.00    -0.282 OA
BRANCH  24  25
HETATM   25  C10 UNL     1      -2.743   3.345  -0.491  1.00  0.00     0.257 C 
HETATM   26  C11 UNL     1      -3.764   4.320  -0.024  1.00  0.00     0.126 C 
HETATM   27  O3  UNL     1      -1.751   3.737  -1.159  1.00  0.00    -0.266 OA
ENDBRANCH  24  25
ENDBRANCH  10  24
TORSDOF 7
