REMARK  6 active torsions:
REMARK  status: ('A' for Active; 'I' for Inactive)
REMARK    1  A    between atoms: C2_2  and  C3_3 
REMARK    2  A    between atoms: C3_3  and  C4_4 
REMARK    3  A    between atoms: C4_4  and  C5_5 
REMARK    4  A    between atoms: C4_4  and  N5_17 
REMARK    5  A    between atoms: N4_12  and  C6_13 
REMARK    6  A    between atoms: N6_20  and  C12_21 
ROOT
HETATM    1  C4  UNL     1      -1.349  -0.844   0.180  1.00  0.00     0.035 C 
ENDROOT
BRANCH   1   2
HETATM    2  C3  UNL     1      -2.274  -1.647  -0.648  1.00  0.00     0.055 C 
BRANCH   2   3
HETATM    3  C2  UNL     1      -3.101  -2.643   0.091  1.00  0.00     0.001 C 
HETATM    4  C1  UNL     1      -2.380  -3.687   0.836  1.00  0.00     0.005 C 
ENDBRANCH   2   3
ENDBRANCH   1   2
BRANCH   1   5
HETATM    5  C5  UNL     1      -1.842   0.000   1.242  1.00  0.00     0.157 A 
HETATM    6  N1  UNL     1      -1.446  -0.089   2.546  1.00  0.00    -0.267 N 
HETATM    7  N2  UNL     1      -2.042   0.782   3.304  1.00  0.00    -0.226 N 
ATOM      8  H1  UNL     1      -0.760  -0.763   2.886  1.00  0.00     0.190 HD
HETATM    9  N3  UNL     1      -2.827   1.435   2.474  1.00  0.00    -0.224 N 
ATOM     10  H2  UNL     1      -1.928   0.926   4.307  1.00  0.00     0.210 HD
HETATM   11  N4  UNL     1      -2.740   1.001   1.226  1.00  0.00    -0.250 N 
ATOM     12  H3  UNL     1      -3.440   2.198   2.762  1.00  0.00     0.210 HD
BRANCH  11  13
HETATM   13  C6  UNL     1      -3.499   1.548   0.164  1.00  0.00     0.046 C 
HETATM   14  C7  UNL     1      -4.866   0.872  -0.024  1.00  0.00     0.040 C 
HETATM   15  C8  UNL     1      -3.974   2.949   0.685  1.00  0.00     0.040 C 
HETATM   16  C9  UNL     1      -2.866   1.966  -1.089  1.00  0.00     0.040 C 
ENDBRANCH  11  13
ENDBRANCH   1   5
BRANCH   1  17
HETATM   17  N5  UNL     1      -0.177  -0.341  -0.557  1.00  0.00    -0.280 NA
HETATM   18  C10 UNL     1       0.633  -1.418  -1.057  1.00  0.00     0.125 C 
HETATM   19  C11 UNL     1       2.089  -1.358  -0.876  1.00  0.00     0.287 C 
HETATM   20  N6  UNL     1       2.621  -0.055  -0.585  1.00  0.00     0.097 N 
HETATM   21  C17 UNL     1       1.891   0.336   0.637  1.00  0.00     0.287 C 
HETATM   22  C18 UNL     1       0.536   0.688   0.098  1.00  0.00     0.125 C 
BRANCH  20  23
HETATM   23  C12 UNL     1       4.019   0.013  -0.434  1.00  0.00     0.247 C 
HETATM   24  C13 UNL     1       4.390   1.495  -0.265  1.00  0.00     0.045 C 
HETATM   25  C14 UNL     1       5.876   1.675  -0.599  1.00  0.00     0.079 C 
HETATM   26  C15 UNL     1       6.555   0.465  -0.052  1.00  0.00     0.112 C 
HETATM   27  S1  UNL     1       8.054   0.145  -0.602  1.00  0.00    -0.058 SA
HETATM   28  O1  UNL     1       5.929  -0.359   0.894  1.00  0.00    -0.342 OA
HETATM   29  C16 UNL     1       4.544  -0.664   0.816  1.00  0.00     0.212 C 
ENDBRANCH  20  23
ENDBRANCH   1  17
TORSDOF 6
