REMARK  4 active torsions:
REMARK  status: ('A' for Active; 'I' for Inactive)
REMARK    1  A    between atoms: C2_2  and  C4_4 
REMARK    2  A    between atoms: C4_4  and  C5_5 
REMARK    3  A    between atoms: N1_8  and  C8_9 
REMARK    4  A    between atoms: C9_12  and  N3_13 
ROOT
HETATM    1  C8  UNL     1       2.726   0.039  -0.324  1.00  0.00     0.146 A 
HETATM    2  N2  UNL     1       3.200   0.307   0.900  1.00  0.00    -0.175 N 
ATOM      3  H2  UNL     1       2.569   0.320   1.702  1.00  0.00     0.186 HD
HETATM    4  C9  UNL     1       4.530   0.562   1.070  1.00  0.00     0.678 A 
HETATM    5  N4  UNL     1       5.387   0.550   0.031  1.00  0.00    -0.179 N 
ATOM      6  H4  UNL     1       6.378   0.743   0.179  1.00  0.00     0.185 HD
HETATM    7  C10 UNL     1       4.919   0.278  -1.222  1.00  0.00     0.147 A 
HETATM    8 CL1  UNL     1       6.026   0.261  -2.576  1.00  0.00    -0.062 Cl
HETATM    9  C11 UNL     1       3.581   0.021  -1.397  1.00  0.00     0.129 A 
HETATM   10  N5  UNL     1       3.069  -0.264  -2.686  1.00  0.00    -0.095 NA
ENDROOT
BRANCH   1  11
HETATM   11  N1  UNL     1       1.355  -0.232  -0.551  1.00  0.00    -0.365 N 
HETATM   12  C7  UNL     1       0.452   0.827  -0.851  1.00  0.00     0.125 C 
HETATM   13  C6  UNL     1      -0.861   0.771  -0.084  1.00  0.00     0.024 C 
HETATM   14  C5  UNL     1      -1.454  -0.593  -0.036  1.00  0.00    -0.011 C 
HETATM   15  C13 UNL     1      -0.344  -1.539   0.473  1.00  0.00     0.024 C 
HETATM   16  C12 UNL     1       0.812  -1.586  -0.490  1.00  0.00     0.125 C 
BRANCH  14  17
HETATM   17  C4  UNL     1      -2.573  -0.752   0.912  1.00  0.00     0.008 C 
BRANCH  17  18
HETATM   18  C2  UNL     1      -3.796   0.050   0.745  1.00  0.00    -0.022 C 
HETATM   19  C1  UNL     1      -3.694   1.526   0.813  1.00  0.00     0.009 C 
HETATM   20  C3  UNL     1      -4.570  -0.291  -0.519  1.00  0.00     0.009 C 
ENDBRANCH  17  18
ENDBRANCH  14  17
ENDBRANCH   1  11
BRANCH   4  21
HETATM   21  N3  UNL     1       5.029   0.826   2.233  1.00  0.00    -0.234 N 
ATOM     22  H32 UNL     1       4.380   0.835   3.020  1.00  0.00     0.174 HD
ATOM     23  H31 UNL     1       6.023   1.017   2.360  1.00  0.00     0.174 HD
ENDBRANCH   4  21
TORSDOF 4
