REMARK  4 active torsions:
REMARK  status: ('A' for Active; 'I' for Inactive)
REMARK    1  A    between atoms: N1_6  and  C6_7 
REMARK    2  A    between atoms: C6_7  and  C7_8 
REMARK    3  A    between atoms: C7_8  and  C8_9 
REMARK    4  A    between atoms: C8_9  and  N2_10 
ROOT
HETATM    1  C7  UNL     1       1.608  -0.443   0.405  1.00  0.00     0.087 C 
ENDROOT
BRANCH   1   2
HETATM    2  C6  UNL     1       0.847  -0.941  -0.800  1.00  0.00     0.066 C 
BRANCH   2   3
HETATM    3  N1  UNL     1      -0.553  -0.908  -0.698  1.00  0.00    -0.369 N 
HETATM    4  C5  UNL     1      -1.219   0.323  -0.658  1.00  0.00     0.100 C 
HETATM    5  C4  UNL     1      -2.602   0.271  -0.093  1.00  0.00    -0.002 C 
HETATM    6  C2  UNL     1      -3.084   1.433   0.328  1.00  0.00    -0.077 C 
HETATM    7  C14 UNL     1      -3.396  -0.964   0.004  1.00  0.00     0.130 C 
HETATM    8  C1  UNL     1      -4.428   1.592   0.919  1.00  0.00     0.044 C 
HETATM    9  C3  UNL     1      -2.250   2.667   0.214  1.00  0.00     0.044 C 
HETATM   10  C13 UNL     1      -2.638  -2.051  -0.727  1.00  0.00     0.068 C 
HETATM   11  C15 UNL     1      -4.784  -0.867  -0.583  1.00  0.00     0.057 C 
HETATM   12  F1  UNL     1      -3.541  -1.332   1.328  1.00  0.00    -0.238 F 
HETATM   13  C12 UNL     1      -1.224  -2.018  -0.129  1.00  0.00     0.131 C 
ENDBRANCH   2   3
ENDBRANCH   1   2
BRANCH   1  14
HETATM   14  C8  UNL     1       3.108  -0.527   0.184  1.00  0.00     0.172 C 
HETATM   15  C9  UNL     1       3.562   0.409  -0.914  1.00  0.00     0.275 C 
HETATM   16  N3  UNL     1       4.985   0.679  -0.754  1.00  0.00    -0.052 N 
HETATM   17  C10 UNL     1       5.233   1.455   0.449  1.00  0.00     0.399 C 
ATOM     18  H32 UNL     1       5.536  -0.180  -0.769  1.00  0.00     0.279 HD
ATOM     19  H31 UNL     1       5.378   1.129  -1.581  1.00  0.00     0.279 HD
HETATM   20  O1  UNL     1       4.235   1.231   1.376  1.00  0.00    -0.362 OA
HETATM   21  C11 UNL     1       3.815  -0.085   1.448  1.00  0.00     0.210 C 
BRANCH  14  22
HETATM   22  N2  UNL     1       3.526  -1.897  -0.068  1.00  0.00    -0.066 N 
ATOM     23  H23 UNL     1       3.221  -2.525   0.675  1.00  0.00     0.275 HD
ATOM     24  H22 UNL     1       3.009  -2.310  -0.844  1.00  0.00     0.275 HD
ATOM     25  H21 UNL     1       4.534  -1.953  -0.216  1.00  0.00     0.275 HD
ENDBRANCH  14  22
ENDBRANCH   1  14
TORSDOF 4
