REMARK  4 active torsions:
REMARK  status: ('A' for Active; 'I' for Inactive)
REMARK    1  A    between atoms: C2_2  and  O2_4 
REMARK    2  A    between atoms: O2_4  and  C3_5 
REMARK    3  A    between atoms: C4_6  and  C6_8 
REMARK    4  A    between atoms: C14_19  and  C15_20 
ROOT
HETATM    1  C3  UNL     1      -1.279   0.805  -0.132  1.00  0.00     0.164 C 
HETATM    2  C4  UNL     1      -2.366  -0.129  -0.634  1.00  0.00     0.075 C 
HETATM    3  C5  UNL     1      -3.260  -0.618   0.552  1.00  0.00     0.030 C 
HETATM    4  C7  UNL     1      -1.998  -1.358  -1.334  1.00  0.00     0.003 C 
HETATM    5  C8  UNL     1      -2.768  -2.618  -0.877  1.00  0.00     0.011 C 
HETATM    6  C9  UNL     1      -0.574  -1.697  -1.522  1.00  0.00     0.017 C 
HETATM    7  C10 UNL     1       0.487  -0.769  -1.101  1.00  0.00    -0.012 C 
HETATM    8  C11 UNL     1       1.572  -0.631  -2.202  1.00  0.00     0.090 C 
HETATM    9  C12 UNL     1       2.711   0.156  -1.661  1.00  0.00     0.136 C 
HETATM   10  O5  UNL     1       3.745   0.335  -2.194  1.00  0.00    -0.297 OA
HETATM   11  C13 UNL     1       2.386   0.735  -0.287  1.00  0.00     0.095 C 
HETATM   12  C14 UNL     1       1.128   1.563  -0.645  1.00  0.00    -0.041 C 
HETATM   13  C19 UNL     1      -0.000   0.670  -0.884  1.00  0.00     0.018 C 
HETATM   14  C20 UNL     1      -0.438   1.030  -2.339  1.00  0.00     0.024 C 
HETATM   15  C21 UNL     1       2.248  -0.410   0.584  1.00  0.00    -0.022 C 
HETATM   16  C22 UNL     1       3.673  -1.024   0.651  1.00  0.00     0.017 C 
HETATM   17  C23 UNL     1       1.896  -0.308   2.014  1.00  0.00     0.011 C 
HETATM   18  C24 UNL     1       1.357  -1.703   2.333  1.00  0.00     0.002 C 
HETATM   19  C25 UNL     1       0.525  -2.067   1.093  1.00  0.00     0.011 C 
HETATM   20  C26 UNL     1       1.278  -1.410  -0.004  1.00  0.00    -0.027 C 
HETATM   21  C27 UNL     1       2.093  -2.577  -0.589  1.00  0.00     0.017 C 
ENDROOT
BRANCH  12  22
HETATM   22  C15 UNL     1       1.124   2.836   0.056  1.00  0.00     0.031 A 
HETATM   23  C16 UNL     1       1.937   3.117   1.136  1.00  0.00     0.156 A 
HETATM   24  O6  UNL     1       1.686   4.334   1.522  1.00  0.00    -0.331 OA
HETATM   25  C17 UNL     1       0.776   4.899   0.797  1.00  0.00     0.184 A 
HETATM   26  C18 UNL     1       0.388   3.972  -0.160  1.00  0.00     0.150 A 
HETATM   27  F1  UNL     1      -0.531   4.234  -1.130  1.00  0.00    -0.203 F 
ENDBRANCH  12  22
BRANCH   1  28
HETATM   28  O2  UNL     1      -1.450   0.846   1.145  1.00  0.00    -0.314 OA
BRANCH  28  29
HETATM   29  C2  UNL     1      -1.848   1.465   2.227  1.00  0.00     0.255 C 
HETATM   30  C1  UNL     1      -1.893   1.180   3.649  1.00  0.00     0.126 C 
HETATM   31  O1  UNL     1      -2.264   2.541   1.792  1.00  0.00    -0.266 OA
ENDBRANCH  28  29
ENDBRANCH   1  28
BRANCH   2  32
HETATM   32  C6  UNL     1      -3.502   0.590  -1.336  1.00  0.00     0.184 C 
HETATM   33  O3  UNL     1      -3.695   1.808  -1.212  1.00  0.00    -0.647 OA
HETATM   34  O4  UNL     1      -4.335  -0.162  -2.128  1.00  0.00    -0.647 OA
ENDBRANCH   2  32
TORSDOF 4
