REMARK  6 active torsions:
REMARK  status: ('A' for Active; 'I' for Inactive)
REMARK    1  A    between atoms: N1_2  and  C2_4 
REMARK    2  A    between atoms: C3_7  and  C4_8 
REMARK    3  A    between atoms: C4_8  and  C6_10 
REMARK    4  A    between atoms: C8_13  and  N3_14 
REMARK    5  A    between atoms: N3_14  and  C9_15 
REMARK    6  A    between atoms: C12_18  and  C13_19 
ROOT
HETATM    1  C6  UNL     1      -2.203   0.726   0.505  1.00  0.00     0.120 C 
HETATM    2  C7  UNL     1      -2.292   1.392  -0.804  1.00  0.00     0.110 C 
HETATM    3  S1  UNL     1      -0.797   0.725  -1.639  1.00  0.00    -0.076 SA
HETATM    4  C8  UNL     1       0.085   0.425  -0.080  1.00  0.00     0.227 C 
HETATM    5  N4  UNL     1      -0.913   0.430   0.922  1.00  0.00    -0.273 N 
HETATM    6  S2  UNL     1      -0.517   0.080   2.579  1.00  0.00     0.048 SA
ENDROOT
BRANCH   1   7
HETATM    7  C4  UNL     1      -3.127  -0.502   0.475  1.00  0.00     0.057 C 
HETATM    8  C5  UNL     1      -3.111  -1.235   1.774  1.00  0.00     0.018 C 
BRANCH   7   9
HETATM    9  C3  UNL     1      -4.552  -0.027   0.206  1.00  0.00     0.023 A 
HETATM   10  N2  UNL     1      -5.255  -0.420  -0.836  1.00  0.00    -0.340 N 
HETATM   11  C2  UNL     1      -6.489   0.053  -0.980  1.00  0.00     0.144 A 
ATOM     12  H2  UNL     1      -4.862  -1.071  -1.516  1.00  0.00     0.168 HD
HETATM   13  S3  UNL     1      -6.685   1.072   0.364  1.00  0.00    -0.064 SA
HETATM   14  C18 UNL     1      -5.159   0.856   1.076  1.00  0.00     0.078 A 
BRANCH  11  15
HETATM   15  N1  UNL     1      -7.331  -0.226  -1.949  1.00  0.00    -0.375 N 
HETATM   16  C1  UNL     1      -8.650   0.370  -1.973  1.00  0.00     0.148 C 
ATOM     17  H1  UNL     1      -7.053  -0.868  -2.691  1.00  0.00     0.161 HD
ENDBRANCH  11  15
ENDBRANCH   7   9
ENDBRANCH   1   7
BRANCH   4  18
HETATM   18  N3  UNL     1       1.241   0.265   0.042  1.00  0.00    -0.379 NA
BRANCH  18  19
HETATM   19  C9  UNL     1       2.549   0.102   0.018  1.00  0.00     0.127 A 
HETATM   20  C10 UNL     1       3.056  -1.213   0.098  1.00  0.00     0.047 A 
HETATM   21  C11 UNL     1       4.386  -1.505   0.085  1.00  0.00     0.011 A 
HETATM   22  C12 UNL     1       5.297  -0.480  -0.011  1.00  0.00    -0.053 A 
HETATM   23  C16 UNL     1       4.841   0.814  -0.090  1.00  0.00     0.030 A 
HETATM   24  C17 UNL     1       3.509   1.109  -0.077  1.00  0.00     0.052 A 
HETATM   25 BR1  UNL     1       2.840   2.890  -0.186  1.00  0.00    -0.048 Br
BRANCH  22  26
HETATM   26  C13 UNL     1       6.727  -0.799  -0.026  1.00  0.00     0.010 C 
HETATM   27  C14 UNL     1       7.346  -0.314  -1.320  1.00  0.00     0.015 C 
HETATM   28  C15 UNL     1       7.449  -0.158   1.158  1.00  0.00     0.015 C 
ENDBRANCH  22  26
ENDBRANCH  18  19
ENDBRANCH   4  18
TORSDOF 6
