REMARK  5 active torsions:
REMARK  status: ('A' for Active; 'I' for Inactive)
REMARK    1  A    between atoms: C2_2  and  C3_3 
REMARK    2  A    between atoms: C3_3  and  C4_4 
REMARK    3  A    between atoms: C6_6  and  N1_7 
REMARK    4  A    between atoms: C9_10  and  C10_11 
REMARK    5  A    between atoms: N2_21  and  O1_23 
ROOT
HETATM    1  C4  UNL     1       2.088   2.708   1.614  1.00  0.00     0.005 C 
HETATM    2  C5  UNL     1       2.212   1.485   0.893  1.00  0.00     0.049 C 
HETATM    3  C6  UNL     1       1.249   0.619   0.584  1.00  0.00     0.044 C 
HETATM    4  C13 UNL     1      -0.081   0.715   1.108  1.00  0.00     0.029 A 
HETATM    5  C14 UNL     1      -1.173  -0.031   0.825  1.00  0.00    -0.036 A 
HETATM    6  C15 UNL     1      -1.924  -1.070   0.174  1.00  0.00     0.036 C 
HETATM    7  C16 UNL     1      -3.131  -0.187  -0.301  1.00  0.00     0.010 C 
HETATM    8  C17 UNL     1      -4.103  -1.280  -0.611  1.00  0.00     0.061 C 
HETATM    9  C18 UNL     1      -3.197  -2.217  -1.313  1.00  0.00     0.019 C 
HETATM   10  N2  UNL     1      -3.557  -3.244  -1.982  1.00  0.00    -0.277 N 
ATOM     11  H2  UNL     1      -2.837  -3.815  -2.424  1.00  0.00     0.193 HD
HETATM   12  C19 UNL     1      -1.734  -1.717  -1.096  1.00  0.00     0.001 C 
HETATM   13  C20 UNL     1      -1.009  -3.042  -1.158  1.00  0.00     0.022 C 
HETATM   14  C21 UNL     1      -1.534  -0.865  -2.324  1.00  0.00     0.022 C 
HETATM   15  C22 UNL     1      -3.435   0.715   0.772  1.00  0.00    -0.019 C 
HETATM   16  C23 UNL     1      -3.564   2.139   0.258  1.00  0.00     0.018 C 
HETATM   17  C24 UNL     1      -4.759   0.438   1.487  1.00  0.00     0.018 C 
HETATM   18  C25 UNL     1      -2.292   0.541   1.703  1.00  0.00     0.121 A 
HETATM   19  N3  UNL     1      -1.753   1.616   2.335  1.00  0.00    -0.374 N 
ATOM     20  H3  UNL     1      -2.260   2.243   2.960  1.00  0.00     0.161 HD
HETATM   21  C26 UNL     1      -0.529   1.725   2.034  1.00  0.00     0.084 A 
HETATM   22  S1  UNL     1       0.666   2.942   2.637  1.00  0.00    -0.072 SA
ENDROOT
BRANCH   3  23
HETATM   23  N1  UNL     1       1.711  -0.507  -0.151  1.00  0.00    -0.380 N 
HETATM   24  C7  UNL     1       1.913  -1.707   0.671  1.00  0.00     0.123 C 
HETATM   25  C8  UNL     1       2.828  -2.683  -0.027  1.00  0.00     0.025 C 
HETATM   26  C9  UNL     1       3.989  -1.894  -0.600  1.00  0.00     0.002 C 
HETATM   27  C11 UNL     1       3.570  -0.916  -1.670  1.00  0.00     0.025 C 
HETATM   28  C12 UNL     1       2.092  -0.545  -1.519  1.00  0.00     0.123 C 
BRANCH  26  29
HETATM   29  C10 UNL     1       5.027  -2.871  -1.066  1.00  0.00     0.119 C 
HETATM   30 CL1  UNL     1       5.526  -3.825   0.372  1.00  0.00    -0.130 Cl
ENDBRANCH  26  29
ENDBRANCH   3  23
BRANCH   1  31
HETATM   31  C3  UNL     1       2.964   3.646   1.541  1.00  0.00    -0.008 C 
BRANCH  31  32
HETATM   32  C2  UNL     1       2.843   4.911   2.282  1.00  0.00     0.024 C 
HETATM   33  C1  UNL     1       2.811   6.038   1.253  1.00  0.00     0.009 C 
ENDBRANCH  31  32
ENDBRANCH   1  31
BRANCH  10  34
HETATM   34  O1  UNL     1      -4.862  -3.609  -2.130  1.00  0.00    -0.290 OA
ATOM     35  H1  UNL     1      -5.130  -4.373  -2.628  1.00  0.00     0.244 HD
ENDBRANCH  10  34
TORSDOF 5
