REMARK  6 active torsions:
REMARK  status: ('A' for Active; 'I' for Inactive)
REMARK    1  A    between atoms: C4_4  and  C5_5 
REMARK    2  A    between atoms: C5_5  and  O2_7 
REMARK    3  A    between atoms: O2_7  and  C6_8 
REMARK    4  A    between atoms: C6_8  and  C7_10 
REMARK    5  A    between atoms: C10_13  and  O4_14 
REMARK    6  A    between atoms: C20_26  and  C21_27 
ROOT
HETATM    1  C7  UNL     1       1.757  -1.839  -0.872  1.00  0.00     0.091 C 
HETATM    2  C8  UNL     1       1.455  -3.258  -0.502  1.00  0.00     0.017 C 
HETATM    3  C9  UNL     1       0.034  -3.579  -0.281  1.00  0.00     0.033 C 
HETATM    4  C10 UNL     1      -1.007  -2.814  -0.987  1.00  0.00     0.126 C 
HETATM    5  C11 UNL     1      -0.554  -1.601  -1.703  1.00  0.00    -0.013 C 
HETATM    6  C12 UNL     1       0.068  -2.071  -3.023  1.00  0.00     0.018 C 
HETATM    7  C13 UNL     1      -1.561  -0.568  -2.016  1.00  0.00     0.012 C 
HETATM    8  C14 UNL     1      -2.994  -0.919  -1.933  1.00  0.00     0.002 C 
HETATM    9  C15 UNL     1      -3.791   0.355  -1.683  1.00  0.00     0.016 C 
HETATM   10  C16 UNL     1      -4.060   0.568  -0.197  1.00  0.00     0.014 C 
HETATM   11  C17 UNL     1      -4.332  -0.710   0.528  1.00  0.00     0.023 C 
HETATM   12  C18 UNL     1      -5.371   1.372  -0.145  1.00  0.00     0.023 C 
HETATM   13  C19 UNL     1      -3.043   1.420   0.431  1.00  0.00     0.144 C 
HETATM   14  O5  UNL     1      -2.849   2.523  -0.066  1.00  0.00    -0.296 OA
HETATM   15  C20 UNL     1      -2.219   1.079   1.620  1.00  0.00     0.098 C 
HETATM   16  C22 UNL     1      -0.806   1.517   1.441  1.00  0.00    -0.075 C 
HETATM   17  C23 UNL     1      -0.471   2.934   1.839  1.00  0.00     0.044 C 
HETATM   18  C24 UNL     1       0.166   0.760   0.960  1.00  0.00    -0.023 C 
HETATM   19  C25 UNL     1       0.008  -0.654   0.518  1.00  0.00     0.033 C 
HETATM   20  C26 UNL     1       0.539  -0.948  -0.839  1.00  0.00     0.013 C 
ENDROOT
BRANCH   1  21
HETATM   21  C6  UNL     1       2.909  -1.304  -0.118  1.00  0.00     0.271 C 
HETATM   22  O3  UNL     1       3.431  -2.041   0.756  1.00  0.00    -0.264 OA
BRANCH  21  23
HETATM   23  O2  UNL     1       3.449  -0.048  -0.309  1.00  0.00    -0.241 OA
BRANCH  23  24
HETATM   24  C5  UNL     1       4.545   0.418   0.433  1.00  0.00     0.290 C 
HETATM   25  O1  UNL     1       5.000  -0.385   1.281  1.00  0.00    -0.260 OA
BRANCH  24  26
HETATM   26  C4  UNL     1       5.092   1.757   0.203  1.00  0.00     0.084 C 
HETATM   27  C2  UNL     1       6.099   2.267   0.839  1.00  0.00    -0.082 C 
HETATM   28  C1  UNL     1       6.794   1.493   1.890  1.00  0.00     0.043 C 
HETATM   29  C3  UNL     1       6.553   3.648   0.502  1.00  0.00     0.043 C 
ENDBRANCH  24  26
ENDBRANCH  23  24
ENDBRANCH  21  23
ENDBRANCH   1  21
BRANCH   4  30
HETATM   30  O4  UNL     1      -1.715  -3.638  -1.905  1.00  0.00    -0.395 OA
ATOM     31  H4  UNL     1      -2.387  -3.144  -2.361  1.00  0.00     0.210 HD
ENDBRANCH   4  30
BRANCH  15  32
HETATM   32  C21 UNL     1      -2.813   1.855   2.806  1.00  0.00     0.131 C 
HETATM   33 CL1  UNL     1      -1.864   1.482   4.257  1.00  0.00    -0.129 Cl
ENDBRANCH  15  32
TORSDOF 6
