REMARK  7 active torsions:
REMARK  status: ('A' for Active; 'I' for Inactive)
REMARK    1  A    between atoms: O1_2  and  C2_3 
REMARK    2  A    between atoms: C3_7  and  N2_8 
REMARK    3  A    between atoms: N2_8  and  C4_10 
REMARK    4  A    between atoms: C4_10  and  C5_14 
REMARK    5  A    between atoms: C10_20  and  C12_22 
REMARK    6  A    between atoms: C12_22  and  O3_24 
REMARK    7  A    between atoms: O3_24  and  C13_25 
ROOT
HETATM    1  C5  UNL     1       2.357   0.194  -0.081  1.00  0.00     0.114 C 
HETATM    2  C6  UNL     1       2.890   0.572  -1.404  1.00  0.00     0.078 C 
HETATM    3  N4  UNL     1       3.293   0.873  -2.468  1.00  0.00    -0.196 NA
HETATM    4  C7  UNL     1       1.911   1.542   0.532  1.00  0.00     0.034 C 
HETATM    5  C8  UNL     1       0.373   1.483   0.324  1.00  0.00     0.009 C 
HETATM    6  C9  UNL     1       0.187   0.071   0.767  1.00  0.00     0.014 C 
HETATM    7  C10 UNL     1      -1.130  -0.480   0.971  1.00  0.00     0.049 C 
HETATM    8  C11 UNL     1      -1.481  -0.251   2.472  1.00  0.00     0.026 C 
HETATM    9  C19 UNL     1      -1.236  -1.974   0.774  1.00  0.00     0.020 C 
HETATM   10  C20 UNL     1       0.016  -2.719   0.689  1.00  0.00     0.002 C 
HETATM   11  C21 UNL     1       1.266  -2.020   0.362  1.00  0.00     0.012 C 
HETATM   12  C22 UNL     1       1.125  -0.651  -0.189  1.00  0.00    -0.011 C 
HETATM   13  C23 UNL     1       0.610  -0.667  -1.606  1.00  0.00     0.018 C 
ENDROOT
BRANCH   1  14
HETATM   14  C4  UNL     1       3.464  -0.376   0.707  1.00  0.00     0.100 C 
HETATM   15  N3  UNL     1       3.641   0.076   1.913  1.00  0.00    -0.387 N 
ATOM     16  H32 UNL     1       4.407  -0.319   2.458  1.00  0.00     0.157 HD
ATOM     17  H31 UNL     1       3.000   0.801   2.234  1.00  0.00     0.157 HD
BRANCH  14  18
HETATM   18  N2  UNL     1       4.352  -1.380   0.263  1.00  0.00    -0.324 N 
ATOM     19  H2  UNL     1       4.066  -2.359   0.282  1.00  0.00     0.169 HD
BRANCH  18  20
HETATM   20  C3  UNL     1       5.663  -1.021  -0.217  1.00  0.00     0.169 A 
HETATM   21  S1  UNL     1       6.927  -1.991  -0.818  1.00  0.00     0.026 SA
HETATM   22  N1  UNL     1       8.047  -0.771  -1.123  1.00  0.00    -0.289 N 
HETATM   23  C2  UNL     1       7.391   0.331  -0.746  1.00  0.00     0.231 A 
ATOM     24  H1  UNL     1       8.991  -0.853  -1.501  1.00  0.00     0.178 HD
HETATM   25  N5  UNL     1       6.185   0.195  -0.288  1.00  0.00    -0.301 N 
ATOM     26  H5  UNL     1       5.648   1.009   0.012  1.00  0.00     0.171 HD
BRANCH  23  27
HETATM   27  O1  UNL     1       8.010   1.602  -0.849  1.00  0.00    -0.327 OA
HETATM   28  C1  UNL     1       9.316   1.755  -1.344  1.00  0.00     0.213 C 
ENDBRANCH  23  27
ENDBRANCH  18  20
ENDBRANCH  14  18
ENDBRANCH   1  14
BRANCH   7  29
HETATM   29  C12 UNL     1      -2.222   0.228   0.263  1.00  0.00     0.268 C 
HETATM   30  O2  UNL     1      -2.012   1.208  -0.441  1.00  0.00    -0.264 OA
BRANCH  29  31
HETATM   31  O3  UNL     1      -3.549  -0.181   0.358  1.00  0.00    -0.315 OA
BRANCH  31  32
HETATM   32  C13 UNL     1      -4.639   0.404  -0.257  1.00  0.00     0.132 C 
HETATM   33  C14 UNL     1      -5.521   0.977   0.861  1.00  0.00     0.032 C 
HETATM   34  C15 UNL     1      -6.573   1.895   0.344  1.00  0.00     0.002 C 
HETATM   35  C16 UNL     1      -7.014   1.473  -1.028  1.00  0.00     0.000 C 
HETATM   36  C17 UNL     1      -6.899  -0.029  -1.109  1.00  0.00     0.002 C 
HETATM   37  C18 UNL     1      -5.458  -0.502  -1.123  1.00  0.00     0.032 C 
ENDBRANCH  31  32
ENDBRANCH  29  31
ENDBRANCH   7  29
TORSDOF 7
