REMARK  11 active torsions:
REMARK  status: ('A' for Active; 'I' for Inactive)
REMARK    1  A    between atoms: C2_2  and  C5_5 
REMARK    2  A    between atoms: C5_5  and  O1_6 
REMARK    3  A    between atoms: C5_5  and  N1_8 
REMARK    4  A    between atoms: N1_8  and  C6_10 
REMARK    5  A    between atoms: C6_10  and  O2_11 
REMARK    6  A    between atoms: C6_10  and  N2_13 
REMARK    7  A    between atoms: N2_13  and  C7_15 
REMARK    8  A    between atoms: C10_18  and  C11_19 
REMARK    9  A    between atoms: C13_22  and  N3_23 
REMARK   10  A    between atoms: N3_23  and  C14_25 
REMARK   11  A    between atoms: C17_28  and  N4_29 
ROOT
HETATM    1  C7  UNL     1      -1.914   0.035   0.256  1.00  0.00     0.077 A 
HETATM    2  C8  UNL     1      -1.071   0.474  -0.722  1.00  0.00     0.039 A 
HETATM    3  C9  UNL     1       0.246   0.359  -0.506  1.00  0.00     0.023 A 
HETATM    4  C10 UNL     1       0.643  -0.190   0.682  1.00  0.00     0.024 A 
HETATM    5  S3  UNL     1      -0.832  -0.529   1.459  1.00  0.00    -0.071 SA
ENDROOT
BRANCH   4   6
HETATM    6  C11 UNL     1       2.009  -0.445   1.171  1.00  0.00     0.031 A 
HETATM    7  C12 UNL     1       2.245  -1.062   2.392  1.00  0.00     0.072 A 
HETATM    8  S1  UNL     1       3.899  -1.262   2.694  1.00  0.00    -0.075 SA
HETATM    9  C13 UNL     1       4.785  -0.622   1.362  1.00  0.00     0.117 A 
HETATM   10  S2  UNL     1       3.508  -0.104   0.402  1.00  0.00    -0.063 SA
BRANCH   9  11
HETATM   11  N3  UNL     1       5.996  -0.612   1.247  1.00  0.00    -0.345 N 
ATOM     12  H3  UNL     1       6.425  -1.047   2.064  1.00  0.00     0.167 HD
BRANCH  11  13
HETATM   13  C14 UNL     1       6.967  -0.204   0.373  1.00  0.00     0.033 A 
HETATM   14  C15 UNL     1       6.956   1.023  -0.252  1.00  0.00     0.032 A 
HETATM   15  C16 UNL     1       7.962   1.446  -1.124  1.00  0.00     0.038 A 
HETATM   16  C17 UNL     1       9.039   0.632  -1.401  1.00  0.00     0.103 A 
HETATM   17  C18 UNL     1       9.069  -0.604  -0.783  1.00  0.00     0.038 A 
HETATM   18  C19 UNL     1       8.080  -1.020   0.072  1.00  0.00     0.032 A 
BRANCH  16  19
HETATM   19  N4  UNL     1      10.086   1.025  -2.285  1.00  0.00    -0.116 N 
HETATM   20  O3  UNL     1      10.087   2.129  -2.870  1.00  0.00    -0.532 OA
HETATM   21  O4  UNL     1      11.140   0.184  -2.528  1.00  0.00    -0.532 OA
ENDBRANCH  16  19
ENDBRANCH  11  13
ENDBRANCH   9  11
ENDBRANCH   4   6
BRANCH   1  22
HETATM   22  N2  UNL     1      -3.389   0.018   0.251  1.00  0.00    -0.316 N 
ATOM     23  H2  UNL     1      -3.929   0.329  -0.556  1.00  0.00     0.170 HD
BRANCH  22  24
HETATM   24  C6  UNL     1      -3.997  -0.444   1.404  1.00  0.00     0.223 C 
BRANCH  24  25
HETATM   25  N1  UNL     1      -5.320  -0.629   1.747  1.00  0.00    -0.306 N 
ATOM     26  H1  UNL     1      -5.414  -0.962   2.706  1.00  0.00     0.171 HD
BRANCH  25  27
HETATM   27  C5  UNL     1      -6.542  -0.485   1.144  1.00  0.00     0.126 C 
BRANCH  27  28
HETATM   28  C2  UNL     1      -6.918  -0.030  -0.180  1.00  0.00     0.014 C 
HETATM   29  C1  UNL     1      -6.565   1.399  -0.439  1.00  0.00     0.023 C 
HETATM   30  C3  UNL     1      -6.338  -0.911  -1.283  1.00  0.00     0.023 C 
HETATM   31  C4  UNL     1      -8.464  -0.103  -0.317  1.00  0.00     0.023 C 
ENDBRANCH  27  28
BRANCH  27  32
HETATM   32  O1  UNL     1      -7.563  -0.820   1.905  1.00  0.00    -0.349 OA
ATOM     33  H1  UNL     1      -7.317  -1.118   2.773  1.00  0.00     0.219 HD
ENDBRANCH  27  32
ENDBRANCH  25  27
ENDBRANCH  24  25
BRANCH  24  34
HETATM   34  O2  UNL     1      -3.162  -0.776   2.380  1.00  0.00    -0.332 OA
ATOM     35  H2  UNL     1      -2.251  -0.649   2.144  1.00  0.00     0.221 HD
ENDBRANCH  24  34
ENDBRANCH  22  24
ENDBRANCH   1  22
TORSDOF 11
