REMARK  5 active torsions:
REMARK  status: ('A' for Active; 'I' for Inactive)
REMARK    1  A    between atoms: N1_2  and  C3_4 
REMARK    2  A    between atoms: C4_7  and  N3_8 
REMARK    3  A    between atoms: N3_8  and  N4_10 
REMARK    4  A    between atoms: N4_10  and  C5_12 
REMARK    5  A    between atoms: C8_15  and  N5_16 
ROOT
HETATM    1  C3  UNL     1      -2.086   1.152   0.256  1.00  0.00     0.704 A 
HETATM    2  N2  UNL     1      -0.876   1.542   0.143  1.00  0.00    -0.182 N 
ATOM      3  H2  UNL     1      -0.566   2.513   0.167  1.00  0.00     0.182 HD
HETATM    4  C4  UNL     1      -0.004   0.384  -0.026  1.00  0.00     0.347 A 
HETATM    5  N7  UNL     1      -0.901  -0.738  -0.047  1.00  0.00    -0.183 N 
HETATM    6  C9  UNL     1      -0.738  -2.061  -0.203  1.00  0.00     0.334 A 
HETATM    7  O3  UNL     1       0.384  -2.600  -0.391  1.00  0.00    -0.260 OA
HETATM    8  C10 UNL     1      -1.825  -2.937  -0.168  1.00  0.00     0.319 A 
HETATM    9  O4  UNL     1      -1.646  -4.172  -0.316  1.00  0.00    -0.262 OA
HETATM   10  N8  UNL     1      -3.062  -2.450   0.025  1.00  0.00    -0.269 N 
ATOM     11  H8  UNL     1      -3.880  -3.059   0.057  1.00  0.00     0.174 HD
HETATM   12  C11 UNL     1      -3.164  -1.125   0.173  1.00  0.00     0.363 A 
HETATM   13  O5  UNL     1      -4.322  -0.664   0.354  1.00  0.00    -0.244 OA
HETATM   14  N9  UNL     1      -2.120  -0.268   0.141  1.00  0.00    -0.023 N 
ENDROOT
BRANCH   4  15
HETATM   15  N3  UNL     1       0.828   0.371   1.138  1.00  0.00    -0.292 N 
ATOM     16  H3  UNL     1       0.665   1.028   1.901  1.00  0.00     0.184 HD
BRANCH  15  17
HETATM   17  N4  UNL     1       1.840  -0.534   1.207  1.00  0.00    -0.287 N 
ATOM     18  H4  UNL     1       1.718  -1.362   1.790  1.00  0.00     0.188 HD
BRANCH  17  19
HETATM   19  C5  UNL     1       3.078  -0.370   0.489  1.00  0.00     0.121 A 
HETATM   20  C6  UNL     1       3.389   0.699  -0.340  1.00  0.00     0.054 A 
HETATM   21  C7  UNL     1       4.657   0.522  -0.857  1.00  0.00     0.059 A 
HETATM   22  C8  UNL     1       5.103  -0.680  -0.320  1.00  0.00     0.175 A 
HETATM   23  N6  UNL     1       4.138  -1.166   0.466  1.00  0.00    -0.323 N 
ATOM     24  H6  UNL     1       4.208  -2.042   0.984  1.00  0.00     0.169 HD
BRANCH  22  25
HETATM   25  N5  UNL     1       6.348  -1.272  -0.563  1.00  0.00    -0.098 N 
HETATM   26  O1  UNL     1       7.209  -0.759  -1.315  1.00  0.00    -0.531 OA
HETATM   27  O2  UNL     1       6.676  -2.458   0.022  1.00  0.00    -0.531 OA
ENDBRANCH  22  25
ENDBRANCH  17  19
ENDBRANCH  15  17
ENDBRANCH   4  15
BRANCH   1  28
HETATM   28  N1  UNL     1      -3.253   1.981   0.440  1.00  0.00    -0.225 N 
HETATM   29  C1  UNL     1      -3.758   2.232   1.757  1.00  0.00     0.168 C 
HETATM   30  C2  UNL     1      -3.876   2.534  -0.718  1.00  0.00     0.168 C 
ENDBRANCH   1  28
TORSDOF 5
