REMARK  5 active torsions:
REMARK  status: ('A' for Active; 'I' for Inactive)
REMARK    1  A    between atoms: N1_2  and  C3_4 
REMARK    2  A    between atoms: C4_7  and  N3_8 
REMARK    3  A    between atoms: N3_8  and  N4_10 
REMARK    4  A    between atoms: C8_19  and  C9_20 
REMARK    5  A    between atoms: C10_25  and  N6_26 
ROOT
HETATM    1  C3  UNL     1      -3.260  -0.014   0.057  1.00  0.00     0.708 A 
HETATM    2  N2  UNL     1      -2.160  -0.785   0.057  1.00  0.00    -0.020 N 
ATOM      3  H2  UNL     1      -2.242  -1.766  -0.210  1.00  0.00     0.203 HD
HETATM    4  C4  UNL     1      -0.939  -0.293   0.403  1.00  0.00     0.726 A 
HETATM    5  N5  UNL     1      -0.840   1.000   0.752  1.00  0.00    -0.020 N 
ATOM      6  H5  UNL     1       0.068   1.384   1.014  1.00  0.00     0.203 HD
HETATM    7  C10 UNL     1      -1.906   1.781   0.760  1.00  0.00     0.705 A 
HETATM    8  N7  UNL     1      -3.104   1.274   0.414  1.00  0.00    -0.022 N 
ATOM      9  H7  UNL     1      -3.920   1.886   0.423  1.00  0.00     0.203 HD
ENDROOT
BRANCH   4  10
HETATM   10  N3  UNL     1       0.173  -1.172   0.363  1.00  0.00    -0.131 N 
ATOM     11  H3  UNL     1       0.035  -2.111  -0.010  1.00  0.00     0.205 HD
BRANCH  10  12
HETATM   12  N4  UNL     1       1.413  -0.826   0.796  1.00  0.00    -0.285 N 
HETATM   13  C5  UNL     1       2.483  -0.540   0.149  1.00  0.00     0.102 C 
HETATM   14  C6  UNL     1       2.631  -0.515  -1.269  1.00  0.00     0.189 C 
HETATM   15  C8  UNL     1       3.730  -0.229   0.896  1.00  0.00     0.264 C 
HETATM   16  O1  UNL     1       1.713  -0.852  -2.092  1.00  0.00    -0.290 OA
HETATM   17  C7  UNL     1       3.949  -0.061  -1.764  1.00  0.00     0.226 C 
HETATM   18  S1  UNL     1       4.977  -0.542  -0.363  1.00  0.00     0.171 S 
HETATM   19  O2  UNL     1       5.302  -1.982  -0.477  1.00  0.00    -0.226 OA
HETATM   20  O3  UNL     1       6.163   0.333  -0.202  1.00  0.00    -0.226 OA
ATOM     21  H4  UNL     1       1.510  -0.787   1.811  1.00  0.00     0.187 HD
BRANCH  15  22
HETATM   22  C9  UNL     1       3.741   1.214   1.221  1.00  0.00     0.198 C 
HETATM   23  O4  UNL     1       2.873   2.052   0.890  1.00  0.00    -0.647 OA
HETATM   24  O5  UNL     1       4.821   1.711   1.977  1.00  0.00    -0.647 OA
ENDBRANCH  15  22
ENDBRANCH  10  12
ENDBRANCH   4  10
BRANCH   1  25
HETATM   25  N1  UNL     1      -4.531  -0.551  -0.291  1.00  0.00    -0.225 N 
HETATM   26  C1  UNL     1      -4.913  -0.772  -1.670  1.00  0.00     0.168 C 
HETATM   27  C2  UNL     1      -5.466  -0.878   0.761  1.00  0.00     0.168 C 
ENDBRANCH   1  25
BRANCH   7  28
HETATM   28  N6  UNL     1      -1.774   3.022   1.102  1.00  0.00    -0.234 N 
ATOM     29  H62 UNL     1      -0.866   3.406   1.364  1.00  0.00     0.174 HD
ATOM     30  H61 UNL     1      -2.597   3.625   1.108  1.00  0.00     0.174 HD
ENDBRANCH   7  28
TORSDOF 5
