REMARK  6 active torsions:
REMARK  status: ('A' for Active; 'I' for Inactive)
REMARK    1  A    between atoms: N1_1  and  C1_4 
REMARK    2  A    between atoms: N4_9  and  C2_10 
REMARK    3  A    between atoms: C4_14  and  S1_15 
REMARK    4  A    between atoms: S1_15  and  N6_16 
REMARK    5  A    between atoms: N8_22  and  C5_23 
REMARK    6  A    between atoms: C5_23  and  N9_24 
ROOT
HETATM    1  C2  UNL     1       2.893   0.480   0.004  1.00  0.00     0.187 A 
HETATM    2  N5  UNL     1       2.569  -0.820  -0.035  1.00  0.00    -0.333 N 
ATOM      3  H5  UNL     1       3.286  -1.484  -0.327  1.00  0.00     0.168 HD
HETATM    4  C3  UNL     1       1.356  -1.302   0.287  1.00  0.00     0.102 A 
HETATM    5  C4  UNL     1       0.835  -2.577   0.315  1.00  0.00     0.165 A 
HETATM    6  N7  UNL     1      -0.442  -2.454   0.723  1.00  0.00    -0.281 N 
ATOM      7  H7  UNL     1      -1.093  -3.230   0.844  1.00  0.00     0.188 HD
HETATM    8  N8  UNL     1      -0.731  -1.185   0.944  1.00  0.00    -0.254 N 
HETATM    9  C10 UNL     1       0.355  -0.441   0.686  1.00  0.00     0.089 A 
HETATM   10  C11 UNL     1       0.673   0.904   0.732  1.00  0.00     0.080 A 
HETATM   11  C12 UNL     1       1.935   1.391   0.396  1.00  0.00     0.166 A 
HETATM   12  F1  UNL     1       2.218   2.706   0.449  1.00  0.00    -0.202 F 
ENDROOT
BRANCH   1  13
HETATM   13  N4  UNL     1       4.174   0.978  -0.337  1.00  0.00    -0.147 N 
HETATM   14  N3  UNL     1       5.309   0.541   0.182  1.00  0.00    -0.205 N 
HETATM   15  N2  UNL     1       6.338   1.181  -0.316  1.00  0.00    -0.115 N 
ATOM     16  H3  UNL     1       5.375  -0.199   0.880  1.00  0.00     0.211 HD
HETATM   17  C1  UNL     1       5.854   2.078  -1.201  1.00  0.00     0.708 A 
ATOM     18  H2  UNL     1       7.319   1.030  -0.080  1.00  0.00     0.207 HD
HETATM   19  N11 UNL     1       4.519   1.921  -1.185  1.00  0.00    -0.107 N 
ATOM     20  H11 UNL     1       3.864   2.459  -1.753  1.00  0.00     0.208 HD
BRANCH  17  21
HETATM   21  N1  UNL     1       6.567   2.912  -1.912  1.00  0.00    -0.232 N 
ATOM     22  H12 UNL     1       7.580   3.031  -1.924  1.00  0.00     0.174 HD
ATOM     23  H11 UNL     1       6.201   3.590  -2.581  1.00  0.00     0.174 HD
ENDBRANCH  17  21
ENDBRANCH   1  13
BRANCH   5  24
HETATM   24  S1  UNL     1       1.660  -4.048  -0.092  1.00  0.00     0.165 S 
HETATM   25  O1  UNL     1       0.573  -5.165  -0.731  1.00  0.00    -0.229 OA
BRANCH  24  26
HETATM   26  N6  UNL     1       2.442  -4.769   1.259  1.00  0.00    -0.344 NA
ATOM     27  H62 UNL     1       3.100  -4.093   1.646  1.00  0.00     0.166 HD
ATOM     28  H61 UNL     1       2.927  -5.634   1.020  1.00  0.00     0.166 HD
ENDBRANCH  24  26
ENDBRANCH   5  24
BRANCH   8  29
HETATM   29  C5  UNL     1      -1.998  -0.672   1.376  1.00  0.00     0.178 C 
BRANCH  29  30
HETATM   30  N9  UNL     1      -2.932  -0.373   0.348  1.00  0.00    -0.275 NA
HETATM   31  C6  UNL     1      -2.516   0.598  -0.606  1.00  0.00     0.123 C 
HETATM   32  C7  UNL     1      -3.650   0.870  -1.595  1.00  0.00     0.247 C 
HETATM   33  N10 UNL     1      -4.823   1.387  -0.962  1.00  0.00    -0.073 N 
HETATM   34  C8  UNL     1      -4.674   1.349   0.458  1.00  0.00     0.247 C 
ATOM     35 2H10 UNL     1      -5.056   2.322  -1.296  1.00  0.00     0.277 HD
ATOM     36 1H10 UNL     1      -5.667   0.904  -1.270  1.00  0.00     0.277 HD
HETATM   37  C9  UNL     1      -4.188  -0.002   0.959  1.00  0.00     0.123 C 
ENDBRANCH  29  30
ENDBRANCH   8  29
TORSDOF 6
