REMARK  7 active torsions:
REMARK  status: ('A' for Active; 'I' for Inactive)
REMARK    1  A    between atoms: N1_1  and  N2_4 
REMARK    2  A    between atoms: N2_4  and  C1_6 
REMARK    3  A    between atoms: C2_9  and  N4_10 
REMARK       I    between atoms: N4_10  and  C3_12 
REMARK    4  A    between atoms: C3_12  and  C4_14 
REMARK    5  A    between atoms: C4_14  and  N5_15 
REMARK    6  A    between atoms: C7_18  and  N6_19 
REMARK    7  A    between atoms: N9_26  and  C8_27 
ROOT
HETATM    1  C1  UNL     1      -1.479  -0.381   0.559  1.00  0.00     0.747 A 
HETATM    2  N3  UNL     1      -0.176  -0.331   0.155  1.00  0.00    -0.017 N 
ATOM      3  H3  UNL     1       0.637  -0.509   0.745  1.00  0.00     0.203 HD
HETATM    4  C2  UNL     1      -0.143  -0.008  -1.148  1.00  0.00     0.715 A 
HETATM    5  N8  UNL     1      -1.413   0.140  -1.541  1.00  0.00    -0.095 N 
ATOM      6  H8  UNL     1      -1.712   0.387  -2.484  1.00  0.00     0.207 HD
HETATM    7  N9  UNL     1      -2.222  -0.083  -0.519  1.00  0.00     0.106 N 
ENDROOT
BRANCH   4   8
HETATM    8  N4  UNL     1       0.910   0.133  -1.878  1.00  0.00    -0.156 N 
HETATM    9  C3  UNL     1       2.203  -0.055  -1.326  1.00  0.00     0.255 C 
HETATM   10  O1  UNL     1       2.815  -1.136  -1.506  1.00  0.00    -0.271 OA
ATOM     11  H4  UNL     1       0.812   0.382  -2.862  1.00  0.00     0.187 HD
BRANCH   9  12
HETATM   12  C4  UNL     1       2.839   1.016  -0.537  1.00  0.00     0.251 C 
BRANCH  12  13
HETATM   13  N5  UNL     1       4.141   0.579  -0.091  1.00  0.00    -0.293 N 
HETATM   14  C5  UNL     1       5.285   0.777  -0.813  1.00  0.00     0.114 A 
HETATM   15  C6  UNL     1       6.343   0.248  -0.117  1.00  0.00     0.075 A 
HETATM   16  C7  UNL     1       5.824  -0.275   1.041  1.00  0.00     0.189 A 
HETATM   17  N7  UNL     1       4.474  -0.053   1.020  1.00  0.00    -0.278 N 
ATOM     18  H7  UNL     1       3.822  -0.334   1.753  1.00  0.00     0.189 HD
BRANCH  16  19
HETATM   19  N6  UNL     1       6.539  -0.930   2.081  1.00  0.00    -0.097 N 
HETATM   20  O2  UNL     1       5.912  -1.352   3.078  1.00  0.00    -0.530 OA
HETATM   21  O3  UNL     1       7.883  -1.081   1.968  1.00  0.00    -0.530 OA
ENDBRANCH  16  19
ENDBRANCH  12  13
ENDBRANCH   9  12
ENDBRANCH   4   8
BRANCH   1  22
HETATM   22  N2  UNL     1      -1.807  -0.668   1.762  1.00  0.00    -0.136 N 
ATOM     23  H2  UNL     1      -1.065  -0.864   2.434  1.00  0.00     0.205 HD
BRANCH  22  24
HETATM   24  N1  UNL     1      -3.130  -0.726   2.200  1.00  0.00    -0.331 N 
ATOM     25  H12 UNL     1      -3.859  -0.527   1.515  1.00  0.00     0.177 HD
ATOM     26  H11 UNL     1      -3.391  -0.955   3.159  1.00  0.00     0.177 HD
ENDBRANCH  22  24
ENDBRANCH   1  22
BRANCH   7  27
HETATM   27  C8  UNL     1      -3.650  -0.031  -0.501  1.00  0.00     0.722 A 
HETATM   28  N10 UNL     1      -4.378  -1.122  -0.807  1.00  0.00    -0.151 N 
HETATM   29  C9  UNL     1      -5.722  -1.125  -0.805  1.00  0.00     0.299 A 
ATOM     30  H10 UNL     1      -3.888  -1.983  -1.051  1.00  0.00     0.188 HD
HETATM   31  O4  UNL     1      -6.399  -2.148  -1.091  1.00  0.00    -0.264 OA
HETATM   32  C10 UNL     1      -6.417   0.021  -0.481  1.00  0.00     0.200 A 
HETATM   33  F1  UNL     1      -7.773   0.058  -0.467  1.00  0.00    -0.199 F 
HETATM   34  C11 UNL     1      -5.673   1.136  -0.168  1.00  0.00     0.154 A 
HETATM   35  N11 UNL     1      -4.332   1.087  -0.185  1.00  0.00    -0.196 N 
ATOM     36  H11 UNL     1      -3.808   1.930   0.051  1.00  0.00     0.183 HD
ENDBRANCH   7  27
TORSDOF 7
