REMARK  4 active torsions:
REMARK  status: ('A' for Active; 'I' for Inactive)
REMARK    1  A    between atoms: O1_2  and  C2_3 
REMARK    2  A    between atoms: C2_3  and  C3_4 
REMARK    3  A    between atoms: N5_12  and  C4_13 
REMARK    4  A    between atoms: C9_24  and  C10_25 
ROOT
HETATM    1  C3  UNL     1      -1.963  -1.392   0.948  1.00  0.00     0.068 A 
HETATM    2  N1  UNL     1      -1.514  -2.641   1.204  1.00  0.00    -0.278 N 
ATOM      3  H1  UNL     1      -2.114  -3.407   1.510  1.00  0.00     0.189 HD
HETATM    4  N2  UNL     1      -0.236  -2.757   1.017  1.00  0.00    -0.161 N 
HETATM    5  N3  UNL     1       0.805  -3.580   1.069  1.00  0.00    -0.204 N 
ATOM      6  H3  UNL     1       0.771  -4.563   1.338  1.00  0.00     0.212 HD
HETATM    7  N4  UNL     1       1.877  -2.927   0.721  1.00  0.00    -0.216 N 
ATOM      8  H4  UNL     1       2.819  -3.316   0.674  1.00  0.00     0.210 HD
HETATM    9  N5  UNL     1       1.535  -1.633   0.428  1.00  0.00    -0.203 N 
HETATM   10  C8  UNL     1       0.228  -1.537   0.612  1.00  0.00     0.186 A 
HETATM   11  C9  UNL     1      -0.874  -0.645   0.561  1.00  0.00     0.077 A 
ENDROOT
BRANCH  11  12
HETATM   12  C10 UNL     1      -0.765   0.741   0.203  1.00  0.00     0.139 A 
HETATM   13  O4  UNL     1       0.094   1.051  -0.788  1.00  0.00    -0.257 OA
HETATM   14  C11 UNL     1       0.307   2.250  -1.223  1.00  0.00     0.371 A 
HETATM   15  O5  UNL     1       1.130   2.434  -2.153  1.00  0.00    -0.238 OA
HETATM   16  N8  UNL     1      -0.314   3.325  -0.723  1.00  0.00    -0.286 N 
HETATM   17  C12 UNL     1      -1.183   3.132   0.262  1.00  0.00     0.145 A 
ATOM     18  H8  UNL     1      -0.126   4.260  -1.086  1.00  0.00     0.172 HD
HETATM   19  N9  UNL     1      -1.847   4.077   0.827  1.00  0.00    -0.383 N 
HETATM   20  C13 UNL     1      -1.399   1.819   0.719  1.00  0.00     0.194 A 
ATOM     21  H92 UNL     1      -1.690   5.029   0.496  1.00  0.00     0.157 HD
ATOM     22  H91 UNL     1      -2.515   3.929   1.584  1.00  0.00     0.157 HD
HETATM   23  F1  UNL     1      -2.242   1.731   1.759  1.00  0.00    -0.199 F 
ENDBRANCH  11  12
BRANCH   1  24
HETATM   24  C2  UNL     1      -3.383  -1.032   1.147  1.00  0.00     0.226 C 
BRANCH  24  25
HETATM   25  O1  UNL     1      -4.135  -2.198   1.400  1.00  0.00    -0.390 OA
HETATM   26  C1  UNL     1      -4.254  -3.060   0.364  1.00  0.00     0.201 C 
ENDBRANCH  24  25
ENDBRANCH   1  24
BRANCH   9  27
HETATM   27  C4  UNL     1       2.503  -0.677   0.045  1.00  0.00     0.140 A 
HETATM   28  C5  UNL     1       3.035   0.274   0.926  1.00  0.00     0.125 A 
HETATM   29  C6  UNL     1       4.006   1.157   0.523  1.00  0.00     0.252 A 
HETATM   30  O2  UNL     1       4.511   2.025   1.282  1.00  0.00    -0.268 OA
HETATM   31  N6  UNL     1       4.471   1.124  -0.746  1.00  0.00    -0.275 N 
HETATM   32  C7  UNL     1       3.963   0.214  -1.595  1.00  0.00     0.328 A 
ATOM     33  H6  UNL     1       5.193   1.776  -1.053  1.00  0.00     0.173 HD
HETATM   34  O3  UNL     1       4.411   0.199  -2.777  1.00  0.00    -0.247 OA
HETATM   35  N7  UNL     1       3.011  -0.654  -1.202  1.00  0.00    -0.293 N 
ATOM     36  H7  UNL     1       2.658  -1.327  -1.882  1.00  0.00     0.172 HD
ENDBRANCH   9  27
TORSDOF 4
