REMARK  7 active torsions:
REMARK  status: ('A' for Active; 'I' for Inactive)
REMARK    1  A    between atoms: C2_2  and  C5_18 
REMARK    2  A    between atoms: N1_3  and  N2_5 
REMARK    3  A    between atoms: C3_6  and  O1_7 
REMARK    4  A    between atoms: N4_13  and  N5_15 
REMARK    5  A    between atoms: C6_19  and  N6_20 
REMARK    6  A    between atoms: C10_25  and  C11_26 
REMARK    7  A    between atoms: C11_26  and  O2_27 
ROOT
HETATM    1  C5  UNL     1       0.091  -0.069  -1.417  1.00  0.00     0.102 A 
HETATM    2  C6  UNL     1      -1.212   0.198  -1.177  1.00  0.00     0.137 A 
HETATM    3  N7  UNL     1      -2.048   0.282  -2.273  1.00  0.00    -0.270 N 
ATOM      4  H7  UNL     1      -3.034   0.481  -2.104  1.00  0.00     0.190 HD
HETATM    5  N8  UNL     1      -1.666   0.125  -3.504  1.00  0.00    -0.238 N 
ATOM      6  H8  UNL     1      -2.348   0.202  -4.259  1.00  0.00     0.208 HD
HETATM    7  N9  UNL     1      -0.416  -0.131  -3.785  1.00  0.00    -0.251 N 
ATOM      8  H9  UNL     1      -0.109  -0.253  -4.750  1.00  0.00     0.192 HD
HETATM    9  C12 UNL     1       0.447  -0.228  -2.772  1.00  0.00     0.277 A 
HETATM   10  O3  UNL     1       1.648  -0.478  -3.092  1.00  0.00    -0.266 OA
ENDROOT
BRANCH   1  11
HETATM   11  C2  UNL     1       1.151  -0.269  -0.469  1.00  0.00     0.042 C 
HETATM   12  C1  UNL     1       1.001  -0.270   0.984  1.00  0.00     0.071 C 
HETATM   13  N1  UNL     1       2.348  -0.500  -0.910  1.00  0.00    -0.292 N 
ATOM     14  H1  UNL     1       2.499  -0.509  -1.919  1.00  0.00     0.187 HD
BRANCH  13  15
HETATM   15  N2  UNL     1       3.465  -0.742  -0.056  1.00  0.00    -0.193 N 
HETATM   16  C3  UNL     1       3.938  -1.945   0.229  1.00  0.00     0.251 A 
HETATM   17  N3  UNL     1       4.993  -2.028   1.031  1.00  0.00    -0.288 N 
HETATM   18  S1  UNL     1       5.335  -0.427   1.396  1.00  0.00     0.029 SA
ATOM     19  H3  UNL     1       5.480  -2.866   1.349  1.00  0.00     0.178 HD
HETATM   20  C4  UNL     1       4.087   0.302   0.488  1.00  0.00     0.204 A 
HETATM   21  N4  UNL     1       3.800   1.582   0.347  1.00  0.00    -0.283 N 
ATOM     22  H4  UNL     1       3.015   1.866  -0.239  1.00  0.00     0.188 HD
BRANCH  16  23
HETATM   23  O1  UNL     1       3.413  -3.041  -0.244  1.00  0.00    -0.331 OA
ATOM     24  H1  UNL     1       3.752  -3.904  -0.039  1.00  0.00     0.221 HD
ENDBRANCH  16  23
BRANCH  21  25
HETATM   25  N5  UNL     1       4.566   2.546   0.996  1.00  0.00    -0.343 N 
ATOM     26  H52 UNL     1       5.348   2.245   1.578  1.00  0.00     0.176 HD
ATOM     27  H51 UNL     1       4.344   3.536   0.887  1.00  0.00     0.176 HD
ENDBRANCH  21  25
ENDBRANCH  13  15
ENDBRANCH   1  11
BRANCH   2  28
HETATM   28  N6  UNL     1      -1.798   0.454   0.084  1.00  0.00    -0.356 N 
HETATM   29  C7  UNL     1      -1.757   1.596   0.981  1.00  0.00     0.162 C 
HETATM   30  C8  UNL     1      -3.263   1.821   1.299  1.00  0.00     0.190 C 
HETATM   31  F1  UNL     1      -3.754   2.853   0.512  1.00  0.00    -0.248 F 
HETATM   32  C9  UNL     1      -3.905   0.514   0.984  1.00  0.00     0.066 C 
HETATM   33  C10 UNL     1      -2.745  -0.436   0.803  1.00  0.00     0.112 C 
BRANCH  33  34
HETATM   34  C11 UNL     1      -3.197  -1.556  -0.092  1.00  0.00     0.189 C 
BRANCH  34  35
HETATM   35  O2  UNL     1      -4.077  -2.341   0.652  1.00  0.00    -0.399 OA
ATOM     36  H2  UNL     1      -4.363  -3.049   0.086  1.00  0.00     0.209 HD
ENDBRANCH  34  35
ENDBRANCH  33  34
ENDBRANCH   2  28
TORSDOF 7
