REMARK  6 active torsions:
REMARK  status: ('A' for Active; 'I' for Inactive)
REMARK    1  A    between atoms: C6_9  and  C7_10 
REMARK       I    between atoms: C7_10  and  N3_12 
REMARK    2  A    between atoms: N3_12  and  C8_14 
REMARK    3  A    between atoms: C9_19  and  S1_20 
REMARK    4  A    between atoms: S1_20  and  C10_21 
REMARK    5  A    between atoms: C10_21  and  C11_22 
REMARK    6  A    between atoms: C12_27  and  N8_28 
ROOT
HETATM    1  N8  UNL     1       5.671   2.075  -0.670  1.00  0.00    -0.124 N 
ATOM      2  H8  UNL     1       4.977   2.695  -0.252  1.00  0.00     0.197 HD
HETATM    3  C13 UNL     1       6.539   2.616  -1.617  1.00  0.00     0.196 C 
HETATM    4  N9  UNL     1       7.245   3.071  -2.414  1.00  0.00    -0.171 NA
ENDROOT
BRANCH   1   5
HETATM    5  C12 UNL     1       5.686   0.845  -0.287  1.00  0.00     0.709 A 
HETATM    6  N7  UNL     1       6.518  -0.132  -0.710  1.00  0.00    -0.130 N 
HETATM    7  N6  UNL     1       6.181  -1.212  -0.065  1.00  0.00    -0.273 N 
ATOM      8  H7  UNL     1       7.264  -0.041  -1.400  1.00  0.00     0.205 HD
HETATM    9  C11 UNL     1       5.143  -0.946   0.771  1.00  0.00     0.124 A 
ATOM     10  H6  UNL     1       6.629  -2.122  -0.171  1.00  0.00     0.189 HD
HETATM   11  N10 UNL     1       4.845   0.339   0.622  1.00  0.00    -0.172 N 
HETATM   12  C14 UNL     1       3.795   1.037   1.335  1.00  0.00     0.177 C 
BRANCH   9  13
HETATM   13  C10 UNL     1       4.545  -1.978   1.641  1.00  0.00     0.160 C 
BRANCH  13  14
HETATM   14  S1  UNL     1       3.236  -2.927   0.881  1.00  0.00    -0.096 SA
BRANCH  14  15
HETATM   15  C9  UNL     1       1.788  -1.940   0.512  1.00  0.00     0.130 A 
HETATM   16  N5  UNL     1       0.762  -1.715   1.319  1.00  0.00    -0.286 N 
HETATM   17  N4  UNL     1      -0.213  -0.997   0.935  1.00  0.00    -0.278 N 
ATOM     18  H5  UNL     1       0.755  -2.121   2.255  1.00  0.00     0.188 HD
HETATM   19  C8  UNL     1      -0.177  -0.477  -0.297  1.00  0.00     0.168 A 
ATOM     20  H4  UNL     1      -1.006  -0.821   1.552  1.00  0.00     0.189 HD
HETATM   21  S2  UNL     1       1.316  -1.063  -0.878  1.00  0.00    -0.026 SA
BRANCH  19  22
HETATM   22  N3  UNL     1      -1.080   0.285  -0.875  1.00  0.00    -0.302 N 
HETATM   23  C7  UNL     1      -2.261   0.663  -0.218  1.00  0.00     0.261 C 
HETATM   24  O1  UNL     1      -2.162   1.363   0.822  1.00  0.00    -0.267 OA
ATOM     25  H3  UNL     1      -0.917   0.610  -1.828  1.00  0.00     0.171 HD
BRANCH  23  26
HETATM   26  C6  UNL     1      -3.583   0.279  -0.690  1.00  0.00     0.079 A 
HETATM   27  C2  UNL     1      -3.836  -0.491  -1.827  1.00  0.00     0.040 A 
HETATM   28  C1  UNL     1      -2.799  -1.041  -2.738  1.00  0.00     0.071 C 
HETATM   29  N1  UNL     1      -5.169  -0.596  -1.877  1.00  0.00    -0.302 N 
HETATM   30  N2  UNL     1      -5.748   0.037  -0.879  1.00  0.00    -0.300 N 
ATOM     31  H1  UNL     1      -5.675  -1.105  -2.601  1.00  0.00     0.186 HD
HETATM   32  C3  UNL     1      -7.177   0.131  -0.624  1.00  0.00     0.177 C 
HETATM   33  C4  UNL     1      -4.789   0.603  -0.106  1.00  0.00     0.042 A 
HETATM   34  C5  UNL     1      -5.015   1.404   1.116  1.00  0.00     0.071 C 
ENDBRANCH  23  26
ENDBRANCH  19  22
ENDBRANCH  14  15
ENDBRANCH  13  14
ENDBRANCH   9  13
ENDBRANCH   1   5
TORSDOF 6
