REMARK  5 active torsions:
REMARK  status: ('A' for Active; 'I' for Inactive)
REMARK    1  A    between atoms: O1_2  and  C2_3 
REMARK    2  A    between atoms: C7_10  and  O4_12 
REMARK    3  A    between atoms: O4_12  and  C9_13 
REMARK    4  A    between atoms: C9_13  and  C10_15 
REMARK    5  A    between atoms: C13_20  and  S1_21 
ROOT
HETATM    1  C2  UNL     1      -4.383  -0.270   1.412  1.00  0.00     0.231 C 
HETATM    2  C3  UNL     1      -4.882  -1.358   2.374  1.00  0.00     0.089 C 
HETATM    3  O2  UNL     1      -3.549   0.616   2.109  1.00  0.00    -0.318 OA
HETATM    4  C4  UNL     1      -2.422   1.220   1.597  1.00  0.00     0.155 C 
HETATM    5  C5  UNL     1      -1.839   0.792   0.479  1.00  0.00     0.052 C 
HETATM    6  C6  UNL     1      -0.647   1.431  -0.062  1.00  0.00     0.217 C 
HETATM    7  O3  UNL     1      -0.102   2.328   0.609  1.00  0.00    -0.287 OA
HETATM    8  C7  UNL     1      -0.110   1.012  -1.381  1.00  0.00     0.206 C 
HETATM    9  C8  UNL     1      -0.523   2.111  -2.371  1.00  0.00     0.081 C 
HETATM   10  N2  UNL     1      -0.738  -0.199  -1.840  1.00  0.00    -0.361 N 
ATOM     11  H2  UNL     1      -0.305  -0.667  -2.636  1.00  0.00     0.162 HD
HETATM   12  C15 UNL     1      -1.886  -0.801  -1.303  1.00  0.00     0.102 C 
HETATM   13  C16 UNL     1      -2.442  -0.358  -0.197  1.00  0.00     0.046 C 
HETATM   14  C17 UNL     1      -3.618  -0.965   0.365  1.00  0.00     0.223 C 
HETATM   15  O8  UNL     1      -3.984  -2.085  -0.042  1.00  0.00    -0.286 OA
ENDROOT
BRANCH   8  16
HETATM   16  O4  UNL     1       1.289   0.957  -1.410  1.00  0.00    -0.277 OA
BRANCH  16  17
HETATM   17  C9  UNL     1       2.082   0.171  -0.621  1.00  0.00     0.314 C 
HETATM   18  O5  UNL     1       1.520  -0.579   0.215  1.00  0.00    -0.257 OA
BRANCH  17  19
HETATM   19  C10 UNL     1       3.534   0.149  -0.687  1.00  0.00     0.130 A 
HETATM   20  N1  UNL     1       4.251   0.907  -1.542  1.00  0.00    -0.360 N 
HETATM   21  C11 UNL     1       5.573   0.686  -1.389  1.00  0.00     0.090 A 
ATOM     22  H1  UNL     1       3.848   1.560  -2.214  1.00  0.00     0.165 HD
HETATM   23  C12 UNL     1       5.701  -0.256  -0.392  1.00  0.00     0.043 A 
HETATM   24  C13 UNL     1       4.421  -0.584   0.039  1.00  0.00     0.092 A 
BRANCH  24  25
HETATM   25  S1  UNL     1       4.026  -1.720   1.279  1.00  0.00     0.174 S 
HETATM   26  C14 UNL     1       5.535  -2.441   1.945  1.00  0.00     0.167 C 
HETATM   27  O6  UNL     1       3.180  -2.851   0.835  1.00  0.00    -0.223 OA
HETATM   28  O7  UNL     1       3.342  -0.962   2.409  1.00  0.00    -0.223 OA
ENDBRANCH  24  25
ENDBRANCH  17  19
ENDBRANCH  16  17
ENDBRANCH   8  16
BRANCH   1  29
HETATM   29  O1  UNL     1      -5.513   0.366   0.918  1.00  0.00    -0.354 OA
HETATM   30  C1  UNL     1      -5.247   1.392   0.045  1.00  0.00     0.206 C 
ENDBRANCH   1  29
TORSDOF 5
