REMARK  6 active torsions:
REMARK  status: ('A' for Active; 'I' for Inactive)
REMARK    1  A    between atoms: O1_2  and  C2_3 
REMARK    2  A    between atoms: C2_3  and  C3_5 
REMARK    3  A    between atoms: C6_13  and  N4_14 
REMARK       I    between atoms: N4_14  and  C7_16 
REMARK       I    between atoms: C7_16  and  N5_18 
REMARK    4  A    between atoms: N5_18  and  S1_20 
REMARK    5  A    between atoms: S1_20  and  C8_23 
REMARK    6  A    between atoms: C13_28  and  N6_29 
ROOT
HETATM    1  N4  UNL     1      -1.617   1.054   0.196  1.00  0.00    -0.293 N 
ATOM      2  H4  UNL     1      -2.218   1.848   0.418  1.00  0.00     0.172 HD
HETATM    3  C7  UNL     1      -0.233   1.238  -0.144  1.00  0.00     0.335 C 
HETATM    4  O3  UNL     1       0.623   1.139   0.764  1.00  0.00    -0.246 OA
HETATM    5  N5  UNL     1       0.188   1.525  -1.456  1.00  0.00    -0.232 N 
ATOM      6  H5  UNL     1      -0.532   1.602  -2.175  1.00  0.00     0.183 HD
ENDROOT
BRANCH   1   7
HETATM    7  C6  UNL     1      -2.066  -0.145   0.210  1.00  0.00     0.130 A 
HETATM    8  C3  UNL     1      -3.390  -0.309   0.535  1.00  0.00     0.124 A 
HETATM    9  C4  UNL     1      -3.893  -1.595   0.558  1.00  0.00     0.137 A 
HETATM   10  N1  UNL     1      -5.262  -1.782   0.894  1.00  0.00    -0.081 NA
HETATM   11  N2  UNL     1      -3.070  -2.621   0.263  1.00  0.00    -0.340 N 
HETATM   12  C5  UNL     1      -1.775  -2.454  -0.055  1.00  0.00     0.183 A 
ATOM     13  H2  UNL     1      -3.448  -3.568   0.282  1.00  0.00     0.167 HD
HETATM   14  N3  UNL     1      -1.266  -1.211  -0.083  1.00  0.00    -0.338 N 
ATOM     15  H3  UNL     1      -0.285  -1.065  -0.322  1.00  0.00     0.168 HD
BRANCH   8  16
HETATM   16  C2  UNL     1      -4.227   0.844   0.843  1.00  0.00     0.300 C 
HETATM   17  O2  UNL     1      -3.767   1.991   0.820  1.00  0.00    -0.259 OA
BRANCH  16  18
HETATM   18  O1  UNL     1      -5.557   0.641   1.163  1.00  0.00    -0.322 OA
HETATM   19  C1  UNL     1      -6.465   1.660   1.477  1.00  0.00     0.213 C 
ENDBRANCH  16  18
ENDBRANCH   8  16
ENDBRANCH   1   7
BRANCH   5  20
HETATM   20  S1  UNL     1       1.801   1.753  -1.936  1.00  0.00     0.266 S 
HETATM   21  O4  UNL     1       1.993   1.566  -3.420  1.00  0.00    -0.200 OA
HETATM   22  O5  UNL     1       2.170   3.194  -1.600  1.00  0.00    -0.200 OA
BRANCH  20  23
HETATM   23  C8  UNL     1       2.948   0.708  -1.151  1.00  0.00     0.082 A 
HETATM   24  C9  UNL     1       3.588   1.169  -0.021  1.00  0.00     0.032 A 
HETATM   25  C10 UNL     1       4.497   0.399   0.639  1.00  0.00    -0.058 A 
HETATM   26  C11 UNL     1       5.175   0.927   1.858  1.00  0.00     0.048 C 
HETATM   27  C12 UNL     1       4.780  -0.863   0.167  1.00  0.00     0.043 A 
HETATM   28  C13 UNL     1       4.148  -1.358  -0.974  1.00  0.00     0.104 A 
HETATM   29  C14 UNL     1       3.237  -0.561  -1.619  1.00  0.00     0.061 A 
BRANCH  28  30
HETATM   30  N6  UNL     1       4.463  -2.678  -1.438  1.00  0.00    -0.116 N 
HETATM   31  O6  UNL     1       3.876  -3.076  -2.455  1.00  0.00    -0.532 OA
HETATM   32  O7  UNL     1       5.382  -3.433  -0.752  1.00  0.00    -0.532 OA
ENDBRANCH  28  30
ENDBRANCH  20  23
ENDBRANCH   5  20
TORSDOF 6
