REMARK  8 active torsions:
REMARK  status: ('A' for Active; 'I' for Inactive)
REMARK    1  A    between atoms: N1_2  and  C2_4 
REMARK    2  A    between atoms: C3_7  and  C4_8 
REMARK    3  A    between atoms: C6_12  and  C7_13 
REMARK    4  A    between atoms: C8_14  and  C9_15 
REMARK    5  A    between atoms: C9_15  and  N4_16 
REMARK    6  A    between atoms: N4_16  and  O1_19 
REMARK    7  A    between atoms: O1_19  and  C11_20 
REMARK    8  A    between atoms: C16_30  and  N7_31 
ROOT
HETATM    1  N4  UNL     1      -3.965  -0.332   0.315  1.00  0.00    -0.149 N 
HETATM    2  C10 UNL     1      -3.834  -1.616  -0.196  1.00  0.00     0.208 C 
HETATM    3  N5  UNL     1      -3.740  -2.699  -0.638  1.00  0.00    -0.170 NA
ENDROOT
BRANCH   1   4
HETATM    4  C9  UNL     1      -3.067   0.122   1.343  1.00  0.00     0.307 A 
HETATM    5  C14 UNL     1      -3.484   1.349   2.037  1.00  0.00     0.321 A 
HETATM    6  O2  UNL     1      -3.671   2.537   1.712  1.00  0.00    -0.260 OA
HETATM    7  O3  UNL     1      -3.580   0.622   3.202  1.00  0.00    -0.238 OA
HETATM    8  C15 UNL     1      -3.197  -0.584   2.640  1.00  0.00     0.321 A 
HETATM    9  O4  UNL     1      -3.042  -1.738   3.071  1.00  0.00    -0.260 OA
BRANCH   4  10
HETATM   10  C8  UNL     1      -1.664   0.104   0.922  1.00  0.00    -0.043 C 
HETATM   11  C7  UNL     1      -0.512   0.109   0.579  1.00  0.00    -0.044 C 
BRANCH  11  12
HETATM   12  C6  UNL     1       0.864   0.132   0.189  1.00  0.00     0.103 A 
HETATM   13  C5  UNL     1       1.133   0.323  -1.164  1.00  0.00     0.127 A 
HETATM   14  N3  UNL     1       2.404   0.342  -1.510  1.00  0.00    -0.358 N 
HETATM   15  C4  UNL     1       3.467   0.193  -0.670  1.00  0.00     0.103 A 
ATOM     16  H3  UNL     1       2.612   0.481  -2.499  1.00  0.00     0.165 HD
HETATM   17  C16 UNL     1       3.182   0.007   0.651  1.00  0.00     0.129 A 
HETATM   18  N6  UNL     1       1.872  -0.018   1.045  1.00  0.00    -0.333 N 
ATOM     19  H6  UNL     1       1.660  -0.157   2.033  1.00  0.00     0.168 HD
BRANCH  15  20
HETATM   20  C3  UNL     1       4.859   0.240  -1.223  1.00  0.00     0.071 A 
HETATM   21  N2  UNL     1       5.970   0.115  -0.554  1.00  0.00    -0.334 N 
HETATM   22  C2  UNL     1       7.136   0.183  -1.217  1.00  0.00     0.144 A 
ATOM     23  H2  UNL     1       5.955  -0.032   0.455  1.00  0.00     0.168 HD
HETATM   24  S1  UNL     1       6.672   0.430  -2.829  1.00  0.00    -0.064 SA
HETATM   25  C17 UNL     1       4.990   0.437  -2.594  1.00  0.00     0.085 A 
BRANCH  22  26
HETATM   26  N1  UNL     1       8.348   0.078  -0.706  1.00  0.00    -0.375 N 
HETATM   27  C1  UNL     1       8.558  -0.130   0.686  1.00  0.00     0.148 C 
ATOM     28  H1  UNL     1       9.156   0.148  -1.325  1.00  0.00     0.161 HD
ENDBRANCH  22  26
ENDBRANCH  15  20
BRANCH  17  29
HETATM   29  N7  UNL     1       4.097  -0.146   1.548  1.00  0.00    -0.384 N 
ATOM     30  H72 UNL     1       5.074  -0.127   1.254  1.00  0.00     0.157 HD
ATOM     31  H71 UNL     1       3.884  -0.285   2.536  1.00  0.00     0.157 HD
ENDBRANCH  17  29
ENDBRANCH  11  12
ENDBRANCH   4  10
ENDBRANCH   1   4
BRANCH   1  32
HETATM   32  O1  UNL     1      -4.919   0.494  -0.137  1.00  0.00    -0.261 OA
BRANCH  32  33
HETATM   33  C11 UNL     1      -6.025  -0.138  -0.647  1.00  0.00     0.145 C 
HETATM   34  C12 UNL     1      -7.248   0.367   0.108  1.00  0.00     0.042 C 
HETATM   35  C13 UNL     1      -6.207   0.307  -2.096  1.00  0.00     0.042 C 
ENDBRANCH  32  33
ENDBRANCH   1  32
TORSDOF 8
