REMARK  7 active torsions:
REMARK  status: ('A' for Active; 'I' for Inactive)
REMARK    1  A    between atoms: S1_2  and  C2_3 
REMARK    2  A    between atoms: C2_3  and  C3_4 
REMARK    3  A    between atoms: C3_4  and  C4_6 
REMARK    4  A    between atoms: C4_6  and  O3_8 
REMARK    5  A    between atoms: O3_8  and  C5_9 
REMARK    6  A    between atoms: C9_15  and  O6_16 
REMARK    7  A    between atoms: C14_26  and  O9_27 
ROOT
HETATM    1  C5  UNL     1       0.250  -0.230  -1.469  1.00  0.00     0.183 C 
HETATM    2  C6  UNL     1      -0.616  -1.205  -2.147  1.00  0.00     0.196 C 
HETATM    3  O4  UNL     1      -0.979  -0.386  -3.364  1.00  0.00    -0.305 OA
HETATM    4  C7  UNL     1      -1.794   0.773  -3.071  1.00  0.00     0.294 C 
HETATM    5  O5  UNL     1      -2.233   1.731  -3.623  1.00  0.00    -0.259 OA
HETATM    6  C8  UNL     1      -2.147   0.651  -1.680  1.00  0.00     0.067 C 
HETATM    7  C9  UNL     1      -3.350   0.918  -1.261  1.00  0.00     0.096 C 
HETATM    8  C10 UNL     1      -3.746   0.646   0.157  1.00  0.00     0.084 A 
HETATM    9  C11 UNL     1      -3.207  -0.488   0.751  1.00  0.00     0.084 A 
HETATM   10  C12 UNL     1      -3.741  -0.537   2.083  1.00  0.00     0.262 A 
HETATM   11  O7  UNL     1      -3.499  -1.399   2.940  1.00  0.00    -0.267 OA
HETATM   12  N1  UNL     1      -4.619   0.608   2.243  1.00  0.00    -0.289 N 
ATOM     13  H1  UNL     1      -5.150   0.850   3.080  1.00  0.00     0.172 HD
HETATM   14  C13 UNL     1      -4.602   1.343   0.997  1.00  0.00     0.262 A 
HETATM   15  O8  UNL     1      -5.189   2.401   0.619  1.00  0.00    -0.267 OA
HETATM   16  C14 UNL     1      -2.341  -1.485   0.050  1.00  0.00     0.088 C 
HETATM   17  C15 UNL     1      -1.517  -1.283  -1.020  1.00  0.00     0.002 C 
HETATM   18  C16 UNL     1      -0.980   0.260  -0.856  1.00  0.00     0.050 C 
HETATM   19  C17 UNL     1      -0.821   0.763   0.501  1.00  0.00     0.029 C 
ENDROOT
BRANCH   1  20
HETATM   20  O3  UNL     1       1.195  -0.740  -0.555  1.00  0.00    -0.305 OA
BRANCH  20  21
HETATM   21  C4  UNL     1       2.489  -0.246  -0.514  1.00  0.00     0.330 C 
HETATM   22  O2  UNL     1       2.780   0.672  -1.324  1.00  0.00    -0.256 OA
BRANCH  21  23
HETATM   23  C3  UNL     1       3.501  -0.721   0.392  1.00  0.00     0.233 C 
HETATM   24  O1  UNL     1       3.312  -1.634   1.241  1.00  0.00    -0.286 OA
BRANCH  23  25
HETATM   25  C2  UNL     1       4.856  -0.122   0.352  1.00  0.00     0.163 C 
BRANCH  25  26
HETATM   26  S1  UNL     1       5.971  -0.852   1.560  1.00  0.00    -0.166 SA
HETATM   27  C1  UNL     1       7.582  -0.032   1.403  1.00  0.00     0.090 C 
ENDBRANCH  25  26
ENDBRANCH  23  25
ENDBRANCH  21  23
ENDBRANCH  20  21
ENDBRANCH   1  20
BRANCH  16  28
HETATM   28  O9  UNL     1      -2.339  -2.769   0.492  1.00  0.00    -0.359 OA
ATOM     29  H9  UNL     1      -1.789  -3.402   0.047  1.00  0.00     0.217 HD
ENDBRANCH  16  28
BRANCH   7  30
HETATM   30  O6  UNL     1      -4.246   1.386  -2.148  1.00  0.00    -0.359 OA
ATOM     31  H6  UNL     1      -5.124   1.581  -1.842  1.00  0.00     0.217 HD
ENDBRANCH   7  30
TORSDOF 7
