REMARK  4 active torsions:
REMARK  status: ('A' for Active; 'I' for Inactive)
REMARK    1  A    between atoms: C3_3  and  C4_4 
REMARK    2  A    between atoms: C4_4  and  C5_5 
REMARK    3  A    between atoms: C9_9  and  N1_10 
REMARK    4  A    between atoms: C11_12  and  C12_13 
ROOT
HETATM    1  C5  UNL     1      -1.391   0.220  -0.409  1.00  0.00    -0.009 C 
HETATM    2  C6  UNL     1      -1.854   1.311   0.528  1.00  0.00     0.005 C 
HETATM    3  C7  UNL     1      -0.643   2.185   0.747  1.00  0.00     0.002 C 
HETATM    4  C8  UNL     1       0.390   1.420   1.482  1.00  0.00     0.027 C 
HETATM    5  C9  UNL     1       0.725   0.076   0.965  1.00  0.00     0.108 C 
HETATM    6  C14 UNL     1      -0.265  -0.594   0.096  1.00  0.00     0.032 C 
ENDROOT
BRANCH   5   7
HETATM    7  N1  UNL     1       2.048   0.114   0.334  1.00  0.00    -0.296 N 
HETATM    8  C10 UNL     1       3.066  -0.755   0.458  1.00  0.00     0.130 A 
HETATM    9  C11 UNL     1       4.130  -0.346  -0.306  1.00  0.00     0.085 A 
HETATM   10  C13 UNL     1       3.703   0.832  -0.911  1.00  0.00     0.132 A 
HETATM   11  S1  UNL     1       4.641   1.700  -1.930  1.00  0.00    -0.058 SA
HETATM   12  N3  UNL     1       2.445   1.060  -0.491  1.00  0.00    -0.287 N 
ATOM     13  H3  UNL     1       1.876   1.858  -0.774  1.00  0.00     0.188 HD
BRANCH   9  14
HETATM   14  C12 UNL     1       5.416  -1.010  -0.445  1.00  0.00     0.269 C 
HETATM   15  N2  UNL     1       5.655  -2.215   0.265  1.00  0.00    -0.057 NA
HETATM   16  O1  UNL     1       6.316  -0.536  -1.178  1.00  0.00    -0.271 OA
ENDBRANCH   9  14
ENDBRANCH   5   7
BRANCH   1  17
HETATM   17  C4  UNL     1      -2.563  -0.636  -0.841  1.00  0.00     0.031 C 
BRANCH  17  18
HETATM   18  C3  UNL     1      -3.246  -1.294   0.301  1.00  0.00    -0.031 C 
HETATM   19  C2  UNL     1      -4.525  -1.092   0.592  1.00  0.00    -0.035 C 
HETATM   20  C1  UNL     1      -5.347  -0.161  -0.252  1.00  0.00     0.036 C 
ENDBRANCH  17  18
ENDBRANCH   1  17
TORSDOF 4
