REMARK  6 active torsions:
REMARK  status: ('A' for Active; 'I' for Inactive)
REMARK    1  A    between atoms: C2_2  and  C3_3 
REMARK    2  A    between atoms: C3_3  and  C6_6 
REMARK    3  A    between atoms: C8_8  and  C9_9 
REMARK    4  A    between atoms: C12_12  and  O1_13 
REMARK    5  A    between atoms: C16_17  and  O2_18 
REMARK    6  A    between atoms: C17_20  and  O3_21 
ROOT
HETATM    1  C9  UNL     1       0.663  -0.030   0.389  1.00  0.00     0.009 A 
HETATM    2  C10 UNL     1       1.615   0.094  -0.631  1.00  0.00    -0.015 A 
HETATM    3  C11 UNL     1       1.240   0.728  -1.934  1.00  0.00     0.052 C 
HETATM    4  C12 UNL     1       2.904  -0.357  -0.462  1.00  0.00     0.083 A 
HETATM    5  C14 UNL     1       3.300  -0.946   0.716  1.00  0.00     0.008 A 
HETATM    6  C15 UNL     1       4.697  -1.441   0.912  1.00  0.00     0.054 C 
HETATM    7  C16 UNL     1       2.380  -1.090   1.763  1.00  0.00     0.108 A 
HETATM    8  C17 UNL     1       1.100  -0.630   1.569  1.00  0.00     0.110 A 
ENDROOT
BRANCH   1   9
HETATM    9  C8  UNL     1      -0.656   0.489   0.161  1.00  0.00     0.018 C 
HETATM   10  C6  UNL     1      -1.814  -0.051   0.262  1.00  0.00    -0.071 C 
HETATM   11  C7  UNL     1      -2.033  -1.465   0.627  1.00  0.00     0.044 C 
BRANCH  10  12
HETATM   12  C3  UNL     1      -3.051   0.726  -0.034  1.00  0.00    -0.008 C 
HETATM   13  C4  UNL     1      -3.979   0.771   1.150  1.00  0.00     0.024 C 
HETATM   14  C5  UNL     1      -2.753   2.148  -0.458  1.00  0.00     0.024 C 
BRANCH  12  15
HETATM   15  C2  UNL     1      -3.783   0.100  -1.187  1.00  0.00    -0.024 C 
HETATM   16  C1  UNL     1      -4.976  -0.438  -1.070  1.00  0.00     0.008 C 
ENDBRANCH  12  15
ENDBRANCH  10  12
ENDBRANCH   1   9
BRANCH   8  17
HETATM   17  O3  UNL     1       0.134  -0.728   2.551  1.00  0.00    -0.357 OA
ATOM     18  H3  UNL     1       0.432  -1.137   3.355  1.00  0.00     0.217 HD
ENDBRANCH   8  17
BRANCH   4  19
HETATM   19  O1  UNL     1       3.858  -0.241  -1.463  1.00  0.00    -0.355 OA
HETATM   20  C13 UNL     1       4.697   0.915  -1.563  1.00  0.00     0.210 C 
ENDBRANCH   4  19
BRANCH   7  21
HETATM   21  O2  UNL     1       2.769  -1.679   2.947  1.00  0.00    -0.357 OA
ATOM     22  H2  UNL     1       2.145  -1.777   3.657  1.00  0.00     0.217 HD
ENDBRANCH   7  21
TORSDOF 6
