REMARK  7 active torsions:
REMARK  status: ('A' for Active; 'I' for Inactive)
REMARK    1  A    between atoms: C2_2  and  C3_3 
REMARK    2  A    between atoms: C5_5  and  C6_6 
REMARK    3  A    between atoms: C6_6  and  C7_7 
REMARK    4  A    between atoms: C7_7  and  C8_8 
REMARK    5  A    between atoms: C8_8  and  O1_9 
REMARK    6  A    between atoms: C11_13  and  O2_14 
REMARK    7  A    between atoms: C13_17  and  C14_18 
ROOT
HETATM    1  C3  UNL     1       2.300  -1.977   0.364  1.00  0.00    -0.024 A 
HETATM    2  C4  UNL     1       2.430  -0.879   1.173  1.00  0.00     0.020 A 
HETATM    3  C5  UNL     1       1.396   0.076   1.319  1.00  0.00    -0.023 A 
HETATM    4  C9  UNL     1       0.209  -0.084   0.637  1.00  0.00     0.084 A 
HETATM    5  C10 UNL     1       0.093  -1.198  -0.176  1.00  0.00     0.012 A 
HETATM    6  C11 UNL     1       1.110  -2.123  -0.313  1.00  0.00     0.081 A 
HETATM    7  C12 UNL     1      -1.263  -1.147  -0.776  1.00  0.00     0.077 C 
HETATM    8  C13 UNL     1      -1.645   0.286  -0.581  1.00  0.00     0.140 C 
HETATM    9  O3  UNL     1      -0.971   0.652   0.571  1.00  0.00    -0.344 OA
ENDROOT
BRANCH   3  10
HETATM   10  C6  UNL     1       1.633   1.268   2.155  1.00  0.00     0.043 C 
BRANCH  10  11
HETATM   11  C7  UNL     1       2.167   2.460   1.461  1.00  0.00     0.031 C 
BRANCH  11  12
HETATM   12  C8  UNL     1       1.356   3.105   0.405  1.00  0.00     0.164 C 
BRANCH  12  13
HETATM   13  O1  UNL     1       0.158   3.662   0.848  1.00  0.00    -0.401 OA
ATOM     14  H1  UNL     1      -0.363   4.076   0.170  1.00  0.00     0.209 HD
ENDBRANCH  12  13
ENDBRANCH  11  12
ENDBRANCH  10  11
ENDBRANCH   3  10
BRANCH   1  15
HETATM   15  C2  UNL     1       3.386  -2.950   0.211  1.00  0.00     0.037 C 
HETATM   16  C1  UNL     1       4.186  -2.768  -1.042  1.00  0.00     0.010 C 
ENDBRANCH   1  15
BRANCH   6  17
HETATM   17  O2  UNL     1       0.988  -3.244  -1.136  1.00  0.00    -0.359 OA
ATOM     18  H2  UNL     1       0.167  -3.345  -1.603  1.00  0.00     0.217 HD
ENDBRANCH   6  17
BRANCH   8  19
HETATM   19  C14 UNL     1      -3.131   0.504  -0.514  1.00  0.00    -0.024 C 
HETATM   20  C15 UNL     1      -3.822  -0.216   0.600  1.00  0.00     0.017 C 
HETATM   21  C16 UNL     1      -3.724  -0.033  -1.815  1.00  0.00     0.017 C 
HETATM   22  C17 UNL     1      -3.406   1.964  -0.455  1.00  0.00     0.017 C 
ENDBRANCH   8  19
TORSDOF 7
