REMARK  4 active torsions:
REMARK  status: ('A' for Active; 'I' for Inactive)
REMARK    1  A    between atoms: C2_2  and  C4_4 
REMARK    2  A    between atoms: C7_7  and  O1_9 
REMARK    3  A    between atoms: C9_11  and  C10_12 
REMARK    4  A    between atoms: C10_12  and  N1_13 
ROOT
HETATM    1  C4  UNL     1       1.203  -0.434   0.080  1.00  0.00    -0.011 C 
HETATM    2  C5  UNL     1       0.646  -1.200  -1.119  1.00  0.00     0.008 C 
HETATM    3  C6  UNL     1      -0.575  -1.941  -0.577  1.00  0.00     0.038 C 
HETATM    4  C7  UNL     1      -1.589  -1.027  -0.006  1.00  0.00     0.059 C 
HETATM    5  C8  UNL     1      -2.808  -1.038  -0.931  1.00  0.00     0.046 C 
HETATM    6  C9  UNL     1      -1.169   0.384   0.173  1.00  0.00     0.045 C 
HETATM    7  C11 UNL     1       0.252   0.582   0.586  1.00  0.00     0.014 C 
ENDROOT
BRANCH   6   8
HETATM    8  C10 UNL     1      -2.067   0.984   1.251  1.00  0.00     0.237 C 
BRANCH   8   9
HETATM    9  N1  UNL     1      -1.734   2.370   1.501  1.00  0.00    -0.079 N 
ATOM     10  H13 UNL     1      -0.747   2.482   1.731  1.00  0.00     0.274 HD
ATOM     11  H12 UNL     1      -1.759   2.922   0.643  1.00  0.00     0.274 HD
ATOM     12  H11 UNL     1      -2.334   2.771   2.222  1.00  0.00     0.274 HD
ENDBRANCH   8   9
ENDBRANCH   6   8
BRANCH   4  13
HETATM   13  O1  UNL     1      -2.027  -1.536   1.236  1.00  0.00    -0.390 OA
ATOM     14  H1  UNL     1      -2.678  -0.949   1.603  1.00  0.00     0.210 HD
ENDBRANCH   4  13
BRANCH   1  15
HETATM   15  C2  UNL     1       2.559   0.100  -0.280  1.00  0.00    -0.019 C 
HETATM   16  C1  UNL     1       2.535   1.032  -1.456  1.00  0.00     0.010 C 
HETATM   17  C3  UNL     1       3.258   0.684   0.918  1.00  0.00     0.010 C 
ENDBRANCH   1  15
TORSDOF 4
