REMARK  2 active torsions:
REMARK  status: ('A' for Active; 'I' for Inactive)
REMARK       I    between atoms: N1_2  and  C2_4 
REMARK       I    between atoms: C2_4  and  N3_8 
REMARK    1  A    between atoms: N4_10  and  O1_11 
REMARK    2  A    between atoms: N4_10  and  C3_13 
ROOT
HETATM    1  C1  UNL     1       4.122   0.152   0.503  1.00  0.00     0.165 C 
HETATM    2  N1  UNL     1       2.923  -0.651   0.259  1.00  0.00    -0.230 N 
ATOM      3  H1  UNL     1       2.572  -1.292   0.971  1.00  0.00     0.177 HD
HETATM    4  C2  UNL     1       2.257  -0.519  -0.990  1.00  0.00     0.687 C 
HETATM    5  N2  UNL     1       2.221  -1.512  -1.806  1.00  0.00    -0.234 N 
ATOM      6  H21 UNL     1       1.743  -1.417  -2.702  1.00  0.00     0.174 HD
ATOM      7  H22 UNL     1       2.652  -2.415  -1.609  1.00  0.00     0.174 HD
HETATM    8  N3  UNL     1       1.659   0.734  -1.263  1.00  0.00    -0.111 N 
ATOM      9  H3  UNL     1       2.200   1.464  -1.725  1.00  0.00     0.208 HD
HETATM   10  N4  UNL     1       0.462   0.952  -0.938  1.00  0.00    -0.182 N 
ENDROOT
BRANCH  10  11
HETATM   11  O1  UNL     1      -0.042   2.202  -1.241  1.00  0.00    -0.271 OA
ATOM     12  H1  UNL     1      -0.945   2.366  -0.996  1.00  0.00     0.246 HD
ENDBRANCH  10  11
BRANCH  10  13
HETATM   13  C3  UNL     1      -0.305  -0.064  -0.291  1.00  0.00     0.134 C 
HETATM   14  C4  UNL     1      -1.495  -0.374  -1.167  1.00  0.00     0.029 C 
HETATM   15  C5  UNL     1      -2.724  -0.748  -0.373  1.00  0.00     0.002 C 
HETATM   16  C6  UNL     1      -3.177   0.368   0.536  1.00  0.00     0.000 C 
HETATM   17  C7  UNL     1      -2.026   1.232   0.994  1.00  0.00     0.002 C 
HETATM   18  C8  UNL     1      -0.809   0.364   1.072  1.00  0.00     0.029 C 
ENDBRANCH  10  13
TORSDOF 2
