REMARK  5 active torsions:
REMARK  status: ('A' for Active; 'I' for Inactive)
REMARK    1  A    between atoms: C2_2  and  C5_5 
REMARK    2  A    between atoms: C5_5  and  N1_6 
REMARK    3  A    between atoms: C5_5  and  N2_10 
REMARK    4  A    between atoms: N2_10  and  C6_13 
REMARK    5  A    between atoms: C6_13  and  C7_14 
ROOT
HETATM    1  N2  UNL     1      -0.617   0.050   0.158  1.00  0.00    -0.045 N 
ATOM      2  H21 UNL     1      -0.633   0.365   1.128  1.00  0.00     0.279 HD
ATOM      3  H22 UNL     1      -0.502   0.960  -0.288  1.00  0.00     0.279 HD
ENDROOT
BRANCH   1   4
HETATM    4  C5  UNL     1      -1.837  -0.590  -0.223  1.00  0.00     0.387 C 
BRANCH   4   5
HETATM    5  C2  UNL     1      -3.064   0.240   0.011  1.00  0.00     0.003 C 
HETATM    6  C1  UNL     1      -3.205   0.524   1.489  1.00  0.00     0.018 C 
HETATM    7  C3  UNL     1      -4.270  -0.582  -0.414  1.00  0.00     0.018 C 
HETATM    8  C4  UNL     1      -3.076   1.528  -0.735  1.00  0.00     0.018 C 
ENDBRANCH   4   5
BRANCH   4   9
HETATM    9  N1  UNL     1      -1.967  -1.838   0.506  1.00  0.00    -0.050 N 
ATOM     10  H13 UNL     1      -2.154  -1.691   1.498  1.00  0.00     0.276 HD
ATOM     11  H12 UNL     1      -2.825  -2.338   0.272  1.00  0.00     0.276 HD
ATOM     12  H11 UNL     1      -1.132  -2.403   0.347  1.00  0.00     0.276 HD
ENDBRANCH   4   9
ENDBRANCH   1   4
BRANCH   1  13
HETATM   13  C6  UNL     1       0.485  -0.830  -0.110  1.00  0.00     0.239 C 
BRANCH  13  14
HETATM   14  C7  UNL     1       1.825  -0.231   0.265  1.00  0.00     0.011 C 
HETATM   15  C8  UNL     1       1.998   1.031  -0.550  1.00  0.00     0.006 C 
HETATM   16  C9  UNL     1       3.384   1.579  -0.512  1.00  0.00     0.000 C 
HETATM   17  C10 UNL     1       4.347   0.764   0.298  1.00  0.00     0.000 C 
HETATM   18  C11 UNL     1       4.275  -0.707  -0.023  1.00  0.00     0.000 C 
HETATM   19  C12 UNL     1       2.886  -1.213  -0.189  1.00  0.00     0.006 C 
ENDBRANCH  13  14
ENDBRANCH   1  13
TORSDOF 5
