REMARK  5 active torsions:
REMARK  status: ('A' for Active; 'I' for Inactive)
REMARK    1  A    between atoms: C2_2  and  N1_3 
REMARK    2  A    between atoms: C2_2  and  C8_14 
REMARK    3  A    between atoms: N1_3  and  C3_5 
REMARK    4  A    between atoms: C5_7  and  C6_8 
REMARK    5  A    between atoms: C6_8  and  N2_9 
ROOT
HETATM    1  C3  UNL     1       1.004   0.940  -0.055  1.00  0.00     0.082 A 
HETATM    2  C4  UNL     1       2.159   1.186  -0.960  1.00  0.00     0.031 A 
HETATM    3  C5  UNL     1       2.856  -0.056  -0.513  1.00  0.00     0.015 A 
HETATM    4  C7  UNL     1       1.673  -0.284   0.439  1.00  0.00     0.031 A 
ENDROOT
BRANCH   1   5
HETATM    5  N1  UNL     1      -0.318   0.860  -0.576  1.00  0.00    -0.391 N 
ATOM      6  H1  UNL     1      -0.668   1.581  -1.207  1.00  0.00     0.159 HD
BRANCH   5   7
HETATM    7  C2  UNL     1      -1.141  -0.231  -0.209  1.00  0.00    -0.014 C 
HETATM    8  C1  UNL     1      -1.079  -1.547  -0.842  1.00  0.00     0.064 C 
BRANCH   7   9
HETATM    9  C8  UNL     1      -2.494   0.213   0.306  1.00  0.00    -0.013 C 
HETATM   10  C9  UNL     1      -2.939  -0.647   1.458  1.00  0.00     0.021 C 
HETATM   11  C10 UNL     1      -3.537   0.023  -0.805  1.00  0.00     0.021 C 
HETATM   12  C11 UNL     1      -2.470   1.662   0.683  1.00  0.00     0.021 C 
ENDBRANCH   7   9
ENDBRANCH   5   7
ENDBRANCH   1   5
BRANCH   3  13
HETATM   13  C6  UNL     1       4.109   0.113   0.286  1.00  0.00     0.234 C 
BRANCH  13  14
HETATM   14  N2  UNL     1       4.605  -1.217   0.620  1.00  0.00    -0.079 N 
ATOM     15  H23 UNL     1       3.908  -1.793   1.093  1.00  0.00     0.274 HD
ATOM     16  H22 UNL     1       4.735  -1.809  -0.200  1.00  0.00     0.274 HD
ATOM     17  H21 UNL     1       5.460  -1.102   1.165  1.00  0.00     0.274 HD
ENDBRANCH  13  14
ENDBRANCH   3  13
TORSDOF 5
