REMARK  3 active torsions:
REMARK  status: ('A' for Active; 'I' for Inactive)
REMARK    1  A    between atoms: C2_2  and  C3_3 
REMARK    2  A    between atoms: C9_9  and  N1_10 
REMARK    3  A    between atoms: C11_15  and  N2_16 
ROOT
HETATM    1  C3  UNL     1      -1.129   0.550  -0.427  1.00  0.00     0.022 C 
HETATM    2  C4  UNL     1      -0.002   1.263   0.323  1.00  0.00    -0.006 C 
HETATM    3  C5  UNL     1       1.089   1.636  -0.621  1.00  0.00     0.009 C 
HETATM    4  C6  UNL     1       2.131   0.561  -0.807  1.00  0.00    -0.016 C 
HETATM    5  C7  UNL     1       3.322   0.738   0.102  1.00  0.00     0.010 C 
HETATM    6  C8  UNL     1       1.572  -0.819  -0.725  1.00  0.00     0.045 C 
HETATM    7  C9  UNL     1       0.525  -1.007   0.324  1.00  0.00     0.152 C 
HETATM    8  C10 UNL     1       0.413   0.153   1.282  1.00  0.00     0.046 C 
HETATM    9  C11 UNL     1      -0.835  -0.906  -0.382  1.00  0.00     0.223 C 
ENDROOT
BRANCH   7  10
HETATM   10  N1  UNL     1       0.714  -2.267   0.961  1.00  0.00    -0.068 N 
ATOM     11  H13 UNL     1       0.734  -3.038   0.293  1.00  0.00     0.275 HD
ATOM     12  H12 UNL     1       1.657  -2.373   1.334  1.00  0.00     0.275 HD
ATOM     13  H11 UNL     1      -0.001  -2.395   1.677  1.00  0.00     0.275 HD
ENDBRANCH   7  10
BRANCH   9  14
HETATM   14  N2  UNL     1      -1.760  -1.688   0.370  1.00  0.00    -0.072 N 
ATOM     15  H23 UNL     1      -1.845  -1.317   1.317  1.00  0.00     0.274 HD
ATOM     16  H22 UNL     1      -2.709  -1.532   0.031  1.00  0.00     0.274 HD
ATOM     17  H21 UNL     1      -1.558  -2.687   0.401  1.00  0.00     0.274 HD
ENDBRANCH   9  14
BRANCH   1  18
HETATM   18  C2  UNL     1      -2.401   0.937   0.287  1.00  0.00     0.002 C 
HETATM   19  C1  UNL     1      -3.628   0.325  -0.314  1.00  0.00     0.005 C 
ENDBRANCH   1  18
TORSDOF 3
