REMARK  8 active torsions:
REMARK  status: ('A' for Active; 'I' for Inactive)
REMARK    1  A    between atoms: N1_1  and  C1_5 
REMARK    2  A    between atoms: C5_9  and  C6_10 
REMARK    3  A    between atoms: C6_10  and  O1_11 
REMARK    4  A    between atoms: O1_11  and  N2_12 
REMARK    5  A    between atoms: N2_12  and  O2_13 
REMARK    6  A    between atoms: N2_12  and  C7_15 
REMARK    7  A    between atoms: C10_18  and  O3_19 
REMARK    8  A    between atoms: O3_19  and  C11_20 
ROOT
HETATM    1  N2  UNL     1      -0.805   1.736   0.471  1.00  0.00    -0.127 N 
ENDROOT
BRANCH   1   2
HETATM    2  O1  UNL     1      -1.860   0.875   0.647  1.00  0.00    -0.250 OA
BRANCH   2   3
HETATM    3  C6  UNL     1      -2.721   0.596  -0.411  1.00  0.00     0.245 C 
BRANCH   3   4
HETATM    4  C5  UNL     1      -3.811  -0.323  -0.147  1.00  0.00     0.179 C 
HETATM    5  C1  UNL     1      -4.601  -0.194   1.132  1.00  0.00     0.252 C 
HETATM    6  C2  UNL     1      -4.865  -1.673   0.820  1.00  0.00     0.220 C 
HETATM    7  C3  UNL     1      -5.691  -1.621  -0.438  1.00  0.00     0.038 C 
HETATM    8  N3  UNL     1      -3.505  -1.677   0.282  1.00  0.00    -0.056 N 
HETATM    9  C4  UNL     1      -4.885  -0.523  -1.170  1.00  0.00     0.045 C 
ATOM     10  H32 UNL     1      -2.692  -1.895   0.858  1.00  0.00     0.278 HD
ATOM     11  H31 UNL     1      -3.178  -2.393  -0.366  1.00  0.00     0.278 HD
BRANCH   5  12
HETATM   12  N1  UNL     1      -5.853   0.526   1.007  1.00  0.00    -0.070 N 
ATOM     13  H13 UNL     1      -6.297   0.389   0.099  1.00  0.00     0.274 HD
ATOM     14  H12 UNL     1      -6.594   0.129   1.584  1.00  0.00     0.274 HD
ATOM     15  H11 UNL     1      -5.678   1.509   1.214  1.00  0.00     0.274 HD
ENDBRANCH   5  12
ENDBRANCH   3   4
ENDBRANCH   2   3
ENDBRANCH   1   2
BRANCH   1  16
HETATM   16  O2  UNL     1      -1.005   2.927   0.780  1.00  0.00    -0.263 OA
ATOM     17  H2  UNL     1      -0.275   3.523   0.658  1.00  0.00     0.247 HD
ENDBRANCH   1  16
BRANCH   1  18
HETATM   18  C7  UNL     1       0.453   1.338  -0.029  1.00  0.00     0.088 A 
HETATM   19  C8  UNL     1       0.736   0.038  -0.388  1.00  0.00     0.037 A 
HETATM   20  C9  UNL     1       1.973  -0.344  -0.878  1.00  0.00     0.039 A 
HETATM   21  C10 UNL     1       2.960   0.620  -1.010  1.00  0.00     0.076 A 
HETATM   22  C17 UNL     1       2.715   1.928  -0.663  1.00  0.00     0.039 A 
HETATM   23  C18 UNL     1       1.463   2.262  -0.178  1.00  0.00     0.037 A 
BRANCH  21  24
HETATM   24  O3  UNL     1       4.213   0.295  -1.494  1.00  0.00    -0.311 OA
BRANCH  24  25
HETATM   25  C11 UNL     1       5.185  -0.092  -0.566  1.00  0.00     0.076 A 
HETATM   26  C12 UNL     1       5.356  -1.412  -0.199  1.00  0.00     0.037 A 
HETATM   27  C13 UNL     1       6.321  -1.799   0.724  1.00  0.00     0.003 A 
HETATM   28  C14 UNL     1       7.144  -0.863   1.305  1.00  0.00     0.000 A 
HETATM   29  C15 UNL     1       6.978   0.459   0.942  1.00  0.00     0.003 A 
HETATM   30  C16 UNL     1       6.014   0.841   0.021  1.00  0.00     0.037 A 
ENDBRANCH  24  25
ENDBRANCH  21  24
ENDBRANCH   1  18
TORSDOF 8
