REMARK  6 active torsions:
REMARK  status: ('A' for Active; 'I' for Inactive)
REMARK    1  A    between atoms: O1_2  and  C2_3 
REMARK    2  A    between atoms: C5_6  and  C6_7 
REMARK    3  A    between atoms: C6_7  and  N1_9 
REMARK    4  A    between atoms: C6_7  and  C9_13 
REMARK    5  A    between atoms: C12_16  and  C13_17 
REMARK    6  A    between atoms: C17_26  and  O3_27 
ROOT
HETATM    1  N1  UNL     1      -0.086  -2.336  -0.462  1.00  0.00    -0.309 N 
ATOM      2  H1  UNL     1       0.473  -2.467   0.381  1.00  0.00     0.173 HD
HETATM    3  C8  UNL     1      -0.936  -3.379  -0.892  1.00  0.00     0.178 C 
HETATM    4  N2  UNL     1      -1.625  -4.234  -1.262  1.00  0.00    -0.172 NA
ENDROOT
BRANCH   1   5
HETATM    5  C6  UNL     1       0.013  -1.085  -1.185  1.00  0.00     0.112 C 
HETATM    6  C7  UNL     1       0.403  -1.413  -2.607  1.00  0.00     0.052 C 
BRANCH   5   7
HETATM    7  C5  UNL     1       1.101  -0.255  -0.599  1.00  0.00    -0.021 A 
HETATM    8  C4  UNL     1       1.060   1.115  -0.720  1.00  0.00     0.013 A 
HETATM    9  C3  UNL     1       2.071   1.865  -0.194  1.00  0.00     0.040 A 
HETATM   10  C2  UNL     1       3.120   1.266   0.449  1.00  0.00     0.101 A 
HETATM   11  C17 UNL     1       3.216  -0.103   0.600  1.00  0.00     0.102 A 
HETATM   12  C16 UNL     1       2.160  -0.835   0.047  1.00  0.00     0.049 A 
BRANCH  10  13
HETATM   13  O1  UNL     1       4.178   1.996   1.003  1.00  0.00    -0.353 OA
HETATM   14  C1  UNL     1       4.266   3.390   0.955  1.00  0.00     0.210 C 
ENDBRANCH  10  13
BRANCH  11  15
HETATM   15  O3  UNL     1       4.287  -0.694   1.255  1.00  0.00    -0.353 OA
HETATM   16  C18 UNL     1       4.277  -2.106   1.349  1.00  0.00     0.210 C 
ENDBRANCH  11  15
ENDBRANCH   5   7
BRANCH   5  17
HETATM   17  C9  UNL     1      -1.321  -0.433  -1.082  1.00  0.00     0.087 A 
HETATM   18  C10 UNL     1      -1.945   0.283  -2.079  1.00  0.00     0.038 A 
HETATM   19  C11 UNL     1      -3.141   0.685  -1.522  1.00  0.00     0.041 A 
HETATM   20  C12 UNL     1      -3.190   0.200  -0.224  1.00  0.00     0.088 A 
HETATM   21  O2  UNL     1      -2.074  -0.457  -0.025  1.00  0.00    -0.311 OA
BRANCH  20  22
HETATM   22  C13 UNL     1      -4.281   0.399   0.712  1.00  0.00     0.032 A 
HETATM   23  C14 UNL     1      -4.394  -0.052   2.006  1.00  0.00     0.122 A 
HETATM   24  N3  UNL     1      -5.587   0.378   2.486  1.00  0.00    -0.311 N 
HETATM   25  N4  UNL     1      -6.223   1.065   1.582  1.00  0.00    -0.311 N 
ATOM     26  H3  UNL     1      -5.937   0.189   3.425  1.00  0.00     0.186 HD
HETATM   27  C15 UNL     1      -5.444   1.098   0.472  1.00  0.00     0.122 A 
ATOM     28  H4  UNL     1      -7.140   1.499   1.689  1.00  0.00     0.186 HD
ENDBRANCH  20  22
ENDBRANCH   5  17
ENDBRANCH   1   5
TORSDOF 6
