REMARK  4 active torsions:
REMARK  status: ('A' for Active; 'I' for Inactive)
REMARK    1  A    between atoms: C2_2  and  C3_3 
REMARK    2  A    between atoms: C3_3  and  O1_4 
REMARK    3  A    between atoms: C3_3  and  C4_6 
REMARK    4  A    between atoms: C4_6  and  C5_7 
ROOT
HETATM    1  C5  UNL     1      -0.370   0.509  -0.063  1.00  0.00     0.010 C 
HETATM    2  C6  UNL     1      -0.016  -0.455  -1.151  1.00  0.00     0.041 C 
HETATM    3  C7  UNL     1       1.361  -0.126  -1.620  1.00  0.00     0.154 A 
HETATM    4  O2  UNL     1       2.114  -0.843  -2.494  1.00  0.00    -0.373 OA
HETATM    5  C8  UNL     1       2.282  -1.164  -1.209  1.00  0.00     0.179 A 
HETATM    6  C9  UNL     1       3.237  -0.650  -0.209  1.00  0.00     0.148 C 
HETATM    7  C10 UNL     1       3.979   0.581  -0.550  1.00  0.00     0.042 C 
HETATM    8  O3  UNL     1       2.550  -0.603   1.007  1.00  0.00    -0.382 OA
HETATM    9  C11 UNL     1       1.809   0.526   1.223  1.00  0.00     0.187 C 
HETATM   10  C12 UNL     1       0.315   0.316   1.230  1.00  0.00     0.121 C 
HETATM   11  C13 UNL     1      -0.260   1.272   2.187  1.00  0.00     0.066 C 
HETATM   12  N1  UNL     1      -0.702   2.036   2.966  1.00  0.00    -0.197 NA
ENDROOT
BRANCH   1  13
HETATM   13  C4  UNL     1      -1.852   0.600   0.168  1.00  0.00     0.042 C 
BRANCH  13  14
HETATM   14  C3  UNL     1      -2.518  -0.676   0.566  1.00  0.00     0.140 C 
BRANCH  14  15
HETATM   15  C2  UNL     1      -3.975  -0.378   0.751  1.00  0.00    -0.006 C 
HETATM   16  C1  UNL     1      -4.685  -0.013  -0.290  1.00  0.00     0.009 C 
ENDBRANCH  14  15
BRANCH  14  17
HETATM   17  O1  UNL     1      -2.478  -1.657  -0.441  1.00  0.00    -0.392 OA
ATOM     18  H1  UNL     1      -1.554  -1.846  -0.558  1.00  0.00     0.210 HD
ENDBRANCH  14  17
ENDBRANCH  13  14
ENDBRANCH   1  13
TORSDOF 4
