REMARK  4 active torsions:
REMARK  status: ('A' for Active; 'I' for Inactive)
REMARK    1  A    between atoms: O1_1  and  N1_3 
REMARK    2  A    between atoms: N1_3  and  N2_5 
REMARK    3  A    between atoms: C4_9  and  C5_10 
REMARK    4  A    between atoms: C5_10  and  O2_11 
ROOT
HETATM    1  C5  UNL     1       0.331  -0.021  -0.382  1.00  0.00     0.128 C 
HETATM    2  C6  UNL     1      -0.677  -0.728   0.499  1.00  0.00     0.279 C 
HETATM    3  N3  UNL     1      -1.650   0.259   0.111  1.00  0.00    -0.061 N 
HETATM    4  C7  UNL     1      -2.500  -0.094  -1.002  1.00  0.00     0.237 C 
HETATM    5  C8  UNL     1      -3.730  -0.725  -0.418  1.00  0.00     0.029 C 
HETATM    6  C9  UNL     1      -3.845  -0.065   0.934  1.00  0.00     0.029 C 
HETATM    7  C10 UNL     1      -2.545   0.712   1.137  1.00  0.00     0.237 C 
HETATM    8  C11 UNL     1      -0.595   1.142  -0.276  1.00  0.00     0.279 C 
ENDROOT
BRANCH   1   9
HETATM    9  C4  UNL     1       1.648   0.104   0.349  1.00  0.00     0.142 C 
HETATM   10  N2  UNL     1       2.605   0.886  -0.390  1.00  0.00    -0.301 N 
HETATM   11  C1  UNL     1       3.911   0.464   0.051  1.00  0.00     0.145 C 
HETATM   12  C2  UNL     1       3.768  -1.032   0.111  1.00  0.00     0.024 C 
HETATM   13  C3  UNL     1       2.308  -1.257   0.391  1.00  0.00     0.032 C 
BRANCH  10  14
HETATM   14  N1  UNL     1       2.367   1.860  -1.345  1.00  0.00    -0.212 N 
ATOM     15  H1  UNL     1       1.958   1.613  -2.246  1.00  0.00     0.215 HD
BRANCH  14  16
HETATM   16  O1  UNL     1       2.664   3.059  -1.083  1.00  0.00    -0.275 OA
ATOM     17  H1  UNL     1       2.501   3.727  -1.738  1.00  0.00     0.246 HD
ENDBRANCH  14  16
ENDBRANCH  10  14
ENDBRANCH   1   9
BRANCH   1  18
HETATM   18  O2  UNL     1       0.469  -0.624  -1.602  1.00  0.00    -0.384 OA
ATOM     19  H2  UNL     1      -0.359  -0.703  -2.061  1.00  0.00     0.210 HD
ENDBRANCH   1  18
TORSDOF 4
