REMARK  4 active torsions:
REMARK  status: ('A' for Active; 'I' for Inactive)
REMARK    1  A    between atoms: C2_2  and  C3_3 
REMARK    2  A    between atoms: C3_3  and  O1_4 
REMARK    3  A    between atoms: C7_13  and  C9_15 
REMARK    4  A    between atoms: C9_15  and  C10_16 
ROOT
HETATM    1  C10 UNL     1       2.755  -0.133   0.596  1.00  0.00     0.202 C 
HETATM    2  C11 UNL     1       2.736  -1.526   0.964  1.00  0.00     0.078 C 
HETATM    3  N2  UNL     1       2.755  -2.656   1.277  1.00  0.00    -0.196 NA
HETATM    4  C12 UNL     1       3.615   0.598   1.576  1.00  0.00     0.078 C 
HETATM    5  N3  UNL     1       4.275   1.154   2.352  1.00  0.00    -0.196 NA
ENDROOT
BRANCH   1   6
HETATM    6  C9  UNL     1       1.447   0.540   0.622  1.00  0.00     0.078 C 
BRANCH   6   7
HETATM    7  C7  UNL     1       0.353   0.080  -0.255  1.00  0.00     0.183 C 
HETATM    8  C3  UNL     1      -0.907   0.865  -0.117  1.00  0.00     0.197 C 
HETATM    9  O2  UNL     1      -1.818  -0.069  -0.742  1.00  0.00    -0.315 OA
HETATM   10  C4  UNL     1      -1.528  -1.235  -0.071  1.00  0.00     0.222 C 
HETATM   11  C5  UNL     1      -1.852  -2.471  -0.882  1.00  0.00     0.078 C 
HETATM   12  C6  UNL     1      -2.376  -1.317   1.180  1.00  0.00     0.078 C 
HETATM   13  N1  UNL     1      -0.113  -1.238   0.194  1.00  0.00    -0.030 N 
ATOM     14  H12 UNL     1       0.128  -1.456   1.161  1.00  0.00     0.281 HD
ATOM     15  H11 UNL     1       0.387  -2.021  -0.228  1.00  0.00     0.281 HD
HETATM   16  C8  UNL     1       0.741  -0.115  -1.699  1.00  0.00     0.052 C 
BRANCH   8  17
HETATM   17  C2  UNL     1      -1.015   2.163  -0.818  1.00  0.00     0.066 C 
HETATM   18  C1  UNL     1      -0.190   3.289  -0.288  1.00  0.00     0.010 C 
ENDBRANCH   8  17
BRANCH   8  19
HETATM   19  O1  UNL     1      -1.253   0.966   1.223  1.00  0.00    -0.363 OA
ATOM     20  H1  UNL     1      -1.184   0.132   1.673  1.00  0.00     0.213 HD
ENDBRANCH   8  19
ENDBRANCH   6   7
ENDBRANCH   1   6
TORSDOF 4
