REMARK  5 active torsions:
REMARK  status: ('A' for Active; 'I' for Inactive)
REMARK    1  A    between atoms: C2_2  and  C3_3 
REMARK    2  A    between atoms: C3_3  and  C4_4 
REMARK    3  A    between atoms: C5_5  and  C6_6 
REMARK    4  A    between atoms: C8_10  and  C9_11 
REMARK    5  A    between atoms: C13_16  and  O4_17 
ROOT
HETATM    1  C6  UNL     1       0.589  -0.270  -0.024  1.00  0.00     0.234 C 
HETATM    2  O1  UNL     1       0.029  -0.271  -1.304  1.00  0.00    -0.338 OA
HETATM    3  C7  UNL     1      -1.326  -0.554  -1.107  1.00  0.00     0.293 C 
HETATM    4  O2  UNL     1      -1.993   0.624  -0.939  1.00  0.00    -0.351 OA
HETATM    5  C8  UNL     1      -3.193   0.433  -0.275  1.00  0.00     0.148 C 
HETATM    6  C11 UNL     1      -2.834  -0.100   1.096  1.00  0.00     0.200 C 
HETATM    7  O3  UNL     1      -2.321  -1.353   0.952  1.00  0.00    -0.376 OA
HETATM    8  C12 UNL     1      -1.390  -1.529  -0.014  1.00  0.00     0.208 C 
HETATM    9  C13 UNL     1       0.001  -1.499   0.597  1.00  0.00     0.193 C 
ENDROOT
BRANCH   1  10
HETATM   10  C5  UNL     1       2.050  -0.496  -0.119  1.00  0.00    -0.072 C 
HETATM   11  C4  UNL     1       3.237  -0.699  -0.202  1.00  0.00    -0.104 C 
BRANCH  11  12
HETATM   12  C3  UNL     1       4.672  -0.969  -0.314  1.00  0.00     0.093 C 
BRANCH  12  13
HETATM   13  C2  UNL     1       5.427   0.323  -0.657  1.00  0.00     0.007 C 
HETATM   14  C1  UNL     1       5.206   1.339   0.416  1.00  0.00     0.006 C 
ENDBRANCH  12  13
ENDBRANCH  11  12
ENDBRANCH   1  10
BRANCH   9  15
HETATM   15  O4  UNL     1       0.772  -2.589   0.189  1.00  0.00    -0.389 OA
ATOM     16  H4  UNL     1       0.399  -3.369   0.583  1.00  0.00     0.210 HD
ENDBRANCH   9  15
BRANCH   5  17
HETATM   17  C9  UNL     1      -3.987   1.715  -0.176  1.00  0.00     0.029 C 
HETATM   18  C10 UNL     1      -5.277   1.430   0.556  1.00  0.00     0.007 C 
ENDBRANCH   5  17
TORSDOF 5
