REMARK  4 active torsions:
REMARK  status: ('A' for Active; 'I' for Inactive)
REMARK    1  A    between atoms: C2_2  and  N1_5 
REMARK    2  A    between atoms: C7_8  and  N2_9 
REMARK    3  A    between atoms: N2_9  and  C8_11 
REMARK    4  A    between atoms: C8_11  and  C9_12 
ROOT
HETATM    1  N1  UNL     1      -1.918  -0.614   0.550  1.00  0.00     0.099 N 
HETATM    2  C5  UNL     1      -1.099   0.172   1.429  1.00  0.00     0.275 C 
HETATM    3  C6  UNL     1       0.346  -0.040   1.026  1.00  0.00     0.057 C 
HETATM    4  C7  UNL     1       0.276  -0.995  -0.122  1.00  0.00     0.110 C 
HETATM    5  C12 UNL     1      -1.148  -0.757  -0.669  1.00  0.00     0.298 C 
ENDROOT
BRANCH   4   6
HETATM    6  N2  UNL     1       1.232  -0.868  -1.140  1.00  0.00    -0.392 N 
ATOM      7  H2  UNL     1       0.914  -0.611  -2.074  1.00  0.00     0.159 HD
BRANCH   6   8
HETATM    8  C8  UNL     1       2.596  -1.076  -0.938  1.00  0.00     0.116 C 
BRANCH   8   9
HETATM    9  C9  UNL     1       3.354  -0.062  -0.118  1.00  0.00     0.299 C 
HETATM   10  O1  UNL     1       4.708  -0.415  -0.031  1.00  0.00    -0.354 OA
HETATM   11  C10 UNL     1       5.472   0.635  -0.462  1.00  0.00     0.197 C 
HETATM   12  C11 UNL     1       4.528   1.806  -0.482  1.00  0.00     0.197 C 
HETATM   13  O2  UNL     1       3.306   1.185  -0.694  1.00  0.00    -0.354 OA
ENDBRANCH   8   9
ENDBRANCH   6   8
ENDBRANCH   4   6
BRANCH   1  14
HETATM   14  C2  UNL     1      -3.228  -0.080   0.313  1.00  0.00     0.149 C 
HETATM   15  C1  UNL     1      -3.240   1.251  -0.394  1.00  0.00     0.048 C 
HETATM   16  C3  UNL     1      -4.002  -1.063  -0.536  1.00  0.00     0.048 C 
HETATM   17  C4  UNL     1      -4.011   0.117   1.600  1.00  0.00     0.048 C 
ENDBRANCH   1  14
TORSDOF 4
