REMARK  4 active torsions:
REMARK  status: ('A' for Active; 'I' for Inactive)
REMARK    1  A    between atoms: N1_1  and  C1_5 
REMARK    2  A    between atoms: C1_5  and  C2_6 
REMARK    3  A    between atoms: C2_6  and  C3_7 
REMARK    4  A    between atoms: C3_7  and  N2_8 
ROOT
HETATM    1  C2  UNL     1      -1.175   0.511  -0.199  1.00  0.00     0.016 C 
HETATM    2  C8  UNL     1      -1.564  -0.069   1.062  1.00  0.00     0.027 C 
HETATM    3  C9  UNL     1      -2.486  -1.233   1.164  1.00  0.00     0.075 C 
HETATM    4  S1  UNL     1      -3.473  -1.400  -0.380  1.00  0.00    -0.169 SA
HETATM    5  C10 UNL     1      -2.063  -1.476  -1.558  1.00  0.00     0.075 C 
HETATM    6  C11 UNL     1      -1.388  -0.139  -1.494  1.00  0.00     0.027 C 
ENDROOT
BRANCH   1   7
HETATM    7  C1  UNL     1      -1.911   1.880  -0.348  1.00  0.00     0.244 C 
BRANCH   7   8
HETATM    8  N1  UNL     1      -1.725   2.772   0.715  1.00  0.00    -0.078 N 
ATOM      9  H13 UNL     1      -1.983   2.328   1.596  1.00  0.00     0.274 HD
ATOM     10  H12 UNL     1      -0.729   2.924   0.877  1.00  0.00     0.274 HD
ATOM     11  H11 UNL     1      -2.206   3.666   0.618  1.00  0.00     0.274 HD
ENDBRANCH   7   8
ENDBRANCH   1   7
BRANCH   1  12
HETATM   12  C3  UNL     1       0.273   0.961  -0.109  1.00  0.00     0.069 C 
BRANCH  12  13
HETATM   13  N2  UNL     1       1.272   0.029   0.077  1.00  0.00    -0.389 N 
HETATM   14  C4  UNL     1       1.692  -0.906  -0.872  1.00  0.00     0.148 C 
HETATM   15  C5  UNL     1       3.079  -1.478  -0.565  1.00  0.00     0.187 C 
HETATM   16  O1  UNL     1       3.273  -1.672   0.778  1.00  0.00    -0.388 OA
HETATM   17  C6  UNL     1       3.006  -0.594   1.577  1.00  0.00     0.187 C 
HETATM   18  C7  UNL     1       2.425   0.559   0.784  1.00  0.00     0.148 C 
ENDBRANCH  12  13
ENDBRANCH   1  12
TORSDOF 4
