REMARK  18 active torsions:
REMARK  status: ('A' for Active; 'I' for Inactive)
REMARK    1  A    between atoms: C1_2  and  C2_4 
REMARK    2  A    between atoms: C2_4  and  N2_5 
REMARK    3  A    between atoms: C2_4  and  N7_21 
REMARK    4  A    between atoms: N3_7  and  C3_9 
REMARK    5  A    between atoms: C5_18  and  O2_19 
REMARK    6  A    between atoms: N7_21  and  C6_23 
REMARK    7  A    between atoms: C7_26  and  N9_27 
REMARK    8  A    between atoms: C9_34  and  C10_35 
REMARK    9  A    between atoms: C10_35  and  O3_36 
REMARK   10  A    between atoms: C10_35  and  N12_38 
REMARK       I    between atoms: N12_38  and  C11_40 
REMARK   11  A    between atoms: C11_40  and  C12_42 
REMARK   12  A    between atoms: C12_42  and  O5_43 
REMARK   13  A    between atoms: C12_42  and  C13_45 
REMARK   14  A    between atoms: C13_45  and  O6_46 
REMARK   15  A    between atoms: C13_45  and  C14_48 
REMARK   16  A    between atoms: C14_48  and  N13_49 
REMARK   17  A    between atoms: N13_49  and  C15_51 
REMARK   18  A    between atoms: C15_51  and  C16_52 
ROOT
HETATM    1  C6  UNL     1      -3.186  -1.451   0.623  1.00  0.00     0.133 A 
HETATM    2  N8  UNL     1      -4.293  -2.008   0.137  1.00  0.00    -0.176 N 
ATOM      3  H8  UNL     1      -5.200  -1.660   0.449  1.00  0.00     0.186 HD
HETATM    4  C7  UNL     1      -4.253  -3.009  -0.746  1.00  0.00     0.678 A 
HETATM    5  N10 UNL     1      -3.067  -3.494  -1.168  1.00  0.00    -0.178 N 
ATOM      6  H10 UNL     1      -3.057  -4.261  -1.840  1.00  0.00     0.185 HD
HETATM    7  C8  UNL     1      -1.889  -2.992  -0.725  1.00  0.00     0.146 A 
HETATM    8  N11 UNL     1      -0.692  -3.604  -1.196  1.00  0.00    -0.081 NA
HETATM    9  C9  UNL     1      -1.937  -1.964   0.172  1.00  0.00     0.076 A 
ENDROOT
BRANCH   9  10
HETATM   10  C10 UNL     1      -0.704  -1.310   0.662  1.00  0.00     0.262 C 
BRANCH  10  11
HETATM   11  O3  UNL     1      -0.983   0.114   0.550  1.00  0.00    -0.372 OA
ATOM     12  H3  UNL     1      -0.191   0.534   0.865  1.00  0.00     0.212 HD
ENDBRANCH  10  11
BRANCH  10  13
HETATM   13  N12 UNL     1       0.456  -1.478  -0.129  1.00  0.00    -0.328 N 
HETATM   14  C11 UNL     1       1.749  -1.414   0.438  1.00  0.00     0.251 C 
HETATM   15  O4  UNL     1       1.943  -1.165   1.636  1.00  0.00    -0.270 OA
ATOM     16  H12 UNL     1       0.358  -1.649  -1.130  1.00  0.00     0.165 HD
BRANCH  14  17
HETATM   17  C12 UNL     1       3.016  -1.649  -0.410  1.00  0.00     0.240 C 
BRANCH  17  18
HETATM   18  O5  UNL     1       2.844  -2.965  -0.927  1.00  0.00    -0.383 OA
ATOM     19  H5  UNL     1       3.624  -3.110  -1.449  1.00  0.00     0.210 HD
ENDBRANCH  17  18
BRANCH  17  20
HETATM   20  C13 UNL     1       4.161  -1.596   0.520  1.00  0.00     0.173 C 
BRANCH  20  21
HETATM   21  O6  UNL     1       5.359  -2.155   0.147  1.00  0.00    -0.391 OA
ATOM     22  H6  UNL     1       6.096  -2.121   0.746  1.00  0.00     0.210 HD
ENDBRANCH  20  21
BRANCH  20  23
HETATM   23  C14 UNL     1       4.546  -0.092   0.741  1.00  0.00     0.149 C 
BRANCH  23  24
HETATM   24  N13 UNL     1       5.266   0.326  -0.405  1.00  0.00    -0.415 N 
ATOM     25  H13 UNL     1       5.639  -0.353  -1.068  1.00  0.00     0.153 HD
BRANCH  24  26
HETATM   26  C15 UNL     1       5.452   1.716  -0.602  1.00  0.00     0.153 C 
BRANCH  26  27
HETATM   27  C16 UNL     1       6.895   2.150  -0.567  1.00  0.00    -0.038 A 
HETATM   28  C17 UNL     1       7.904   1.372  -1.002  1.00  0.00     0.025 A 
HETATM   29  C18 UNL     1       9.202   1.896  -0.827  1.00  0.00     0.088 A 
HETATM   30  N14 UNL     1       9.440   3.069  -0.277  1.00  0.00    -0.375 N 
HETATM   31  C19 UNL     1       8.426   3.866   0.170  1.00  0.00     0.088 A 
ATOM     32  H14 UNL     1      10.404   3.389  -0.183  1.00  0.00     0.164 HD
HETATM   33  C20 UNL     1       7.158   3.392   0.016  1.00  0.00     0.025 A 
ENDBRANCH  26  27
ENDBRANCH  24  26
ENDBRANCH  23  24
ENDBRANCH  20  23
ENDBRANCH  17  20
ENDBRANCH  14  17
ENDBRANCH  10  13
ENDBRANCH   9  10
BRANCH   1  34
HETATM   34  N7  UNL     1      -3.121  -0.529   1.470  1.00  0.00    -0.346 N 
ATOM     35  H7  UNL     1      -2.161  -0.261   1.686  1.00  0.00     0.163 HD
BRANCH  34  36
HETATM   36  C2  UNL     1      -4.068   0.222   2.192  1.00  0.00     0.289 C 
BRANCH  36  37
HETATM   37  C1  UNL     1      -5.028  -0.609   2.912  1.00  0.00     0.274 C 
HETATM   38  N1  UNL     1      -4.489  -1.647   3.728  1.00  0.00    -0.059 NA
HETATM   39  O1  UNL     1      -6.280  -0.531   2.897  1.00  0.00    -0.272 OA
ENDBRANCH  36  37
BRANCH  36  40
HETATM   40  N2  UNL     1      -4.699   1.262   1.368  1.00  0.00    -0.303 N 
HETATM   41  N3  UNL     1      -5.828   1.096   0.890  1.00  0.00    -0.284 N 
ATOM     42  H3  UNL     1      -6.308   0.220   1.095  1.00  0.00     0.188 HD
ATOM     43  H2  UNL     1      -4.199   2.133   1.188  1.00  0.00     0.183 HD
BRANCH  41  44
HETATM   44  C3  UNL     1      -6.486   2.027   0.091  1.00  0.00     0.187 A 
HETATM   45  N4  UNL     1      -7.273   3.021   0.528  1.00  0.00    -0.171 N 
HETATM   46  C4  UNL     1      -7.760   3.719  -0.525  1.00  0.00     0.679 A 
ATOM     47  H4  UNL     1      -7.475   3.221   1.508  1.00  0.00     0.186 HD
HETATM   48  N5  UNL     1      -8.542   4.735  -0.469  1.00  0.00    -0.234 N 
HETATM   49  N6  UNL     1      -7.278   3.170  -1.677  1.00  0.00    -0.167 N 
ATOM     50  H52 UNL     1      -8.902   5.146   0.392  1.00  0.00     0.174 HD
ATOM     51  H51 UNL     1      -8.909   5.261  -1.262  1.00  0.00     0.174 HD
HETATM   52  C5  UNL     1      -6.500   2.137  -1.300  1.00  0.00     0.202 A 
ATOM     53  H6  UNL     1      -7.468   3.479  -2.630  1.00  0.00     0.186 HD
BRANCH  52  54
HETATM   54  O2  UNL     1      -5.786   1.276  -2.138  1.00  0.00    -0.343 OA
ATOM     55  H2  UNL     1      -5.796   1.351  -3.085  1.00  0.00     0.219 HD
ENDBRANCH  52  54
ENDBRANCH  41  44
ENDBRANCH  36  40
ENDBRANCH  34  36
ENDBRANCH   1  34
BRANCH   4  56
HETATM   56  N9  UNL     1      -5.385  -3.494  -1.212  1.00  0.00    -0.234 N 
ATOM     57  H92 UNL     1      -6.282  -3.127  -0.893  1.00  0.00     0.174 HD
ATOM     58  H91 UNL     1      -5.354  -4.259  -1.886  1.00  0.00     0.174 HD
ENDBRANCH   4  56
TORSDOF 18
