REMARK  18 active torsions:
REMARK  status: ('A' for Active; 'I' for Inactive)
REMARK    1  A    between atoms: N1_1  and  C1_4 
REMARK    2  A    between atoms: C5_13  and  N4_14 
REMARK    3  A    between atoms: N4_14  and  C6_16 
REMARK    4  A    between atoms: C6_16  and  C7_17 
REMARK    5  A    between atoms: C7_17  and  N5_18 
REMARK    6  A    between atoms: N5_18  and  C8_19 
REMARK    7  A    between atoms: N5_18  and  C13_30 
REMARK    8  A    between atoms: C8_19  and  C9_20 
REMARK    9  A    between atoms: C9_20  and  C10_21 
REMARK   10  A    between atoms: C10_21  and  N6_22 
REMARK   11  A    between atoms: C11_24  and  C12_25 
REMARK   12  A    between atoms: C12_25  and  N7_26 
REMARK   13  A    between atoms: C14_31  and  O1_32 
REMARK   14  A    between atoms: C15_34  and  O2_35 
REMARK   15  A    between atoms: C18_39  and  O3_40 
REMARK   16  A    between atoms: C19_42  and  C20_43 
REMARK   17  A    between atoms: C20_43  and  O4_44 
REMARK   18  A    between atoms: C20_43  and  C21_46 
ROOT
HETATM    1  N5  UNL     1       0.021  -0.117   0.149  1.00  0.00    -0.375 N 
ENDROOT
BRANCH   1   2
HETATM    2  C7  UNL     1      -1.005  -1.090  -0.128  1.00  0.00     0.143 C 
BRANCH   2   3
HETATM    3  C6  UNL     1      -2.108  -1.090   0.891  1.00  0.00     0.141 C 
BRANCH   3   4
HETATM    4  N4  UNL     1      -3.134  -2.067   0.576  1.00  0.00    -0.372 N 
ATOM      5  H4  UNL     1      -2.976  -3.022   0.899  1.00  0.00     0.161 HD
BRANCH   4   6
HETATM    6  C5  UNL     1      -4.215  -1.847  -0.066  1.00  0.00     0.146 C 
HETATM    7  C4  UNL     1      -5.019  -2.963  -0.226  1.00  0.00     0.112 C 
HETATM    8  C3  UNL     1      -6.377  -2.959  -0.479  1.00  0.00     0.145 C 
HETATM    9  N11 UNL     1      -4.570  -4.309  -0.155  1.00  0.00    -0.363 N 
HETATM   10  C2  UNL     1      -7.248  -1.897  -0.631  1.00  0.00     0.150 C 
HETATM   11  O6  UNL     1      -6.774  -4.276  -0.565  1.00  0.00    -0.326 OA
HETATM   12  N2  UNL     1      -6.895  -0.592  -0.652  1.00  0.00    -0.174 N 
HETATM   13  N3  UNL     1      -8.503  -2.178  -0.763  1.00  0.00    -0.383 N 
HETATM   14  C1  UNL     1      -5.672  -0.021  -0.657  1.00  0.00     0.679 C 
ATOM     15  H2  UNL     1      -7.676   0.064  -0.666  1.00  0.00     0.186 HD
HETATM   16  N10 UNL     1      -4.449  -0.605  -0.500  1.00  0.00    -0.175 N 
ATOM     17  H10 UNL     1      -3.634  -0.039  -0.737  1.00  0.00     0.186 HD
ATOM     18  H32 UNL     1      -9.146  -1.394  -0.875  1.00  0.00     0.157 HD
ATOM     19  H31 UNL     1      -8.769  -3.162  -0.747  1.00  0.00     0.157 HD
HETATM   20  C23 UNL     1      -5.766  -5.121  -0.058  1.00  0.00     0.298 C 
ATOM     21  H11 UNL     1      -3.604  -4.636  -0.169  1.00  0.00     0.162 HD
BRANCH  14  22
HETATM   22  N1  UNL     1      -5.681   1.254  -0.836  1.00  0.00    -0.234 N 
ATOM     23  H12 UNL     1      -6.595   1.691  -0.953  1.00  0.00     0.174 HD
ATOM     24  H11 UNL     1      -4.757   1.686  -0.840  1.00  0.00     0.174 HD
ENDBRANCH  14  22
ENDBRANCH   4   6
ENDBRANCH   3   4
ENDBRANCH   2   3
ENDBRANCH   1   2
BRANCH   1  25
HETATM   25  C8  UNL     1      -0.286   1.303   0.061  1.00  0.00     0.125 C 
BRANCH  25  26
HETATM   26  C9  UNL     1       0.919   2.131   0.362  1.00  0.00     0.039 C 
BRANCH  26  27
HETATM   27  C10 UNL     1       0.534   3.608   0.252  1.00  0.00     0.120 C 
BRANCH  27  28
HETATM   28  N6  UNL     1       0.066   3.913  -1.067  1.00  0.00    -0.401 N 
HETATM   29  C11 UNL     1      -0.263   5.118  -1.328  1.00  0.00     0.082 C 
ATOM     30  H6  UNL     1      -0.002   3.186  -1.779  1.00  0.00     0.158 HD
BRANCH  29  31
HETATM   31  C12 UNL     1      -0.180   6.206  -0.328  1.00  0.00     0.273 C 
BRANCH  31  32
HETATM   32  N7  UNL     1      -0.586   7.459  -0.926  1.00  0.00    -0.075 N 
ATOM     33  H73 UNL     1      -0.051   7.672  -1.768  1.00  0.00     0.274 HD
ATOM     34  H72 UNL     1      -1.512   7.398  -1.349  1.00  0.00     0.274 HD
ATOM     35  H71 UNL     1      -0.529   8.209  -0.237  1.00  0.00     0.274 HD
ENDBRANCH  31  32
ENDBRANCH  29  31
ENDBRANCH  27  28
ENDBRANCH  26  27
ENDBRANCH  25  26
ENDBRANCH   1  25
BRANCH   1  36
HETATM   36  C13 UNL     1       1.323  -0.575   0.486  1.00  0.00     0.101 A 
HETATM   37  C14 UNL     1       1.705  -0.783   1.784  1.00  0.00     0.131 A 
HETATM   38  C15 UNL     1       3.004  -1.254   2.045  1.00  0.00     0.128 A 
HETATM   39  C16 UNL     1       3.907  -1.512   1.044  1.00  0.00     0.074 A 
HETATM   40  C17 UNL     1       3.526  -1.302  -0.285  1.00  0.00     0.015 A 
HETATM   41  N9  UNL     1       5.248  -1.978   1.042  1.00  0.00    -0.386 N 
HETATM   42  C18 UNL     1       2.261  -0.845  -0.525  1.00  0.00     0.104 A 
HETATM   43  C19 UNL     1       4.659  -1.655  -1.165  1.00  0.00     0.079 C 
HETATM   44  C22 UNL     1       5.575  -2.445  -0.279  1.00  0.00     0.132 C 
ATOM     45  H9  UNL     1       5.877  -1.981   1.845  1.00  0.00     0.159 HD
BRANCH  37  46
HETATM   46  O1  UNL     1       0.856  -0.544   2.833  1.00  0.00    -0.356 OA
ATOM     47  H1  UNL     1       1.121  -0.688   3.734  1.00  0.00     0.218 HD
ENDBRANCH  37  46
BRANCH  38  48
HETATM   48  O2  UNL     1       3.375  -1.462   3.384  1.00  0.00    -0.356 OA
ATOM     49  H2  UNL     1       4.253  -1.780   3.560  1.00  0.00     0.218 HD
ENDBRANCH  38  48
BRANCH  42  50
HETATM   50  O3  UNL     1       1.809  -0.613  -1.816  1.00  0.00    -0.358 OA
ATOM     51  H3  UNL     1       2.443  -0.796  -2.499  1.00  0.00     0.217 HD
ENDBRANCH  42  50
BRANCH  43  52
HETATM   52  C20 UNL     1       5.297  -0.439  -1.749  1.00  0.00     0.217 C 
BRANCH  52  53
HETATM   53  O4  UNL     1       6.384  -0.828  -2.589  1.00  0.00    -0.386 OA
ATOM     54  H4  UNL     1       6.790  -0.054  -2.961  1.00  0.00     0.210 HD
ENDBRANCH  52  53
BRANCH  52  55
HETATM   55  C21 UNL     1       5.823   0.534  -0.778  1.00  0.00     0.260 C 
HETATM   56  N8  UNL     1       7.213   0.884  -0.716  1.00  0.00    -0.060 NA
HETATM   57  O5  UNL     1       5.070   1.105   0.044  1.00  0.00    -0.274 OA
ENDBRANCH  52  55
ENDBRANCH  43  52
ENDBRANCH   1  36
TORSDOF 18
