REMARK  16 active torsions:
REMARK  status: ('A' for Active; 'I' for Inactive)
REMARK       I    between atoms: N1_1  and  C1_5 
REMARK       I    between atoms: C1_5  and  N2_6 
REMARK       I    between atoms: C1_5  and  N3_10 
REMARK    1  A    between atoms: C4_17  and  O2_18 
REMARK    2  A    between atoms: C5_20  and  N5_21 
REMARK    3  A    between atoms: N5_21  and  C6_23 
REMARK    4  A    between atoms: C6_23  and  O3_24 
REMARK    5  A    between atoms: C6_23  and  C7_26 
REMARK    6  A    between atoms: C10_29  and  O4_30 
REMARK    7  A    between atoms: N7_36  and  C12_37 
REMARK    8  A    between atoms: C12_37  and  C13_38 
REMARK    9  A    between atoms: C13_38  and  O6_39 
REMARK   10  A    between atoms: C13_38  and  C14_41 
REMARK       I    between atoms: C14_41  and  N8_43 
REMARK   11  A    between atoms: N8_43  and  C15_45 
REMARK   12  A    between atoms: C15_45  and  C16_46 
REMARK   13  A    between atoms: C15_45  and  C23_53 
REMARK   14  A    between atoms: C16_46  and  C17_47 
REMARK   15  A    between atoms: C23_53  and  O8_54 
REMARK   16  A    between atoms: C23_53  and  O9_56 
ROOT
HETATM    1  N1  UNL     1       2.205  -2.883   5.023  1.00  0.00    -0.033 N 
ATOM      2  H11 UNL     1       2.304  -1.888   5.224  1.00  0.00     0.278 HD
ATOM      3  H12 UNL     1       3.076  -3.291   4.684  1.00  0.00     0.278 HD
ATOM      4  H13 UNL     1       2.102  -3.434   5.875  1.00  0.00     0.278 HD
HETATM    5  C1  UNL     1       1.098  -3.107   4.091  1.00  0.00     0.481 C 
HETATM    6  N2  UNL     1       0.957  -4.521   3.806  1.00  0.00    -0.033 N 
ATOM      7  H21 UNL     1       0.186  -4.677   3.157  1.00  0.00     0.278 HD
ATOM      8  H22 UNL     1       0.854  -5.072   4.658  1.00  0.00     0.278 HD
ATOM      9  H23 UNL     1       1.828  -4.929   3.467  1.00  0.00     0.278 HD
HETATM   10  N3  UNL     1       1.183  -2.242   3.010  1.00  0.00    -0.322 N 
ATOM     11  H3  UNL     1       0.296  -1.750   2.900  1.00  0.00     0.165 HD
HETATM   12  C2  UNL     1       1.968  -1.869   2.140  1.00  0.00     0.179 C 
HETATM   13  C3  UNL     1       3.235  -2.414   2.108  1.00  0.00     0.291 C 
HETATM   14  O1  UNL     1       3.407  -3.608   2.430  1.00  0.00    -0.264 OA
HETATM   15  N4  UNL     1       4.407  -1.796   1.751  1.00  0.00    -0.299 N 
ATOM     16  H4  UNL     1       5.269  -2.285   1.991  1.00  0.00     0.171 HD
HETATM   17  C4  UNL     1       4.546  -0.596   1.109  1.00  0.00     0.175 C 
HETATM   18  C5  UNL     1       3.581  -0.045   0.289  1.00  0.00     0.151 C 
HETATM   19  C11 UNL     1       2.204  -0.152   0.483  1.00  0.00     0.280 C 
HETATM   20  O5  UNL     1       1.552   0.633  -0.250  1.00  0.00    -0.265 OA
HETATM   21  N7  UNL     1       1.458  -0.922   1.290  1.00  0.00    -0.291 N 
ENDROOT
BRANCH  21  22
HETATM   22  C12 UNL     1       0.039  -0.706   1.247  1.00  0.00     0.175 C 
BRANCH  22  23
HETATM   23  C13 UNL     1      -0.687  -1.598   0.267  1.00  0.00     0.228 C 
BRANCH  23  24
HETATM   24  O6  UNL     1      -0.533  -2.930   0.556  1.00  0.00    -0.384 OA
ATOM     25  H6  UNL     1      -0.989  -3.491  -0.060  1.00  0.00     0.210 HD
ENDBRANCH  23  24
BRANCH  23  26
HETATM   26  C14 UNL     1      -2.136  -1.260   0.365  1.00  0.00     0.248 C 
HETATM   27  O7  UNL     1      -2.976  -2.115   0.735  1.00  0.00    -0.271 OA
HETATM   28  N8  UNL     1      -2.612   0.036   0.043  1.00  0.00    -0.349 N 
ATOM     29  H8  UNL     1      -1.933   0.733  -0.262  1.00  0.00     0.163 HD
BRANCH  28  30
HETATM   30  C15 UNL     1      -4.013   0.434   0.121  1.00  0.00     0.143 C 
BRANCH  30  31
HETATM   31  C16 UNL     1      -4.467   0.642  -1.279  1.00  0.00     0.068 C 
BRANCH  31  32
HETATM   32  C17 UNL     1      -5.859   1.058  -1.478  1.00  0.00    -0.056 A 
HETATM   33  C18 UNL     1      -6.248   2.376  -1.639  1.00  0.00     0.007 A 
HETATM   34  C19 UNL     1      -7.560   2.747  -1.818  1.00  0.00     0.001 A 
HETATM   35  C20 UNL     1      -8.516   1.746  -1.835  1.00  0.00     0.000 A 
HETATM   36  C21 UNL     1      -8.178   0.424  -1.679  1.00  0.00     0.001 A 
HETATM   37  C22 UNL     1      -6.852   0.096  -1.502  1.00  0.00     0.007 A 
ENDBRANCH  31  32
ENDBRANCH  30  31
BRANCH  30  38
HETATM   38  C23 UNL     1      -4.202   1.578   1.052  1.00  0.00     0.276 C 
BRANCH  38  39
HETATM   39  O8  UNL     1      -3.504   2.721   0.652  1.00  0.00    -0.369 OA
ATOM     40  H8  UNL     1      -3.625   3.452   1.247  1.00  0.00     0.212 HD
ENDBRANCH  38  39
BRANCH  38  41
HETATM   41  O9  UNL     1      -5.526   1.937   1.241  1.00  0.00    -0.369 OA
ATOM     42  H9  UNL     1      -5.647   2.668   1.836  1.00  0.00     0.212 HD
ENDBRANCH  38  41
ENDBRANCH  30  38
ENDBRANCH  28  30
ENDBRANCH  23  26
ENDBRANCH  22  23
ENDBRANCH  21  22
BRANCH  18  43
HETATM   43  N5  UNL     1       4.025   0.675  -0.825  1.00  0.00    -0.351 N 
ATOM     44  H5  UNL     1       3.310   1.115  -1.404  1.00  0.00     0.163 HD
BRANCH  43  45
HETATM   45  C6  UNL     1       5.371   0.852  -1.227  1.00  0.00     0.269 C 
BRANCH  45  46
HETATM   46  O3  UNL     1       6.069  -0.340  -1.479  1.00  0.00    -0.371 OA
ATOM     47  H3  UNL     1       6.972  -0.221  -1.749  1.00  0.00     0.212 HD
ENDBRANCH  45  46
BRANCH  45  48
HETATM   48  C7  UNL     1       5.384   1.582  -2.558  1.00  0.00     0.060 A 
HETATM   49  C8  UNL     1       4.605   2.690  -2.818  1.00  0.00     0.034 A 
HETATM   50  C9  UNL     1       4.883   3.075  -4.134  1.00  0.00     0.058 A 
HETATM   51  C10 UNL     1       5.819   2.187  -4.622  1.00  0.00     0.140 A 
HETATM   52  N6  UNL     1       6.101   1.304  -3.656  1.00  0.00    -0.337 N 
ATOM     53  H6  UNL     1       6.764   0.533  -3.743  1.00  0.00     0.168 HD
BRANCH  51  54
HETATM   54  O4  UNL     1       6.369   2.208  -5.886  1.00  0.00    -0.346 OA
ATOM     55  H4  UNL     1       7.014   1.596  -6.222  1.00  0.00     0.219 HD
ENDBRANCH  51  54
ENDBRANCH  45  48
ENDBRANCH  43  45
ENDBRANCH  18  43
BRANCH  17  56
HETATM   56  O2  UNL     1       5.716   0.103   1.295  1.00  0.00    -0.344 OA
ATOM     57  H2  UNL     1       5.813   0.936   0.849  1.00  0.00     0.219 HD
ENDBRANCH  17  56
TORSDOF 16
