REMARK  9 active torsions:
REMARK  status: ('A' for Active; 'I' for Inactive)
REMARK    1  A    between atoms: C2_2  and  C4_4 
REMARK    2  A    between atoms: C5_5  and  C6_6 
REMARK    3  A    between atoms: C6_6  and  O1_7 
REMARK    4  A    between atoms: C8_10  and  O2_11 
REMARK    5  A    between atoms: O2_11  and  C9_12 
REMARK    6  A    between atoms: C9_12  and  C10_13 
REMARK    7  A    between atoms: C10_13  and  O3_14 
REMARK    8  A    between atoms: O3_14  and  N1_15 
REMARK    9  A    between atoms: C20_27  and  O4_28 
ROOT
HETATM    1  C6  UNL     1       1.452   1.508   0.193  1.00  0.00     0.082 C 
HETATM    2  C7  UNL     1       2.732   0.809  -0.158  1.00  0.00     0.075 C 
HETATM    3  C8  UNL     1       2.383  -0.690  -0.297  1.00  0.00     0.133 C 
HETATM    4  C11 UNL     1       0.977  -0.596  -0.825  1.00  0.00    -0.011 C 
HETATM    5  C12 UNL     1       1.051  -0.175  -2.254  1.00  0.00     0.018 C 
HETATM    6  C13 UNL     1       0.217  -1.894  -0.639  1.00  0.00     0.012 C 
HETATM    7  C14 UNL     1      -1.095  -1.938  -1.359  1.00  0.00     0.006 C 
HETATM    8  C15 UNL     1      -2.319  -1.927  -0.552  1.00  0.00    -0.001 C 
HETATM    9  C16 UNL     1      -2.335  -2.887   0.609  1.00  0.00     0.010 C 
HETATM   10  C17 UNL     1      -3.815  -2.686   1.009  1.00  0.00     0.035 C 
HETATM   11  C18 UNL     1      -3.868  -1.189   0.983  1.00  0.00    -0.072 C 
HETATM   12  C19 UNL     1      -4.542  -0.258   1.641  1.00  0.00     0.008 C 
HETATM   13  C20 UNL     1      -4.335   1.188   1.348  1.00  0.00     0.141 C 
HETATM   14  C21 UNL     1      -2.879   1.436   1.266  1.00  0.00     0.041 C 
HETATM   15  C22 UNL     1      -2.056   0.309   0.648  1.00  0.00     0.001 C 
HETATM   16  C23 UNL     1      -0.961   0.929  -0.207  1.00  0.00     0.014 C 
HETATM   17  C24 UNL     1       0.386   0.398   0.111  1.00  0.00     0.035 C 
HETATM   18  C25 UNL     1      -2.909  -0.688  -0.055  1.00  0.00    -0.013 C 
HETATM   19  C26 UNL     1      -3.729  -0.072  -1.173  1.00  0.00     0.021 C 
ENDROOT
BRANCH   1  20
HETATM   20  C5  UNL     1       1.125   2.599  -0.709  1.00  0.00     0.012 C 
HETATM   21  C4  UNL     1       1.523   3.811  -0.825  1.00  0.00     0.005 C 
BRANCH  21  22
HETATM   22  C2  UNL     1       2.458   4.635  -0.133  1.00  0.00    -0.072 C 
HETATM   23  C1  UNL     1       2.579   5.914  -0.602  1.00  0.00     0.018 C 
HETATM   24  C3  UNL     1       3.308   4.296   1.014  1.00  0.00     0.047 C 
ENDBRANCH  21  22
ENDBRANCH   1  20
BRANCH   1  25
HETATM   25  O1  UNL     1       1.485   1.942   1.504  1.00  0.00    -0.385 OA
ATOM     26  H1  UNL     1       1.699   1.229   2.094  1.00  0.00     0.211 HD
ENDBRANCH   1  25
BRANCH   3  27
HETATM   27  O2  UNL     1       3.205  -1.293  -1.162  1.00  0.00    -0.383 OA
BRANCH  27  28
HETATM   28  C9  UNL     1       4.136  -2.188  -0.871  1.00  0.00     0.197 C 
BRANCH  28  29
HETATM   29  C10 UNL     1       3.725  -3.473  -0.226  1.00  0.00     0.226 C 
BRANCH  29  30
HETATM   30  O3  UNL     1       3.120  -3.272   0.982  1.00  0.00    -0.285 OA
BRANCH  30  31
HETATM   31  N1  UNL     1       2.732  -4.384   1.604  1.00  0.00    -0.311 N 
ATOM     32  H12 UNL     1       2.882  -5.307   1.196  1.00  0.00     0.184 HD
ATOM     33  H11 UNL     1       2.280  -4.234   2.506  1.00  0.00     0.184 HD
ENDBRANCH  30  31
ENDBRANCH  29  30
ENDBRANCH  28  29
ENDBRANCH  27  28
ENDBRANCH   3  27
BRANCH  13  34
HETATM   34  O4  UNL     1      -4.822   1.860   2.499  1.00  0.00    -0.392 OA
ATOM     35  H4  UNL     1      -4.690   2.782   2.312  1.00  0.00     0.210 HD
ENDBRANCH  13  34
TORSDOF 9
