REMARK  11 active torsions:
REMARK  status: ('A' for Active; 'I' for Inactive)
REMARK    1  A    between atoms: C2_2  and  C3_3 
REMARK    2  A    between atoms: C2_2  and  C24_30 
REMARK    3  A    between atoms: C4_4  and  C5_5 
REMARK    4  A    between atoms: C5_5  and  O1_7 
REMARK    5  A    between atoms: C5_5  and  C12_15 
REMARK    6  A    between atoms: O1_7  and  C7_8 
REMARK    7  A    between atoms: C7_8  and  O3_10 
REMARK    8  A    between atoms: O3_10  and  C8_11 
REMARK    9  A    between atoms: C12_15  and  C13_17 
REMARK   10  A    between atoms: C20_24  and  O5_25 
REMARK   11  A    between atoms: C24_30  and  O6_31 
ROOT
HETATM    1  C5  UNL     1       0.661   0.246  -0.624  1.00  0.00     0.148 C 
HETATM    2  C6  UNL     1       0.883   0.036  -2.115  1.00  0.00     0.060 C 
ENDROOT
BRANCH   1   3
HETATM    3  C4  UNL     1       1.322   1.586  -0.380  1.00  0.00     0.015 C 
HETATM    4  C3  UNL     1       1.187   2.583  -1.229  1.00  0.00    -0.021 C 
BRANCH   4   5
HETATM    5  C2  UNL     1       1.789   3.916  -1.076  1.00  0.00     0.027 C 
HETATM    6  C1  UNL     1       0.752   4.995  -1.230  1.00  0.00     0.016 C 
BRANCH   5   7
HETATM    7  C24 UNL     1       2.606   4.082   0.173  1.00  0.00     0.172 C 
BRANCH   7   8
HETATM    8  O6  UNL     1       1.862   4.053   1.337  1.00  0.00    -0.400 OA
ATOM      9  H6  UNL     1       2.379   4.158   2.127  1.00  0.00     0.209 HD
ENDBRANCH   7   8
ENDBRANCH   5   7
ENDBRANCH   4   5
ENDBRANCH   1   3
BRANCH   1  10
HETATM   10  O1  UNL     1       1.353  -0.680   0.153  1.00  0.00    -0.275 OA
BRANCH  10  11
HETATM   11  C7  UNL     1       2.687  -0.971   0.051  1.00  0.00     0.408 C 
HETATM   12  O2  UNL     1       3.363  -0.371  -0.801  1.00  0.00    -0.229 OA
BRANCH  11  13
HETATM   13  O3  UNL     1       3.304  -1.898   0.853  1.00  0.00    -0.288 OA
BRANCH  13  14
HETATM   14  C8  UNL     1       4.680  -2.188   0.737  1.00  0.00     0.062 C 
HETATM   15  C9  UNL     1       5.072  -2.702  -0.611  1.00  0.00     0.046 C 
HETATM   16  C10 UNL     1       5.472  -0.954   1.139  1.00  0.00     0.046 C 
HETATM   17  C11 UNL     1       5.035  -3.269   1.754  1.00  0.00     0.046 C 
ENDBRANCH  13  14
ENDBRANCH  11  13
ENDBRANCH  10  11
ENDBRANCH   1  10
BRANCH   1  18
HETATM   18  C12 UNL     1      -0.779   0.329  -0.395  1.00  0.00     0.174 C 
HETATM   19  O4  UNL     1      -1.306   1.161  -1.133  1.00  0.00    -0.293 OA
BRANCH  18  20
HETATM   20  C13 UNL     1      -1.648  -0.398   0.541  1.00  0.00     0.025 C 
HETATM   21  C14 UNL     1      -1.174  -0.068   1.950  1.00  0.00     0.024 C 
HETATM   22  C15 UNL     1      -1.517  -1.899   0.461  1.00  0.00     0.017 C 
HETATM   23  C16 UNL     1      -2.327  -2.489  -0.683  1.00  0.00     0.002 C 
HETATM   24  C17 UNL     1      -3.763  -2.221  -0.319  1.00  0.00     0.012 C 
HETATM   25  C18 UNL     1      -3.983  -0.759  -0.408  1.00  0.00    -0.013 C 
HETATM   26  C19 UNL     1      -4.023  -0.353  -1.878  1.00  0.00     0.018 C 
HETATM   27  C20 UNL     1      -5.345  -0.335   0.131  1.00  0.00     0.126 C 
HETATM   28  C23 UNL     1      -3.074   0.053   0.426  1.00  0.00     0.012 C 
HETATM   29  C21 UNL     1      -5.168  -0.304   1.602  1.00  0.00     0.033 C 
HETATM   30  C22 UNL     1      -3.760   0.288   1.728  1.00  0.00     0.009 C 
BRANCH  27  31
HETATM   31  O5  UNL     1      -6.371  -1.121  -0.321  1.00  0.00    -0.395 OA
ATOM     32  H5  UNL     1      -7.220  -0.857   0.015  1.00  0.00     0.210 HD
ENDBRANCH  27  31
ENDBRANCH  18  20
ENDBRANCH   1  18
TORSDOF 11
