REMARK  7 active torsions:
REMARK  status: ('A' for Active; 'I' for Inactive)
REMARK    1  A    between atoms: C2_2  and  C3_3 
REMARK    2  A    between atoms: C3_3  and  C4_4 
REMARK    3  A    between atoms: C4_4  and  N1_5 
REMARK    4  A    between atoms: N1_5  and  C5_7 
REMARK    5  A    between atoms: C9_15  and  S1_16 
REMARK    6  A    between atoms: S1_16  and  C10_17 
REMARK    7  A    between atoms: C10_17  and  C11_18 
ROOT
HETATM    1  C5  UNL     1       3.544   0.034  -0.624  1.00  0.00     0.680 A 
HETATM    2  N2  UNL     1       4.075   0.722   0.399  1.00  0.00    -0.177 N 
ATOM      3  H2  UNL     1       5.061   0.591   0.626  1.00  0.00     0.185 HD
HETATM    4  C6  UNL     1       3.346   1.576   1.131  1.00  0.00     0.155 A 
HETATM    5  N3  UNL     1       3.963   2.265   2.187  1.00  0.00    -0.080 NA
HETATM    6  C7  UNL     1       2.007   1.721   0.785  1.00  0.00     0.120 A 
HETATM    7  C8  UNL     1       1.223   2.617   1.544  1.00  0.00     0.106 C 
HETATM    8  N4  UNL     1       0.587   3.341   2.180  1.00  0.00    -0.191 NA
HETATM    9  C9  UNL     1       1.448   1.029  -0.253  1.00  0.00     0.110 A 
HETATM   10  N5  UNL     1       2.237   0.191  -0.942  1.00  0.00    -0.184 N 
ATOM     11  H5  UNL     1       1.845  -0.338  -1.721  1.00  0.00     0.185 HD
ENDROOT
BRANCH   9  12
HETATM   12  S1  UNL     1      -0.265   1.217  -0.693  1.00  0.00    -0.109 SA
BRANCH  12  13
HETATM   13  C10 UNL     1      -1.199  -0.017   0.262  1.00  0.00     0.093 C 
BRANCH  13  14
HETATM   14  C11 UNL     1      -2.679   0.063  -0.043  1.00  0.00     0.001 C 
HETATM   15  C12 UNL     1      -2.801  -0.210  -1.549  1.00  0.00     0.018 C 
HETATM   16  C13 UNL     1      -4.243  -0.206  -1.963  1.00  0.00    -0.013 C 
HETATM   17  C14 UNL     1      -4.809   1.156  -1.675  1.00  0.00     0.009 C 
HETATM   18  C18 UNL     1      -4.962  -1.293  -1.181  1.00  0.00     0.012 C 
HETATM   19  C15 UNL     1      -4.688   1.448  -0.199  1.00  0.00    -0.013 C 
HETATM   20  C16 UNL     1      -5.469   0.399   0.540  1.00  0.00     0.012 C 
HETATM   21  C23 UNL     1      -3.257   1.400   0.288  1.00  0.00     0.018 C 
HETATM   22  C17 UNL     1      -4.890  -0.963   0.271  1.00  0.00     0.022 C 
HETATM   23  C19 UNL     1      -3.419  -1.029   0.701  1.00  0.00     0.073 C 
HETATM   24  C20 UNL     1      -3.319  -0.846   2.174  1.00  0.00     0.041 C 
HETATM   25  O1  UNL     1      -2.970  -2.284   0.357  1.00  0.00    -0.379 OA
HETATM   26  C21 UNL     1      -2.928  -2.207   2.679  1.00  0.00     0.029 C 
HETATM   27  C22 UNL     1      -2.419  -2.882   1.452  1.00  0.00     0.169 C 
ENDBRANCH  13  14
ENDBRANCH  12  13
ENDBRANCH   9  12
BRANCH   1  28
HETATM   28  N1  UNL     1       4.263  -0.793  -1.327  1.00  0.00    -0.226 N 
ATOM     29  H1  UNL     1       3.854  -1.313  -2.103  1.00  0.00     0.177 HD
BRANCH  28  30
HETATM   30  C4  UNL     1       5.659  -0.954  -0.977  1.00  0.00     0.138 C 
BRANCH  30  31
HETATM   31  C3  UNL     1       6.466   0.211  -1.535  1.00  0.00     0.020 C 
BRANCH  31  32
HETATM   32  C2  UNL     1       7.929   0.074  -1.186  1.00  0.00    -0.003 C 
HETATM   33  C1  UNL     1       8.170   0.042   0.287  1.00  0.00     0.005 C 
ENDBRANCH  31  32
ENDBRANCH  30  31
ENDBRANCH  28  30
ENDBRANCH   1  28
TORSDOF 7
