REMARK  7 active torsions:
REMARK  status: ('A' for Active; 'I' for Inactive)
REMARK    1  A    between atoms: C2_2  and  N1_3 
REMARK    2  A    between atoms: C3_5  and  C4_6 
REMARK    3  A    between atoms: C4_6  and  C5_7 
REMARK    4  A    between atoms: C5_7  and  C6_8 
REMARK    5  A    between atoms: C7_9  and  O1_10 
REMARK    6  A    between atoms: C9_13  and  C10_14 
REMARK    7  A    between atoms: C14_18  and  O2_19 
ROOT
HETATM    1  C6  UNL     1      -2.906   0.184   0.159  1.00  0.00     0.026 C 
HETATM    2  C7  UNL     1      -1.760   1.177  -0.084  1.00  0.00     0.151 C 
HETATM    3  C8  UNL     1      -0.418   0.544  -0.167  1.00  0.00    -0.050 C 
HETATM    4  C9  UNL     1       0.630   1.233   0.208  1.00  0.00     0.017 C 
HETATM    5  C22 UNL     1      -0.259  -0.829  -0.697  1.00  0.00     0.051 C 
HETATM    6  C23 UNL     1      -1.171  -1.659   0.156  1.00  0.00     0.096 C 
HETATM    7  C24 UNL     1      -1.265  -3.081  -0.228  1.00  0.00     0.263 C 
HETATM    8  O4  UNL     1      -0.426  -3.847  -0.773  1.00  0.00    -0.265 OA
HETATM    9  O5  UNL     1      -2.548  -3.457   0.150  1.00  0.00    -0.321 OA
HETATM   10  C25 UNL     1      -3.328  -2.297   0.505  1.00  0.00     0.184 C 
HETATM   11  C26 UNL     1      -2.599  -1.214  -0.221  1.00  0.00     0.031 C 
ENDROOT
BRANCH   2  12
HETATM   12  O1  UNL     1      -1.774   2.183   0.907  1.00  0.00    -0.391 OA
ATOM     13  H1  UNL     1      -1.065   2.797   0.757  1.00  0.00     0.210 HD
ENDBRANCH   2  12
BRANCH   4  14
HETATM   14  C10 UNL     1       1.990   0.786   0.201  1.00  0.00    -0.032 A 
HETATM   15  C11 UNL     1       2.930   1.609  -0.422  1.00  0.00     0.026 A 
HETATM   16  C12 UNL     1       4.262   1.241  -0.422  1.00  0.00     0.001 A 
HETATM   17  C13 UNL     1       4.672   0.080   0.182  1.00  0.00     0.113 A 
HETATM   18  C21 UNL     1       5.216   2.101  -1.097  1.00  0.00     0.013 A 
HETATM   19  C14 UNL     1       3.753  -0.752   0.808  1.00  0.00     0.103 A 
HETATM   20  O3  UNL     1       6.017  -0.233   0.151  1.00  0.00    -0.333 OA
HETATM   21  C16 UNL     1       2.409  -0.363   0.797  1.00  0.00     0.051 A 
HETATM   22  C17 UNL     1       7.009   0.520  -0.506  1.00  0.00     0.078 A 
HETATM   23  C18 UNL     1       7.553  -0.375  -1.617  1.00  0.00     0.051 C 
HETATM   24  C19 UNL     1       8.149   0.923   0.423  1.00  0.00     0.051 C 
HETATM   25  C20 UNL     1       6.484   1.754  -1.126  1.00  0.00     0.011 A 
BRANCH  19  26
HETATM   26  O2  UNL     1       4.177  -1.915   1.411  1.00  0.00    -0.353 OA
HETATM   27  C15 UNL     1       3.259  -2.757   2.041  1.00  0.00     0.210 C 
ENDBRANCH  19  26
ENDBRANCH   4  14
BRANCH   1  28
HETATM   28  C5  UNL     1      -4.069   0.788  -0.570  1.00  0.00     0.013 C 
BRANCH  28  29
HETATM   29  C4  UNL     1      -5.373   0.137  -0.543  1.00  0.00     0.044 C 
BRANCH  29  30
HETATM   30  C3  UNL     1      -5.985   0.014   0.807  1.00  0.00     0.055 C 
HETATM   31  N1  UNL     1      -7.237   0.121   1.044  1.00  0.00    -0.403 N 
ATOM     32  H1  UNL     1      -7.560   0.020   2.006  1.00  0.00     0.158 HD
BRANCH  31  33
HETATM   33  C2  UNL     1      -8.211   0.377   0.019  1.00  0.00     0.114 C 
HETATM   34  C1  UNL     1      -8.350   1.878  -0.114  1.00  0.00     0.026 C 
ENDBRANCH  31  33
ENDBRANCH  29  30
ENDBRANCH  28  29
ENDBRANCH   1  28
TORSDOF 7
