REMARK  7 active torsions:
REMARK  status: ('A' for Active; 'I' for Inactive)
REMARK    1  A    between atoms: C3_6  and  N3_7 
REMARK       I    between atoms: N3_7  and  C4_9 
REMARK    2  A    between atoms: C4_9  and  O2_11 
REMARK    3  A    between atoms: O2_11  and  C5_12 
REMARK    4  A    between atoms: C12_19  and  C13_20 
REMARK    5  A    between atoms: C13_20  and  C14_21 
REMARK    6  A    between atoms: C14_21  and  C15_22 
REMARK    7  A    between atoms: C22_30  and  C23_31 
ROOT
HETATM    1  C5  UNL     1       0.625  -1.425   0.387  1.00  0.00     0.097 C 
HETATM    2  C6  UNL     1       1.007  -2.174   1.641  1.00  0.00     0.044 C 
HETATM    3  C7  UNL     1       0.117  -3.358   1.861  1.00  0.00     0.035 C 
HETATM    4  C8  UNL     1      -1.172  -3.358   1.119  1.00  0.00     0.122 C 
HETATM    5  C9  UNL     1      -2.313  -2.763   1.890  1.00  0.00     0.036 C 
HETATM    6  C10 UNL     1      -2.542  -1.291   1.621  1.00  0.00    -0.011 C 
HETATM    7  C11 UNL     1      -3.293  -1.015   0.376  1.00  0.00     0.009 C 
HETATM    8  C12 UNL     1      -2.692  -0.019  -0.553  1.00  0.00    -0.014 C 
HETATM    9  C18 UNL     1      -1.204  -0.068  -0.674  1.00  0.00     0.012 C 
HETATM   10  C19 UNL     1      -0.425  -0.376   0.561  1.00  0.00     0.024 C 
HETATM   11  C20 UNL     1      -1.277  -0.515   1.794  1.00  0.00     0.012 C 
HETATM   12  O3  UNL     1      -1.136  -2.837  -0.150  1.00  0.00    -0.383 OA
HETATM   13  C21 UNL     1       0.138  -2.562  -0.539  1.00  0.00     0.207 C 
ENDROOT
BRANCH   1  14
HETATM   14  O2  UNL     1       1.781  -0.944  -0.264  1.00  0.00    -0.290 OA
BRANCH  14  15
HETATM   15  C4  UNL     1       2.709  -0.077   0.310  1.00  0.00     0.366 C 
HETATM   16  N3  UNL     1       3.848   0.381  -0.384  1.00  0.00    -0.299 N 
ATOM     17  H3  UNL     1       3.961   0.042  -1.340  1.00  0.00     0.171 HD
HETATM   18  O1  UNL     1       2.465   0.266   1.476  1.00  0.00    -0.238 OA
BRANCH  16  19
HETATM   19  C3  UNL     1       4.843   1.248   0.088  1.00  0.00     0.089 A 
HETATM   20  C2  UNL     1       4.853   1.801   1.348  1.00  0.00     0.139 A 
HETATM   21  N2  UNL     1       5.979   2.571   1.394  1.00  0.00    -0.307 N 
HETATM   22  N1  UNL     1       6.614   2.499   0.253  1.00  0.00    -0.289 N 
ATOM     23  H2  UNL     1       6.280   3.121   2.199  1.00  0.00     0.186 HD
HETATM   24  C1  UNL     1       7.867   3.188  -0.082  1.00  0.00     0.178 C 
HETATM   25  C22 UNL     1       5.956   1.685  -0.613  1.00  0.00     0.155 A 
BRANCH  25  26
HETATM   26  C23 UNL     1       6.378   1.373  -1.982  1.00  0.00     0.230 C 
HETATM   27  O4  UNL     1       7.453   1.907  -2.400  1.00  0.00    -0.643 OA
HETATM   28  O5  UNL     1       5.682   0.541  -2.831  1.00  0.00    -0.643 OA
ENDBRANCH  25  26
ENDBRANCH  16  19
ENDBRANCH  14  15
ENDBRANCH   1  14
BRANCH   8  29
HETATM   29  C13 UNL     1      -3.128   1.396  -0.329  1.00  0.00     0.005 C 
BRANCH  29  30
HETATM   30  C14 UNL     1      -4.586   1.666  -0.457  1.00  0.00     0.005 C 
BRANCH  30  31
HETATM   31  C15 UNL     1      -5.164   1.352  -1.814  1.00  0.00    -0.014 A 
HETATM   32  C16 UNL     1      -6.631   1.625  -1.940  1.00  0.00     0.005 A 
HETATM   33  C17 UNL     1      -5.713   2.518  -2.650  1.00  0.00     0.005 A 
ENDBRANCH  30  31
ENDBRANCH  29  30
ENDBRANCH   8  29
TORSDOF 7
