REMARK  6 active torsions:
REMARK  status: ('A' for Active; 'I' for Inactive)
REMARK    1  A    between atoms: C5_12  and  N4_13 
REMARK    2  A    between atoms: N4_13  and  C6_14 
REMARK    3  A    between atoms: N4_13  and  C10_21 
REMARK    4  A    between atoms: C6_14  and  C7_15 
REMARK    5  A    between atoms: C7_15  and  C8_17 
REMARK    6  A    between atoms: C11_26  and  N7_27 
ROOT
HETATM    1  N4  UNL     1      -0.783   0.051   0.447  1.00  0.00    -0.158 N 
ENDROOT
BRANCH   1   2
HETATM    2  C5  UNL     1       0.572  -0.184   0.096  1.00  0.00     0.688 A 
HETATM    3  N3  UNL     1       1.163  -0.383  -1.088  1.00  0.00    -0.182 N 
HETATM    4  C4  UNL     1       2.473  -0.580  -0.969  1.00  0.00     0.162 A 
ATOM      5  H3  UNL     1       0.666  -0.384  -1.979  1.00  0.00     0.184 HD
HETATM    6  C3  UNL     1       3.449  -0.819  -1.904  1.00  0.00     0.280 A 
HETATM    7  C13 UNL     1       2.751  -0.504   0.384  1.00  0.00     0.160 A 
HETATM    8  N2  UNL     1       4.712  -0.981  -1.472  1.00  0.00    -0.273 N 
HETATM    9  O2  UNL     1       3.183  -0.885  -3.130  1.00  0.00    -0.265 OA
HETATM   10  C2  UNL     1       4.967  -0.905  -0.160  1.00  0.00     0.330 A 
ATOM     11  H2  UNL     1       5.466  -1.159  -2.135  1.00  0.00     0.173 HD
HETATM   12  N1  UNL     1       4.015  -0.671   0.765  1.00  0.00    -0.287 N 
HETATM   13  O1  UNL     1       6.147  -1.055   0.265  1.00  0.00    -0.246 OA
HETATM   14  C1  UNL     1       4.352  -0.606   2.171  1.00  0.00     0.163 C 
HETATM   15  N9  UNL     1       1.563  -0.260   1.005  1.00  0.00    -0.173 N 
ATOM     16  H9  UNL     1       1.442  -0.151   2.012  1.00  0.00     0.186 HD
ENDBRANCH   1   2
BRANCH   1  17
HETATM   17  C6  UNL     1      -1.616  -0.859   1.148  1.00  0.00     0.193 C 
BRANCH  17  18
HETATM   18  C7  UNL     1      -1.868  -2.192   0.551  1.00  0.00     0.260 C 
HETATM   19  F1  UNL     1      -2.702  -2.862   1.484  1.00  0.00    -0.241 F 
BRANCH  18  20
HETATM   20  C8  UNL     1      -2.641  -2.212  -0.731  1.00  0.00     0.271 C 
HETATM   21  C9  UNL     1      -4.017  -1.611  -0.602  1.00  0.00     0.093 C 
HETATM   22  F2  UNL     1      -2.031  -1.690  -1.818  1.00  0.00    -0.204 F 
HETATM   23  F3  UNL     1      -2.858  -3.575  -1.019  1.00  0.00    -0.204 F 
ENDBRANCH  18  20
ENDBRANCH  17  18
ENDBRANCH   1  17
BRANCH   1  24
HETATM   24  C10 UNL     1      -1.325   1.327   0.043  1.00  0.00     0.207 A 
HETATM   25  N5  UNL     1      -1.391   1.746  -1.211  1.00  0.00    -0.266 N 
HETATM   26  N6  UNL     1      -1.895   2.923  -1.540  1.00  0.00    -0.131 N 
ATOM     27  H5  UNL     1      -1.040   1.138  -1.951  1.00  0.00     0.189 HD
HETATM   28  C11 UNL     1      -2.369   3.752  -0.581  1.00  0.00     0.693 A 
ATOM     29  H6  UNL     1      -1.927   3.207  -2.519  1.00  0.00     0.205 HD
HETATM   30  N8  UNL     1      -2.327   3.378   0.721  1.00  0.00    -0.152 N 
HETATM   31  C12 UNL     1      -1.811   2.178   1.025  1.00  0.00     0.305 A 
ATOM     32  H8  UNL     1      -2.680   3.995   1.453  1.00  0.00     0.188 HD
HETATM   33  O3  UNL     1      -1.767   1.818   2.242  1.00  0.00    -0.263 OA
BRANCH  28  34
HETATM   34  N7  UNL     1      -2.873   4.911  -0.849  1.00  0.00    -0.233 N 
ATOM     35  H72 UNL     1      -2.905   5.192  -1.829  1.00  0.00     0.174 HD
ATOM     36  H71 UNL     1      -3.230   5.536  -0.126  1.00  0.00     0.174 HD
ENDBRANCH  28  34
ENDBRANCH   1  24
TORSDOF 6
