REMARK  9 active torsions:
REMARK  status: ('A' for Active; 'I' for Inactive)
REMARK    1  A    between atoms: N1_1  and  C1_4 
REMARK    2  A    between atoms: C2_7  and  N3_8 
REMARK    3  A    between atoms: C4_10  and  C5_11 
REMARK    4  A    between atoms: C5_11  and  C6_13 
REMARK    5  A    between atoms: C6_13  and  N4_14 
REMARK    6  A    between atoms: C9_24  and  C10_25 
REMARK    7  A    between atoms: C10_25  and  O4_26 
REMARK    8  A    between atoms: C10_25  and  C11_28 
REMARK    9  A    between atoms: C13_32  and  C14_33 
ROOT
HETATM    1  C1  UNL     1      -2.025   2.750  -0.402  1.00  0.00     0.115 A 
HETATM    2  N2  UNL     1      -0.896   2.035  -0.317  1.00  0.00    -0.327 N 
ATOM      3  H2  UNL     1      -0.007   2.522  -0.203  1.00  0.00     0.169 HD
HETATM    4  C2  UNL     1      -0.903   0.645  -0.380  1.00  0.00     0.130 A 
HETATM    5  C9  UNL     1      -2.058  -0.026  -0.527  1.00  0.00     0.048 A 
HETATM    6  C12 UNL     1      -3.259   0.768  -0.619  1.00  0.00     0.038 A 
HETATM    7  C13 UNL     1      -3.241   2.135  -0.557  1.00  0.00     0.092 A 
ENDROOT
BRANCH   4   8
HETATM    8  N3  UNL     1       0.380   0.042  -0.407  1.00  0.00    -0.258 N 
HETATM    9  C3  UNL     1       1.231   0.076   0.612  1.00  0.00     0.124 A 
HETATM   10  C4  UNL     1       2.509  -0.457   0.480  1.00  0.00     0.096 A 
HETATM   11  C7  UNL     1       2.891  -1.019  -0.712  1.00  0.00     0.264 A 
HETATM   12  O2  UNL     1       4.041  -1.520  -0.892  1.00  0.00    -0.267 OA
HETATM   13  N5  UNL     1       1.999  -1.043  -1.749  1.00  0.00    -0.274 N 
HETATM   14  C8  UNL     1       0.785  -0.523  -1.582  1.00  0.00     0.335 A 
ATOM     15  H5  UNL     1       2.262  -1.456  -2.644  1.00  0.00     0.173 HD
HETATM   16  O3  UNL     1      -0.030  -0.550  -2.551  1.00  0.00    -0.246 OA
BRANCH  10  17
HETATM   17  C5  UNL     1       3.424  -0.412   1.605  1.00  0.00     0.191 C 
HETATM   18  O1  UNL     1       2.990   0.138   2.680  1.00  0.00    -0.290 OA
BRANCH  17  19
HETATM   19  C6  UNL     1       4.807  -0.962   1.564  1.00  0.00     0.313 C 
BRANCH  19  20
HETATM   20  N4  UNL     1       5.462  -0.746   2.850  1.00  0.00    -0.072 N 
ATOM     21  H43 UNL     1       5.447   0.235   3.128  1.00  0.00     0.274 HD
ATOM     22  H42 UNL     1       4.920  -1.127   3.626  1.00  0.00     0.274 HD
ATOM     23  H41 UNL     1       6.409  -1.123   2.822  1.00  0.00     0.274 HD
ENDBRANCH  19  20
ENDBRANCH  17  19
ENDBRANCH  10  17
ENDBRANCH   4   8
BRANCH   5  24
HETATM   24  C10 UNL     1      -2.248  -1.443  -0.449  1.00  0.00     0.145 C 
BRANCH  24  25
HETATM   25  O4  UNL     1      -3.465  -1.764  -0.968  1.00  0.00    -0.355 OA
ATOM     26  H4  UNL     1      -3.591  -2.704  -0.916  1.00  0.00     0.218 HD
ENDBRANCH  24  25
BRANCH  24  27
HETATM   27  C11 UNL     1      -1.547  -2.581   0.015  1.00  0.00     0.288 C 
HETATM   28  N6  UNL     1      -2.143  -3.886  -0.317  1.00  0.00    -0.055 NA
HETATM   29  O5  UNL     1      -0.519  -2.696   0.651  1.00  0.00    -0.269 OA
ENDBRANCH  24  27
ENDBRANCH   5  24
BRANCH   1  30
HETATM   30  N1  UNL     1      -1.958   4.037  -0.335  1.00  0.00    -0.385 N 
ATOM     31  H12 UNL     1      -1.054   4.494  -0.220  1.00  0.00     0.157 HD
ATOM     32  H11 UNL     1      -2.818   4.582  -0.400  1.00  0.00     0.157 HD
ENDBRANCH   1  30
BRANCH   7  33
HETATM   33  C14 UNL     1      -4.538   2.889  -0.664  1.00  0.00     0.421 C 
HETATM   34  F1  UNL     1      -4.587   3.740  -1.722  1.00  0.00    -0.166 F 
HETATM   35  F2  UNL     1      -4.770   3.574   0.505  1.00  0.00    -0.166 F 
HETATM   36  F3  UNL     1      -5.568   1.970  -0.848  1.00  0.00    -0.166 F 
ENDBRANCH   7  33
TORSDOF 9
