REMARK  12 active torsions:
REMARK  status: ('A' for Active; 'I' for Inactive)
REMARK    1  A    between atoms: C2_3  and  C3_4 
REMARK    2  A    between atoms: C3_4  and  O1_5 
REMARK    3  A    between atoms: C3_4  and  C4_7 
REMARK    4  A    between atoms: C4_7  and  N2_8 
REMARK    5  A    between atoms: C4_7  and  C5_12 
REMARK    6  A    between atoms: C5_12  and  N3_13 
REMARK    7  A    between atoms: C5_12  and  O2_17 
REMARK    8  A    between atoms: C6_23  and  N6_24 
REMARK       I    between atoms: N6_24  and  C7_26 
REMARK    9  A    between atoms: C7_26  and  C8_28 
REMARK   10  A    between atoms: C8_28  and  N7_29 
REMARK   11  A    between atoms: C8_28  and  C9_33 
REMARK   12  A    between atoms: C12_36  and  C13_37 
ROOT
HETATM    1  C1  UNL     1      -2.019  -0.603   1.712  1.00  0.00     0.177 C 
HETATM    2  N1  UNL     1      -1.885  -0.964   0.290  1.00  0.00    -0.167 N 
HETATM    3  C2  UNL     1      -2.916  -0.964  -0.565  1.00  0.00     0.169 A 
HETATM    4  N4  UNL     1      -2.365  -1.392  -1.757  1.00  0.00    -0.269 N 
ATOM      5  H4  UNL     1      -2.874  -1.511  -2.633  1.00  0.00     0.189 HD
HETATM    6  N5  UNL     1      -1.083  -1.622  -1.587  1.00  0.00    -0.130 N 
ATOM      7  H5  UNL     1      -0.444  -1.948  -2.312  1.00  0.00     0.205 HD
HETATM    8  C6  UNL     1      -0.740  -1.363  -0.313  1.00  0.00     0.703 A 
ENDROOT
BRANCH   8   9
HETATM    9  N6  UNL     1       0.390  -1.450   0.281  1.00  0.00    -0.156 N 
HETATM   10  C7  UNL     1       1.577  -1.879  -0.429  1.00  0.00     0.272 C 
HETATM   11  O3  UNL     1       1.967  -3.048  -0.341  1.00  0.00    -0.270 OA
ATOM     12  H6  UNL     1       0.456  -1.213   1.271  1.00  0.00     0.187 HD
BRANCH  10  13
HETATM   13  C8  UNL     1       2.245  -0.850  -1.224  1.00  0.00     0.325 C 
BRANCH  13  14
HETATM   14  N7  UNL     1       1.437   0.426  -1.096  1.00  0.00    -0.061 N 
ATOM     15  H73 UNL     1       0.457   0.302  -1.350  1.00  0.00     0.275 HD
ATOM     16  H72 UNL     1       1.290   0.707  -0.127  1.00  0.00     0.275 HD
ATOM     17  H71 UNL     1       1.903   1.144  -1.651  1.00  0.00     0.275 HD
ENDBRANCH  13  14
BRANCH  13  18
HETATM   18  C9  UNL     1       3.594  -0.461  -0.771  1.00  0.00     0.049 A 
HETATM   19  C10 UNL     1       4.160  -0.751   0.440  1.00  0.00     0.028 A 
HETATM   20  C11 UNL     1       5.431  -0.303   0.779  1.00  0.00     0.019 A 
HETATM   21  C12 UNL     1       6.194   0.458  -0.073  1.00  0.00     0.063 A 
HETATM   22  C14 UNL     1       5.578   0.737  -1.307  1.00  0.00     0.104 A 
HETATM   23  N8  UNL     1       4.362   0.297  -1.623  1.00  0.00    -0.366 N 
ATOM     24  H8  UNL     1       3.982   0.533  -2.540  1.00  0.00     0.165 HD
BRANCH  21  25
HETATM   25  C13 UNL     1       7.518   1.015   0.298  1.00  0.00     0.418 C 
HETATM   26  F1  UNL     1       8.407   0.140   0.840  1.00  0.00    -0.166 F 
HETATM   27  F2  UNL     1       7.285   2.150   1.121  1.00  0.00    -0.166 F 
HETATM   28  F3  UNL     1       8.074   1.559  -0.856  1.00  0.00    -0.166 F 
ENDBRANCH  21  25
ENDBRANCH  13  18
ENDBRANCH  10  13
ENDBRANCH   8   9
BRANCH   3  29
HETATM   29  C3  UNL     1      -4.279  -0.519  -0.499  1.00  0.00     0.124 C 
BRANCH  29  30
HETATM   30  O1  UNL     1      -5.053  -0.827  -1.501  1.00  0.00    -0.359 OA
ATOM     31  H1  UNL     1      -5.955  -0.532  -1.457  1.00  0.00     0.217 HD
ENDBRANCH  29  30
BRANCH  29  32
HETATM   32  C4  UNL     1      -4.916   0.251   0.555  1.00  0.00     0.298 C 
BRANCH  32  33
HETATM   33  N2  UNL     1      -6.250  -0.253   0.869  1.00  0.00    -0.065 N 
ATOM     34  H23 UNL     1      -6.836  -0.295   0.035  1.00  0.00     0.275 HD
ATOM     35  H22 UNL     1      -6.226  -1.247   1.099  1.00  0.00     0.275 HD
ATOM     36  H21 UNL     1      -6.697   0.288   1.609  1.00  0.00     0.275 HD
ENDBRANCH  32  33
BRANCH  32  37
HETATM   37  C5  UNL     1      -5.241   1.659  -0.052  1.00  0.00     0.353 C 
BRANCH  37  38
HETATM   38  N3  UNL     1      -4.003   2.211  -0.465  1.00  0.00    -0.051 N 
ATOM     39  H33 UNL     1      -3.306   2.242   0.279  1.00  0.00     0.277 HD
ATOM     40  H32 UNL     1      -3.482   1.607  -1.101  1.00  0.00     0.277 HD
ATOM     41  H31 UNL     1      -4.215   3.127  -0.860  1.00  0.00     0.277 HD
ENDBRANCH  37  38
BRANCH  37  42
HETATM   42  O2  UNL     1      -5.898   2.383   0.905  1.00  0.00    -0.368 OA
ATOM     43  H2  UNL     1      -6.095   3.236   0.537  1.00  0.00     0.212 HD
ENDBRANCH  37  42
ENDBRANCH  32  37
ENDBRANCH  29  32
ENDBRANCH   3  29
TORSDOF 12
