REMARK  5 active torsions:
REMARK  status: ('A' for Active; 'I' for Inactive)
REMARK    1  A    between atoms: C2_2  and  O2_4 
REMARK    2  A    between atoms: O2_4  and  C3_5 
REMARK    3  A    between atoms: C3_5  and  C4_6 
REMARK    4  A    between atoms: N1_19  and  C16_20 
REMARK    5  A    between atoms: C16_20  and  C17_21 
ROOT
HETATM    1  C3  UNL     1      -1.377  -0.046   0.288  1.00  0.00     0.135 C 
HETATM    2  C9  UNL     1      -1.419  -1.524   0.669  1.00  0.00     0.038 C 
HETATM    3  C10 UNL     1      -1.718  -2.509  -0.366  1.00  0.00     0.011 C 
HETATM    4  C11 UNL     1      -0.825  -2.828  -1.509  1.00  0.00     0.032 C 
HETATM    5  C12 UNL     1       0.009  -1.774  -2.092  1.00  0.00     0.122 C 
HETATM    6  C13 UNL     1       1.460  -1.690  -2.110  1.00  0.00     0.034 C 
HETATM    7  C14 UNL     1       1.999  -0.381  -1.508  1.00  0.00     0.031 C 
HETATM    8  C15 UNL     1       1.306   0.055  -0.204  1.00  0.00     0.122 C 
HETATM    9  N1  UNL     1       2.232  -0.369   0.814  1.00  0.00    -0.385 N 
HETATM   10  C20 UNL     1       2.337  -1.777   1.039  1.00  0.00     0.123 C 
HETATM   11  C21 UNL     1       0.957  -2.459   1.073  1.00  0.00     0.032 C 
HETATM   12  C22 UNL     1      -0.015  -1.350   1.056  1.00  0.00     0.001 C 
HETATM   13  C23 UNL     1       0.133  -0.692   2.414  1.00  0.00     0.019 C 
HETATM   14  C24 UNL     1      -0.029  -0.451  -0.137  1.00  0.00     0.124 C 
HETATM   15  O4  UNL     1      -0.359  -0.711  -1.356  1.00  0.00    -0.369 OA
ENDROOT
BRANCH   1  16
HETATM   16  O2  UNL     1      -1.522   0.912   1.257  1.00  0.00    -0.304 OA
BRANCH  16  17
HETATM   17  C2  UNL     1      -2.498   1.275   2.093  1.00  0.00     0.255 C 
HETATM   18  C1  UNL     1      -2.341   2.397   3.036  1.00  0.00     0.126 C 
HETATM   19  O1  UNL     1      -3.554   0.639   2.056  1.00  0.00    -0.266 OA
ENDBRANCH  16  17
ENDBRANCH   1  16
BRANCH   1  20
HETATM   20  C4  UNL     1      -2.458   0.355  -0.700  1.00  0.00     0.164 C 
HETATM   21  C5  UNL     1      -2.433   1.833  -0.963  1.00  0.00     0.062 C 
HETATM   22  C6  UNL     1      -2.590   2.228  -2.374  1.00  0.00    -0.026 C 
HETATM   23  C7  UNL     1      -3.237   1.421  -3.189  1.00  0.00    -0.005 C 
HETATM   24  C8  UNL     1      -3.734   0.161  -2.508  1.00  0.00     0.195 C 
HETATM   25  O3  UNL     1      -2.622  -0.314  -1.846  1.00  0.00    -0.379 OA
ENDBRANCH   1  20
BRANCH   9  26
HETATM   26  C16 UNL     1       3.432   0.328   0.961  1.00  0.00     0.063 C 
BRANCH  26  27
HETATM   27  C17 UNL     1       3.249   1.737   1.479  1.00  0.00     0.024 A 
HETATM   28  C18 UNL     1       4.473   2.588   1.680  1.00  0.00     0.010 A 
HETATM   29  C19 UNL     1       3.528   2.903   0.609  1.00  0.00     0.010 A 
ENDBRANCH  26  27
ENDBRANCH   9  26
TORSDOF 5
