REMARK  6 active torsions:
REMARK  status: ('A' for Active; 'I' for Inactive)
REMARK    1  A    between atoms: C2_2  and  C3_3 
REMARK    2  A    between atoms: C3_3  and  C4_4 
REMARK    3  A    between atoms: C6_6  and  O1_7 
REMARK    4  A    between atoms: C7_9  and  O2_10 
REMARK    5  A    between atoms: O2_10  and  C8_11 
REMARK    6  A    between atoms: C8_11  and  C9_13 
ROOT
HETATM    1  C4  UNL     1      -2.439   1.287  -0.787  1.00  0.00     0.134 C 
HETATM    2  C5  UNL     1      -0.997   1.517  -0.374  1.00  0.00     0.067 C 
HETATM    3  C6  UNL     1      -0.030   0.803  -1.216  1.00  0.00     0.150 C 
HETATM    4  C7  UNL     1       0.878  -0.180  -0.606  1.00  0.00     0.161 C 
HETATM    5  C14 UNL     1       0.389  -1.001   0.529  1.00  0.00     0.047 C 
HETATM    6  C15 UNL     1      -0.158  -2.347   0.212  1.00  0.00     0.054 C 
HETATM    7  C16 UNL     1       0.752  -2.980  -0.858  1.00  0.00     0.018 C 
HETATM    8  C17 UNL     1      -1.576  -2.408  -0.192  1.00  0.00     0.140 C 
HETATM    9  O4  UNL     1      -1.764  -2.198  -1.385  1.00  0.00    -0.297 OA
HETATM   10  C18 UNL     1      -2.736  -2.682   0.632  1.00  0.00     0.030 C 
HETATM   11  C19 UNL     1      -3.737  -3.592  -0.134  1.00  0.00     0.024 C 
HETATM   12  C20 UNL     1      -2.496  -3.367   1.961  1.00  0.00     0.018 C 
HETATM   13  C21 UNL     1      -2.754  -2.033   2.625  1.00  0.00     0.017 C 
HETATM   14  C22 UNL     1      -3.480  -1.661   1.318  1.00  0.00     0.101 C 
HETATM   15  C23 UNL     1      -3.394  -0.232   1.057  1.00  0.00     0.264 C 
HETATM   16  O5  UNL     1      -3.578   0.423   2.162  1.00  0.00    -0.265 OA
HETATM   17  O6  UNL     1      -3.177   0.439  -0.046  1.00  0.00    -0.316 OA
ENDROOT
BRANCH   4  18
HETATM   18  O2  UNL     1       2.112   0.488  -0.286  1.00  0.00    -0.313 OA
BRANCH  18  19
HETATM   19  C8  UNL     1       3.309   0.241  -0.878  1.00  0.00     0.263 C 
HETATM   20  O3  UNL     1       3.392  -0.622  -1.773  1.00  0.00    -0.265 OA
BRANCH  19  21
HETATM   21  C9  UNL     1       4.497   1.003  -0.450  1.00  0.00     0.085 C 
HETATM   22  C10 UNL     1       5.686   0.538  -1.260  1.00  0.00     0.014 C 
HETATM   23  C11 UNL     1       6.890   0.695  -0.340  1.00  0.00     0.001 C 
HETATM   24  C12 UNL     1       6.349   1.209   0.975  1.00  0.00     0.001 C 
HETATM   25  C13 UNL     1       4.931   0.667   0.957  1.00  0.00     0.014 C 
ENDBRANCH  19  21
ENDBRANCH  18  19
ENDBRANCH   4  18
BRANCH   3  26
HETATM   26  O1  UNL     1       0.778   1.763  -1.885  1.00  0.00    -0.393 OA
ATOM     27  H1  UNL     1       1.404   1.301  -2.430  1.00  0.00     0.210 HD
ENDBRANCH   3  26
BRANCH   1  28
HETATM   28  C3  UNL     1      -3.150   2.616  -1.051  1.00  0.00     0.032 C 
BRANCH  28  29
HETATM   29  C2  UNL     1      -3.188   3.516   0.134  1.00  0.00    -0.002 C 
HETATM   30  C1  UNL     1      -3.931   4.782  -0.317  1.00  0.00     0.005 C 
ENDBRANCH  28  29
ENDBRANCH   1  28
TORSDOF 6
