REMARK  6 active torsions:
REMARK  status: ('A' for Active; 'I' for Inactive)
REMARK    1  A    between atoms: C7_7  and  C8_8 
REMARK    2  A    between atoms: C8_8  and  C9_9 
REMARK    3  A    between atoms: C9_9  and  C10_10 
REMARK    4  A    between atoms: N1_13  and  C13_14 
REMARK    5  A    between atoms: C13_14  and  C14_15 
REMARK    6  A    between atoms: C14_15  and  O1_16 
ROOT
HETATM    1  C1  UNL     1      -5.871   2.599   0.741  1.00  0.00     0.082 C 
HETATM    2  C2  UNL     1      -4.992   1.396   0.356  1.00  0.00     0.196 C 
HETATM    3  C3  UNL     1      -3.689   1.919  -0.086  1.00  0.00     0.072 C 
HETATM    4  C4  UNL     1      -2.835   1.064  -0.915  1.00  0.00     0.018 C 
HETATM    5  C5  UNL     1      -2.654  -0.355  -0.414  1.00  0.00     0.006 C 
HETATM    6  C6  UNL     1      -1.769  -0.447   0.771  1.00  0.00     0.021 C 
HETATM    7  C7  UNL     1      -0.334  -0.843   0.462  1.00  0.00     0.009 C 
HETATM    8  C17 UNL     1      -0.418  -2.169  -0.259  1.00  0.00     0.009 C 
HETATM    9  C18 UNL     1      -1.013  -1.868  -1.617  1.00  0.00     0.006 C 
HETATM   10  C19 UNL     1      -2.351  -1.223  -1.574  1.00  0.00    -0.000 C 
HETATM   11  C20 UNL     1      -3.412  -2.292  -1.680  1.00  0.00     0.041 C 
HETATM   12  C21 UNL     1      -4.316  -2.147  -0.494  1.00  0.00     0.168 C 
HETATM   13  O2  UNL     1      -5.614  -1.667  -0.805  1.00  0.00    -0.349 OA
HETATM   14  C22 UNL     1      -5.015  -0.430  -0.994  1.00  0.00     0.305 C 
HETATM   15  O3  UNL     1      -5.709   0.677  -0.569  1.00  0.00    -0.320 OA
HETATM   16  C23 UNL     1      -4.019  -0.806   0.036  1.00  0.00     0.179 C 
HETATM   17  O4  UNL     1      -4.324  -0.505   1.318  1.00  0.00    -0.218 OA
HETATM   18  O5  UNL     1      -4.856   0.652   1.526  1.00  0.00    -0.200 OA
ENDROOT
BRANCH   7  19
HETATM   19  C8  UNL     1       0.420  -0.875   1.723  1.00  0.00    -0.026 C 
BRANCH  19  20
HETATM   20  C9  UNL     1       1.831  -1.234   1.770  1.00  0.00    -0.026 C 
BRANCH  20  21
HETATM   21  C10 UNL     1       2.869  -0.457   1.097  1.00  0.00     0.011 C 
HETATM   22  C11 UNL     1       2.804  -0.287  -0.391  1.00  0.00     0.039 C 
HETATM   23  C12 UNL     1       4.193   0.138  -0.873  1.00  0.00     0.273 C 
HETATM   24  N1  UNL     1       4.629   1.327  -0.175  1.00  0.00     0.090 N 
HETATM   25  C15 UNL     1       4.566   1.268   1.244  1.00  0.00     0.273 C 
HETATM   26  C16 UNL     1       3.146   0.933   1.653  1.00  0.00     0.039 C 
BRANCH  24  27
HETATM   27  C13 UNL     1       5.927   1.695  -0.688  1.00  0.00     0.298 C 
BRANCH  27  28
HETATM   28  C14 UNL     1       7.003   0.703  -0.320  1.00  0.00     0.194 C 
BRANCH  28  29
HETATM   29  O1  UNL     1       8.201   1.182  -0.878  1.00  0.00    -0.399 OA
ATOM     30  H1  UNL     1       8.878   0.558  -0.646  1.00  0.00     0.209 HD
ENDBRANCH  28  29
ENDBRANCH  27  28
ENDBRANCH  24  27
ENDBRANCH  20  21
ENDBRANCH  19  20
ENDBRANCH   7  19
TORSDOF 6
