REMARK  6 active torsions:
REMARK  status: ('A' for Active; 'I' for Inactive)
REMARK    1  A    between atoms: C2_2  and  C4_4 
REMARK    2  A    between atoms: C10_13  and  C11_14 
REMARK    3  A    between atoms: C11_14  and  O5_16 
REMARK    4  A    between atoms: O5_16  and  C12_17 
REMARK    5  A    between atoms: C12_17  and  O6_19 
REMARK    6  A    between atoms: C16_23  and  C17_24 
ROOT
HETATM    1  C4  UNL     1       0.998  -1.490  -1.059  1.00  0.00     0.079 C 
HETATM    2  O1  UNL     1       0.104  -2.519  -1.125  1.00  0.00    -0.322 OA
HETATM    3  C5  UNL     1      -0.841  -2.627  -0.200  1.00  0.00     0.271 C 
HETATM    4  O2  UNL     1      -0.460  -2.553   1.114  1.00  0.00    -0.347 OA
HETATM    5  C6  UNL     1      -0.495  -1.321   1.670  1.00  0.00     0.209 C 
HETATM    6  C7  UNL     1       0.828  -1.151   2.365  1.00  0.00     0.186 C 
HETATM    7  O3  UNL     1       1.047  -1.182   3.588  1.00  0.00    -0.290 OA
HETATM    8  C8  UNL     1       1.771  -0.944   1.238  1.00  0.00     0.007 C 
HETATM    9  C9  UNL     1       3.067  -1.108   1.420  1.00  0.00     0.024 C 
HETATM   10  C10 UNL     1       0.991  -0.534   0.019  1.00  0.00     0.137 C 
HETATM   11  C14 UNL     1      -0.352  -0.218   0.640  1.00  0.00     0.021 C 
HETATM   12  C15 UNL     1      -0.161   1.067   1.403  1.00  0.00     0.021 C 
HETATM   13  C16 UNL     1      -1.493  -0.249  -0.323  1.00  0.00     0.011 C 
HETATM   14  C22 UNL     1      -1.982  -1.646  -0.515  1.00  0.00     0.043 C 
HETATM   15  C23 UNL     1      -3.132  -2.121   0.286  1.00  0.00     0.015 C 
ENDROOT
BRANCH  10  16
HETATM   16  C11 UNL     1       1.584   0.760  -0.444  1.00  0.00     0.282 C 
HETATM   17  O4  UNL     1       0.835   1.561  -1.038  1.00  0.00    -0.263 OA
BRANCH  16  18
HETATM   18  O5  UNL     1       2.897   1.133  -0.266  1.00  0.00    -0.289 OA
BRANCH  18  19
HETATM   19  C12 UNL     1       3.339   2.388  -0.750  1.00  0.00     0.262 C 
HETATM   20  C13 UNL     1       3.808   3.280   0.396  1.00  0.00     0.071 C 
BRANCH  19  21
HETATM   21  O6  UNL     1       4.441   2.224  -1.587  1.00  0.00    -0.371 OA
ATOM     22  H6  UNL     1       4.738   3.066  -1.912  1.00  0.00     0.212 HD
ENDBRANCH  19  21
ENDBRANCH  18  19
ENDBRANCH  16  18
ENDBRANCH  10  16
BRANCH   1  23
HETATM   23  C2  UNL     1       2.316  -1.985  -1.475  1.00  0.00    -0.040 C 
HETATM   24  C1  UNL     1       2.683  -3.227  -1.177  1.00  0.00     0.021 C 
HETATM   25  C3  UNL     1       3.341  -1.192  -2.238  1.00  0.00     0.050 C 
ENDBRANCH   1  23
BRANCH  13  26
HETATM   26  C17 UNL     1      -2.456   0.822  -0.178  1.00  0.00    -0.009 C 
HETATM   27  C18 UNL     1      -3.572   0.821  -1.241  1.00  0.00     0.005 C 
HETATM   28  C19 UNL     1      -4.499   1.913  -0.720  1.00  0.00     0.000 C 
HETATM   29  C20 UNL     1      -3.857   2.433   0.573  1.00  0.00     0.000 C 
HETATM   30  C21 UNL     1      -3.265   1.065   1.012  1.00  0.00     0.005 C 
ENDBRANCH  13  26
TORSDOF 6
