REMARK  6 active torsions:
REMARK  status: ('A' for Active; 'I' for Inactive)
REMARK    1  A    between atoms: C2_2  and  O2_4 
REMARK    2  A    between atoms: O2_4  and  N1_5 
REMARK    3  A    between atoms: C3_7  and  C4_8 
REMARK    4  A    between atoms: C3_7  and  C24_31 
REMARK    5  A    between atoms: C4_8  and  C5_9 
REMARK    6  A    between atoms: C5_9  and  C6_10 
ROOT
HETATM    1  C6  UNL     1      -1.367   1.011   0.687  1.00  0.00     0.193 C 
HETATM    2  O3  UNL     1      -0.018   1.093   0.259  1.00  0.00    -0.363 OA
HETATM    3  C7  UNL     1       0.875   0.514   1.149  1.00  0.00     0.086 C 
HETATM    4  C8  UNL     1       1.162   1.580   2.230  1.00  0.00     0.051 C 
HETATM    5  C9  UNL     1       0.251  -0.665   1.781  1.00  0.00    -0.042 C 
HETATM    6  C10 UNL     1       0.632  -1.889   1.537  1.00  0.00    -0.020 C 
HETATM    7  C11 UNL     1       1.747  -2.164   0.579  1.00  0.00     0.033 C 
HETATM    8  C12 UNL     1       2.782  -1.085   0.778  1.00  0.00     0.001 C 
HETATM    9  C13 UNL     1       4.038  -1.335   0.008  1.00  0.00     0.006 C 
HETATM   10  C14 UNL     1       3.998  -2.503  -0.924  1.00  0.00     0.013 C 
HETATM   11  C15 UNL     1       4.589  -2.025  -2.252  1.00  0.00     0.079 C 
HETATM   12  C16 UNL     1       5.406  -0.865  -1.814  1.00  0.00     0.135 C 
HETATM   13  O4  UNL     1       6.504  -0.566  -2.200  1.00  0.00    -0.297 OA
HETATM   14  C17 UNL     1       4.545  -0.161  -0.787  1.00  0.00     0.021 C 
HETATM   15  C18 UNL     1       5.473   0.730  -0.006  1.00  0.00     0.024 C 
HETATM   16  C19 UNL     1       3.494   0.569  -1.554  1.00  0.00     0.018 C 
HETATM   17  C20 UNL     1       2.088   0.360  -1.056  1.00  0.00     0.009 C 
HETATM   18  C21 UNL     1       2.159   0.236   0.447  1.00  0.00     0.029 C 
HETATM   19  C22 UNL     1      -0.866  -0.389   2.722  1.00  0.00     0.118 C 
HETATM   20  C23 UNL     1      -1.509   0.860   2.137  1.00  0.00     0.159 C 
HETATM   21  O5  UNL     1      -2.051   1.567   2.922  1.00  0.00    -0.295 OA
ENDROOT
BRANCH   1  22
HETATM   22  C5  UNL     1      -2.072   2.125   0.054  1.00  0.00     0.046 C 
BRANCH  22  23
HETATM   23  C4  UNL     1      -3.504   2.363   0.275  1.00  0.00     0.060 C 
BRANCH  23  24
HETATM   24  C3  UNL     1      -4.448   1.319  -0.127  1.00  0.00     0.041 C 
HETATM   25  N1  UNL     1      -4.056   0.246  -0.675  1.00  0.00    -0.263 N 
ATOM     26  H1  UNL     1      -3.052   0.141  -0.824  1.00  0.00     0.194 HD
BRANCH  25  27
HETATM   27  O2  UNL     1      -4.854  -0.780  -1.083  1.00  0.00    -0.200 OA
BRANCH  27  28
HETATM   28  C2  UNL     1      -5.196  -0.998  -2.411  1.00  0.00     0.277 C 
HETATM   29  C1  UNL     1      -6.067  -2.121  -2.842  1.00  0.00     0.128 C 
HETATM   30  O1  UNL     1      -4.755  -0.223  -3.269  1.00  0.00    -0.264 OA
ENDBRANCH  27  28
ENDBRANCH  25  27
BRANCH  24  31
HETATM   31  C24 UNL     1      -5.889   1.523   0.105  1.00  0.00     0.192 A 
HETATM   32  C25 UNL     1      -6.259   1.722   1.554  1.00  0.00     0.207 A 
HETATM   33  O6  UNL     1      -6.538   0.525   0.830  1.00  0.00    -0.375 OA
ENDBRANCH  24  31
ENDBRANCH  23  24
ENDBRANCH  22  23
ENDBRANCH   1  22
TORSDOF 6
