REMARK  5 active torsions:
REMARK  status: ('A' for Active; 'I' for Inactive)
REMARK    1  A    between atoms: C2_2  and  O2_4 
REMARK    2  A    between atoms: O2_4  and  C3_5 
REMARK    3  A    between atoms: C3_5  and  C4_6 
REMARK    4  A    between atoms: C17_22  and  C18_23 
REMARK    5  A    between atoms: C18_23  and  C19_24 
REMARK       I    between atoms: C19_24  and  N1_26 
ROOT
HETATM    1  C4  UNL     1       5.003   0.269   0.248  1.00  0.00     0.040 C 
HETATM    2  C5  UNL     1       5.144  -0.474   1.548  1.00  0.00     0.175 C 
HETATM    3  O3  UNL     1       3.876  -0.969   1.862  1.00  0.00    -0.385 OA
HETATM    4  C6  UNL     1       3.405  -1.354   0.583  1.00  0.00     0.126 C 
HETATM    5  C7  UNL     1       2.116  -2.045   0.612  1.00  0.00     0.038 C 
HETATM    6  C8  UNL     1       1.027  -1.502  -0.245  1.00  0.00     0.074 C 
HETATM    7  C9  UNL     1       0.213  -0.415   0.331  1.00  0.00     0.200 C 
HETATM    8  C10 UNL     1       0.842   0.371   1.441  1.00  0.00     0.071 C 
HETATM    9  C11 UNL     1       1.977   1.238   1.125  1.00  0.00     0.006 C 
HETATM   10  C12 UNL     1       2.718   0.994  -0.131  1.00  0.00     0.008 C 
HETATM   11  C13 UNL     1       3.609  -0.153  -0.214  1.00  0.00     0.023 C 
HETATM   12  O4  UNL     1      -0.950  -0.969   0.906  1.00  0.00    -0.197 OA
HETATM   13  O5  UNL     1      -1.748  -1.157  -0.116  1.00  0.00    -0.197 OA
HETATM   14  C14 UNL     1      -1.677   0.079  -0.755  1.00  0.00     0.200 C 
HETATM   15  C15 UNL     1      -2.571   1.035   0.015  1.00  0.00     0.072 C 
HETATM   16  C16 UNL     1      -3.922   0.370   0.112  1.00  0.00     0.010 C 
HETATM   17  C17 UNL     1      -4.504   0.347  -1.287  1.00  0.00    -0.005 C 
HETATM   18  C22 UNL     1      -3.612  -0.534  -2.129  1.00  0.00     0.010 C 
HETATM   19  C23 UNL     1      -2.215   0.001  -2.167  1.00  0.00     0.072 C 
HETATM   20  O7  UNL     1      -0.350   0.392  -0.663  1.00  0.00    -0.313 OA
ENDROOT
BRANCH   1  21
HETATM   21  C3  UNL     1       6.066  -0.071  -0.754  1.00  0.00     0.185 C 
BRANCH  21  22
HETATM   22  O2  UNL     1       7.313   0.270  -0.173  1.00  0.00    -0.321 OA
BRANCH  22  23
HETATM   23  C2  UNL     1       8.526   0.102  -0.802  1.00  0.00     0.254 C 
HETATM   24  C1  UNL     1       9.830   0.457  -0.199  1.00  0.00     0.126 C 
HETATM   25  O1  UNL     1       8.517  -0.384  -1.967  1.00  0.00    -0.266 OA
ENDBRANCH  22  23
ENDBRANCH  21  22
ENDBRANCH   1  21
BRANCH  17  26
HETATM   26  C18 UNL     1      -5.918  -0.203  -1.243  1.00  0.00     0.107 C 
BRANCH  26  27
HETATM   27  C19 UNL     1      -6.789   0.642  -0.384  1.00  0.00     0.219 C 
HETATM   28  O6  UNL     1      -6.827   1.882  -0.698  1.00  0.00    -0.273 OA
HETATM   29  N1  UNL     1      -7.533   0.154   0.706  1.00  0.00    -0.361 N 
HETATM   30  C20 UNL     1      -7.494  -1.237   1.095  1.00  0.00     0.152 C 
HETATM   31  C21 UNL     1      -8.361   1.059   1.474  1.00  0.00     0.152 C 
ENDBRANCH  26  27
ENDBRANCH  17  26
TORSDOF 5
