REMARK  5 active torsions:
REMARK  status: ('A' for Active; 'I' for Inactive)
REMARK    1  A    between atoms: N1_6  and  C5_7 
REMARK    2  A    between atoms: C8_10  and  C9_11 
REMARK    3  A    between atoms: C9_11  and  N2_12 
REMARK    4  A    between atoms: C12_15  and  N3_16 
REMARK    5  A    between atoms: C16_24  and  N6_25 
ROOT
HETATM    1  N2  UNL     1      -0.578  -0.182   0.089  1.00  0.00    -0.393 N 
HETATM    2  C10 UNL     1      -0.236   0.601  -1.000  1.00  0.00     0.123 C 
HETATM    3  C11 UNL     1       0.644   1.810  -0.650  1.00  0.00     0.045 C 
HETATM    4  C12 UNL     1       1.453   1.460   0.563  1.00  0.00     0.095 C 
HETATM    5  C22 UNL     1       1.830   0.011   0.496  1.00  0.00     0.045 C 
HETATM    6  C23 UNL     1       0.543  -0.780   0.749  1.00  0.00     0.123 C 
ENDROOT
BRANCH   4   7
HETATM    7  N3  UNL     1       2.574   2.348   0.754  1.00  0.00    -0.322 N 
HETATM    8  C13 UNL     1       2.547   3.576   1.301  1.00  0.00     0.185 A 
HETATM    9  N4  UNL     1       3.782   4.108   1.314  1.00  0.00    -0.348 N 
HETATM   10  C14 UNL     1       4.619   3.220   0.772  1.00  0.00     0.094 A 
ATOM     11  H4  UNL     1       4.035   5.028   1.674  1.00  0.00     0.167 HD
HETATM   12  C15 UNL     1       5.984   3.186   0.512  1.00  0.00     0.139 A 
HETATM   13  C21 UNL     1       3.880   2.119   0.419  1.00  0.00     0.152 A 
HETATM   14  N5  UNL     1       6.464   2.084  -0.061  1.00  0.00    -0.199 N 
HETATM   15  C16 UNL     1       5.741   1.005  -0.408  1.00  0.00     0.681 A 
ATOM     16  H5  UNL     1       7.465   2.056  -0.253  1.00  0.00     0.183 HD
HETATM   17  N7  UNL     1       4.404   1.039  -0.153  1.00  0.00    -0.174 N 
ATOM     18  H7  UNL     1       3.811   0.246  -0.398  1.00  0.00     0.186 HD
BRANCH  15  19
HETATM   19  N6  UNL     1       6.347  -0.123  -1.015  1.00  0.00    -0.218 N 
HETATM   20  C17 UNL     1       7.751  -0.244  -1.322  1.00  0.00     0.141 C 
HETATM   21  C18 UNL     1       7.936  -1.578  -1.989  1.00  0.00     0.022 C 
HETATM   22  C19 UNL     1       6.710  -2.372  -1.621  1.00  0.00     0.022 C 
HETATM   23  C20 UNL     1       5.635  -1.320  -1.414  1.00  0.00     0.141 C 
ENDBRANCH  15  19
ENDBRANCH   4   7
BRANCH   1  24
HETATM   24  C9  UNL     1      -1.743  -0.086   0.828  1.00  0.00     0.062 C 
BRANCH  24  25
HETATM   25  C8  UNL     1      -3.044  -0.457   0.253  1.00  0.00     0.026 C 
HETATM   26  C7  UNL     1      -3.499   0.320  -0.946  1.00  0.00     0.012 C 
HETATM   27  C6  UNL     1      -5.013   0.311  -0.895  1.00  0.00     0.026 C 
HETATM   28  C5  UNL     1      -5.373   0.208   0.534  1.00  0.00     0.087 C 
HETATM   29  C24 UNL     1      -4.144  -0.168   1.286  1.00  0.00     0.035 C 
BRANCH  28  30
HETATM   30  N1  UNL     1      -6.414  -0.752   0.814  1.00  0.00    -0.347 N 
HETATM   31  C1  UNL     1      -7.689  -0.500   1.380  1.00  0.00     0.220 C 
HETATM   32  O1  UNL     1      -8.054   0.475   2.096  1.00  0.00    -0.273 OA
HETATM   33  C2  UNL     1      -8.572  -1.612   0.984  1.00  0.00     0.104 C 
HETATM   34  C3  UNL     1      -7.620  -2.784   0.918  1.00  0.00     0.029 C 
HETATM   35  C4  UNL     1      -6.297  -2.162   0.544  1.00  0.00     0.127 C 
ENDBRANCH  28  30
ENDBRANCH  24  25
ENDBRANCH   1  24
TORSDOF 5
