REMARK  6 active torsions:
REMARK  status: ('A' for Active; 'I' for Inactive)
REMARK    1  A    between atoms: C1_2  and  O2_3 
REMARK       I    between atoms: C1_2  and  N1_11 
REMARK    2  A    between atoms: O2_3  and  C2_4 
REMARK    3  A    between atoms: C2_4  and  C3_5 
REMARK    4  A    between atoms: C13_16  and  C14_17 
REMARK    5  A    between atoms: C14_17  and  O3_18 
REMARK    6  A    between atoms: O3_18  and  C15_19 
ROOT
HETATM    1  O1  UNL     1      -3.141  -2.546   1.427  1.00  0.00    -0.238 OA
HETATM    2  C1  UNL     1      -2.911  -1.356   1.097  1.00  0.00     0.364 C 
HETATM    3  N1  UNL     1      -1.597  -0.899   0.845  1.00  0.00    -0.306 N 
HETATM    4  C9  UNL     1      -1.296   0.457   0.465  1.00  0.00     0.135 C 
HETATM    5  C10 UNL     1      -0.218   0.379  -0.595  1.00  0.00     0.088 C 
HETATM    6  C11 UNL     1       0.972  -0.355  -0.061  1.00  0.00     0.168 C 
HETATM    7  C12 UNL     1       2.028   0.645   0.369  1.00  0.00     0.077 C 
HETATM    8  C13 UNL     1       3.232   0.193  -0.468  1.00  0.00     0.039 C 
HETATM    9  C22 UNL     1       2.488  -0.331  -1.694  1.00  0.00     0.178 C 
HETATM   10  O5  UNL     1       1.528  -1.128  -1.079  1.00  0.00    -0.354 OA
HETATM   11  O6  UNL     1       0.727  -1.172   1.015  1.00  0.00    -0.336 OA
HETATM   12  C23 UNL     1      -0.500  -1.833   0.970  1.00  0.00     0.302 C 
ENDROOT
BRANCH   8  13
HETATM   13  C14 UNL     1       3.865  -0.936   0.302  1.00  0.00     0.182 C 
BRANCH  13  14
HETATM   14  O3  UNL     1       4.989  -1.510  -0.267  1.00  0.00    -0.349 OA
BRANCH  14  15
HETATM   15  C15 UNL     1       6.203  -0.941  -0.510  1.00  0.00     0.084 A 
HETATM   16  C16 UNL     1       7.210  -1.707  -1.135  1.00  0.00     0.124 A 
HETATM   17  N2  UNL     1       8.423  -1.206  -1.397  1.00  0.00    -0.364 N 
HETATM   18  C17 UNL     1       8.793   0.029  -1.105  1.00  0.00     0.041 A 
ATOM     19  H2  UNL     1       9.104  -1.815  -1.850  1.00  0.00     0.165 HD
HETATM   20  C18 UNL     1       7.862   0.836  -0.492  1.00  0.00    -0.007 A 
HETATM   21  C21 UNL     1      10.021   0.820  -1.274  1.00  0.00     0.225 C 
HETATM   22  C19 UNL     1       6.582   0.345  -0.202  1.00  0.00     0.049 A 
HETATM   23  C20 UNL     1       8.511   2.136  -0.278  1.00  0.00     0.208 C 
HETATM   24  O4  UNL     1       9.739   2.105  -0.878  1.00  0.00    -0.381 OA
ENDBRANCH  14  15
ENDBRANCH  13  14
ENDBRANCH   8  13
BRANCH   2  25
HETATM   25  O2  UNL     1      -3.975  -0.465   0.978  1.00  0.00    -0.303 OA
BRANCH  25  26
HETATM   26  C2  UNL     1      -5.264  -0.943   1.233  1.00  0.00     0.185 C 
BRANCH  26  27
HETATM   27  C3  UNL     1      -6.293   0.164   1.054  1.00  0.00     0.010 C 
HETATM   28  C4  UNL     1      -7.657  -0.406   1.341  1.00  0.00     0.007 C 
HETATM   29  C5  UNL     1      -8.690   0.711   1.207  1.00  0.00     0.000 C 
HETATM   30  C6  UNL     1      -8.642   1.190  -0.223  1.00  0.00     0.000 C 
HETATM   31  C7  UNL     1      -7.564   0.511  -1.014  1.00  0.00     0.000 C 
HETATM   32  C8  UNL     1      -6.218   0.668  -0.349  1.00  0.00     0.007 C 
ENDBRANCH  26  27
ENDBRANCH  25  26
ENDBRANCH   2  25
TORSDOF 6
