REMARK  6 active torsions:
REMARK  status: ('A' for Active; 'I' for Inactive)
REMARK    1  A    between atoms: C2_2  and  C4_4 
REMARK    2  A    between atoms: C4_4  and  O2_6 
REMARK    3  A    between atoms: O2_6  and  C5_7 
REMARK    4  A    between atoms: C17_20  and  O4_21 
REMARK    5  A    between atoms: O4_21  and  C18_22 
REMARK    6  A    between atoms: C20_26  and  O7_27 
ROOT
HETATM    1  C5  UNL     1      -1.058   0.132   1.458  1.00  0.00     0.137 C 
HETATM    2  C6  UNL     1      -0.386   1.311   0.842  1.00  0.00     0.038 C 
HETATM    3  C7  UNL     1       0.229   1.144  -0.488  1.00  0.00     0.003 C 
HETATM    4  C8  UNL     1      -0.705   1.533  -1.611  1.00  0.00     0.006 C 
HETATM    5  C9  UNL     1      -1.427   0.478  -2.330  1.00  0.00     0.005 C 
HETATM    6  C10 UNL     1      -1.438  -0.876  -1.723  1.00  0.00    -0.008 C 
HETATM    7  C11 UNL     1      -1.683  -2.018  -2.648  1.00  0.00     0.011 C 
HETATM    8  C12 UNL     1      -0.366  -1.138  -0.679  1.00  0.00    -0.011 C 
HETATM    9  C13 UNL     1       0.346  -2.458  -0.854  1.00  0.00     0.090 C 
HETATM   10  C14 UNL     1       1.753  -2.200  -0.355  1.00  0.00     0.136 C 
HETATM   11  O3  UNL     1       2.721  -2.917  -0.371  1.00  0.00    -0.297 OA
HETATM   12  C15 UNL     1       1.728  -0.789   0.203  1.00  0.00     0.097 C 
HETATM   13  C16 UNL     1       3.083  -0.196   0.281  1.00  0.00     0.050 C 
HETATM   14  C17 UNL     1       3.574   0.455  -0.726  1.00  0.00     0.187 C 
HETATM   15  O6  UNL     1       2.834   0.581  -1.835  1.00  0.00    -0.298 OA
HETATM   16  C20 UNL     1       1.536  -0.061  -2.038  1.00  0.00     0.278 C 
HETATM   17  C22 UNL     1       0.800  -0.193  -0.789  1.00  0.00     0.036 C 
HETATM   18  C23 UNL     1      -1.014  -1.150   0.675  1.00  0.00     0.021 C 
HETATM   19  C24 UNL     1      -0.812  -2.318   1.558  1.00  0.00     0.013 C 
ENDROOT
BRANCH   1  20
HETATM   20  O2  UNL     1      -2.349   0.435   1.949  1.00  0.00    -0.312 OA
BRANCH  20  21
HETATM   21  C4  UNL     1      -2.802   0.502   3.207  1.00  0.00     0.288 C 
HETATM   22  O1  UNL     1      -1.992   0.278   4.107  1.00  0.00    -0.260 OA
BRANCH  21  23
HETATM   23  C2  UNL     1      -4.217   0.832   3.471  1.00  0.00     0.004 C 
HETATM   24  C1  UNL     1      -4.717   0.916   4.670  1.00  0.00     0.024 C 
HETATM   25  C3  UNL     1      -5.135   1.062   2.304  1.00  0.00     0.054 C 
ENDBRANCH  21  23
ENDBRANCH  20  21
ENDBRANCH   1  20
BRANCH  16  26
HETATM   26  O7  UNL     1       1.938  -1.157  -2.741  1.00  0.00    -0.365 OA
HETATM   27  C21 UNL     1       1.798  -1.003  -4.117  1.00  0.00     0.204 C 
ENDBRANCH  16  26
BRANCH  14  28
HETATM   28  O4  UNL     1       4.843   1.008  -0.647  1.00  0.00    -0.256 OA
BRANCH  28  29
HETATM   29  C18 UNL     1       4.975   2.311  -0.151  1.00  0.00     0.261 C 
HETATM   30  C19 UNL     1       6.303   2.974  -0.036  1.00  0.00     0.126 C 
HETATM   31  O5  UNL     1       3.934   2.908   0.195  1.00  0.00    -0.265 OA
ENDBRANCH  28  29
ENDBRANCH  14  28
TORSDOF 6
