REMARK  13 active torsions:
REMARK  status: ('A' for Active; 'I' for Inactive)
REMARK    1  A    between atoms: C2_2  and  C3_3 
REMARK    2  A    between atoms: C3_3  and  C4_4 
REMARK    3  A    between atoms: C4_4  and  O2_6 
REMARK    4  A    between atoms: O2_6  and  C5_7 
REMARK    5  A    between atoms: C10_14  and  C11_15 
REMARK    6  A    between atoms: C11_15  and  C12_16 
REMARK    7  A    between atoms: C12_16  and  O3_17 
REMARK    8  A    between atoms: O3_17  and  C13_18 
REMARK    9  A    between atoms: C15_21  and  C16_22 
REMARK   10  A    between atoms: C16_22  and  O6_27 
REMARK   11  A    between atoms: N2_23  and  O5_25 
REMARK   12  A    between atoms: O6_27  and  C17_28 
REMARK   13  A    between atoms: C19_30  and  O7_31 
ROOT
HETATM    1  C12 UNL     1      -0.245   0.599   1.146  1.00  0.00     0.175 C 
ENDROOT
BRANCH   1   2
HETATM    2  C11 UNL     1      -0.837  -0.326   2.186  1.00  0.00     0.067 C 
BRANCH   2   3
HETATM    3  C10 UNL     1      -2.139   0.095   2.707  1.00  0.00    -0.025 A 
HETATM    4  C9  UNL     1      -2.369   0.806   3.890  1.00  0.00     0.096 A 
HETATM    5  N1  UNL     1      -3.677   1.042   4.026  1.00  0.00    -0.365 N 
HETATM    6  C8  UNL     1      -4.336   0.516   2.982  1.00  0.00     0.046 A 
ATOM      7  H1  UNL     1      -4.108   1.544   4.803  1.00  0.00     0.165 HD
HETATM    8  C7  UNL     1      -5.672   0.454   2.618  1.00  0.00     0.033 A 
HETATM    9  C23 UNL     1      -3.380  -0.081   2.149  1.00  0.00     0.040 A 
HETATM   10  C6  UNL     1      -6.047  -0.190   1.451  1.00  0.00     0.043 A 
HETATM   11  C5  UNL     1      -5.126  -0.785   0.618  1.00  0.00     0.118 A 
HETATM   12  C24 UNL     1      -3.791  -0.712   1.001  1.00  0.00     0.163 A 
HETATM   13  F1  UNL     1      -2.894  -1.323   0.176  1.00  0.00    -0.202 F 
BRANCH  11  14
HETATM   14  O2  UNL     1      -5.466  -1.438  -0.554  1.00  0.00    -0.276 OA
BRANCH  14  15
HETATM   15  C4  UNL     1      -5.570  -0.815  -1.797  1.00  0.00     0.264 C 
HETATM   16  O1  UNL     1      -5.345   0.409  -1.861  1.00  0.00    -0.265 OA
BRANCH  15  17
HETATM   17  C3  UNL     1      -5.937  -1.563  -3.022  1.00  0.00     0.111 C 
BRANCH  17  18
HETATM   18  C2  UNL     1      -7.427  -1.493  -3.296  1.00  0.00     0.005 C 
HETATM   19  C1  UNL     1      -7.894  -0.077  -3.489  1.00  0.00     0.005 C 
ENDBRANCH  17  18
ENDBRANCH  15  17
ENDBRANCH  14  15
ENDBRANCH  11  14
ENDBRANCH   2   3
ENDBRANCH   1   2
BRANCH   1  20
HETATM   20  O3  UNL     1       0.982   0.048   0.783  1.00  0.00    -0.360 OA
BRANCH  20  21
HETATM   21  C13 UNL     1       1.676   0.845  -0.129  1.00  0.00     0.275 C 
HETATM   22  O4  UNL     1       2.057   0.049  -1.220  1.00  0.00    -0.331 OA
HETATM   23  C14 UNL     1       3.314  -0.587  -1.300  1.00  0.00     0.152 C 
HETATM   24  C15 UNL     1       4.331   0.101  -0.825  1.00  0.00     0.046 C 
HETATM   25  C19 UNL     1       4.055   1.451  -0.295  1.00  0.00     0.170 C 
HETATM   26  C20 UNL     1       2.889   1.380   0.638  1.00  0.00     0.033 C 
HETATM   27  C21 UNL     1       3.206   0.534   1.843  1.00  0.00     0.023 C 
HETATM   28  C22 UNL     1       2.612   2.785   1.150  1.00  0.00     0.023 C 
BRANCH  24  29
HETATM   29  C16 UNL     1       5.695  -0.487  -0.866  1.00  0.00     0.172 C 
HETATM   30  N2  UNL     1       6.678   0.171  -0.381  1.00  0.00    -0.247 N 
ATOM     31  H2  UNL     1       6.427   1.080   0.008  1.00  0.00     0.196 HD
BRANCH  30  32
HETATM   32  O5  UNL     1       7.974  -0.126  -0.296  1.00  0.00    -0.288 OA
ATOM     33  H5  UNL     1       8.704   0.363   0.064  1.00  0.00     0.244 HD
ENDBRANCH  30  32
BRANCH  29  34
HETATM   34  O6  UNL     1       5.902  -1.719  -1.412  1.00  0.00    -0.334 OA
BRANCH  34  35
HETATM   35  C17 UNL     1       7.101  -2.238  -1.825  1.00  0.00     0.173 C 
HETATM   36  C18 UNL     1       7.838  -1.536  -2.916  1.00  0.00     0.034 C 
ENDBRANCH  34  35
ENDBRANCH  29  34
ENDBRANCH  24  29
BRANCH  25  37
HETATM   37  O7  UNL     1       5.176   2.028   0.300  1.00  0.00    -0.390 OA
ATOM     38  H7  UNL     1       4.998   2.897   0.641  1.00  0.00     0.210 HD
ENDBRANCH  25  37
ENDBRANCH  20  21
ENDBRANCH   1  20
TORSDOF 13
