REMARK  11 active torsions:
REMARK  status: ('A' for Active; 'I' for Inactive)
REMARK    1  A    between atoms: C2_2  and  O1_3 
REMARK    2  A    between atoms: O1_3  and  C3_4 
REMARK    3  A    between atoms: C3_4  and  C4_6 
REMARK    4  A    between atoms: C7_13  and  O4_14 
REMARK    5  A    between atoms: C12_21  and  O5_22 
REMARK    6  A    between atoms: O5_22  and  C13_23 
REMARK    7  A    between atoms: C16_26  and  O6_27 
REMARK    8  A    between atoms: O6_27  and  C17_28 
REMARK    9  A    between atoms: C22_33  and  C23_34 
REMARK   10  A    between atoms: C24_35  and  C25_36 
REMARK   11  A    between atoms: C25_36  and  O7_37 
ROOT
HETATM    1  C4  UNL     1       2.133  -0.366   1.873  1.00  0.00     0.179 C 
HETATM    2  C5  UNL     1       3.600  -0.384   2.107  1.00  0.00     0.126 C 
HETATM    3  N1  UNL     1       4.101  -0.226   3.274  1.00  0.00    -0.383 N 
ATOM      4  H11 UNL     1       5.108  -0.238   3.435  1.00  0.00     0.158 HD
ATOM      5  H12 UNL     1       3.548  -0.079   4.118  1.00  0.00     0.158 HD
HETATM    6  O3  UNL     1       4.348  -0.583   0.965  1.00  0.00    -0.336 OA
HETATM    7  C6  UNL     1       4.060   0.262  -0.116  1.00  0.00     0.216 C 
HETATM    8  C7  UNL     1       3.025   1.290   0.231  1.00  0.00     0.099 C 
HETATM    9  C8  UNL     1       2.693   1.990  -1.065  1.00  0.00     0.083 C 
HETATM   10  C9  UNL     1       1.703   1.227  -1.901  1.00  0.00     0.206 C 
HETATM   11  F1  UNL     1       1.170   2.104  -2.840  1.00  0.00    -0.244 F 
HETATM   12  C10 UNL     1       0.584   0.682  -1.119  1.00  0.00    -0.014 A 
HETATM   13  C11 UNL     1      -0.567   0.313  -1.821  1.00  0.00     0.050 A 
HETATM   14  C12 UNL     1      -1.661  -0.198  -1.189  1.00  0.00     0.103 A 
HETATM   15  C16 UNL     1      -1.612  -0.349   0.202  1.00  0.00     0.103 A 
HETATM   16  C20 UNL     1      -0.456   0.026   0.873  1.00  0.00     0.048 A 
HETATM   17  C21 UNL     1       0.659   0.545   0.233  1.00  0.00    -0.029 A 
HETATM   18  C22 UNL     1       1.858   0.892   1.040  1.00  0.00     0.058 C 
ENDROOT
BRANCH   1  19
HETATM   19  C3  UNL     1       1.698  -1.632   1.316  1.00  0.00     0.272 C 
HETATM   20  O2  UNL     1       0.988  -2.515   1.897  1.00  0.00    -0.264 OA
BRANCH  19  21
HETATM   21  O1  UNL     1       2.029  -2.024   0.039  1.00  0.00    -0.321 OA
BRANCH  21  22
HETATM   22  C2  UNL     1       1.647  -3.234  -0.568  1.00  0.00     0.174 C 
HETATM   23  C1  UNL     1       2.164  -3.366  -1.960  1.00  0.00     0.034 C 
ENDBRANCH  21  22
ENDBRANCH  19  21
ENDBRANCH   1  19
BRANCH  18  24
HETATM   24  C23 UNL     1       1.478   1.912   2.076  1.00  0.00    -0.010 C 
HETATM   25  C24 UNL     1       1.159   3.276   1.791  1.00  0.00    -0.004 C 
BRANCH  25  26
HETATM   26  C25 UNL     1       0.025   3.729   0.963  1.00  0.00     0.191 C 
BRANCH  26  27
HETATM   27  O7  UNL     1      -1.244   3.404   1.413  1.00  0.00    -0.397 OA
ATOM     28  H7  UNL     1      -1.974   3.696   0.880  1.00  0.00     0.209 HD
ENDBRANCH  26  27
ENDBRANCH  25  26
ENDBRANCH  18  24
BRANCH   8  29
HETATM   29  O4  UNL     1       3.766   2.241   0.993  1.00  0.00    -0.386 OA
ATOM     30  H4  UNL     1       3.110   2.892   1.213  1.00  0.00     0.210 HD
ENDBRANCH   8  29
BRANCH  15  31
HETATM   31  O6  UNL     1      -2.712  -0.862   0.832  1.00  0.00    -0.344 OA
BRANCH  31  32
HETATM   32  C17 UNL     1      -2.915  -1.107   2.179  1.00  0.00     0.121 C 
HETATM   33  C18 UNL     1      -3.227  -2.601   2.341  1.00  0.00     0.040 C 
HETATM   34  C19 UNL     1      -4.214  -0.394   2.575  1.00  0.00     0.040 C 
ENDBRANCH  31  32
ENDBRANCH  15  31
BRANCH  14  35
HETATM   35  O5  UNL     1      -2.801  -0.570  -1.838  1.00  0.00    -0.344 OA
BRANCH  35  36
HETATM   36  C13 UNL     1      -3.063  -0.507  -3.198  1.00  0.00     0.121 C 
HETATM   37  C14 UNL     1      -3.316  -1.931  -3.691  1.00  0.00     0.040 C 
HETATM   38  C15 UNL     1      -4.300   0.328  -3.483  1.00  0.00     0.040 C 
ENDBRANCH  35  36
ENDBRANCH  14  35
TORSDOF 11
