REMARK  13 active torsions:
REMARK  status: ('A' for Active; 'I' for Inactive)
REMARK    1  A    between atoms: C2_2  and  C3_3 
REMARK    2  A    between atoms: C3_3  and  C4_4 
REMARK    3  A    between atoms: C4_4  and  O1_5 
REMARK    4  A    between atoms: O1_5  and  C5_6 
REMARK    5  A    between atoms: C5_6  and  C6_8 
REMARK    6  A    between atoms: C6_8  and  C7_9 
REMARK    7  A    between atoms: C7_9  and  O4_11 
REMARK    8  A    between atoms: C11_17  and  O5_18 
REMARK    9  A    between atoms: N2_20  and  C12_21 
REMARK   10  A    between atoms: C12_21  and  C13_22 
REMARK   11  A    between atoms: C13_22  and  C14_23 
REMARK   12  A    between atoms: C14_23  and  C15_24 
REMARK   13  A    between atoms: C19_30  and  O7_31 
ROOT
HETATM    1  C6  UNL     1      -1.656  -2.426  -0.763  1.00  0.00     0.242 A 
HETATM    2  N1  UNL     1      -0.858  -2.854  -1.847  1.00  0.00    -0.356 N 
ATOM      3  H1  UNL     1      -1.053  -3.314  -2.737  1.00  0.00     0.162 HD
HETATM    4  C9  UNL     1       0.316  -2.394  -1.212  1.00  0.00     0.095 A 
HETATM    5  C10 UNL     1      -0.413  -1.969  -0.153  1.00  0.00     0.072 A 
HETATM    6  C11 UNL     1       0.464  -1.410   0.764  1.00  0.00     0.156 A 
HETATM    7  N2  UNL     1       1.708  -1.495   0.265  1.00  0.00    -0.306 N 
HETATM    8  C19 UNL     1       1.661  -2.090  -0.939  1.00  0.00     0.172 A 
ENDROOT
BRANCH   1   9
HETATM    9  C5  UNL     1      -2.645  -1.349  -1.069  1.00  0.00     0.302 C 
HETATM   10  O2  UNL     1      -2.670  -0.934  -2.249  1.00  0.00    -0.261 OA
BRANCH   9  11
HETATM   11  O1  UNL     1      -3.496  -0.807  -0.174  1.00  0.00    -0.319 OA
BRANCH  11  12
HETATM   12  C4  UNL     1      -4.438   0.173  -0.249  1.00  0.00     0.178 C 
BRANCH  12  13
HETATM   13  C3  UNL     1      -4.077   1.588  -0.422  1.00  0.00     0.026 C 
BRANCH  13  14
HETATM   14  C2  UNL     1      -3.290   2.032  -1.585  1.00  0.00    -0.002 C 
HETATM   15  C1  UNL     1      -3.186   3.583  -1.451  1.00  0.00     0.005 C 
ENDBRANCH  13  14
ENDBRANCH  12  13
ENDBRANCH  11  12
ENDBRANCH   9  11
ENDBRANCH   1   9
BRANCH   1  16
HETATM   16  C7  UNL     1      -2.282  -3.567  -0.024  1.00  0.00     0.302 C 
HETATM   17  O3  UNL     1      -2.058  -4.740  -0.408  1.00  0.00    -0.261 OA
BRANCH  16  18
HETATM   18  O4  UNL     1      -3.106  -3.387   1.074  1.00  0.00    -0.324 OA
HETATM   19  C8  UNL     1      -3.680  -4.512   1.746  1.00  0.00     0.213 C 
ENDBRANCH  16  18
ENDBRANCH   1  16
BRANCH   6  20
HETATM   20  O5  UNL     1       0.077  -0.861   1.989  1.00  0.00    -0.345 OA
ATOM     21  H5  UNL     1       0.678  -0.478   2.617  1.00  0.00     0.219 HD
ENDBRANCH   6  20
BRANCH   8  22
HETATM   22  O7  UNL     1       2.717  -2.362  -1.772  1.00  0.00    -0.344 OA
ATOM     23  H7  UNL     1       3.626  -2.157  -1.588  1.00  0.00     0.219 HD
ENDBRANCH   8  22
BRANCH   7  24
HETATM   24  C12 UNL     1       2.931  -1.036   0.885  1.00  0.00     0.133 C 
BRANCH  24  25
HETATM   25  C13 UNL     1       3.186   0.403   0.471  1.00  0.00     0.027 C 
BRANCH  25  26
HETATM   26  C14 UNL     1       4.467   0.921   1.104  1.00  0.00     0.067 C 
BRANCH  26  27
HETATM   27  C15 UNL     1       4.728   2.328   0.706  1.00  0.00     0.054 A 
HETATM   28  C16 UNL     1       5.470   2.673  -0.425  1.00  0.00     0.036 A 
HETATM   29  C17 UNL     1       5.497   4.048  -0.466  1.00  0.00     0.048 A 
HETATM   30  C18 UNL     1       4.777   4.463   0.631  1.00  0.00     0.121 A 
HETATM   31 BR1  UNL     1       4.465   6.273   1.104  1.00  0.00    -0.023 Br
HETATM   32  O6  UNL     1       4.334   3.431   1.306  1.00  0.00    -0.308 OA
ENDBRANCH  26  27
ENDBRANCH  25  26
ENDBRANCH  24  25
ENDBRANCH   7  24
TORSDOF 13
