REMARK  5 active torsions:
REMARK  status: ('A' for Active; 'I' for Inactive)
REMARK    1  A    between atoms: C2_2  and  O2_4 
REMARK    2  A    between atoms: O2_4  and  C3_5 
REMARK    3  A    between atoms: C3_5  and  C4_6 
REMARK    4  A    between atoms: C18_21  and  C19_22 
REMARK    5  A    between atoms: C26_31  and  N1_32 
ROOT
HETATM    1  C4  UNL     1      -3.018   0.043   0.049  1.00  0.00     0.100 C 
HETATM    2  C5  UNL     1      -4.412   0.686   0.087  1.00  0.00     0.050 C 
HETATM    3  O3  UNL     1      -2.141   1.147   0.130  1.00  0.00    -0.370 OA
HETATM    4  C6  UNL     1      -0.877   0.705  -0.132  1.00  0.00     0.132 C 
HETATM    5  C7  UNL     1       0.182   1.336   0.780  1.00  0.00     0.042 C 
HETATM    6  C8  UNL     1       1.421   1.540  -0.029  1.00  0.00    -0.033 C 
HETATM    7  C9  UNL     1       1.660   3.065  -0.074  1.00  0.00     0.016 C 
HETATM    8  C10 UNL     1       1.013   1.059  -1.400  1.00  0.00     0.005 C 
HETATM    9  C11 UNL     1       1.297  -0.365  -1.677  1.00  0.00     0.007 C 
HETATM   10  C12 UNL     1       2.379  -1.015  -0.886  1.00  0.00     0.010 C 
HETATM   11  C13 UNL     1       3.371  -0.042  -0.389  1.00  0.00    -0.035 C 
HETATM   12  C14 UNL     1       4.024   0.671  -1.552  1.00  0.00     0.016 C 
HETATM   13  C15 UNL     1       4.420  -0.577   0.513  1.00  0.00     0.012 C 
HETATM   14  C16 UNL     1       4.042  -0.202   1.948  1.00  0.00    -0.008 C 
HETATM   15  C17 UNL     1       4.328  -1.604   2.341  1.00  0.00     0.020 C 
HETATM   16  C18 UNL     1       4.417  -1.997   0.885  1.00  0.00     0.092 C 
HETATM   17  C20 UNL     1       2.560   0.176   1.792  1.00  0.00     0.011 C 
HETATM   18  C21 UNL     1       2.663   0.951   0.503  1.00  0.00     0.003 C 
HETATM   19  C22 UNL     1      -0.472   1.287  -1.478  1.00  0.00    -0.013 C 
HETATM   20  C23 UNL     1      -0.918   2.716  -1.467  1.00  0.00     0.018 C 
HETATM   21  C24 UNL     1      -1.148   0.608  -2.629  1.00  0.00     0.014 C 
HETATM   22  C25 UNL     1      -2.608   0.365  -2.391  1.00  0.00     0.029 C 
HETATM   23  C26 UNL     1      -2.899  -0.640  -1.278  1.00  0.00     0.114 C 
ENDROOT
BRANCH   1  24
HETATM   24  C3  UNL     1      -2.788  -0.758   1.271  1.00  0.00     0.218 C 
BRANCH  24  25
HETATM   25  O2  UNL     1      -3.075   0.155   2.375  1.00  0.00    -0.319 OA
BRANCH  25  26
HETATM   26  C2  UNL     1      -2.981  -0.233   3.683  1.00  0.00     0.254 C 
HETATM   27  C1  UNL     1      -3.294   0.769   4.750  1.00  0.00     0.126 C 
HETATM   28  O1  UNL     1      -2.640  -1.400   3.937  1.00  0.00    -0.266 OA
ENDBRANCH  25  26
ENDBRANCH  24  25
ENDBRANCH   1  24
BRANCH  23  29
HETATM   29  N1  UNL     1      -4.014  -1.428  -1.573  1.00  0.00    -0.414 N 
HETATM   30  C27 UNL     1      -4.377  -2.563  -0.864  1.00  0.00     0.143 C 
HETATM   31  C28 UNL     1      -4.876  -1.067  -2.630  1.00  0.00     0.143 C 
ENDBRANCH  23  29
BRANCH  16  32
HETATM   32  C19 UNL     1       5.655  -2.697   0.479  1.00  0.00     0.177 C 
HETATM   33  O4  UNL     1       6.544  -2.039  -0.106  1.00  0.00    -0.648 OA
HETATM   34  O5  UNL     1       5.891  -4.035   0.708  1.00  0.00    -0.648 OA
ENDBRANCH  16  32
TORSDOF 5
