REMARK  7 active torsions:
REMARK  status: ('A' for Active; 'I' for Inactive)
REMARK    1  A    between atoms: C2_2  and  C3_3 
REMARK    2  A    between atoms: C3_3  and  O2_5 
REMARK    3  A    between atoms: O2_5  and  C4_6 
REMARK    4  A    between atoms: C6_8  and  O3_9 
REMARK    5  A    between atoms: N1_16  and  C12_17 
REMARK    6  A    between atoms: C12_17  and  C13_18 
REMARK    7  A    between atoms: N2_21  and  O4_22 
ROOT
HETATM    1  C4  UNL     1      -3.806   0.318   0.690  1.00  0.00     0.143 C 
HETATM    2  C5  UNL     1      -3.234   1.547   1.277  1.00  0.00     0.066 C 
HETATM    3  C6  UNL     1      -1.931   1.827   0.643  1.00  0.00     0.129 C 
HETATM    4  C7  UNL     1      -1.039   0.591   0.927  1.00  0.00    -0.008 C 
HETATM    5  C8  UNL     1      -1.374   0.250   2.377  1.00  0.00     0.018 C 
HETATM    6  C9  UNL     1       0.309   1.105   1.116  1.00  0.00     0.014 C 
HETATM    7  C10 UNL     1       1.340   1.330   0.128  1.00  0.00     0.029 C 
HETATM    8  C11 UNL     1       2.542   0.337   0.211  1.00  0.00     0.122 C 
HETATM    9  N1  UNL     1       3.408   0.693  -0.891  1.00  0.00    -0.272 N 
HETATM   10  N2  UNL     1       3.232   0.199  -2.216  1.00  0.00    -0.173 N 
HETATM   11  C16 UNL     1       2.231  -0.448  -2.756  1.00  0.00     0.144 C 
HETATM   12  C17 UNL     1       1.015  -0.795  -1.988  1.00  0.00     0.026 C 
HETATM   13  C18 UNL     1       0.905  -1.084  -0.687  1.00  0.00    -0.059 C 
HETATM   14  C19 UNL     1       2.114  -1.093   0.196  1.00  0.00    -0.001 C 
HETATM   15  C20 UNL     1       3.190  -2.010  -0.435  1.00  0.00     0.022 C 
HETATM   16  C21 UNL     1       1.857  -1.738   1.524  1.00  0.00     0.022 C 
HETATM   17  C22 UNL     1      -0.549  -1.300  -0.698  1.00  0.00    -0.010 A 
HETATM   18  C23 UNL     1      -0.704  -2.766  -0.919  1.00  0.00     0.021 C 
HETATM   19  C24 UNL     1      -1.173  -0.249  -1.516  1.00  0.00     0.027 A 
HETATM   20  C25 UNL     1      -1.454  -0.397  -0.060  1.00  0.00    -0.009 A 
HETATM   21  C26 UNL     1      -2.939  -0.730   0.116  1.00  0.00    -0.011 C 
HETATM   22  C27 UNL     1      -3.650  -1.037  -1.195  1.00  0.00     0.018 C 
HETATM   23  C28 UNL     1      -3.076  -2.053   0.899  1.00  0.00     0.018 C 
ENDROOT
BRANCH   1  24
HETATM   24  O2  UNL     1      -4.906   0.746  -0.124  1.00  0.00    -0.312 OA
BRANCH  24  25
HETATM   25  C3  UNL     1      -6.233   0.567   0.205  1.00  0.00     0.282 C 
HETATM   26  O1  UNL     1      -6.465  -0.023   1.316  1.00  0.00    -0.260 OA
BRANCH  25  27
HETATM   27  C2  UNL     1      -7.327   1.005  -0.626  1.00  0.00     0.072 C 
HETATM   28  C1  UNL     1      -7.101   1.613  -1.765  1.00  0.00     0.017 C 
ENDBRANCH  25  27
ENDBRANCH  24  25
ENDBRANCH   1  24
BRANCH   3  29
HETATM   29  O3  UNL     1      -2.104   2.119  -0.663  1.00  0.00    -0.395 OA
ATOM     30  H3  UNL     1      -1.265   2.299  -1.071  1.00  0.00     0.210 HD
ENDBRANCH   3  29
BRANCH   9  31
HETATM   31  C12 UNL     1       4.485   1.581  -0.742  1.00  0.00     0.115 C 
BRANCH  31  32
HETATM   32  C13 UNL     1       5.704   1.271  -0.010  1.00  0.00    -0.070 C 
HETATM   33  C14 UNL     1       5.602   0.927   1.447  1.00  0.00     0.044 C 
HETATM   34  C15 UNL     1       6.688   0.325  -0.650  1.00  0.00     0.044 C 
ENDBRANCH  31  32
ENDBRANCH   9  31
BRANCH  10  35
HETATM   35  O4  UNL     1       4.297   0.459  -3.038  1.00  0.00    -0.268 OA
ATOM     36  H4  UNL     1       4.180   0.130  -3.921  1.00  0.00     0.247 HD
ENDBRANCH  10  35
TORSDOF 7
