REMARK  13 active torsions:
REMARK  status: ('A' for Active; 'I' for Inactive)
REMARK    1  A    between atoms: O1_2  and  N1_3 
REMARK    2  A    between atoms: C4_6  and  N2_7 
REMARK    3  A    between atoms: C9_17  and  N5_18 
REMARK    4  A    between atoms: N5_18  and  C10_20 
REMARK    5  A    between atoms: C10_20  and  C11_21 
REMARK    6  A    between atoms: C11_21  and  C12_22 
REMARK    7  A    between atoms: C12_22  and  C13_23 
REMARK    8  A    between atoms: C13_23  and  C14_24 
REMARK    9  A    between atoms: C14_24  and  C15_25 
REMARK   10  A    between atoms: C15_25  and  C16_26 
REMARK   11  A    between atoms: C16_26  and  N6_27 
REMARK   12  A    between atoms: N6_27  and  C17_29 
REMARK   13  A    between atoms: C23_37  and  N8_38 
ROOT
HETATM    1  N2  UNL     1      -5.219  -0.057   0.572  1.00  0.00    -0.350 N 
HETATM    2  C5  UNL     1      -6.331  -0.243   1.488  1.00  0.00     0.228 C 
HETATM    3  C6  UNL     1      -7.055  -1.489   1.043  1.00  0.00     0.240 C 
HETATM    4  O2  UNL     1      -8.304  -1.498   0.868  1.00  0.00    -0.271 OA
HETATM    5  N3  UNL     1      -6.284  -2.643   0.829  1.00  0.00    -0.320 N 
ATOM      6  H3  UNL     1      -6.701  -3.568   0.929  1.00  0.00     0.169 HD
HETATM    7  C7  UNL     1      -4.912  -2.505   0.470  1.00  0.00     0.124 A 
HETATM    8  C8  UNL     1      -4.413  -1.215   0.351  1.00  0.00     0.150 A 
HETATM    9  N4  UNL     1      -3.107  -1.115   0.009  1.00  0.00    -0.174 N 
ATOM     10  H4  UNL     1      -2.692  -0.188  -0.091  1.00  0.00     0.186 HD
HETATM   11  C9  UNL     1      -2.338  -2.199  -0.203  1.00  0.00     0.681 A 
HETATM   12  N7  UNL     1      -2.842  -3.453  -0.082  1.00  0.00    -0.175 N 
ATOM     13  H7  UNL     1      -2.243  -4.262  -0.246  1.00  0.00     0.186 HD
HETATM   14  C23 UNL     1      -4.130  -3.629   0.254  1.00  0.00     0.145 A 
ENDROOT
BRANCH  11  15
HETATM   15  N5  UNL     1      -1.096  -2.105  -0.529  1.00  0.00    -0.226 N 
ATOM     16  H5  UNL     1      -0.553  -2.956  -0.679  1.00  0.00     0.177 HD
BRANCH  15  17
HETATM   17  C10 UNL     1      -0.461  -0.832  -0.686  1.00  0.00     0.138 C 
BRANCH  17  18
HETATM   18  C11 UNL     1       0.849  -0.922  -1.423  1.00  0.00     0.020 C 
BRANCH  18  19
HETATM   19  C12 UNL     1       1.863  -1.790  -0.757  1.00  0.00     0.002 C 
BRANCH  19  20
HETATM   20  C13 UNL     1       2.252  -1.356   0.625  1.00  0.00     0.000 C 
BRANCH  20  21
HETATM   21  C14 UNL     1       3.277  -2.344   1.144  1.00  0.00     0.002 C 
BRANCH  21  22
HETATM   22  C15 UNL     1       4.503  -2.400   0.292  1.00  0.00     0.019 C 
BRANCH  22  23
HETATM   23  C16 UNL     1       5.184  -1.042   0.232  1.00  0.00     0.114 C 
BRANCH  23  24
HETATM   24  N6  UNL     1       6.343  -1.164  -0.597  1.00  0.00    -0.417 N 
ATOM     25  H6  UNL     1       6.602  -2.043  -1.046  1.00  0.00     0.153 HD
BRANCH  24  26
HETATM   26  C17 UNL     1       7.112   0.028  -0.753  1.00  0.00     0.076 C 
HETATM   27  C18 UNL     1       6.408   1.170  -1.409  1.00  0.00     0.024 C 
HETATM   28  C19 UNL     1       6.544   2.452  -0.584  1.00  0.00     0.002 C 
HETATM   29  C20 UNL     1       8.001   2.760  -0.300  1.00  0.00     0.000 C 
HETATM   30  C21 UNL     1       8.780   1.557   0.141  1.00  0.00     0.002 C 
HETATM   31  C22 UNL     1       7.758   0.486   0.537  1.00  0.00     0.024 C 
ENDBRANCH  24  26
ENDBRANCH  23  24
ENDBRANCH  22  23
ENDBRANCH  21  22
ENDBRANCH  20  21
ENDBRANCH  19  20
ENDBRANCH  18  19
ENDBRANCH  17  18
ENDBRANCH  15  17
ENDBRANCH  11  15
BRANCH  14  32
HETATM   32  N8  UNL     1      -4.663  -4.797   0.384  1.00  0.00    -0.383 N 
ATOM     33  H82 UNL     1      -5.641  -4.931   0.639  1.00  0.00     0.157 HD
ATOM     34  H81 UNL     1      -4.088  -5.624   0.225  1.00  0.00     0.157 HD
ENDBRANCH  14  32
BRANCH   1  35
HETATM   35  C4  UNL     1      -4.901   1.165  -0.082  1.00  0.00     0.103 C 
HETATM   36  C3  UNL     1      -4.553   2.287   0.865  1.00  0.00     0.043 C 
HETATM   37  C2  UNL     1      -4.871   3.493  -0.032  1.00  0.00     0.122 C 
HETATM   38  N1  UNL     1      -6.217   3.136  -0.432  1.00  0.00    -0.196 NA
HETATM   39  C24 UNL     1      -6.068   1.760  -0.844  1.00  0.00     0.145 C 
BRANCH  38  40
HETATM   40  O1  UNL     1      -7.019   3.322   0.613  1.00  0.00    -0.308 OA
HETATM   41  C1  UNL     1      -8.253   3.870   0.276  1.00  0.00     0.229 C 
ENDBRANCH  38  40
ENDBRANCH   1  35
TORSDOF 13
