REMARK  14 active torsions:
REMARK  status: ('A' for Active; 'I' for Inactive)
REMARK    1  A    between atoms: C2_2  and  C3_3 
REMARK    2  A    between atoms: C3_3  and  C5_5 
REMARK    3  A    between atoms: C5_5  and  N1_6 
REMARK       I    between atoms: N1_6  and  C6_8 
REMARK    4  A    between atoms: C6_8  and  C7_10 
REMARK    5  A    between atoms: C7_10  and  C8_11 
REMARK    6  A    between atoms: C8_11  and  C9_12 
REMARK    7  A    between atoms: N2_15  and  C12_16 
REMARK    8  A    between atoms: C15_25  and  N6_26 
REMARK    9  A    between atoms: C17_30  and  N7_31 
REMARK   10  A    between atoms: N7_31  and  C18_32 
REMARK   11  A    between atoms: C18_32  and  C19_33 
REMARK   12  A    between atoms: C19_33  and  C20_34 
REMARK   13  A    between atoms: C24_40  and  C25_41 
REMARK   14  A    between atoms: C25_41  and  O2_42 
ROOT
HETATM    1  C12 UNL     1      -2.429  -0.967  -0.214  1.00  0.00     0.684 A 
HETATM    2  N3  UNL     1      -2.034  -1.848  -1.172  1.00  0.00    -0.175 N 
ATOM      3  H3  UNL     1      -1.069  -2.176  -1.205  1.00  0.00     0.186 HD
HETATM    4  C13 UNL     1      -2.927  -2.279  -2.071  1.00  0.00     0.141 A 
HETATM    5  N4  UNL     1      -2.497  -3.174  -3.012  1.00  0.00    -0.337 N 
ATOM      6  H4  UNL     1      -1.524  -3.481  -3.021  1.00  0.00     0.168 HD
HETATM    7  C14 UNL     1      -3.344  -3.636  -3.904  1.00  0.00     0.183 A 
HETATM    8  N5  UNL     1      -4.613  -3.226  -3.880  1.00  0.00    -0.338 N 
ATOM      9  H5  UNL     1      -5.260  -3.593  -4.578  1.00  0.00     0.168 HD
HETATM   10  C15 UNL     1      -5.081  -2.334  -2.958  1.00  0.00     0.118 A 
HETATM   11  C16 UNL     1      -4.216  -1.838  -2.020  1.00  0.00     0.111 A 
HETATM   12  C17 UNL     1      -4.688  -0.930  -1.059  1.00  0.00     0.210 A 
HETATM   13  N8  UNL     1      -3.667  -0.546  -0.169  1.00  0.00    -0.163 N 
ATOM     14  H8  UNL     1      -3.912   0.113   0.570  1.00  0.00     0.187 HD
ENDROOT
BRANCH   1  15
HETATM   15  N2  UNL     1      -1.453  -0.565   0.732  1.00  0.00    -0.217 N 
HETATM   16  C11 UNL     1      -0.733  -1.582   1.460  1.00  0.00     0.141 C 
HETATM   17  C10 UNL     1       0.738  -1.403   1.413  1.00  0.00     0.025 C 
HETATM   18  C9  UNL     1       1.119  -0.087   0.837  1.00  0.00    -0.005 C 
HETATM   19  C24 UNL     1       0.278   1.079   1.198  1.00  0.00     0.032 C 
HETATM   20  C23 UNL     1      -1.195   0.832   0.942  1.00  0.00     0.148 C 
BRANCH  18  21
HETATM   21  C8  UNL     1       2.566   0.170   1.283  1.00  0.00     0.014 C 
BRANCH  21  22
HETATM   22  C7  UNL     1       3.466  -0.918   0.773  1.00  0.00     0.103 C 
BRANCH  22  23
HETATM   23  C6  UNL     1       4.864  -0.639   1.233  1.00  0.00     0.221 C 
HETATM   24  N1  UNL     1       5.938  -1.473   0.890  1.00  0.00    -0.340 N 
ATOM     25  H1  UNL     1       5.664  -2.280   0.330  1.00  0.00     0.167 HD
HETATM   26  O1  UNL     1       5.034   0.375   1.939  1.00  0.00    -0.273 OA
BRANCH  24  27
HETATM   27  C5  UNL     1       7.311  -1.420   1.162  1.00  0.00     0.068 C 
BRANCH  27  28
HETATM   28  C3  UNL     1       8.176  -0.374   0.556  1.00  0.00     0.019 C 
HETATM   29  C4  UNL     1       9.601  -0.700   1.063  1.00  0.00     0.015 C 
BRANCH  28  30
HETATM   30  C2  UNL     1       7.822   1.026   0.860  1.00  0.00     0.005 C 
HETATM   31  C1  UNL     1       8.831   1.994   0.210  1.00  0.00     0.006 C 
ENDBRANCH  28  30
ENDBRANCH  27  28
ENDBRANCH  24  27
ENDBRANCH  22  23
ENDBRANCH  21  22
ENDBRANCH  18  21
BRANCH  19  32
HETATM   32  C25 UNL     1       0.483   1.622   2.561  1.00  0.00     0.170 C 
BRANCH  32  33
HETATM   33  O2  UNL     1       0.225   0.718   3.568  1.00  0.00    -0.400 OA
ATOM     34  H2  UNL     1       0.356   1.066   4.442  1.00  0.00     0.209 HD
ENDBRANCH  32  33
ENDBRANCH  19  32
ENDBRANCH   1  15
BRANCH  12  35
HETATM   35  N7  UNL     1      -5.773  -0.469  -0.911  1.00  0.00    -0.402 NA
BRANCH  35  36
HETATM   36  C18 UNL     1      -6.980   0.044  -0.747  1.00  0.00     0.158 C 
BRANCH  36  37
HETATM   37  C19 UNL     1      -7.541   1.103  -1.692  1.00  0.00     0.063 C 
BRANCH  37  38
HETATM   38  C20 UNL     1      -6.672   2.305  -1.731  1.00  0.00    -0.017 C 
HETATM   39  C21 UNL     1      -6.489   3.004  -0.403  1.00  0.00     0.010 C 
HETATM   40  C22 UNL     1      -7.257   3.327  -2.717  1.00  0.00     0.010 C 
ENDBRANCH  37  38
ENDBRANCH  36  37
ENDBRANCH  35  36
ENDBRANCH  12  35
BRANCH  10  41
HETATM   41  N6  UNL     1      -6.303  -1.996  -2.956  1.00  0.00    -0.385 N 
ATOM     42  H62 UNL     1      -6.947  -2.366  -3.655  1.00  0.00     0.157 HD
ATOM     43  H61 UNL     1      -6.653  -1.330  -2.267  1.00  0.00     0.157 HD
ENDBRANCH  10  41
TORSDOF 14
