REMARK  14 active torsions:
REMARK  status: ('A' for Active; 'I' for Inactive)
REMARK    1  A    between atoms: C2_2  and  N1_3 
REMARK       I    between atoms: N1_3  and  C3_5 
REMARK    2  A    between atoms: C3_5  and  C4_7 
REMARK    3  A    between atoms: C5_11  and  C6_12 
REMARK    4  A    between atoms: C6_12  and  C7_13 
REMARK    5  A    between atoms: C7_13  and  C8_14 
REMARK    6  A    between atoms: C14_20  and  O2_21 
REMARK    7  A    between atoms: C15_23  and  C16_24 
REMARK    8  A    between atoms: C16_24  and  O3_25 
REMARK    9  A    between atoms: C16_24  and  C17_27 
REMARK   10  A    between atoms: C17_27  and  C18_28 
REMARK   11  A    between atoms: C18_28  and  C20_30 
REMARK   12  A    between atoms: C18_28  and  C21_32 
REMARK   13  A    between atoms: C21_32  and  S1_33 
REMARK   14  A    between atoms: S1_33  and  C22_34 
ROOT
HETATM    1  C4  UNL     1      -0.296   1.974  -0.835  1.00  0.00     0.286 C 
HETATM    2  N2  UNL     1       0.945   1.728  -0.006  1.00  0.00    -0.055 N 
ATOM      3  H21 UNL     1       0.814   1.711   1.005  1.00  0.00     0.278 HD
ATOM      4  H22 UNL     1       1.627   2.486   0.018  1.00  0.00     0.278 HD
HETATM    5  C5  UNL     1       1.398   0.464  -0.625  1.00  0.00     0.216 C 
HETATM    6  C14 UNL     1       0.128  -0.338  -0.358  1.00  0.00     0.157 C 
HETATM    7  C15 UNL     1      -0.993   0.613  -0.682  1.00  0.00     0.085 C 
ENDROOT
BRANCH   7   8
HETATM    8  C16 UNL     1      -2.091   0.608   0.284  1.00  0.00     0.128 C 
BRANCH   8   9
HETATM    9  O3  UNL     1      -3.048   1.535  -0.359  1.00  0.00    -0.395 OA
ATOM     10  H3  UNL     1      -3.761   1.532   0.269  1.00  0.00     0.210 HD
ENDBRANCH   8   9
BRANCH   8  11
HETATM   11  C17 UNL     1      -2.834  -0.462   0.859  1.00  0.00     0.049 C 
BRANCH  11  12
HETATM   12  C18 UNL     1      -3.798  -1.406   0.242  1.00  0.00     0.020 C 
HETATM   13  C19 UNL     1      -4.192  -2.369   1.394  1.00  0.00     0.023 C 
BRANCH  12  14
HETATM   14  C20 UNL     1      -3.294  -2.226  -0.859  1.00  0.00     0.241 C 
HETATM   15  O4  UNL     1      -3.016  -3.394  -0.680  1.00  0.00    -0.306 OA
ENDBRANCH  12  14
BRANCH  12  16
HETATM   16  C21 UNL     1      -5.108  -0.683  -0.101  1.00  0.00     0.097 C 
BRANCH  16  17
HETATM   17  S1  UNL     1      -6.412  -1.541  -0.761  1.00  0.00    -0.102 SA
BRANCH  17  18
HETATM   18  C22 UNL     1      -7.517  -2.591  -0.031  1.00  0.00     0.149 C 
HETATM   19  N3  UNL     1      -8.701  -2.989  -0.828  1.00  0.00    -0.082 NA
HETATM   20  S2  UNL     1      -7.574  -3.283   1.461  1.00  0.00    -0.056 SA
ENDBRANCH  17  18
ENDBRANCH  16  17
ENDBRANCH  12  16
ENDBRANCH  11  12
ENDBRANCH   8  11
ENDBRANCH   7   8
BRANCH   1  21
HETATM   21  C3  UNL     1      -0.890   3.141  -0.262  1.00  0.00     0.249 C 
HETATM   22  N1  UNL     1      -0.222   4.449  -0.409  1.00  0.00    -0.360 N 
ATOM     23  H1  UNL     1       0.656   4.576  -0.912  1.00  0.00     0.162 HD
HETATM   24  O1  UNL     1      -1.938   3.248   0.404  1.00  0.00    -0.271 OA
BRANCH  22  25
HETATM   25  C2  UNL     1      -0.925   5.519   0.221  1.00  0.00     0.118 C 
HETATM   26  C1  UNL     1      -0.195   6.827   0.228  1.00  0.00     0.026 C 
ENDBRANCH  22  25
ENDBRANCH   1  21
BRANCH   6  27
HETATM   27  O2  UNL     1       0.198  -1.502  -1.063  1.00  0.00    -0.393 OA
ATOM     28  H2  UNL     1      -0.593  -2.001  -0.897  1.00  0.00     0.210 HD
ENDBRANCH   6  27
BRANCH   5  29
HETATM   29  C6  UNL     1       2.559  -0.034   0.228  1.00  0.00     0.036 C 
BRANCH  29  30
HETATM   30  C7  UNL     1       3.191  -1.285  -0.266  1.00  0.00     0.007 C 
BRANCH  30  31
HETATM   31  C8  UNL     1       4.285  -1.761   0.670  1.00  0.00    -0.014 C 
HETATM   32  C9  UNL     1       4.926  -2.998   0.147  1.00  0.00     0.004 C 
HETATM   33  C10 UNL     1       6.059  -2.667  -0.809  1.00  0.00     0.000 C 
HETATM   34  C11 UNL     1       7.065  -1.739  -0.129  1.00  0.00     0.000 C 
HETATM   35  C12 UNL     1       6.361  -0.457   0.212  1.00  0.00     0.000 C 
HETATM   36  C13 UNL     1       5.231  -0.724   1.146  1.00  0.00     0.004 C 
ENDBRANCH  30  31
ENDBRANCH  29  30
ENDBRANCH   5  29
TORSDOF 14
