REMARK  13 active torsions:
REMARK  status: ('A' for Active; 'I' for Inactive)
REMARK    1  A    between atoms: C4_4  and  N1_5 
REMARK    2  A    between atoms: C7_8  and  N2_9 
REMARK    3  A    between atoms: C7_8  and  C8_13 
REMARK    4  A    between atoms: C8_13  and  N3_14 
REMARK       I    between atoms: N3_14  and  C9_16 
REMARK    5  A    between atoms: C9_16  and  C10_18 
REMARK    6  A    between atoms: C10_18  and  N4_19 
REMARK    7  A    between atoms: N4_19  and  C11_22 
REMARK    8  A    between atoms: C11_22  and  C12_23 
REMARK    9  A    between atoms: C12_23  and  N5_24 
REMARK   10  A    between atoms: N5_24  and  C13_27 
REMARK   11  A    between atoms: C13_27  and  C14_28 
REMARK   12  A    between atoms: C14_28  and  O2_29 
REMARK   13  A    between atoms: C17_33  and  C18_34 
ROOT
HETATM    1  N1  UNL     1      -1.600   0.490  -0.117  1.00  0.00    -0.380 N 
HETATM    2  C5  UNL     1      -1.883   0.704  -1.529  1.00  0.00     0.126 C 
HETATM    3  C6  UNL     1      -0.734   1.256  -2.255  1.00  0.00     0.064 C 
HETATM    4  C7  UNL     1       0.656   1.016  -1.665  1.00  0.00     0.158 C 
HETATM    5  C15 UNL     1       0.683  -0.183  -0.839  1.00  0.00     0.064 C 
HETATM    6  C16 UNL     1      -0.460  -0.374   0.115  1.00  0.00     0.126 C 
ENDROOT
BRANCH   4   7
HETATM    7  N2  UNL     1       1.074   2.243  -0.946  1.00  0.00    -0.066 N 
ATOM      8  H23 UNL     1       1.035   3.075  -1.534  1.00  0.00     0.275 HD
ATOM      9  H22 UNL     1       0.395   2.538  -0.244  1.00  0.00     0.275 HD
ATOM     10  H21 UNL     1       2.001   2.083  -0.552  1.00  0.00     0.275 HD
ENDBRANCH   4   7
BRANCH   4  11
HETATM   11  C8  UNL     1       1.607   0.957  -2.835  1.00  0.00     0.102 C 
BRANCH  11  12
HETATM   12  N3  UNL     1       2.966   0.799  -2.588  1.00  0.00    -0.337 N 
HETATM   13  C9  UNL     1       3.789  -0.217  -2.062  1.00  0.00     0.247 C 
HETATM   14  O1  UNL     1       3.442  -1.323  -1.663  1.00  0.00    -0.271 OA
ATOM     15  H3  UNL     1       3.502   1.625  -2.854  1.00  0.00     0.168 HD
BRANCH  13  16
HETATM   16  C10 UNL     1       5.275   0.072  -1.973  1.00  0.00     0.335 C 
BRANCH  16  17
HETATM   17  N4  UNL     1       5.998  -1.011  -1.413  1.00  0.00    -0.065 N 
ATOM     18  H42 UNL     1       5.707  -1.257  -0.467  1.00  0.00     0.277 HD
ATOM     19  H41 UNL     1       5.786  -1.914  -1.838  1.00  0.00     0.277 HD
BRANCH  17  20
HETATM   20  C11 UNL     1       7.418  -0.618  -1.520  1.00  0.00     0.260 C 
BRANCH  20  21
HETATM   21  C12 UNL     1       8.269  -1.670  -0.918  1.00  0.00     0.259 C 
BRANCH  21  22
HETATM   22  N5  UNL     1       8.080  -1.938   0.464  1.00  0.00    -0.072 N 
ATOM     23  H52 UNL     1       7.111  -2.195   0.655  1.00  0.00     0.277 HD
ATOM     24  H51 UNL     1       8.540  -2.808   0.731  1.00  0.00     0.277 HD
BRANCH  22  25
HETATM   25  C13 UNL     1       8.505  -0.842   1.325  1.00  0.00     0.258 C 
BRANCH  25  26
HETATM   26  C14 UNL     1       9.997  -0.654   1.324  1.00  0.00     0.191 C 
BRANCH  26  27
HETATM   27  O2  UNL     1      10.248   0.424   2.196  1.00  0.00    -0.399 OA
ATOM     28  H2  UNL     1      11.191   0.543   2.195  1.00  0.00     0.209 HD
ENDBRANCH  26  27
ENDBRANCH  25  26
ENDBRANCH  22  25
ENDBRANCH  21  22
ENDBRANCH  20  21
ENDBRANCH  17  20
ENDBRANCH  16  17
ENDBRANCH  13  16
ENDBRANCH  11  12
ENDBRANCH   4  11
BRANCH   1  29
HETATM   29  C4  UNL     1      -2.282   1.099   0.969  1.00  0.00     0.044 A 
HETATM   30  C3  UNL     1      -1.523   1.945   1.776  1.00  0.00     0.054 A 
HETATM   31  C2  UNL     1      -2.126   2.635   2.778  1.00  0.00     0.007 A 
HETATM   32  C1  UNL     1      -1.351   3.564   3.666  1.00  0.00     0.068 C 
HETATM   33  N6  UNL     1      -3.419   2.475   2.958  1.00  0.00    -0.363 N 
HETATM   34  C26 UNL     1      -4.200   1.630   2.166  1.00  0.00     0.018 A 
ATOM     35  H6  UNL     1      -3.873   2.992   3.711  1.00  0.00     0.165 HD
HETATM   36  C17 UNL     1      -3.656   0.912   1.141  1.00  0.00     0.019 A 
HETATM   37  C27 UNL     1      -5.586   1.472   2.585  1.00  0.00     0.069 C 
BRANCH  36  38
HETATM   38  C18 UNL     1      -4.427  -0.148   0.407  1.00  0.00    -0.048 C 
HETATM   39  C19 UNL     1      -5.725   0.220  -0.128  1.00  0.00    -0.019 C 
HETATM   40  C20 UNL     1      -7.038  -0.319   0.044  1.00  0.00     0.027 C 
HETATM   41  C21 UNL     1      -7.461  -1.582  -0.632  1.00  0.00     0.004 C 
HETATM   42  C22 UNL     1      -6.427  -2.342  -1.394  1.00  0.00     0.000 C 
HETATM   43  C23 UNL     1      -5.353  -2.973  -0.579  1.00  0.00     0.000 C 
HETATM   44  C24 UNL     1      -5.314  -2.525   0.848  1.00  0.00     0.005 C 
HETATM   45  C25 UNL     1      -4.300  -1.475   1.127  1.00  0.00     0.039 C 
ENDBRANCH  36  38
ENDBRANCH   1  29
TORSDOF 13
