REMARK  13 active torsions:
REMARK  status: ('A' for Active; 'I' for Inactive)
REMARK    1  A    between atoms: C2_2  and  C3_3 
REMARK    2  A    between atoms: C3_3  and  N1_4 
REMARK    3  A    between atoms: N1_4  and  C4_6 
REMARK    4  A    between atoms: C6_9  and  N3_10 
REMARK       I    between atoms: N3_10  and  C7_12 
REMARK    5  A    between atoms: C12_20  and  C13_21 
REMARK       I    between atoms: C13_21  and  N5_23 
REMARK    6  A    between atoms: N5_23  and  C14_25 
REMARK    7  A    between atoms: C14_25  and  C15_26 
REMARK    8  A    between atoms: C15_26  and  C16_27 
REMARK    9  A    between atoms: C16_27  and  C17_28 
REMARK   10  A    between atoms: N6_30  and  C19_31 
REMARK   11  A    between atoms: N7_34  and  C22_35 
REMARK   12  A    between atoms: C22_35  and  C23_36 
REMARK   13  A    between atoms: C23_36  and  N8_37 
ROOT
HETATM    1  C4  UNL     1      -1.556  -2.921   0.228  1.00  0.00     0.070 A 
HETATM    2  C5  UNL     1      -2.913  -2.861   0.340  1.00  0.00     0.117 A 
HETATM    3  N2  UNL     1      -3.695  -4.021   0.228  1.00  0.00    -0.096 NA
HETATM    4  C6  UNL     1      -3.505  -1.649   0.565  1.00  0.00     0.136 A 
HETATM    5  N4  UNL     1      -2.756  -0.543   0.672  1.00  0.00    -0.326 N 
ATOM      6  H4  UNL     1      -3.220   0.350   0.839  1.00  0.00     0.169 HD
HETATM    7  C9  UNL     1      -1.387  -0.567   0.565  1.00  0.00     0.127 A 
HETATM    8  C10 UNL     1      -0.792  -1.769   0.341  1.00  0.00     0.039 A 
HETATM    9  C11 UNL     1       0.542  -1.527   0.275  1.00  0.00     0.053 A 
HETATM   10  C12 UNL     1       0.772  -0.150   0.462  1.00  0.00     0.109 A 
HETATM   11  N6  UNL     1      -0.427   0.422   0.639  1.00  0.00    -0.297 N 
ENDROOT
BRANCH  11  12
HETATM   12  C19 UNL     1      -0.766   1.744   0.883  1.00  0.00     0.031 C 
HETATM   13  C20 UNL     1      -0.165   2.598   1.922  1.00  0.00     0.085 C 
HETATM   14  C21 UNL     1      -1.186   3.780   1.801  1.00  0.00     0.279 C 
HETATM   15  N7  UNL     1      -1.525   3.808   0.350  1.00  0.00     0.100 N 
HETATM   16  C24 UNL     1      -0.817   2.741  -0.255  1.00  0.00     0.265 C 
HETATM   17  C25 UNL     1      -1.283   2.174  -1.527  1.00  0.00     0.049 C 
BRANCH  15  18
HETATM   18  C22 UNL     1      -2.930   3.870   0.303  1.00  0.00     0.300 C 
BRANCH  18  19
HETATM   19  C23 UNL     1      -3.601   4.092  -1.012  1.00  0.00     0.259 C 
BRANCH  19  20
HETATM   20  N8  UNL     1      -3.129   5.346  -1.577  1.00  0.00    -0.078 N 
ATOM     21  H83 UNL     1      -3.255   6.132  -0.939  1.00  0.00     0.274 HD
ATOM     22  H82 UNL     1      -2.112   5.382  -1.648  1.00  0.00     0.274 HD
ATOM     23  H81 UNL     1      -3.587   5.498  -2.475  1.00  0.00     0.274 HD
ENDBRANCH  19  20
ENDBRANCH  18  19
ENDBRANCH  15  18
ENDBRANCH  11  12
BRANCH  10  24
HETATM   24  C13 UNL     1       2.111   0.385   0.462  1.00  0.00     0.268 C 
HETATM   25  O2  UNL     1       2.367   1.569   0.359  1.00  0.00    -0.266 OA
HETATM   26  N5  UNL     1       3.234  -0.482   0.592  1.00  0.00    -0.356 N 
ATOM     27  H5  UNL     1       3.066  -1.484   0.684  1.00  0.00     0.162 HD
BRANCH  26  28
HETATM   28  C14 UNL     1       4.601  -0.008   0.599  1.00  0.00     0.123 C 
BRANCH  28  29
HETATM   29  C15 UNL     1       5.016   0.696  -0.660  1.00  0.00     0.020 C 
BRANCH  29  30
HETATM   30  C16 UNL     1       6.455   1.136  -0.502  1.00  0.00     0.001 C 
BRANCH  30  31
HETATM   31  C17 UNL     1       7.417   0.023  -0.267  1.00  0.00    -0.004 C 
HETATM   32  C18 UNL     1       7.453  -0.999  -1.374  1.00  0.00     0.005 C 
ENDBRANCH  30  31
ENDBRANCH  29  30
ENDBRANCH  28  29
ENDBRANCH  26  28
ENDBRANCH  10  24
BRANCH   4  33
HETATM   33  N3  UNL     1      -4.800  -1.555   0.679  1.00  0.00    -0.312 N 
HETATM   34  C7  UNL     1      -5.387  -0.299   0.910  1.00  0.00     0.219 C 
HETATM   35  C8  UNL     1      -5.491   0.245   2.284  1.00  0.00     0.117 C 
HETATM   36  O1  UNL     1      -5.838   0.384  -0.069  1.00  0.00    -0.274 OA
ATOM     37  H3  UNL     1      -5.384  -2.388   0.601  1.00  0.00     0.170 HD
ENDBRANCH   4  33
BRANCH   1  38
HETATM   38  N1  UNL     1      -0.930  -4.170  -0.008  1.00  0.00    -0.384 N 
ATOM     39  H1  UNL     1      -0.643  -4.744   0.785  1.00  0.00     0.160 HD
BRANCH  38  40
HETATM   40  C3  UNL     1      -0.691  -4.645  -1.349  1.00  0.00     0.146 C 
BRANCH  40  41
HETATM   41  C2  UNL     1      -0.030  -5.975  -1.253  1.00  0.00    -0.018 C 
HETATM   42  C1  UNL     1      -0.583  -7.057  -1.774  1.00  0.00     0.008 C 
ENDBRANCH  40  41
ENDBRANCH  38  40
ENDBRANCH   1  38
TORSDOF 13
