REMARK  13 active torsions:
REMARK  status: ('A' for Active; 'I' for Inactive)
REMARK    1  A    between atoms: C2_2  and  C3_3 
REMARK    2  A    between atoms: C3_3  and  C4_4 
REMARK    3  A    between atoms: C12_12  and  O1_13 
REMARK    4  A    between atoms: N1_15  and  C13_16 
REMARK    5  A    between atoms: C13_16  and  C15_18 
REMARK    6  A    between atoms: C15_18  and  O2_19 
REMARK    7  A    between atoms: C19_24  and  C20_25 
REMARK    8  A    between atoms: C20_25  and  N2_26 
REMARK    9  A    between atoms: N2_26  and  O3_27 
REMARK       I    between atoms: N2_26  and  C21_29 
REMARK       I    between atoms: C21_29  and  N3_31 
REMARK   10  A    between atoms: N3_31  and  C22_33 
REMARK   11  A    between atoms: N4_39  and  C28_40 
REMARK   12  A    between atoms: C28_40  and  C30_42 
REMARK   13  A    between atoms: C30_42  and  O5_43 
ROOT
HETATM    1  C4  UNL     1      -4.308  -1.759   1.165  1.00  0.00    -0.050 A 
HETATM    2  C5  UNL     1      -3.570  -0.605   1.052  1.00  0.00     0.039 A 
HETATM    3  C6  UNL     1      -2.615  -0.370   0.030  1.00  0.00     0.061 A 
HETATM    4  C7  UNL     1      -2.411  -1.336  -0.899  1.00  0.00     0.049 A 
HETATM    5  C8  UNL     1      -3.191  -2.520  -0.757  1.00  0.00    -0.039 A 
HETATM    6  C9  UNL     1      -3.064  -3.658  -1.735  1.00  0.00     0.050 C 
HETATM    7  C10 UNL     1      -4.111  -2.733   0.237  1.00  0.00    -0.049 A 
HETATM    8  C11 UNL     1      -4.890  -4.032   0.278  1.00  0.00     0.049 C 
HETATM    9  C12 UNL     1      -1.521  -1.400  -2.053  1.00  0.00     0.151 C 
HETATM   10  N1  UNL     1      -0.143  -1.153  -2.233  1.00  0.00    -0.354 N 
HETATM   11  C16 UNL     1       0.808  -0.944  -1.126  1.00  0.00     0.130 C 
HETATM   12  C17 UNL     1       2.072  -0.264  -1.438  1.00  0.00     0.006 C 
HETATM   13  C18 UNL     1       3.222  -1.307  -1.549  1.00  0.00     0.012 C 
HETATM   14  C19 UNL     1       2.524   0.732  -0.333  1.00  0.00     0.016 C 
HETATM   15  C25 UNL     1       2.063   2.120  -0.543  1.00  0.00     0.002 C 
HETATM   16  C26 UNL     1       1.930   2.821   0.803  1.00  0.00     0.011 C 
HETATM   17  C27 UNL     1       0.876   2.394  -1.370  1.00  0.00     0.114 C 
HETATM   18  N4  UNL     1      -0.272   2.997  -0.737  1.00  0.00    -0.186 NA
HETATM   19  S1  UNL     1      -1.756   2.163  -0.980  1.00  0.00     0.305 S 
HETATM   20  O6  UNL     1      -2.054   1.810  -2.376  1.00  0.00    -0.188 OA
HETATM   21  O7  UNL     1      -2.840   3.214  -0.617  1.00  0.00    -0.188 OA
HETATM   22  N5  UNL     1      -2.009   0.915   0.167  1.00  0.00    -0.267 N 
HETATM   23  C31 UNL     1      -1.513   1.251   1.522  1.00  0.00     0.171 C 
ENDROOT
BRANCH  14  24
HETATM   24  C20 UNL     1       4.062   0.718  -0.315  1.00  0.00     0.166 C 
BRANCH  24  25
HETATM   25  N2  UNL     1       4.664   1.577   0.646  1.00  0.00    -0.210 N 
HETATM   26  C21 UNL     1       4.948   1.133   1.952  1.00  0.00     0.342 C 
HETATM   27  O4  UNL     1       5.485   1.953   2.773  1.00  0.00    -0.245 OA
HETATM   28  N3  UNL     1       4.689  -0.167   2.459  1.00  0.00    -0.337 N 
ATOM     29  H3  UNL     1       4.264  -0.852   1.834  1.00  0.00     0.164 HD
BRANCH  25  30
HETATM   30  O3  UNL     1       5.006   2.829   0.294  1.00  0.00    -0.283 OA
ATOM     31  H3  UNL     1       5.408   3.403   0.936  1.00  0.00     0.245 HD
ENDBRANCH  25  30
BRANCH  28  32
HETATM   32  C22 UNL     1       4.992  -0.570   3.802  1.00  0.00     0.078 C 
HETATM   33  C23 UNL     1       6.159  -1.567   3.818  1.00  0.00     0.032 C 
HETATM   34  C24 UNL     1       3.828  -1.210   4.519  1.00  0.00     0.032 C 
ENDBRANCH  28  32
ENDBRANCH  24  25
ENDBRANCH  14  24
BRANCH  10  35
HETATM   35  C13 UNL     1       0.449  -1.139  -3.543  1.00  0.00     0.105 C 
HETATM   36  C14 UNL     1       0.278  -2.559  -4.120  1.00  0.00     0.034 C 
BRANCH  35  37
HETATM   37  C15 UNL     1       0.011  -0.130  -4.549  1.00  0.00     0.189 C 
BRANCH  37  38
HETATM   38  O2  UNL     1      -1.277  -0.127  -4.971  1.00  0.00    -0.399 OA
ATOM     39  H2  UNL     1      -1.556   0.516  -5.612  1.00  0.00     0.209 HD
ENDBRANCH  37  38
ENDBRANCH  35  37
ENDBRANCH  10  35
BRANCH  18  40
HETATM   40  C28 UNL     1      -0.406   4.413  -1.029  1.00  0.00     0.095 C 
HETATM   41  C29 UNL     1      -1.273   5.159  -0.043  1.00  0.00     0.029 C 
BRANCH  40  42
HETATM   42  C30 UNL     1      -0.735   4.736  -2.446  1.00  0.00     0.184 C 
BRANCH  42  43
HETATM   43  O5  UNL     1      -0.831   6.150  -2.507  1.00  0.00    -0.399 OA
ATOM     44  H5  UNL     1      -1.041   6.356  -3.410  1.00  0.00     0.209 HD
ENDBRANCH  42  43
ENDBRANCH  40  42
ENDBRANCH  18  40
BRANCH   9  45
HETATM   45  O1  UNL     1      -2.116  -1.772  -3.165  1.00  0.00    -0.345 OA
ATOM     46  H1  UNL     1      -1.536  -1.814  -3.917  1.00  0.00     0.219 HD
ENDBRANCH   9  45
BRANCH   1  47
HETATM   47  C3  UNL     1      -5.293  -1.972   2.251  1.00  0.00     0.039 C 
BRANCH  47  48
HETATM   48  C2  UNL     1      -4.761  -2.889   3.328  1.00  0.00     0.000 C 
HETATM   49  C1  UNL     1      -5.758  -3.106   4.431  1.00  0.00     0.005 C 
ENDBRANCH  47  48
ENDBRANCH   1  47
TORSDOF 13
