REMARK  11 active torsions:
REMARK  status: ('A' for Active; 'I' for Inactive)
REMARK    1  A    between atoms: C3_3  and  N1_4 
REMARK       I    between atoms: N1_4  and  C4_6 
REMARK    2  A    between atoms: C4_6  and  C5_8 
REMARK    3  A    between atoms: C5_8  and  C7_10 
REMARK    4  A    between atoms: N2_15  and  C11_16 
REMARK    5  A    between atoms: C11_16  and  C13_18 
REMARK    6  A    between atoms: C13_18  and  O3_19 
REMARK    7  A    between atoms: C19_26  and  O4_27 
REMARK    8  A    between atoms: C22_32  and  C23_33 
REMARK    9  A    between atoms: C23_33  and  N3_34 
REMARK   10  A    between atoms: N3_34  and  S1_36 
REMARK   11  A    between atoms: S1_36  and  C25_39 
ROOT
HETATM    1  C1  UNL     1       0.562   1.160  -1.599  1.00  0.00     0.017 C 
HETATM    2  C2  UNL     1      -0.012   0.689  -0.516  1.00  0.00    -0.051 C 
HETATM    3  C3  UNL     1      -1.393   0.160  -0.655  1.00  0.00     0.206 C 
HETATM    4  C10 UNL     1      -1.645  -0.865  -1.635  1.00  0.00     0.247 C 
HETATM    5  O2  UNL     1      -1.479  -0.613  -2.882  1.00  0.00    -0.271 OA
HETATM    6  N2  UNL     1      -2.091  -2.226  -1.374  1.00  0.00    -0.343 N 
HETATM    7  C14 UNL     1      -1.843  -2.756  -0.083  1.00  0.00     0.131 C 
HETATM    8  C15 UNL     1      -1.322  -4.122   0.076  1.00  0.00     0.006 C 
HETATM    9  C16 UNL     1      -1.721  -4.612   1.485  1.00  0.00     0.012 C 
HETATM   10  C17 UNL     1       0.194  -4.217   0.071  1.00  0.00     0.018 C 
HETATM   11  C18 UNL     1       0.510  -5.671   0.448  1.00  0.00     0.013 C 
HETATM   12  C19 UNL     1       0.848  -3.335   1.065  1.00  0.00     0.150 C 
HETATM   13  C20 UNL     1       1.634  -2.194   0.382  1.00  0.00     0.147 C 
HETATM   14  C21 UNL     1       2.891  -2.890  -0.178  1.00  0.00     0.042 C 
HETATM   15  O5  UNL     1       1.900  -1.284   1.330  1.00  0.00    -0.377 OA
HETATM   16  C22 UNL     1       1.891   0.049   1.067  1.00  0.00     0.144 C 
HETATM   17  C31 UNL     1       0.583   0.696   0.833  1.00  0.00     0.042 C 
HETATM   18  C32 UNL     1       0.544   2.119   1.424  1.00  0.00     0.017 C 
ENDROOT
BRANCH  16  19
HETATM   19  C23 UNL     1       3.057   0.554   0.250  1.00  0.00     0.139 C 
BRANCH  19  20
HETATM   20  N3  UNL     1       4.321   0.306   0.905  1.00  0.00    -0.208 NA
HETATM   21  C24 UNL     1       5.327   0.141  -0.143  1.00  0.00     0.129 C 
BRANCH  20  22
HETATM   22  S1  UNL     1       4.875   1.592   1.894  1.00  0.00     0.243 S 
HETATM   23  O6  UNL     1       6.196   1.259   2.539  1.00  0.00    -0.206 OA
HETATM   24  O7  UNL     1       3.871   1.992   2.947  1.00  0.00    -0.206 OA
BRANCH  22  25
HETATM   25  C25 UNL     1       5.122   3.004   0.895  1.00  0.00     0.074 A 
HETATM   26  C26 UNL     1       4.167   3.975   0.681  1.00  0.00     0.026 A 
HETATM   27  C27 UNL     1       4.409   5.061  -0.110  1.00  0.00     0.025 A 
HETATM   28  C28 UNL     1       5.648   5.179  -0.707  1.00  0.00     0.034 A 
HETATM   29 CL1  UNL     1       5.967   6.555  -1.718  1.00  0.00    -0.084 Cl
HETATM   30  C29 UNL     1       6.620   4.208  -0.500  1.00  0.00     0.025 A 
HETATM   31  C30 UNL     1       6.375   3.123   0.292  1.00  0.00     0.026 A 
ENDBRANCH  22  25
ENDBRANCH  20  22
ENDBRANCH  19  20
ENDBRANCH  16  19
BRANCH  12  32
HETATM   32  O4  UNL     1       1.833  -4.038   1.796  1.00  0.00    -0.393 OA
ATOM     33  H4  UNL     1       2.252  -3.472   2.434  1.00  0.00     0.210 HD
ENDBRANCH  12  32
BRANCH   3  34
HETATM   34  N1  UNL     1      -2.202   1.339  -0.985  1.00  0.00    -0.344 N 
HETATM   35  C4  UNL     1      -3.218   1.840  -0.137  1.00  0.00     0.222 C 
HETATM   36  O1  UNL     1      -3.431   1.244   0.944  1.00  0.00    -0.273 OA
ATOM     37  H1  UNL     1      -2.024   1.820  -1.867  1.00  0.00     0.163 HD
BRANCH  35  38
HETATM   38  C5  UNL     1      -4.033   3.025  -0.466  1.00  0.00     0.077 C 
HETATM   39  C6  UNL     1      -3.171   4.267  -0.668  1.00  0.00     0.020 C 
BRANCH  38  40
HETATM   40  C7  UNL     1      -5.000   3.337   0.645  1.00  0.00    -0.010 C 
HETATM   41  C8  UNL     1      -5.801   4.560   0.238  1.00  0.00     0.010 C 
HETATM   42  C9  UNL     1      -4.323   3.642   1.955  1.00  0.00     0.010 C 
ENDBRANCH  38  40
ENDBRANCH  35  38
ENDBRANCH   3  34
BRANCH   6  43
HETATM   43  C11 UNL     1      -2.784  -2.905  -2.455  1.00  0.00     0.106 C 
HETATM   44  C12 UNL     1      -1.977  -4.047  -3.064  1.00  0.00     0.034 C 
BRANCH  43  45
HETATM   45  C13 UNL     1      -4.172  -3.333  -2.104  1.00  0.00     0.189 C 
BRANCH  45  46
HETATM   46  O3  UNL     1      -5.004  -2.288  -1.753  1.00  0.00    -0.399 OA
ATOM     47  H3  UNL     1      -5.886  -2.560  -1.530  1.00  0.00     0.209 HD
ENDBRANCH  45  46
ENDBRANCH  43  45
ENDBRANCH   6  43
TORSDOF 11
