REMARK  11 active torsions:
REMARK  status: ('A' for Active; 'I' for Inactive)
REMARK    1  A    between atoms: C2_2  and  C3_3 
REMARK    2  A    between atoms: C3_3  and  C4_4 
REMARK    3  A    between atoms: C5_7  and  O1_8 
REMARK    4  A    between atoms: C6_10  and  C7_11 
REMARK    5  A    between atoms: C7_11  and  C8_12 
REMARK    6  A    between atoms: N2_15  and  S1_16 
REMARK    7  A    between atoms: S1_16  and  C11_19 
REMARK    8  A    between atoms: C16_27  and  C17_28 
REMARK    9  A    between atoms: C26_42  and  C27_43 
REMARK   10  A    between atoms: C27_43  and  C29_45 
REMARK   11  A    between atoms: C31_47  and  O8_48 
ROOT
HETATM    1  C4  UNL     1       1.527  -1.511   1.043  1.00  0.00     0.114 C 
HETATM    2  N1  UNL     1       0.180  -1.830   1.301  1.00  0.00    -0.365 N 
ATOM      3  H1  UNL     1       0.019  -1.922   2.304  1.00  0.00     0.161 HD
HETATM    4  C5  UNL     1      -0.994  -2.056   0.594  1.00  0.00     0.138 C 
HETATM    5  C6  UNL     1      -1.872  -1.125  -0.161  1.00  0.00     0.195 C 
HETATM    6  N2  UNL     1      -2.720  -0.355   0.637  1.00  0.00    -0.198 N 
HETATM    7  N3  UNL     1      -3.237   0.821   0.215  1.00  0.00    -0.251 N 
HETATM    8  C14 UNL     1      -4.534   0.751  -0.505  1.00  0.00     0.182 C 
HETATM    9  C15 UNL     1      -2.763   2.125   0.405  1.00  0.00     0.261 C 
HETATM   10  O4  UNL     1      -3.529   3.016   0.948  1.00  0.00    -0.269 OA
HETATM   11  C16 UNL     1      -1.407   2.689   0.050  1.00  0.00     0.181 C 
HETATM   12  N4  UNL     1      -0.999   3.439   1.208  1.00  0.00    -0.347 N 
ATOM     13  H4  UNL     1      -1.683   4.123   1.530  1.00  0.00     0.163 HD
HETATM   14  C20 UNL     1       0.175   3.392   1.969  1.00  0.00     0.223 C 
HETATM   15  O5  UNL     1      -0.002   3.012   3.198  1.00  0.00    -0.273 OA
HETATM   16  C21 UNL     1       1.562   3.698   1.626  1.00  0.00     0.087 C 
HETATM   17  C22 UNL     1       1.703   5.166   1.253  1.00  0.00     0.020 C 
HETATM   18  C23 UNL     1       2.240   2.773   0.654  1.00  0.00     0.094 C 
HETATM   19  C24 UNL     1       3.300   3.636  -0.056  1.00  0.00     0.021 C 
HETATM   20  C25 UNL     1       3.000   1.705   1.341  1.00  0.00     0.264 C 
HETATM   21  O6  UNL     1       3.503   2.009   2.449  1.00  0.00    -0.265 OA
HETATM   22  O7  UNL     1       3.143   0.477   0.805  1.00  0.00    -0.313 OA
HETATM   23  C26 UNL     1       2.850  -0.020  -0.471  1.00  0.00     0.166 C 
HETATM   24  C31 UNL     1       1.973  -1.224  -0.341  1.00  0.00     0.170 C 
ENDROOT
BRANCH   6  25
HETATM   25  S1  UNL     1      -3.403  -0.863   2.046  1.00  0.00     0.271 S 
HETATM   26  O2  UNL     1      -2.573  -1.171   3.214  1.00  0.00    -0.200 OA
HETATM   27  O3  UNL     1      -4.372   0.223   2.530  1.00  0.00    -0.200 OA
BRANCH  25  28
HETATM   28  C11 UNL     1      -4.454  -2.247   1.755  1.00  0.00     0.170 C 
HETATM   29  C12 UNL     1      -4.469  -3.290   2.562  1.00  0.00     0.102 C 
HETATM   30  C13 UNL     1      -5.370  -4.428   2.274  1.00  0.00     0.082 C 
HETATM   31  F1  UNL     1      -3.655  -3.295   3.641  1.00  0.00    -0.211 F 
ENDBRANCH  25  28
ENDBRANCH   6  25
BRANCH   5  32
HETATM   32  C7  UNL     1      -2.661  -1.881  -1.190  1.00  0.00     0.040 C 
BRANCH  32  33
HETATM   33  C8  UNL     1      -1.897  -2.583  -2.257  1.00  0.00    -0.020 C 
HETATM   34  C9  UNL     1      -1.102  -1.646  -3.100  1.00  0.00     0.009 C 
HETATM   35  C10 UNL     1      -2.784  -3.494  -3.091  1.00  0.00     0.009 C 
ENDBRANCH  32  33
ENDBRANCH   5  32
BRANCH   4  36
HETATM   36  O1  UNL     1      -1.456  -3.275   0.556  1.00  0.00    -0.348 OA
ATOM     37  H1  UNL     1      -2.259  -3.430   0.072  1.00  0.00     0.219 HD
ENDBRANCH   4  36
BRANCH  11  38
HETATM   38  C17 UNL     1      -1.671   3.527  -1.187  1.00  0.00     0.009 C 
HETATM   39  C18 UNL     1      -2.658   4.609  -0.909  1.00  0.00     0.012 C 
HETATM   40  C19 UNL     1      -0.411   4.070  -1.829  1.00  0.00     0.012 C 
ENDBRANCH  11  38
BRANCH   1  41
HETATM   41  C3  UNL     1       2.445  -2.566   1.697  1.00  0.00     0.027 C 
BRANCH  41  42
HETATM   42  C2  UNL     1       2.272  -2.633   3.173  1.00  0.00    -0.002 C 
HETATM   43  C1  UNL     1       3.262  -3.707   3.671  1.00  0.00     0.005 C 
ENDBRANCH  41  42
ENDBRANCH   1  41
BRANCH  24  44
HETATM   44  O8  UNL     1       2.631  -2.409  -0.763  1.00  0.00    -0.391 OA
ATOM     45  H8  UNL     1       2.917  -2.225  -1.650  1.00  0.00     0.210 HD
ENDBRANCH  24  44
BRANCH  23  46
HETATM   46  C27 UNL     1       4.066  -0.163  -1.336  1.00  0.00     0.013 C 
HETATM   47  C28 UNL     1       5.121  -1.109  -0.821  1.00  0.00     0.012 C 
BRANCH  46  48
HETATM   48  C29 UNL     1       3.884  -0.102  -2.792  1.00  0.00     0.002 C 
HETATM   49  C30 UNL     1       3.034  -1.075  -3.490  1.00  0.00     0.005 C 
ENDBRANCH  46  48
ENDBRANCH  23  46
TORSDOF 11
