REMARK  10 active torsions:
REMARK  status: ('A' for Active; 'I' for Inactive)
REMARK    1  A    between atoms: C2_2  and  C3_3 
REMARK    2  A    between atoms: C8_8  and  N1_9 
REMARK    3  A    between atoms: C8_8  and  C25_36 
REMARK       I    between atoms: N1_9  and  C9_11 
REMARK    4  A    between atoms: C9_11  and  C10_13 
REMARK    5  A    between atoms: C12_16  and  C14_18 
REMARK    6  A    between atoms: N2_20  and  C15_21 
REMARK    7  A    between atoms: C15_21  and  O2_22 
REMARK    8  A    between atoms: C16_24  and  N3_25 
REMARK    9  A    between atoms: C16_24  and  C19_30 
REMARK       I    between atoms: N3_25  and  C17_27 
REMARK       I    between atoms: C25_36  and  N4_38 
REMARK   10  A    between atoms: N4_38  and  C26_40 
ROOT
HETATM    1  N1  UNL     1      -1.514  -0.020   0.031  1.00  0.00    -0.341 N 
ATOM      2  H1  UNL     1      -1.551   0.566   0.865  1.00  0.00     0.163 HD
HETATM    3  C9  UNL     1      -0.191  -0.389  -0.195  1.00  0.00     0.242 C 
HETATM    4  O1  UNL     1       0.092  -1.160  -1.118  1.00  0.00    -0.271 OA
ENDROOT
BRANCH   3   5
HETATM    5  C10 UNL     1       0.785   0.197   0.697  1.00  0.00     0.189 C 
HETATM    6  C11 UNL     1       0.684   1.778   0.468  1.00  0.00     0.111 C 
HETATM    7  S1  UNL     1       1.457   2.150   2.068  1.00  0.00    -0.134 SA
HETATM    8  C12 UNL     1       2.480   0.604   2.113  1.00  0.00     0.093 C 
HETATM    9  C13 UNL     1       1.903  -0.391   3.119  1.00  0.00     0.052 C 
HETATM   10  N2  UNL     1       2.187   0.027   0.770  1.00  0.00    -0.327 N 
BRANCH   8  11
HETATM   11  C14 UNL     1       3.798   1.062   2.484  1.00  0.00     0.157 C 
HETATM   12 CL1  UNL     1       3.556   1.884   4.121  1.00  0.00    -0.127 Cl
ENDBRANCH   8  11
BRANCH  10  13
HETATM   13  C15 UNL     1       3.089  -0.653  -0.069  1.00  0.00     0.164 C 
HETATM   14  C16 UNL     1       4.520  -0.784  -0.240  1.00  0.00     0.067 C 
BRANCH  13  15
HETATM   15  O2  UNL     1       2.458  -1.417  -0.965  1.00  0.00    -0.345 OA
ATOM     16  H2  UNL     1       3.067  -1.876  -1.531  1.00  0.00     0.219 HD
ENDBRANCH  13  15
BRANCH  14  17
HETATM   17  N3  UNL     1       5.138  -1.596   0.802  1.00  0.00    -0.327 N 
HETATM   18  C17 UNL     1       4.841  -2.942   1.078  1.00  0.00     0.218 C 
HETATM   19  C18 UNL     1       5.487  -3.712   2.153  1.00  0.00     0.117 C 
HETATM   20  O3  UNL     1       3.963  -3.536   0.369  1.00  0.00    -0.274 OA
ATOM     21  H3  UNL     1       5.848  -1.148   1.381  1.00  0.00     0.168 HD
ENDBRANCH  14  17
BRANCH  14  22
HETATM   22  C19 UNL     1       5.325   0.141  -1.010  1.00  0.00     0.040 C 
HETATM   23  C20 UNL     1       6.802  -0.262  -1.042  1.00  0.00     0.011 C 
HETATM   24  C21 UNL     1       7.737   0.827  -0.632  1.00  0.00     0.001 C 
HETATM   25  C22 UNL     1       7.584   2.079  -1.469  1.00  0.00     0.000 C 
HETATM   26  C23 UNL     1       6.148   2.259  -1.896  1.00  0.00     0.001 C 
HETATM   27  C24 UNL     1       5.290   1.601  -0.805  1.00  0.00     0.011 C 
ENDBRANCH  14  22
ENDBRANCH  10  13
ENDBRANCH   3   5
BRANCH   1  28
HETATM   28  C8  UNL     1      -2.845  -0.167  -0.487  1.00  0.00     0.117 C 
HETATM   29  C6  UNL     1      -3.224   0.418  -1.743  1.00  0.00     0.020 C 
HETATM   30  C5  UNL     1      -2.825  -0.506  -2.952  1.00  0.00     0.013 C 
HETATM   31  C7  UNL     1      -4.648   0.726  -2.089  1.00  0.00     0.013 C 
HETATM   32  C4  UNL     1      -3.872  -1.557  -2.949  1.00  0.00    -0.001 A 
HETATM   33  C3  UNL     1      -3.594  -3.026  -2.798  1.00  0.00     0.016 A 
HETATM   34  C32 UNL     1      -3.994  -2.177  -1.606  1.00  0.00     0.001 A 
HETATM   35  C31 UNL     1      -2.903  -1.719  -0.711  1.00  0.00     0.047 C 
BRANCH  33  36
HETATM   36  C2  UNL     1      -4.628  -3.863  -3.513  1.00  0.00    -0.031 C 
HETATM   37  C1  UNL     1      -4.806  -3.662  -4.824  1.00  0.00     0.007 C 
ENDBRANCH  33  36
BRANCH  28  38
HETATM   38  C25 UNL     1      -3.769  -0.011   0.710  1.00  0.00     0.247 C 
HETATM   39  O4  UNL     1      -3.746  -0.824   1.669  1.00  0.00    -0.271 OA
HETATM   40  N4  UNL     1      -4.708   1.060   0.871  1.00  0.00    -0.347 N 
ATOM     41  H4  UNL     1      -4.777   1.771   0.143  1.00  0.00     0.163 HD
BRANCH  40  42
HETATM   42  C26 UNL     1      -5.564   1.164   2.039  1.00  0.00     0.158 C 
HETATM   43  C27 UNL     1      -7.022   1.230   1.766  1.00  0.00     0.059 C 
HETATM   44  C28 UNL     1      -7.579   2.575   2.135  1.00  0.00     0.170 C 
HETATM   45  O5  UNL     1      -7.296   2.797   3.490  1.00  0.00    -0.384 OA
HETATM   46  C29 UNL     1      -5.956   3.236   3.589  1.00  0.00     0.248 C 
HETATM   47  C30 UNL     1      -5.083   2.397   2.764  1.00  0.00     0.172 C 
HETATM   48  O6  UNL     1      -3.914   2.695   2.642  1.00  0.00    -0.293 OA
ENDBRANCH  40  42
ENDBRANCH  28  38
ENDBRANCH   1  28
TORSDOF 10
