REMARK  11 active torsions:
REMARK  status: ('A' for Active; 'I' for Inactive)
REMARK    1  A    between atoms: C2_2  and  C3_3 
REMARK    2  A    between atoms: C3_3  and  C5_5 
REMARK    3  A    between atoms: C7_7  and  C8_8 
REMARK       I    between atoms: C8_8  and  N1_10 
REMARK    4  A    between atoms: N1_10  and  C9_12 
REMARK    5  A    between atoms: C9_12  and  C10_13 
REMARK    6  A    between atoms: C9_12  and  C12_17 
REMARK    7  A    between atoms: C10_13  and  C11_15 
REMARK    8  A    between atoms: C18_23  and  O3_24 
REMARK    9  A    between atoms: C19_28  and  C20_29 
REMARK   10  A    between atoms: C20_29  and  C21_30 
REMARK   11  A    between atoms: C25_36  and  C26_37 
ROOT
HETATM    1  C5  UNL     1      -0.345  -2.517  -0.756  1.00  0.00     0.089 C 
HETATM    2  C6  UNL     1      -1.242  -1.422  -1.167  1.00  0.00     0.044 C 
HETATM    3  C7  UNL     1      -1.512  -0.205  -0.455  1.00  0.00     0.113 C 
HETATM    4  C16 UNL     1      -1.286   0.040   0.942  1.00  0.00    -0.020 C 
HETATM    5  C17 UNL     1      -1.499  -1.076   1.933  1.00  0.00     0.049 C 
HETATM    6  C18 UNL     1      -0.120   0.814   1.421  1.00  0.00     0.139 C 
HETATM    7  N2  UNL     1       1.119   1.135   0.893  1.00  0.00    -0.357 N 
ATOM      8  H2  UNL     1       1.859   1.168   1.594  1.00  0.00     0.162 HD
HETATM    9  C19 UNL     1       1.579   1.430  -0.426  1.00  0.00     0.183 C 
HETATM   10  C24 UNL     1       3.095   1.288  -0.539  1.00  0.00     0.282 C 
HETATM   11  O4  UNL     1       3.469   1.607  -1.733  1.00  0.00    -0.263 OA
HETATM   12  O5  UNL     1       3.968   0.914   0.364  1.00  0.00    -0.304 OA
HETATM   13  C25 UNL     1       4.427  -0.191   1.035  1.00  0.00     0.227 C 
HETATM   14  C29 UNL     1       4.777  -1.367   0.209  1.00  0.00     0.250 C 
HETATM   15  O6  UNL     1       5.636  -1.093  -0.718  1.00  0.00    -0.270 OA
HETATM   16  N3  UNL     1       4.317  -2.684   0.300  1.00  0.00    -0.341 N 
HETATM   17  C30 UNL     1       5.347  -3.754   0.303  1.00  0.00     0.153 C 
HETATM   18  C31 UNL     1       2.938  -3.138   0.379  1.00  0.00     0.174 C 
HETATM   19  C32 UNL     1       2.265  -2.668   1.626  1.00  0.00     0.042 C 
HETATM   20  C33 UNL     1       2.214  -2.915  -0.887  1.00  0.00     0.240 C 
HETATM   21  O7  UNL     1       2.899  -3.432  -1.857  1.00  0.00    -0.271 OA
HETATM   22  N4  UNL     1       1.041  -2.312  -1.230  1.00  0.00    -0.354 N 
ATOM     23  H4  UNL     1       1.136  -1.588  -1.943  1.00  0.00     0.162 HD
ENDROOT
BRANCH   3  24
HETATM   24  C8  UNL     1      -2.968   0.235  -0.838  1.00  0.00     0.230 C 
HETATM   25  O1  UNL     1      -3.620  -0.591  -1.522  1.00  0.00    -0.272 OA
HETATM   26  N1  UNL     1      -3.455   1.444  -0.432  1.00  0.00    -0.326 N 
ATOM     27  H1  UNL     1      -2.706   1.890   0.097  1.00  0.00     0.168 HD
BRANCH  26  28
HETATM   28  C9  UNL     1      -4.536   2.347  -0.422  1.00  0.00     0.067 C 
BRANCH  28  29
HETATM   29  C10 UNL     1      -4.243   3.628   0.238  1.00  0.00     0.186 C 
HETATM   30  O2  UNL     1      -3.114   3.720   0.758  1.00  0.00    -0.290 OA
BRANCH  29  31
HETATM   31  C11 UNL     1      -5.089   4.793   0.358  1.00  0.00     0.199 C 
HETATM   32 CL1  UNL     1      -4.118   6.142   1.145  1.00  0.00    -0.122 Cl
ENDBRANCH  29  31
ENDBRANCH  28  29
BRANCH  28  33
HETATM   33  C12 UNL     1      -5.844   1.700  -0.147  1.00  0.00    -0.005 C 
HETATM   34  C13 UNL     1      -6.256   0.786  -1.279  1.00  0.00     0.021 C 
HETATM   35  C14 UNL     1      -5.614   0.747   1.053  1.00  0.00     0.021 C 
HETATM   36  C15 UNL     1      -7.020   2.572   0.132  1.00  0.00     0.021 C 
ENDBRANCH  28  33
ENDBRANCH  26  28
ENDBRANCH   3  24
BRANCH   1  37
HETATM   37  C3  UNL     1      -0.882  -3.859  -1.078  1.00  0.00     0.004 C 
HETATM   38  C4  UNL     1      -0.122  -4.985  -0.347  1.00  0.00     0.012 C 
BRANCH  37  39
HETATM   39  C2  UNL     1      -1.166  -4.344  -2.408  1.00  0.00     0.002 C 
HETATM   40  C1  UNL     1      -1.896  -3.544  -3.412  1.00  0.00     0.005 C 
ENDBRANCH  37  39
ENDBRANCH   1  37
BRANCH   6  41
HETATM   41  O3  UNL     1      -0.324   1.294   2.616  1.00  0.00    -0.346 OA
ATOM     42  H3  UNL     1       0.425   1.791   2.924  1.00  0.00     0.219 HD
ENDBRANCH   6  41
BRANCH   9  43
HETATM   43  C20 UNL     1       1.240   2.775  -0.980  1.00  0.00     0.039 C 
BRANCH  43  44
HETATM   44  C21 UNL     1       1.766   3.965  -0.268  1.00  0.00    -0.020 C 
HETATM   45  C22 UNL     1       1.265   5.179  -1.084  1.00  0.00     0.009 C 
HETATM   46  C23 UNL     1       1.175   4.173   1.106  1.00  0.00     0.009 C 
ENDBRANCH  43  44
ENDBRANCH   9  43
BRANCH  13  47
HETATM   47  C26 UNL     1       5.733   0.302   1.716  1.00  0.00     0.016 C 
HETATM   48  C27 UNL     1       6.737   0.779   0.717  1.00  0.00     0.012 C 
HETATM   49  C28 UNL     1       6.381  -0.775   2.531  1.00  0.00     0.012 C 
ENDBRANCH  13  47
TORSDOF 11
