REMARK  10 active torsions:
REMARK  status: ('A' for Active; 'I' for Inactive)
REMARK    1  A    between atoms: C2_2  and  C3_3 
REMARK    2  A    between atoms: C3_3  and  C5_5 
REMARK    3  A    between atoms: C12_18  and  O3_19 
REMARK    4  A    between atoms: O3_19  and  C13_20 
REMARK    5  A    between atoms: C20_28  and  O4_29 
REMARK    6  A    between atoms: C21_31  and  O5_32 
REMARK    7  A    between atoms: C22_34  and  C23_35 
REMARK    8  A    between atoms: C23_35  and  C24_36 
REMARK    9  A    between atoms: C28_43  and  C29_44 
REMARK   10  A    between atoms: C29_44  and  C30_45 
ROOT
HETATM    1  C5  UNL     1      -2.150  -2.127   0.091  1.00  0.00     0.188 C 
HETATM    2  N1  UNL     1      -1.219  -3.200   0.293  1.00  0.00    -0.345 N 
ATOM      3  H1  UNL     1      -1.405  -4.034  -0.264  1.00  0.00     0.163 HD
HETATM    4  C6  UNL     1      -0.117  -3.292   1.113  1.00  0.00     0.246 C 
HETATM    5  O1  UNL     1      -0.090  -4.216   2.010  1.00  0.00    -0.271 OA
HETATM    6  C7  UNL     1       1.125  -2.431   1.114  1.00  0.00     0.106 C 
HETATM    7  C8  UNL     1       2.338  -3.376   1.305  1.00  0.00     0.048 C 
HETATM    8  C9  UNL     1       1.083  -1.618   2.356  1.00  0.00     0.048 C 
HETATM    9  N2  UNL     1       1.350  -1.764  -0.116  1.00  0.00    -0.342 N 
ATOM     10  H2  UNL     1       1.343  -2.398  -0.915  1.00  0.00     0.163 HD
HETATM   11  C10 UNL     1       1.577  -0.447  -0.479  1.00  0.00     0.244 C 
HETATM   12  O2  UNL     1       0.757   0.015  -1.367  1.00  0.00    -0.271 OA
HETATM   13  C11 UNL     1       2.584   0.515  -0.031  1.00  0.00     0.207 C 
HETATM   14  C12 UNL     1       3.923   0.205  -0.719  1.00  0.00     0.155 C 
HETATM   15  C18 UNL     1       3.497   0.477  -2.154  1.00  0.00     0.054 C 
HETATM   16  C19 UNL     1       2.641   1.711  -2.073  1.00  0.00     0.129 C 
HETATM   17  N3  UNL     1       2.387   1.843  -0.620  1.00  0.00    -0.344 N 
HETATM   18  C20 UNL     1       2.069   3.034   0.058  1.00  0.00     0.171 C 
HETATM   19  C21 UNL     1       0.965   3.424   0.859  1.00  0.00     0.116 C 
HETATM   20  C22 UNL     1      -0.470   3.066   0.776  1.00  0.00     0.146 C 
HETATM   21  N4  UNL     1      -0.729   1.832   1.474  1.00  0.00    -0.348 N 
ATOM     22  H4  UNL     1       0.116   1.318   1.722  1.00  0.00     0.163 HD
HETATM   23  C27 UNL     1      -1.892   1.209   1.873  1.00  0.00     0.247 C 
HETATM   24  O6  UNL     1      -2.010   0.890   3.124  1.00  0.00    -0.271 OA
HETATM   25  C28 UNL     1      -3.097   0.811   1.108  1.00  0.00     0.224 C 
HETATM   26  O7  UNL     1      -3.511  -0.514   1.514  1.00  0.00    -0.305 OA
HETATM   27  C33 UNL     1      -2.801  -1.652   1.351  1.00  0.00     0.283 C 
HETATM   28  O8  UNL     1      -2.646  -2.433   2.353  1.00  0.00    -0.263 OA
ENDROOT
BRANCH  14  29
HETATM   29  O3  UNL     1       4.439  -1.021  -0.489  1.00  0.00    -0.378 OA
BRANCH  29  30
HETATM   30  C13 UNL     1       5.735  -0.919   0.013  1.00  0.00     0.122 C 
HETATM   31  C14 UNL     1       5.998  -1.657   1.276  1.00  0.00     0.032 C 
HETATM   32  C15 UNL     1       7.393  -2.293   1.078  1.00  0.00     0.002 C 
HETATM   33  C16 UNL     1       7.241  -2.732  -0.374  1.00  0.00     0.002 C 
HETATM   34  C17 UNL     1       6.665  -1.508  -1.024  1.00  0.00     0.032 C 
ENDBRANCH  29  30
ENDBRANCH  14  29
BRANCH  18  35
HETATM   35  O4  UNL     1       2.983   3.974  -0.080  1.00  0.00    -0.344 OA
ATOM     36  H4  UNL     1       2.768   4.778   0.378  1.00  0.00     0.219 HD
ENDBRANCH  18  35
BRANCH  19  37
HETATM   37  O5  UNL     1       1.252   4.233   1.836  1.00  0.00    -0.359 OA
ATOM     38  H5  UNL     1       0.513   4.494   2.372  1.00  0.00     0.217 HD
ENDBRANCH  19  37
BRANCH  20  39
HETATM   39  C23 UNL     1      -1.104   3.198  -0.564  1.00  0.00     0.036 C 
BRANCH  39  40
HETATM   40  C24 UNL     1      -1.144   4.546  -1.179  1.00  0.00    -0.020 C 
HETATM   41  C25 UNL     1      -1.903   5.547  -0.293  1.00  0.00     0.009 C 
HETATM   42  C26 UNL     1       0.091   5.096  -1.768  1.00  0.00     0.009 C 
ENDBRANCH  39  40
ENDBRANCH  20  39
BRANCH   1  43
HETATM   43  C3  UNL     1      -3.263  -2.413  -0.851  1.00  0.00     0.014 C 
HETATM   44  C4  UNL     1      -2.875  -2.419  -2.314  1.00  0.00     0.012 C 
BRANCH  43  45
HETATM   45  C2  UNL     1      -4.199  -3.512  -0.521  1.00  0.00     0.002 C 
HETATM   46  C1  UNL     1      -3.781  -4.906  -0.761  1.00  0.00     0.005 C 
ENDBRANCH  43  45
ENDBRANCH   1  43
BRANCH  25  47
HETATM   47  C29 UNL     1      -4.277   1.703   1.455  1.00  0.00     0.046 C 
BRANCH  47  48
HETATM   48  C30 UNL     1      -5.461   1.259   0.649  1.00  0.00    -0.020 C 
HETATM   49  C31 UNL     1      -5.284   1.336  -0.826  1.00  0.00     0.009 C 
HETATM   50  C32 UNL     1      -6.710   2.020   1.046  1.00  0.00     0.009 C 
ENDBRANCH  47  48
ENDBRANCH  25  47
TORSDOF 10
