REMARK  8 active torsions:
REMARK  status: ('A' for Active; 'I' for Inactive)
REMARK    1  A    between atoms: O1_2  and  C2_3 
REMARK    2  A    between atoms: C2_3  and  C3_5 
REMARK    3  A    between atoms: C3_5  and  S1_6 
REMARK    4  A    between atoms: S1_6  and  C4_7 
REMARK    5  A    between atoms: N3_13  and  C6_15 
REMARK    6  A    between atoms: C6_15  and  S2_19 
REMARK    7  A    between atoms: S2_19  and  C7_20 
REMARK    8  A    between atoms: C7_20  and  C8_21 
ROOT
HETATM    1  C4  UNL     1       3.561  -1.592  -1.227  1.00  0.00     0.130 A 
HETATM    2  N1  UNL     1       3.024  -1.030  -0.167  1.00  0.00    -0.286 N 
ATOM      3  H1  UNL     1       3.612  -0.545   0.510  1.00  0.00     0.188 HD
HETATM    4  N2  UNL     1       1.790  -1.094   0.005  1.00  0.00    -0.278 N 
ATOM      5  H2  UNL     1       1.365  -0.654   0.821  1.00  0.00     0.189 HD
HETATM    6  C5  UNL     1       0.999  -1.762  -0.911  1.00  0.00     0.167 A 
HETATM    7  N3  UNL     1      -0.234  -1.965  -0.922  1.00  0.00    -0.316 N 
ATOM      8  H3  UNL     1      -0.528  -2.491  -1.745  1.00  0.00     0.170 HD
HETATM    9  S3  UNL     1       2.230  -2.261  -2.026  1.00  0.00    -0.026 SA
ENDROOT
BRANCH   7  10
HETATM   10  C6  UNL     1      -1.292  -1.657  -0.104  1.00  0.00     0.140 C 
HETATM   11  N4  UNL     1      -1.064  -1.775   1.224  1.00  0.00    -0.380 N 
ATOM     12  H42 UNL     1      -0.142  -1.985   1.608  1.00  0.00     0.158 HD
ATOM     13  H41 UNL     1      -1.850  -1.546   1.832  1.00  0.00     0.158 HD
BRANCH  10  14
HETATM   14  S2  UNL     1      -2.887  -1.294  -0.768  1.00  0.00    -0.090 SA
BRANCH  14  15
HETATM   15  C7  UNL     1      -4.054  -1.007   0.673  1.00  0.00     0.124 C 
BRANCH  15  16
HETATM   16  C8  UNL     1      -4.813   0.210   0.337  1.00  0.00    -0.005 A 
HETATM   17  C9  UNL     1      -4.961   1.199   1.276  1.00  0.00     0.042 A 
HETATM   18 CL1  UNL     1      -3.966   1.096   2.749  1.00  0.00    -0.084 Cl
HETATM   19  C10 UNL     1      -5.797   2.311   1.109  1.00  0.00     0.024 A 
HETATM   20  C11 UNL     1      -6.486   2.366  -0.109  1.00  0.00     0.003 A 
HETATM   21  C12 UNL     1      -6.342   1.385  -1.047  1.00  0.00     0.024 A 
HETATM   22  C13 UNL     1      -5.508   0.313  -0.820  1.00  0.00     0.042 A 
HETATM   23 CL2  UNL     1      -5.367  -0.952  -1.983  1.00  0.00    -0.084 Cl
ENDBRANCH  15  16
ENDBRANCH  14  15
ENDBRANCH  10  14
ENDBRANCH   7  10
BRANCH   1  24
HETATM   24  S1  UNL     1       5.334  -1.810  -1.643  1.00  0.00    -0.094 SA
BRANCH  24  25
HETATM   25  C3  UNL     1       6.280  -1.364  -0.153  1.00  0.00     0.192 C 
BRANCH  25  26
HETATM   26  C2  UNL     1       6.162   0.059   0.182  1.00  0.00     0.268 C 
HETATM   27  O2  UNL     1       5.801   0.482   1.296  1.00  0.00    -0.264 OA
BRANCH  26  28
HETATM   28  O1  UNL     1       6.476   1.049  -0.771  1.00  0.00    -0.326 OA
HETATM   29  C1  UNL     1       6.288   2.423  -0.250  1.00  0.00     0.213 C 
ENDBRANCH  26  28
ENDBRANCH  25  26
ENDBRANCH  24  25
ENDBRANCH   1  24
TORSDOF 8
