REMARK  6 active torsions:
REMARK  status: ('A' for Active; 'I' for Inactive)
REMARK    1  A    between atoms: C4_4  and  O1_5 
REMARK    2  A    between atoms: C5_7  and  N1_8 
REMARK    3  A    between atoms: C7_12  and  N2_13 
REMARK    4  A    between atoms: C8_16  and  O6_17 
REMARK    5  A    between atoms: O6_17  and  N3_18 
REMARK       I    between atoms: C9_20  and  N5_22 
REMARK    6  A    between atoms: N6_24  and  C10_26 
ROOT
HETATM    1  C1  UNL     1      -1.037  -2.105   2.120  1.00  0.00     0.018 C 
HETATM    2  C2  UNL     1      -1.806  -1.409   1.479  1.00  0.00    -0.072 C 
HETATM    3  C3  UNL     1      -2.741  -0.590   0.731  1.00  0.00     0.090 A 
HETATM    4  C4  UNL     1      -4.017  -0.484   1.148  1.00  0.00     0.120 A 
HETATM    5  C5  UNL     1      -4.886   0.292   0.430  1.00  0.00     0.140 A 
HETATM    6  C6  UNL     1      -4.461   0.952  -0.695  1.00  0.00     0.078 A 
HETATM    7  C7  UNL     1      -3.129   0.840  -1.126  1.00  0.00     0.142 A 
HETATM    8  C8  UNL     1      -2.240   0.072  -0.431  1.00  0.00     0.153 A 
ENDROOT
BRANCH   4   9
HETATM    9  O1  UNL     1      -4.449  -1.152   2.287  1.00  0.00    -0.357 OA
ATOM     10  H1  UNL     1      -5.349  -1.077   2.581  1.00  0.00     0.218 HD
ENDBRANCH   4   9
BRANCH   8  11
HETATM   11  O6  UNL     1      -0.963  -0.122  -0.727  1.00  0.00    -0.231 OA
BRANCH  11  12
HETATM   12  N3  UNL     1      -0.014   0.144  -1.552  1.00  0.00    -0.231 N 
HETATM   13  C9  UNL     1       1.260   0.077  -1.265  1.00  0.00     0.227 C 
HETATM   14  N4  UNL     1       1.591  -0.318   0.048  1.00  0.00    -0.060 NA
HETATM   15  N5  UNL     1       2.140   0.405  -2.300  1.00  0.00    -0.272 N 
HETATM   16  N6  UNL     1       3.370   0.553  -2.303  1.00  0.00    -0.297 N 
ATOM     17  H5  UNL     1       1.694   0.546  -3.206  1.00  0.00     0.189 HD
ATOM     18  H6  UNL     1       3.840   0.796  -3.175  1.00  0.00     0.187 HD
ATOM     19  H3  UNL     1      -0.273   0.427  -2.497  1.00  0.00     0.197 HD
BRANCH  16  20
HETATM   20  C10 UNL     1       4.136   0.393  -1.130  1.00  0.00     0.070 A 
HETATM   21  C11 UNL     1       4.303   1.412  -0.210  1.00  0.00     0.034 A 
HETATM   22  C12 UNL     1       5.059   1.192   0.895  1.00  0.00     0.026 A 
HETATM   23  C13 UNL     1       5.656  -0.031   1.102  1.00  0.00     0.035 A 
HETATM   24 CL1  UNL     1       6.617  -0.233   2.555  1.00  0.00    -0.084 Cl
HETATM   25  C14 UNL     1       5.502  -1.059   0.196  1.00  0.00     0.050 A 
HETATM   26  C15 UNL     1       4.734  -0.840  -0.929  1.00  0.00     0.063 A 
HETATM   27 CL2  UNL     1       4.506  -2.120  -2.118  1.00  0.00    -0.082 Cl
ENDBRANCH  16  20
ENDBRANCH  11  12
ENDBRANCH   8  11
BRANCH   5  28
HETATM   28  N1  UNL     1      -6.235   0.407   0.864  1.00  0.00    -0.113 N 
HETATM   29  O2  UNL     1      -7.098   0.645  -0.003  1.00  0.00    -0.532 OA
HETATM   30  O3  UNL     1      -6.606   0.264   2.189  1.00  0.00    -0.532 OA
ENDBRANCH   5  28
BRANCH   7  31
HETATM   31  N2  UNL     1      -2.767   1.542  -2.297  1.00  0.00    -0.113 N 
HETATM   32  O4  UNL     1      -1.718   2.097  -2.569  1.00  0.00    -0.532 OA
HETATM   33  O5  UNL     1      -3.770   1.663  -3.292  1.00  0.00    -0.532 OA
ENDBRANCH   7  31
TORSDOF 6
