REMARK  6 active torsions:
REMARK  status: ('A' for Active; 'I' for Inactive)
REMARK    1  A    between atoms: C1_2  and  C2_3 
REMARK       I    between atoms: C1_2  and  N2_17 
REMARK    2  A    between atoms: N1_4  and  C3_6 
REMARK    3  A    between atoms: C3_6  and  C4_7 
REMARK    4  A    between atoms: C5_8  and  O2_9 
REMARK    5  A    between atoms: N2_17  and  C10_19 
REMARK    6  A    between atoms: C11_20  and  N3_21 
ROOT
HETATM    1  O1  UNL     1      -1.826  -1.674  -1.898  1.00  0.00    -0.267 OA
HETATM    2  C1  UNL     1      -1.008  -1.064  -1.141  1.00  0.00     0.261 C 
HETATM    3  N2  UNL     1      -1.441   0.003  -0.382  1.00  0.00    -0.319 N 
ATOM      4  H2  UNL     1      -0.737   0.452   0.204  1.00  0.00     0.169 HD
ENDROOT
BRANCH   2   5
HETATM    5  C2  UNL     1       0.370  -1.552  -1.136  1.00  0.00     0.162 C 
HETATM    6  N1  UNL     1       1.305  -1.112  -0.515  1.00  0.00    -0.369 N 
ATOM      7  H1  UNL     1       2.070  -1.731  -0.783  1.00  0.00     0.164 HD
BRANCH   6   8
HETATM    8  C3  UNL     1       1.906  -0.234   0.356  1.00  0.00     0.105 C 
BRANCH   8   9
HETATM    9  C4  UNL     1       3.418  -0.196   0.150  1.00  0.00     0.053 A 
HETATM   10  C5  UNL     1       4.103  -1.413   0.241  1.00  0.00     0.080 A 
HETATM   11  C6  UNL     1       5.453  -1.466   0.122  1.00  0.00     0.039 A 
HETATM   12  C7  UNL     1       6.209  -0.301  -0.092  1.00  0.00     0.030 A 
HETATM   13  C8  UNL     1       5.512   0.910  -0.187  1.00  0.00     0.073 A 
HETATM   14 CL1  UNL     1       6.462   2.343  -0.453  1.00  0.00    -0.081 Cl
HETATM   15  C9  UNL     1       4.127   0.951  -0.064  1.00  0.00     0.152 A 
HETATM   16  F1  UNL     1       3.474   2.161  -0.142  1.00  0.00    -0.203 F 
BRANCH  10  17
HETATM   17  O2  UNL     1       3.335  -2.566   0.458  1.00  0.00    -0.360 OA
ATOM     18  H2  UNL     1       3.800  -3.392   0.520  1.00  0.00     0.217 HD
ENDBRANCH  10  17
ENDBRANCH   8   9
ENDBRANCH   6   8
ENDBRANCH   2   5
BRANCH   3  19
HETATM   19  C10 UNL     1      -2.746   0.549  -0.319  1.00  0.00     0.088 A 
HETATM   20  C11 UNL     1      -3.112   1.644  -1.086  1.00  0.00     0.131 A 
HETATM   21  C12 UNL     1      -4.454   2.039  -0.974  1.00  0.00     0.041 A 
HETATM   22  C13 UNL     1      -5.362   1.414  -0.172  1.00  0.00     0.041 A 
HETATM   23  C14 UNL     1      -4.964   0.301   0.602  1.00  0.00     0.099 A 
HETATM   24  O5  UNL     1      -5.727  -0.357   1.386  1.00  0.00    -0.268 OA
HETATM   25  C16 UNL     1      -3.658  -0.094   0.499  1.00  0.00     0.073 A 
HETATM   26  C15 UNL     1      -5.261  -1.360   2.054  1.00  0.00     0.332 A 
HETATM   27  O6  UNL     1      -5.910  -2.113   2.884  1.00  0.00    -0.251 OA
HETATM   28  S1  UNL     1      -3.632  -1.410   1.573  1.00  0.00    -0.016 SA
BRANCH  20  29
HETATM   29  N3  UNL     1      -2.172   2.309  -1.892  1.00  0.00    -0.113 N 
HETATM   30  O3  UNL     1      -1.210   1.705  -2.362  1.00  0.00    -0.532 OA
HETATM   31  O4  UNL     1      -2.268   3.647  -2.144  1.00  0.00    -0.532 OA
ENDBRANCH  20  29
ENDBRANCH   3  19
TORSDOF 6
