REMARK  9 active torsions:
REMARK  status: ('A' for Active; 'I' for Inactive)
REMARK    1  A    between atoms: N1_1  and  N2_4 
REMARK    2  A    between atoms: N2_4  and  C1_6 
REMARK    3  A    between atoms: C3_9  and  N4_10 
REMARK    4  A    between atoms: N4_10  and  O1_12 
REMARK    5  A    between atoms: C4_14  and  C5_15 
REMARK    6  A    between atoms: C5_15  and  O2_16 
REMARK    7  A    between atoms: O2_16  and  C6_17 
REMARK    8  A    between atoms: C6_17  and  C7_19 
REMARK    9  A    between atoms: N5_28  and  C14_29 
ROOT
HETATM    1  C1  UNL     1      -2.450   0.217  -1.115  1.00  0.00     0.153 A 
HETATM    2  C2  UNL     1      -1.582   0.480  -2.146  1.00  0.00     0.121 A 
HETATM    3  N3  UNL     1      -1.911   1.284  -3.253  1.00  0.00    -0.096 NA
HETATM    4  C3  UNL     1      -0.301   0.006  -2.011  1.00  0.00     0.092 A 
HETATM    5  C4  UNL     1       0.046  -0.701  -0.885  1.00  0.00     0.013 A 
HETATM    6  C13 UNL     1      -0.888  -0.937   0.146  1.00  0.00     0.110 A 
HETATM    7  N5  UNL     1      -2.097  -0.472  -0.008  1.00  0.00    -0.305 N 
ENDROOT
BRANCH   5   8
HETATM    8  C5  UNL     1       1.387  -1.335  -0.906  1.00  0.00     0.221 C 
BRANCH   8   9
HETATM    9  O2  UNL     1       2.344  -0.905  -0.155  1.00  0.00    -0.313 OA
BRANCH   9  10
HETATM   10  C6  UNL     1       3.000  -0.570   0.906  1.00  0.00     0.295 C 
HETATM   11  O3  UNL     1       2.404  -0.697   2.043  1.00  0.00    -0.259 OA
BRANCH  10  12
HETATM   12  C7  UNL     1       4.385  -0.073   0.815  1.00  0.00     0.061 A 
HETATM   13  C8  UNL     1       5.072   0.098  -0.369  1.00  0.00     0.021 A 
HETATM   14  C9  UNL     1       6.371   0.578  -0.383  1.00  0.00     0.025 A 
HETATM   15  C10 UNL     1       7.018   0.899   0.802  1.00  0.00     0.035 A 
HETATM   16 CL1  UNL     1       8.671   1.481   0.824  1.00  0.00    -0.084 Cl
HETATM   17  C11 UNL     1       6.346   0.730   1.984  1.00  0.00     0.048 A 
HETATM   18  C12 UNL     1       5.033   0.245   1.992  1.00  0.00     0.051 A 
HETATM   19 CL2  UNL     1       4.183   0.032   3.499  1.00  0.00    -0.083 Cl
ENDBRANCH  10  12
ENDBRANCH   9  10
ENDBRANCH   8   9
ENDBRANCH   5   8
BRANCH   4  20
HETATM   20  N4  UNL     1       0.718   0.303  -2.987  1.00  0.00    -0.267 N 
ATOM     21  H4  UNL     1       0.839  -0.230  -3.848  1.00  0.00     0.194 HD
BRANCH  20  22
HETATM   22  O1  UNL     1       1.464   1.311  -2.666  1.00  0.00    -0.289 OA
ATOM     23  H1  UNL     1       2.135   1.507  -3.309  1.00  0.00     0.244 HD
ENDBRANCH  20  22
ENDBRANCH   4  20
BRANCH   7  24
HETATM   24  C14 UNL     1      -3.146  -0.522   0.953  1.00  0.00     0.040 A 
HETATM   25  C15 UNL     1      -3.377   0.679   1.681  1.00  0.00     0.030 A 
HETATM   26  C16 UNL     1      -4.472   0.843   2.495  1.00  0.00     0.002 A 
HETATM   27  C17 UNL     1      -5.413  -0.190   2.642  1.00  0.00     0.000 A 
HETATM   28  C18 UNL     1      -5.209  -1.345   1.954  1.00  0.00     0.002 A 
HETATM   29  C19 UNL     1      -4.077  -1.501   1.117  1.00  0.00     0.030 A 
ENDBRANCH   7  24
BRANCH   1  30
HETATM   30  N2  UNL     1      -3.686   0.587  -1.196  1.00  0.00    -0.290 N 
ATOM     31  H2  UNL     1      -4.311   0.394  -0.413  1.00  0.00     0.188 HD
BRANCH  30  32
HETATM   32  N1  UNL     1      -4.188   1.233  -2.305  1.00  0.00    -0.344 N 
ATOM     33  H12 UNL     1      -3.550   1.418  -3.079  1.00  0.00     0.176 HD
ATOM     34  H11 UNL     1      -5.163   1.525  -2.369  1.00  0.00     0.176 HD
ENDBRANCH  30  32
ENDBRANCH   1  30
TORSDOF 9
