REMARK  14 active torsions:
REMARK  status: ('A' for Active; 'I' for Inactive)
REMARK    1  A    between atoms: C2_2  and  O1_3 
REMARK    2  A    between atoms: C2_2  and  C26_46 
REMARK    3  A    between atoms: O1_3  and  C3_4 
REMARK    4  A    between atoms: C8_9  and  C9_10 
REMARK    5  A    between atoms: C11_12  and  C12_13 
REMARK    6  A    between atoms: N2_19  and  C13_20 
REMARK    7  A    between atoms: C13_20  and  C14_22 
REMARK    8  A    between atoms: C14_22  and  C15_23 
REMARK    9  A    between atoms: N4_26  and  C16_27 
REMARK   10  A    between atoms: C16_27  and  N5_28 
REMARK   11  A    between atoms: N5_28  and  N6_30 
REMARK   12  A    between atoms: C18_36  and  C19_37 
REMARK   13  A    between atoms: C19_37  and  N8_38 
REMARK   14  A    between atoms: N8_38  and  C20_40 
ROOT
HETATM    1  C13 UNL     1       0.996  -1.991   0.095  1.00  0.00     0.120 C 
HETATM    2  S1  UNL     1       1.555  -3.513   0.193  1.00  0.00    -0.059 SA
ENDROOT
BRANCH   1   3
HETATM    3  N2  UNL     1       1.864  -0.939  -0.240  1.00  0.00    -0.272 N 
HETATM    4  C9  UNL     1       3.317  -0.797  -0.452  1.00  0.00     0.150 C 
HETATM    5  C10 UNL     1       3.053  -0.321  -1.879  1.00  0.00     0.095 C 
HETATM    6  C11 UNL     1       2.141   0.817  -1.616  1.00  0.00     0.112 C 
HETATM    7  N1  UNL     1       1.436   0.403  -0.627  1.00  0.00    -0.296 N 
ATOM      8  H1  UNL     1       0.688   0.932  -0.178  1.00  0.00     0.186 HD
BRANCH   4   9
HETATM    9  C8  UNL     1       3.656   0.237   0.552  1.00  0.00     0.000 A 
HETATM   10  C3  UNL     1       4.843   0.908   0.693  1.00  0.00     0.078 A 
HETATM   11  C4  UNL     1       5.113   1.727   1.740  1.00  0.00     0.037 A 
HETATM   12  C5  UNL     1       4.122   1.915   2.747  1.00  0.00     0.003 A 
HETATM   13  C6  UNL     1       2.974   1.305   2.668  1.00  0.00     0.001 A 
HETATM   14  C7  UNL     1       2.672   0.442   1.578  1.00  0.00     0.012 A 
BRANCH  10  15
HETATM   15  O1  UNL     1       5.767   0.637  -0.310  1.00  0.00    -0.337 OA
BRANCH  15  16
HETATM   16  C2  UNL     1       7.081   0.652  -0.501  1.00  0.00     0.232 C 
HETATM   17  C1  UNL     1       7.902   1.526   0.444  1.00  0.00     0.049 C 
BRANCH  16  18
HETATM   18  C26 UNL     1       7.644   0.761  -1.870  1.00  0.00     0.413 C 
HETATM   19  F4  UNL     1       8.954   0.297  -1.799  1.00  0.00    -0.168 F 
HETATM   20  F5  UNL     1       7.853   2.146  -2.205  1.00  0.00    -0.168 F 
HETATM   21  F6  UNL     1       6.970   0.114  -2.846  1.00  0.00    -0.168 F 
ENDBRANCH  16  18
ENDBRANCH  15  16
ENDBRANCH  10  15
ENDBRANCH   4   9
BRANCH   6  22
HETATM   22  C12 UNL     1       2.188   2.022  -2.471  1.00  0.00     0.430 C 
HETATM   23  F1  UNL     1       1.600   1.652  -3.712  1.00  0.00    -0.165 F 
HETATM   24  F2  UNL     1       3.527   2.346  -2.736  1.00  0.00    -0.165 F 
HETATM   25  F3  UNL     1       1.531   3.104  -1.954  1.00  0.00    -0.165 F 
ENDBRANCH   6  22
ENDBRANCH   1   3
BRANCH   1  26
HETATM   26  C14 UNL     1      -0.389  -1.611   0.295  1.00  0.00     0.075 C 
BRANCH  26  27
HETATM   27  C15 UNL     1      -1.512  -2.485   0.200  1.00  0.00     0.064 A 
HETATM   28  N3  UNL     1      -1.701  -3.760   0.544  1.00  0.00    -0.296 N 
HETATM   29  N4  UNL     1      -2.967  -4.075   0.398  1.00  0.00    -0.283 N 
ATOM     30  H3  UNL     1      -0.972  -4.394   0.871  1.00  0.00     0.187 HD
HETATM   31  C17 UNL     1      -3.657  -3.023  -0.048  1.00  0.00     0.127 A 
HETATM   32  C18 UNL     1      -2.790  -2.002  -0.191  1.00  0.00     0.024 A 
BRANCH  29  33
HETATM   33  C16 UNL     1      -3.507  -5.393   0.718  1.00  0.00     0.288 C 
BRANCH  33  34
HETATM   34  N5  UNL     1      -3.347  -6.285  -0.377  1.00  0.00    -0.303 N 
ATOM     35  H5  UNL     1      -2.683  -6.034  -1.109  1.00  0.00     0.183 HD
BRANCH  34  36
HETATM   36  N6  UNL     1      -3.967  -7.348  -0.492  1.00  0.00    -0.252 N 
HETATM   37  N7  UNL     1      -4.482  -8.353  -1.033  1.00  0.00    -0.331 N 
ATOM     38  H72 UNL     1      -4.197  -8.141  -1.989  1.00  0.00     0.178 HD
ATOM     39  H71 UNL     1      -4.994  -9.230  -1.128  1.00  0.00     0.178 HD
ATOM     40  H6  UNL     1      -4.226  -7.513   0.481  1.00  0.00     0.207 HD
ENDBRANCH  34  36
ENDBRANCH  33  34
ENDBRANCH  29  33
BRANCH  32  41
HETATM   41  C19 UNL     1      -3.068  -0.656  -0.834  1.00  0.00     0.098 C 
BRANCH  41  42
HETATM   42  N8  UNL     1      -3.997  -0.034   0.012  1.00  0.00    -0.393 N 
ATOM     43  H8  UNL     1      -4.273  -0.539   0.854  1.00  0.00     0.159 HD
BRANCH  42  44
HETATM   44  C20 UNL     1      -4.573   1.210  -0.200  1.00  0.00     0.081 C 
HETATM   45  C21 UNL     1      -5.866   1.204  -0.965  1.00  0.00     0.025 C 
HETATM   46  C22 UNL     1      -6.930   1.983  -0.183  1.00  0.00     0.002 C 
HETATM   47  C23 UNL     1      -6.443   3.377   0.127  1.00  0.00     0.000 C 
HETATM   48  C24 UNL     1      -5.107   3.382   0.819  1.00  0.00     0.002 C 
HETATM   49  C25 UNL     1      -4.640   1.969   1.099  1.00  0.00     0.025 C 
ENDBRANCH  42  44
ENDBRANCH  41  42
ENDBRANCH  32  41
ENDBRANCH  26  27
ENDBRANCH   1  26
TORSDOF 14
