REMARK  13 active torsions:
REMARK  status: ('A' for Active; 'I' for Inactive)
REMARK    1  A    between atoms: C3_5  and  C4_6 
REMARK    2  A    between atoms: C4_6  and  O2_8 
REMARK    3  A    between atoms: O2_8  and  C5_9 
REMARK    4  A    between atoms: C12_16  and  O3_17 
REMARK    5  A    between atoms: O3_17  and  C13_18 
REMARK    6  A    between atoms: C13_18  and  C14_19 
REMARK    7  A    between atoms: C14_19  and  C15_20 
REMARK    8  A    between atoms: C15_20  and  C16_21 
REMARK    9  A    between atoms: C16_21  and  C17_23 
REMARK   10  A    between atoms: C21_29  and  O5_30 
REMARK   11  A    between atoms: O5_30  and  C22_31 
REMARK   12  A    between atoms: C22_31  and  C23_32 
REMARK   13  A    between atoms: C22_31  and  C24_36 
ROOT
HETATM    1  C1  UNL     1       5.877   3.171   3.725  1.00  0.00     0.070 C 
HETATM    2  C2  UNL     1       5.473   2.898   2.304  1.00  0.00     0.027 A 
HETATM    3  N1  UNL     1       4.827   1.833   1.831  1.00  0.00    -0.353 N 
ATOM      4  H1  UNL     1       4.522   1.051   2.410  1.00  0.00     0.166 HD
HETATM    5  C3  UNL     1       4.621   1.906   0.499  1.00  0.00     0.116 A 
HETATM    6  C26 UNL     1       5.175   3.102   0.102  1.00  0.00    -0.006 A 
HETATM    7  C27 UNL     1       5.179   3.610  -1.296  1.00  0.00     0.052 C 
HETATM    8  C28 UNL     1       5.701   3.716   1.212  1.00  0.00     0.075 A 
HETATM    9  C29 UNL     1       6.374   4.977   1.285  1.00  0.00     0.102 C 
HETATM   10  N3  UNL     1       6.904   5.989   1.342  1.00  0.00    -0.191 NA
ENDROOT
BRANCH   5  11
HETATM   11  C4  UNL     1       3.937   0.916  -0.344  1.00  0.00     0.311 C 
HETATM   12  O1  UNL     1       3.855   1.161  -1.570  1.00  0.00    -0.258 OA
BRANCH  11  13
HETATM   13  O2  UNL     1       3.396  -0.238   0.142  1.00  0.00    -0.306 OA
BRANCH  13  14
HETATM   14  C5  UNL     1       2.719  -1.224  -0.669  1.00  0.00     0.170 C 
HETATM   15  C6  UNL     1       3.406  -2.537  -0.368  1.00  0.00     0.037 C 
HETATM   16  C7  UNL     1       2.945  -3.128   0.939  1.00  0.00     0.003 C 
HETATM   17  C8  UNL     1       3.082  -2.223   2.117  1.00  0.00     0.005 C 
HETATM   18  C9  UNL     1       1.939  -1.304   2.369  1.00  0.00     0.039 C 
HETATM   19  C10 UNL     1       0.997  -1.399   1.212  1.00  0.00    -0.041 A 
HETATM   20  C11 UNL     1      -0.317  -1.520   1.600  1.00  0.00     0.064 A 
HETATM   21  C25 UNL     1       1.321  -1.382  -0.119  1.00  0.00     0.029 A 
HETATM   22  C12 UNL     1      -1.284  -1.622   0.608  1.00  0.00     0.144 A 
HETATM   23  N2  UNL     1      -0.990  -1.609  -0.681  1.00  0.00    -0.317 N 
HETATM   24  C21 UNL     1       0.337  -1.487  -1.082  1.00  0.00     0.154 A 
ATOM     25  H2  UNL     1      -1.731  -1.688  -1.377  1.00  0.00     0.170 HD
BRANCH  22  26
HETATM   26  O3  UNL     1      -2.603  -1.739   1.085  1.00  0.00    -0.336 OA
BRANCH  26  27
HETATM   27  C13 UNL     1      -3.620  -1.844   0.119  1.00  0.00     0.178 C 
BRANCH  27  28
HETATM   28  C14 UNL     1      -4.996  -1.942   0.713  1.00  0.00     0.034 C 
BRANCH  28  29
HETATM   29  C15 UNL     1      -5.359  -0.768   1.567  1.00  0.00     0.081 C 
BRANCH  29  30
HETATM   30  C16 UNL     1      -5.316   0.484   0.798  1.00  0.00     0.134 C 
HETATM   31  O4  UNL     1      -4.232   1.039   0.626  1.00  0.00    -0.297 OA
BRANCH  30  32
HETATM   32  C17 UNL     1      -6.539   1.104   0.221  1.00  0.00     0.009 C 
HETATM   33  C18 UNL     1      -7.250   0.185  -0.745  1.00  0.00     0.022 C 
HETATM   34  C19 UNL     1      -7.476   1.593   1.299  1.00  0.00     0.022 C 
HETATM   35  C20 UNL     1      -6.131   2.328  -0.610  1.00  0.00     0.022 C 
ENDBRANCH  30  32
ENDBRANCH  29  30
ENDBRANCH  28  29
ENDBRANCH  27  28
ENDBRANCH  26  27
ENDBRANCH  22  26
BRANCH  24  36
HETATM   36  O5  UNL     1       0.642  -1.475  -2.351  1.00  0.00    -0.311 OA
BRANCH  36  37
HETATM   37  C22 UNL     1       0.968  -1.461  -3.597  1.00  0.00     0.344 C 
BRANCH  37  38
HETATM   38  C23 UNL     1       0.564  -2.739  -4.391  1.00  0.00     0.422 C 
HETATM   39  F1  UNL     1      -0.782  -2.912  -4.364  1.00  0.00    -0.168 F 
HETATM   40  F2  UNL     1       1.118  -2.636  -5.637  1.00  0.00    -0.168 F 
HETATM   41  F3  UNL     1       1.236  -3.784  -3.737  1.00  0.00    -0.168 F 
ENDBRANCH  37  38
BRANCH  37  42
HETATM   42  C24 UNL     1       0.287  -0.297  -4.350  1.00  0.00     0.422 C 
HETATM   43  F4  UNL     1       0.655  -0.302  -5.672  1.00  0.00    -0.168 F 
HETATM   44  F5  UNL     1       0.641   0.910  -3.797  1.00  0.00    -0.168 F 
HETATM   45  F6  UNL     1      -1.077  -0.512  -4.306  1.00  0.00    -0.168 F 
ENDBRANCH  37  42
ENDBRANCH  36  37
ENDBRANCH  24  36
ENDBRANCH  13  14
ENDBRANCH  11  13
ENDBRANCH   5  11
TORSDOF 13
