REMARK  12 active torsions:
REMARK  status: ('A' for Active; 'I' for Inactive)
REMARK    1  A    between atoms: O1_2  and  C2_3 
REMARK    2  A    between atoms: C4_5  and  C5_6 
REMARK    3  A    between atoms: C6_7  and  C7_8 
REMARK    4  A    between atoms: C7_8  and  C8_10 
REMARK    5  A    between atoms: C8_10  and  C9_11 
REMARK    6  A    between atoms: C9_11  and  C10_13 
REMARK    7  A    between atoms: C11_14  and  C12_15 
REMARK    8  A    between atoms: C14_17  and  C15_18 
REMARK    9  A    between atoms: C17_23  and  C18_24 
REMARK   10  A    between atoms: C20_29  and  O4_30 
REMARK   11  A    between atoms: C22_33  and  O5_34 
REMARK   12  A    between atoms: O5_34  and  C23_35 
ROOT
HETATM    1  C5  UNL     1       1.067  -0.714  -0.730  1.00  0.00     0.018 C 
HETATM    2  C6  UNL     1       1.730   0.296  -1.246  1.00  0.00     0.051 C 
ENDROOT
BRANCH   1   3
HETATM    3  C4  UNL     1      -0.389  -0.751  -0.563  1.00  0.00    -0.000 A 
HETATM    4  C3  UNL     1      -1.165   0.348  -0.833  1.00  0.00     0.054 A 
HETATM    5  C2  UNL     1      -2.569   0.265  -0.711  1.00  0.00     0.102 A 
HETATM    6  C22 UNL     1      -3.206  -0.884  -0.326  1.00  0.00     0.110 A 
HETATM    7  C21 UNL     1      -2.369  -1.962  -0.064  1.00  0.00     0.077 A 
HETATM    8  C20 UNL     1      -0.992  -1.917  -0.175  1.00  0.00     0.078 A 
BRANCH   5   9
HETATM    9  O1  UNL     1      -3.270   1.417  -1.004  1.00  0.00    -0.353 OA
HETATM   10  C1  UNL     1      -2.651   2.608  -1.406  1.00  0.00     0.210 C 
ENDBRANCH   5   9
BRANCH   6  11
HETATM   11  O5  UNL     1      -4.553  -1.071  -0.173  1.00  0.00    -0.294 OA
BRANCH  11  12
HETATM   12  C23 UNL     1      -5.548  -0.053  -0.408  1.00  0.00     0.419 C 
HETATM   13  O6  UNL     1      -5.399   0.836   0.669  1.00  0.00    -0.338 OA
HETATM   14  C24 UNL     1      -6.429   1.696   0.784  1.00  0.00     0.180 C 
HETATM   15  C25 UNL     1      -7.733   0.970   1.070  1.00  0.00     0.040 C 
HETATM   16  C26 UNL     1      -7.696   0.468   2.483  1.00  0.00     0.015 C 
HETATM   17  C27 UNL     1      -7.892  -0.150   0.042  1.00  0.00     0.071 C 
HETATM   18  C28 UNL     1      -8.647  -1.315   0.687  1.00  0.00     0.038 C 
HETATM   19  C31 UNL     1      -8.880   0.284  -1.021  1.00  0.00     0.038 C 
HETATM   20  O7  UNL     1      -6.741  -0.614  -0.477  1.00  0.00    -0.327 OA
HETATM   21  C29 UNL     1      -9.049  -2.087  -0.585  1.00  0.00     0.003 C 
HETATM   22  C30 UNL     1      -9.637  -0.944  -1.403  1.00  0.00     0.003 C 
ENDBRANCH  11  12
ENDBRANCH   6  11
BRANCH   8  23
HETATM   23  O4  UNL     1      -0.276  -3.072   0.110  1.00  0.00    -0.360 OA
ATOM     24  H4  UNL     1      -0.694  -3.881   0.379  1.00  0.00     0.217 HD
ENDBRANCH   8  23
ENDBRANCH   1   3
BRANCH   2  25
HETATM   25  C7  UNL     1       3.160   0.286  -1.394  1.00  0.00     0.156 C 
HETATM   26  O2  UNL     1       3.750   1.294  -1.939  1.00  0.00    -0.293 OA
BRANCH  25  27
HETATM   27  C8  UNL     1       4.072  -0.805  -0.972  1.00  0.00     0.165 C 
BRANCH  27  28
HETATM   28  C9  UNL     1       5.346  -0.757  -1.674  1.00  0.00     0.156 C 
HETATM   29  O3  UNL     1       5.264  -0.996  -2.948  1.00  0.00    -0.293 OA
BRANCH  28  30
HETATM   30  C10 UNL     1       6.648  -0.493  -1.169  1.00  0.00     0.051 C 
HETATM   31  C11 UNL     1       6.981  -0.257   0.066  1.00  0.00     0.015 C 
BRANCH  31  32
HETATM   32  C12 UNL     1       8.342   0.010   0.517  1.00  0.00    -0.035 A 
HETATM   33  C13 UNL     1       9.391   0.063  -0.375  1.00  0.00     0.027 A 
HETATM   34  C14 UNL     1      10.716   0.293   0.028  1.00  0.00     0.049 A 
HETATM   35  C16 UNL     1      10.956   0.468   1.377  1.00  0.00     0.032 A 
HETATM   36  C17 UNL     1       9.934   0.421   2.287  1.00  0.00     0.049 A 
HETATM   37  C19 UNL     1       8.634   0.195   1.872  1.00  0.00     0.027 A 
BRANCH  34  38
HETATM   38  C15 UNL     1      11.799   0.350  -0.990  1.00  0.00     0.417 C 
HETATM   39  F1  UNL     1      11.674   1.425  -1.833  1.00  0.00    -0.166 F 
HETATM   40  F2  UNL     1      13.003   0.296  -0.357  1.00  0.00    -0.166 F 
HETATM   41  F3  UNL     1      11.605  -0.778  -1.796  1.00  0.00    -0.166 F 
ENDBRANCH  34  38
BRANCH  36  42
HETATM   42  C18 UNL     1      10.230   0.591   3.751  1.00  0.00     0.417 C 
HETATM   43  F4  UNL     1      11.597   0.732   3.931  1.00  0.00    -0.166 F 
HETATM   44  F5  UNL     1       9.527   1.688   4.200  1.00  0.00    -0.166 F 
HETATM   45  F6  UNL     1       9.803  -0.528   4.428  1.00  0.00    -0.166 F 
ENDBRANCH  36  42
ENDBRANCH  31  32
ENDBRANCH  28  30
ENDBRANCH  27  28
ENDBRANCH  25  27
ENDBRANCH   2  25
TORSDOF 12
