REMARK  1 active torsions:
REMARK  status: ('A' for Active; 'I' for Inactive)
REMARK    1  A    between atoms: C2_2  and  C4_4 
ROOT
HETATM    1  C4  UNL     1       0.727  -0.778   0.166  1.00  0.00     0.189 C 
HETATM    2  N1  UNL     1       1.352   0.334   0.859  1.00  0.00    -0.346 N 
ATOM      3  H1  UNL     1       1.374   0.683   1.817  1.00  0.00     0.164 HD
HETATM    4  C5  UNL     1       1.921   0.722  -0.385  1.00  0.00     0.170 C 
HETATM    5  S1  UNL     1       2.605   2.072  -1.012  1.00  0.00    -0.041 SA
HETATM    6  N2  UNL     1       1.651  -0.571  -0.881  1.00  0.00    -0.346 N 
ATOM      7  H2  UNL     1       1.985  -1.126  -1.669  1.00  0.00     0.164 HD
ENDROOT
BRANCH   1   8
HETATM    8  C2  UNL     1      -0.728  -0.526  -0.107  1.00  0.00     0.020 C 
HETATM    9  C1  UNL     1      -1.462  -0.315   1.202  1.00  0.00     0.013 C 
HETATM   10  C3  UNL     1      -1.007   0.615  -1.008  1.00  0.00     0.013 C 
ENDBRANCH   1   8
TORSDOF 1
