REMARK  1 active torsions:
REMARK  status: ('A' for Active; 'I' for Inactive)
REMARK    1  A    between atoms: C3_5  and  C4_6 
ROOT
HETATM    1  C1  UNL     1       3.245  -1.242  -0.642  1.00  0.00     0.089 C 
HETATM    2  C2  UNL     1       1.954  -0.556  -0.335  1.00  0.00     0.077 A 
HETATM    3  N1  UNL     1       0.745  -1.129  -0.225  1.00  0.00    -0.343 N 
ATOM      4  H1  UNL     1       0.565  -2.129  -0.319  1.00  0.00     0.167 HD
HETATM    5  C3  UNL     1      -0.207  -0.190   0.030  1.00  0.00     0.075 A 
HETATM    6  C6  UNL     1       0.474   1.007   0.080  1.00  0.00     0.035 A 
HETATM    7  C7  UNL     1      -0.191   2.307   0.409  1.00  0.00     0.070 C 
HETATM    8  N3  UNL     1       1.762   0.752  -0.144  1.00  0.00    -0.348 N 
ATOM      9  H3  UNL     1       2.499   1.457  -0.167  1.00  0.00     0.167 HD
ENDROOT
BRANCH   5  10
HETATM   10  C4  UNL     1      -1.651  -0.416   0.068  1.00  0.00     0.049 C 
HETATM   11  C5  UNL     1      -2.089  -1.456   0.994  1.00  0.00     0.067 C 
HETATM   12  N2  UNL     1      -2.535   0.619  -0.356  1.00  0.00    -0.105 NA
ENDBRANCH   5  10
TORSDOF 1
