REMARK  1 active torsions:
REMARK  status: ('A' for Active; 'I' for Inactive)
REMARK    1  A    between atoms: O1_2  and  C2_3 
ROOT
HETATM    1  C2  UNL     1      -0.031   0.510  -0.404  1.00  0.00     0.131 A 
HETATM    2  C3  UNL     1      -0.470  -0.766  -0.186  1.00  0.00     0.058 A 
HETATM    3  C4  UNL     1       0.300  -2.036  -0.143  1.00  0.00     0.072 C 
HETATM    4  N1  UNL     1      -1.801  -0.711  -0.000  1.00  0.00    -0.301 N 
ATOM      5  H1  UNL     1      -2.393  -1.521   0.184  1.00  0.00     0.186 HD
HETATM    6  N2  UNL     1      -2.239   0.532  -0.087  1.00  0.00    -0.288 N 
ATOM      7  H2  UNL     1      -3.202   0.852   0.014  1.00  0.00     0.188 HD
HETATM    8  C5  UNL     1      -1.158   1.290  -0.336  1.00  0.00     0.150 A 
HETATM    9  S1  UNL     1      -1.202   2.910  -0.526  1.00  0.00    -0.056 SA
ENDROOT
BRANCH   1  10
HETATM   10  O1  UNL     1       1.264   0.889  -0.637  1.00  0.00    -0.351 OA
HETATM   11  C1  UNL     1       2.160   1.246   0.428  1.00  0.00     0.210 C 
ENDBRANCH   1  10
TORSDOF 1
