REMARK  1 active torsions:
REMARK  status: ('A' for Active; 'I' for Inactive)
REMARK    1  A    between atoms: C2_2  and  N1_3 
ROOT
HETATM    1  N1  UNL     1       0.793   0.091   0.157  1.00  0.00    -0.162 N 
HETATM    2  C3  UNL     1      -0.324  -0.551  -0.273  1.00  0.00     0.052 A 
HETATM    3  C4  UNL     1      -0.324  -1.913  -0.850  1.00  0.00     0.071 C 
HETATM    4  C5  UNL     1      -1.403   0.236  -0.093  1.00  0.00     0.046 A 
HETATM    5  C6  UNL     1      -2.848  -0.053  -0.420  1.00  0.00     0.071 C 
HETATM    6  N2  UNL     1      -0.979   1.365   0.445  1.00  0.00    -0.194 N 
ATOM      7  H2  UNL     1      -1.564   2.161   0.699  1.00  0.00     0.184 HD
HETATM    8  C7  UNL     1       0.359   1.286   0.602  1.00  0.00     0.682 A 
HETATM    9  N3  UNL     1       1.082   2.224   1.101  1.00  0.00    -0.234 N 
ATOM     10  H31 UNL     1       0.753   3.129   1.438  1.00  0.00     0.174 HD
ATOM     11  H32 UNL     1       2.093   2.164   1.220  1.00  0.00     0.174 HD
ENDROOT
BRANCH   1  12
HETATM   12  C2  UNL     1       2.121  -0.444   0.119  1.00  0.00     0.105 C 
HETATM   13  C1  UNL     1       3.196   0.148   0.522  1.00  0.00     0.031 C 
ENDBRANCH   1  12
TORSDOF 1
