REMARK  1 active torsions:
REMARK  status: ('A' for Active; 'I' for Inactive)
REMARK    1  A    between atoms: C5_9  and  C6_10 
ROOT
HETATM    1  C1  UNL     1      -2.402  -1.235   0.503  1.00  0.00     0.070 C 
HETATM    2  C2  UNL     1      -1.427  -0.111   0.546  1.00  0.00     0.031 A 
HETATM    3  N1  UNL     1      -1.526   1.087   1.134  1.00  0.00    -0.304 N 
ATOM      4  H1  UNL     1      -2.335   1.408   1.665  1.00  0.00     0.186 HD
HETATM    5  N2  UNL     1      -0.432   1.794   0.931  1.00  0.00    -0.304 N 
ATOM      6  H2  UNL     1      -0.267   2.739   1.279  1.00  0.00     0.186 HD
HETATM    7  C3  UNL     1       0.446   1.063   0.182  1.00  0.00     0.031 A 
HETATM    8  C4  UNL     1       1.776   1.536  -0.239  1.00  0.00     0.070 C 
HETATM    9  C5  UNL     1      -0.165  -0.135  -0.068  1.00  0.00    -0.001 A 
ENDROOT
BRANCH   9  10
HETATM   10  C6  UNL     1       0.363  -1.278  -0.836  1.00  0.00     0.128 C 
HETATM   11  S1  UNL     1       2.007  -1.045  -1.516  1.00  0.00    -0.093 SA
ENDBRANCH   9  10
TORSDOF 1
