REMARK  2 active torsions:
REMARK  status: ('A' for Active; 'I' for Inactive)
REMARK    1  A    between atoms: N1_1  and  C1_5 
REMARK    2  A    between atoms: C1_5  and  C2_6 
ROOT
HETATM    1  C2  UNL     1      -0.988   0.156  -0.288  1.00  0.00    -0.032 A 
HETATM    2  C3  UNL     1      -0.481   1.395   0.058  1.00  0.00     0.011 A 
HETATM    3  C4  UNL     1       0.872   1.566   0.254  1.00  0.00     0.032 A 
HETATM    4  C5  UNL     1       1.759   0.525   0.116  1.00  0.00     0.059 A 
HETATM    5  N2  UNL     1       3.085   0.364   0.232  1.00  0.00    -0.300 N 
ATOM      6  H2  UNL     1       3.742   1.104   0.480  1.00  0.00     0.187 HD
HETATM    7  N3  UNL     1       3.426  -0.906  -0.023  1.00  0.00    -0.311 N 
ATOM      8  H3  UNL     1       4.375  -1.279   0.001  1.00  0.00     0.186 HD
HETATM    9  C6  UNL     1       2.320  -1.610  -0.315  1.00  0.00     0.120 A 
HETATM   10  C7  UNL     1       1.273  -0.718  -0.229  1.00  0.00     0.009 A 
HETATM   11  C8  UNL     1      -0.082  -0.874  -0.422  1.00  0.00     0.024 A 
ENDROOT
BRANCH   1  12
HETATM   12  C1  UNL     1      -2.448  -0.076  -0.511  1.00  0.00     0.268 C 
BRANCH  12  13
HETATM   13  N1  UNL     1      -3.021  -0.453   0.766  1.00  0.00    -0.075 N 
ATOM     14  H13 UNL     1      -2.551  -1.250   1.196  1.00  0.00     0.274 HD
ATOM     15  H12 UNL     1      -2.832   0.225   1.505  1.00  0.00     0.274 HD
ATOM     16  H11 UNL     1      -4.017  -0.611   0.614  1.00  0.00     0.274 HD
ENDBRANCH  12  13
ENDBRANCH   1  12
TORSDOF 2
