REMARK  1 active torsions:
REMARK  status: ('A' for Active; 'I' for Inactive)
REMARK    1  A    between atoms: C3_5  and  C4_6 
ROOT
HETATM    1  C1  UNL     1      -2.988  -0.072   0.342  1.00  0.00     0.104 A 
HETATM    2  C2  UNL     1      -2.419  -0.096  -0.914  1.00  0.00     0.105 A 
HETATM    3  N1  UNL     1      -1.064  -0.063  -1.057  1.00  0.00    -0.362 N 
ATOM      4  H1  UNL     1      -0.654  -0.081  -1.991  1.00  0.00     0.165 HD
HETATM    5  C3  UNL     1      -0.263  -0.007   0.019  1.00  0.00     0.077 A 
HETATM    6  C6  UNL     1      -0.843   0.016   1.261  1.00  0.00     0.119 A 
HETATM    7  N4  UNL     1      -2.198  -0.017   1.412  1.00  0.00    -0.372 N 
ATOM      8  H4  UNL     1      -2.607   0.000   2.346  1.00  0.00     0.164 HD
ENDROOT
BRANCH   5   9
HETATM    9  C4  UNL     1       1.186   0.029  -0.114  1.00  0.00     0.092 A 
HETATM   10  C5  UNL     1       2.300   0.085   0.694  1.00  0.00     0.140 A 
HETATM   11  N2  UNL     1       3.126   0.075  -0.368  1.00  0.00    -0.309 N 
HETATM   12  N3  UNL     1       2.060   0.021  -1.147  1.00  0.00    -0.297 N 
ATOM     13  H2  UNL     1       4.136   0.099  -0.510  1.00  0.00     0.186 HD
ATOM     14  H3  UNL     1       1.940  -0.014  -2.159  1.00  0.00     0.187 HD
ENDBRANCH   5   9
TORSDOF 1
