REMARK  3 active torsions:
REMARK  status: ('A' for Active; 'I' for Inactive)
REMARK    1  A    between atoms: C2_2  and  C3_3 
REMARK    2  A    between atoms: C3_3  and  N1_4 
REMARK    3  A    between atoms: C8_12  and  N2_13 
ROOT
HETATM    1  C3  UNL     1      -0.529   0.313  -0.209  1.00  0.00     0.151 C 
HETATM    2  C4  UNL     1       0.024  -0.973  -0.792  1.00  0.00     0.041 C 
HETATM    3  C5  UNL     1       0.962  -1.619   0.182  1.00  0.00     0.002 C 
HETATM    4  C6  UNL     1       2.163  -0.739   0.341  1.00  0.00     0.002 C 
HETATM    5  C7  UNL     1       1.899   0.712   0.397  1.00  0.00     0.035 C 
HETATM    6  C8  UNL     1       0.493   1.169   0.432  1.00  0.00     0.219 C 
ENDROOT
BRANCH   1   7
HETATM    7  C2  UNL     1      -1.603  -0.092   0.785  1.00  0.00     0.036 C 
HETATM    8  C1  UNL     1      -2.618  -1.022   0.229  1.00  0.00     0.007 C 
ENDBRANCH   1   7
BRANCH   1   9
HETATM    9  N1  UNL     1      -1.225   0.970  -1.312  1.00  0.00    -0.068 N 
ATOM     10  H13 UNL     1      -1.965   0.400  -1.723  1.00  0.00     0.275 HD
ATOM     11  H12 UNL     1      -1.817   1.746  -1.015  1.00  0.00     0.275 HD
ATOM     12  H11 UNL     1      -0.504   1.242  -1.980  1.00  0.00     0.275 HD
ENDBRANCH   1   9
BRANCH   6  13
HETATM   13  N2  UNL     1       0.462   2.534  -0.134  1.00  0.00    -0.073 N 
ATOM     14  H23 UNL     1       0.560   2.524  -1.149  1.00  0.00     0.274 HD
ATOM     15  H22 UNL     1      -0.469   2.947  -0.074  1.00  0.00     0.274 HD
ATOM     16  H21 UNL     1       1.167   3.124   0.308  1.00  0.00     0.274 HD
ENDBRANCH   6  13
TORSDOF 3
