REMARK  2 active torsions:
REMARK  status: ('A' for Active; 'I' for Inactive)
REMARK    1  A    between atoms: N1_1  and  C1_5 
REMARK    2  A    between atoms: C3_7  and  N2_8 
ROOT
HETATM    1  C1  UNL     1      -1.604  -0.594  -0.255  1.00  0.00     0.196 C 
HETATM    2  C2  UNL     1      -1.813   0.881   0.126  1.00  0.00     0.067 C 
HETATM    3  C3  UNL     1      -0.484   1.121  -0.609  1.00  0.00     0.196 C 
HETATM    4  C4  UNL     1      -0.145  -0.286  -0.203  1.00  0.00     0.016 C 
HETATM    5  C5  UNL     1       0.769  -1.045  -1.083  1.00  0.00     0.013 C 
HETATM    6  C6  UNL     1       2.135  -0.477  -0.664  1.00  0.00     0.001 C 
HETATM    7  C7  UNL     1       1.975  -0.222   0.803  1.00  0.00     0.001 C 
HETATM    8  C8  UNL     1       0.516  -0.315   1.135  1.00  0.00     0.013 C 
ENDROOT
BRANCH   1   9
HETATM    9  N1  UNL     1      -2.112  -1.531   0.704  1.00  0.00    -0.074 N 
ATOM     10  H13 UNL     1      -1.720  -1.343   1.627  1.00  0.00     0.274 HD
ATOM     11  H12 UNL     1      -3.098  -1.348   0.892  1.00  0.00     0.274 HD
ATOM     12  H11 UNL     1      -1.973  -2.509   0.451  1.00  0.00     0.274 HD
ENDBRANCH   1   9
BRANCH   3  13
HETATM   13  N2  UNL     1       0.254   2.165   0.019  1.00  0.00    -0.074 N 
ATOM     14  H23 UNL     1      -0.294   3.021   0.099  1.00  0.00     0.274 HD
ATOM     15  H22 UNL     1       0.398   1.983   1.012  1.00  0.00     0.274 HD
ATOM     16  H21 UNL     1       1.136   2.324  -0.469  1.00  0.00     0.274 HD
ENDBRANCH   3  13
TORSDOF 2
