REMARK  1 active torsions:
REMARK  status: ('A' for Active; 'I' for Inactive)
REMARK    1  A    between atoms: C2_2  and  N1_3 
ROOT
HETATM    1  N1  UNL     1       0.234  -0.081   0.207  1.00  0.00     0.103 N 
HETATM    2  C3  UNL     1      -0.132   0.463  -1.077  1.00  0.00     0.274 C 
HETATM    3  C4  UNL     1      -1.537   0.975  -0.753  1.00  0.00     0.033 C 
HETATM    4  C5  UNL     1      -2.094  -0.274  -0.074  1.00  0.00     0.049 C 
HETATM    5  C6  UNL     1      -0.900  -0.843   0.670  1.00  0.00     0.295 C 
HETATM    6  S1  UNL     1      -1.127  -0.423   2.431  1.00  0.00    -0.059 SA
ENDROOT
BRANCH   1   7
HETATM    7  C2  UNL     1       1.468  -0.802   0.201  1.00  0.00     0.269 C 
HETATM    8  C1  UNL     1       2.561   0.245  -0.026  1.00  0.00     0.037 C 
ENDBRANCH   1   7
TORSDOF 1
