REMARK  2 active torsions:
REMARK  status: ('A' for Active; 'I' for Inactive)
REMARK    1  A    between atoms: C3_5  and  C4_6 
REMARK    2  A    between atoms: C4_6  and  N2_7 
ROOT
HETATM    1  C1  UNL     1       3.127  -0.098   0.855  1.00  0.00     0.089 C 
HETATM    2  C2  UNL     1       1.654  -0.138   0.534  1.00  0.00     0.077 A 
HETATM    3  N1  UNL     1       0.832   0.910   0.360  1.00  0.00    -0.347 N 
ATOM      4  H1  UNL     1       1.096   1.893   0.422  1.00  0.00     0.167 HD
HETATM    5  C3  UNL     1      -0.395   0.443   0.091  1.00  0.00     0.058 A 
HETATM    6  C5  UNL     1      -0.349  -0.930   0.095  1.00  0.00     0.031 A 
HETATM    7  C6  UNL     1      -1.461  -1.907  -0.152  1.00  0.00     0.070 C 
HETATM    8  N3  UNL     1       0.919  -1.253   0.369  1.00  0.00    -0.348 N 
ATOM      9  H3  UNL     1       1.277  -2.205   0.442  1.00  0.00     0.167 HD
ENDROOT
BRANCH   5  10
HETATM   10  C4  UNL     1      -1.646   1.217  -0.178  1.00  0.00     0.288 C 
BRANCH  10  11
HETATM   11  N2  UNL     1      -1.323   2.624  -0.101  1.00  0.00    -0.074 N 
ATOM     12  H23 UNL     1      -0.882   2.880   0.782  1.00  0.00     0.274 HD
ATOM     13  H22 UNL     1      -0.555   2.887  -0.718  1.00  0.00     0.274 HD
ATOM     14  H21 UNL     1      -2.176   3.152  -0.284  1.00  0.00     0.274 HD
ENDBRANCH  10  11
ENDBRANCH   5  10
TORSDOF 2
