REMARK  1 active torsions:
REMARK  status: ('A' for Active; 'I' for Inactive)
REMARK    1  A    between atoms: C2_2  and  C3_3 
ROOT
HETATM    1  C3  UNL     1       0.314   0.390   0.638  1.00  0.00     0.042 A 
HETATM    2  N1  UNL     1       0.379   1.650   1.085  1.00  0.00    -0.263 N 
ATOM      3  H1  UNL     1       1.147   2.055   1.620  1.00  0.00     0.194 HD
HETATM    4  O1  UNL     1      -0.709   2.273   0.719  1.00  0.00    -0.220 OA
HETATM    5  C4  UNL     1      -1.498   1.458   0.037  1.00  0.00     0.172 A 
HETATM    6  N2  UNL     1      -2.650   1.722  -0.481  1.00  0.00    -0.378 N 
ATOM      7  H21 UNL     1      -3.258   1.094  -1.007  1.00  0.00     0.158 HD
ATOM      8  H22 UNL     1      -3.113   2.629  -0.427  1.00  0.00     0.158 HD
HETATM    9  C5  UNL     1      -0.872   0.232  -0.036  1.00  0.00     0.015 A 
HETATM   10  C6  UNL     1      -1.418  -0.973  -0.707  1.00  0.00     0.055 C 
ENDROOT
BRANCH   1  11
HETATM   11  C2  UNL     1       1.331  -0.651   0.824  1.00  0.00     0.055 C 
HETATM   12  C1  UNL     1       2.108  -0.814  -0.481  1.00  0.00     0.011 C 
ENDBRANCH   1  11
TORSDOF 1
