REMARK  2 active torsions:
REMARK  status: ('A' for Active; 'I' for Inactive)
REMARK    1  A    between atoms: C2_2  and  C3_3 
REMARK    2  A    between atoms: N1_8  and  N2_9 
ROOT
HETATM    1  C3  UNL     1      -0.521  -0.561  -0.243  1.00  0.00     0.105 C 
HETATM    2  C4  UNL     1       0.000   0.081  -1.485  1.00  0.00     0.191 C 
HETATM    3  O1  UNL     1       1.384   0.062  -1.435  1.00  0.00    -0.368 OA
HETATM    4  C5  UNL     1       1.771  -0.214  -0.150  1.00  0.00     0.210 C 
HETATM    5  C6  UNL     1       2.111   1.075   0.561  1.00  0.00     0.058 C 
HETATM    6  N1  UNL     1       0.696  -0.920   0.485  1.00  0.00    -0.203 NA
ENDROOT
BRANCH   6   7
HETATM    7  N2  UNL     1       0.881  -2.304   0.519  1.00  0.00    -0.361 NA
ATOM      8  H22 UNL     1       0.117  -2.806   0.971  1.00  0.00     0.171 HD
ATOM      9  H21 UNL     1       1.730  -2.554   1.027  1.00  0.00     0.171 HD
ENDBRANCH   6   7
BRANCH   1  10
HETATM   10  C2  UNL     1      -1.300   0.362   0.638  1.00  0.00     0.019 C 
HETATM   11  C1  UNL     1      -2.507   0.959   0.004  1.00  0.00     0.007 C 
ENDBRANCH   1  10
TORSDOF 2
