REMARK  2 active torsions:
REMARK  status: ('A' for Active; 'I' for Inactive)
REMARK    1  A    between atoms: C2_2  and  N1_4 
REMARK    2  A    between atoms: N1_4  and  C4_6 
ROOT
HETATM    1  C4  UNL     1       1.313  -0.092  -0.691  1.00  0.00     0.261 A 
HETATM    2  N2  UNL     1       1.737   0.341   0.497  1.00  0.00    -0.243 N 
ATOM      3  H2  UNL     1       1.272   0.585   1.372  1.00  0.00     0.192 HD
HETATM    4  N3  UNL     1       2.994   0.329   0.096  1.00  0.00    -0.195 N 
ATOM      5  H3  UNL     1       3.899   0.552   0.510  1.00  0.00     0.216 HD
HETATM    6  O1  UNL     1       2.571  -0.092  -1.058  1.00  0.00    -0.184 OA
ENDROOT
BRANCH   1   7
HETATM    7  N1  UNL     1       0.217  -0.397  -1.297  1.00  0.00    -0.350 N 
ATOM      8  H1  UNL     1       0.268  -0.712  -2.266  1.00  0.00     0.163 HD
BRANCH   7   9
HETATM    9  C2  UNL     1      -1.082  -0.313  -0.666  1.00  0.00     0.077 C 
HETATM   10  C1  UNL     1      -1.390   1.081  -0.162  1.00  0.00     0.032 C 
HETATM   11  C3  UNL     1      -1.215  -1.264   0.506  1.00  0.00     0.032 C 
ENDBRANCH   7   9
ENDBRANCH   1   7
TORSDOF 2
