REMARK  3 active torsions:
REMARK  status: ('A' for Active; 'I' for Inactive)
REMARK    1  A    between atoms: C3_5  and  O1_7 
REMARK    2  A    between atoms: O1_7  and  C4_8 
REMARK    3  A    between atoms: C4_8  and  C5_9 
ROOT
HETATM    1  C1  UNL     1      -3.639   1.640   0.079  1.00  0.00     0.037 C 
HETATM    2  C2  UNL     1      -2.574   1.163   0.407  1.00  0.00     0.002 C 
HETATM    3  N1  UNL     1      -1.345   0.600   0.766  1.00  0.00    -0.284 N 
ATOM      4  H1  UNL     1      -0.570   1.205   1.037  1.00  0.00     0.179 HD
HETATM    5  C3  UNL     1      -1.188  -0.664   0.757  1.00  0.00     0.239 C 
HETATM    6  N2  UNL     1      -2.250  -1.508   0.384  1.00  0.00    -0.056 NA
ENDROOT
BRANCH   5   7
HETATM    7  O1  UNL     1       0.026  -1.189   1.113  1.00  0.00    -0.324 OA
BRANCH   7   8
HETATM    8  C4  UNL     1       1.224  -0.490   1.016  1.00  0.00     0.178 C 
BRANCH   8   9
HETATM    9  C5  UNL     1       1.532  -0.058  -0.415  1.00  0.00     0.022 C 
HETATM   10  C6  UNL     1       2.841   0.697  -0.467  1.00  0.00     0.007 C 
ENDBRANCH   8   9
ENDBRANCH   7   8
ENDBRANCH   5   7
TORSDOF 3
