REMARK  2 active torsions:
REMARK  status: ('A' for Active; 'I' for Inactive)
REMARK    1  A    between atoms: C4_7  and  C5_8 
REMARK    2  A    between atoms: C5_8  and  N2_9 
ROOT
HETATM    1  C1  UNL     1      -2.108   1.312  -0.321  1.00  0.00     0.078 C 
HETATM    2  C2  UNL     1      -1.207   0.106  -0.119  1.00  0.00     0.219 C 
HETATM    3  C3  UNL     1      -1.764  -0.815   0.962  1.00  0.00     0.078 C 
HETATM    4  N1  UNL     1       0.099   0.588   0.235  1.00  0.00    -0.036 N 
ATOM      5  H11 UNL     1       0.349   0.420   1.210  1.00  0.00     0.281 HD
ATOM      6  H12 UNL     1       0.166   1.605   0.268  1.00  0.00     0.281 HD
HETATM    7  C4  UNL     1       1.018  -0.035  -0.727  1.00  0.00     0.238 C 
HETATM    8  C6  UNL     1       0.198  -1.229  -1.165  1.00  0.00     0.205 C 
HETATM    9  O1  UNL     1      -1.077  -0.645  -1.284  1.00  0.00    -0.353 OA
ENDROOT
BRANCH   7  10
HETATM   10  C5  UNL     1       2.241  -0.440   0.057  1.00  0.00     0.265 C 
BRANCH  10  11
HETATM   11  N2  UNL     1       2.798   0.785   0.643  1.00  0.00    -0.077 N 
ATOM     12  H23 UNL     1       2.987   1.511  -0.049  1.00  0.00     0.274 HD
ATOM     13  H22 UNL     1       2.121   1.308   1.198  1.00  0.00     0.274 HD
ATOM     14  H21 UNL     1       3.625   0.511   1.173  1.00  0.00     0.274 HD
ENDBRANCH  10  11
ENDBRANCH   7  10
TORSDOF 2
