REMARK  13 active torsions:
REMARK  status: ('A' for Active; 'I' for Inactive)
REMARK    1  A    between atoms: C2_2  and  N1_3 
REMARK    2  A    between atoms: C2_2  and  N2_7 
REMARK    3  A    between atoms: N2_7  and  S1_9 
REMARK    4  A    between atoms: S1_9  and  N3_10 
REMARK    5  A    between atoms: S1_9  and  C3_14 
REMARK    6  A    between atoms: C6_22  and  C7_23 
REMARK       I    between atoms: C7_23  and  N6_25 
REMARK    7  A    between atoms: N6_25  and  C8_27 
REMARK    8  A    between atoms: C8_27  and  C9_28 
REMARK    9  A    between atoms: C8_27  and  C10_33 
REMARK   10  A    between atoms: C9_28  and  O4_29 
REMARK   11  A    between atoms: C9_28  and  O5_31 
REMARK   12  A    between atoms: C10_33  and  O6_34 
REMARK   13  A    between atoms: C10_33  and  O7_36 
ROOT
HETATM    1  C3  UNL     1      -2.894   0.050   0.534  1.00  0.00     0.205 A 
HETATM    2  N4  UNL     1      -2.356   1.162   0.009  1.00  0.00    -0.316 N 
ATOM      3  H4  UNL     1      -2.888   1.982  -0.283  1.00  0.00     0.169 HD
HETATM    4  C4  UNL     1      -1.007   1.046  -0.080  1.00  0.00     0.155 A 
HETATM    5  N5  UNL     1      -0.026   1.851  -0.521  1.00  0.00    -0.304 N 
ATOM      6  H5  UNL     1      -0.273   2.771  -0.885  1.00  0.00     0.171 HD
HETATM    7  C5  UNL     1       1.291   1.484  -0.500  1.00  0.00     0.279 A 
HETATM    8  O2  UNL     1       2.163   2.280  -0.926  1.00  0.00    -0.265 OA
HETATM    9  C6  UNL     1       1.591   0.242  -0.006  1.00  0.00     0.171 A 
HETATM   10  N7  UNL     1       0.571  -0.564   0.440  1.00  0.00    -0.330 N 
ATOM     11  H7  UNL     1       0.808  -1.486   0.807  1.00  0.00     0.168 HD
HETATM   12  C11 UNL     1      -0.711  -0.203   0.418  1.00  0.00     0.153 A 
HETATM   13  N8  UNL     1      -1.874  -0.781   0.782  1.00  0.00    -0.316 N 
ATOM     14  H8  UNL     1      -1.963  -1.713   1.186  1.00  0.00     0.169 HD
ENDROOT
BRANCH   9  15
HETATM   15  C7  UNL     1       2.957  -0.253   0.064  1.00  0.00     0.274 C 
HETATM   16  O3  UNL     1       3.057  -1.443   0.557  1.00  0.00    -0.266 OA
HETATM   17  N6  UNL     1       4.135   0.378  -0.321  1.00  0.00    -0.341 N 
ATOM     18  H6  UNL     1       4.089   1.319  -0.712  1.00  0.00     0.163 HD
BRANCH  17  19
HETATM   19  C8  UNL     1       5.451  -0.276  -0.179  1.00  0.00     0.194 C 
BRANCH  19  20
HETATM   20  C9  UNL     1       6.341   0.481   0.750  1.00  0.00     0.281 C 
BRANCH  20  21
HETATM   21  O4  UNL     1       7.553  -0.204   0.822  1.00  0.00    -0.369 OA
ATOM     22  H4  UNL     1       8.119   0.278   1.413  1.00  0.00     0.212 HD
ENDBRANCH  20  21
BRANCH  20  23
HETATM   23  O5  UNL     1       5.780   0.423   2.031  1.00  0.00    -0.369 OA
ATOM     24  H5  UNL     1       6.346   0.905   2.622  1.00  0.00     0.212 HD
ENDBRANCH  20  23
ENDBRANCH  19  20
BRANCH  19  25
HETATM   25  C10 UNL     1       6.001  -0.469  -1.552  1.00  0.00     0.281 C 
BRANCH  25  26
HETATM   26  O6  UNL     1       6.143   0.738  -2.191  1.00  0.00    -0.369 OA
ATOM     27  H6  UNL     1       6.493   0.615  -3.065  1.00  0.00     0.212 HD
ENDBRANCH  25  26
BRANCH  25  28
HETATM   28  O7  UNL     1       7.207  -1.164  -1.531  1.00  0.00    -0.369 OA
ATOM     29  H7  UNL     1       7.557  -1.287  -2.405  1.00  0.00     0.212 HD
ENDBRANCH  25  28
ENDBRANCH  19  25
ENDBRANCH  17  19
ENDBRANCH   9  15
BRANCH   1  30
HETATM   30  S1  UNL     1      -4.602  -0.252   0.837  1.00  0.00     0.167 S 
HETATM   31  O1  UNL     1      -4.762  -1.661   1.325  1.00  0.00    -0.221 OA
BRANCH  30  32
HETATM   32  N2  UNL     1      -5.398  -0.141  -0.495  1.00  0.00    -0.301 N 
ATOM     33  H2  UNL     1      -5.083   0.444  -1.269  1.00  0.00     0.173 HD
BRANCH  32  34
HETATM   34  C2  UNL     1      -6.622  -0.927  -0.563  1.00  0.00     0.285 C 
HETATM   35  C1  UNL     1      -7.321  -0.522  -1.839  1.00  0.00     0.063 C 
BRANCH  34  36
HETATM   36  N1  UNL     1      -7.460  -0.679   0.586  1.00  0.00    -0.058 N 
ATOM     37  H13 UNL     1      -7.774   0.291   0.620  1.00  0.00     0.276 HD
ATOM     38  H12 UNL     1      -8.369  -1.133   0.494  1.00  0.00     0.276 HD
ATOM     39  H11 UNL     1      -6.988  -0.953   1.448  1.00  0.00     0.276 HD
ENDBRANCH  34  36
ENDBRANCH  32  34
ENDBRANCH  30  32
BRANCH  30  40
HETATM   40  N3  UNL     1      -5.238   0.909   1.926  1.00  0.00    -0.339 N 
ATOM     41  H32 UNL     1      -6.003   1.552   1.722  1.00  0.00     0.167 HD
ATOM     42  H31 UNL     1      -4.716   0.836   2.799  1.00  0.00     0.167 HD
ENDBRANCH  30  40
ENDBRANCH   1  30
TORSDOF 13
