REMARK  11 active torsions:
REMARK  status: ('A' for Active; 'I' for Inactive)
REMARK       I    between atoms: N1_2  and  C2_4 
REMARK       I    between atoms: C2_4  and  N5_33 
REMARK    1  A    between atoms: N2_5  and  C3_7 
REMARK    2  A    between atoms: C5_9  and  O1_10 
REMARK    3  A    between atoms: O1_10  and  C6_11 
REMARK    4  A    between atoms: C8_14  and  C9_15 
REMARK    5  A    between atoms: C8_14  and  C10_18 
REMARK    6  A    between atoms: C9_15  and  O3_16 
REMARK    7  A    between atoms: C11_24  and  O6_25 
REMARK    8  A    between atoms: C11_24  and  C12_27 
REMARK    9  A    between atoms: C12_27  and  O7_28 
REMARK   10  A    between atoms: C12_27  and  C13_30 
REMARK   11  A    between atoms: N5_33  and  N6_35 
ROOT
HETATM    1  C3  UNL     1       0.624  -0.319   0.547  1.00  0.00     0.200 C 
HETATM    2  C4  UNL     1      -0.389   0.726  -0.024  1.00  0.00     0.019 C 
HETATM    3  C5  UNL     1      -0.371   1.921   0.407  1.00  0.00     0.154 C 
HETATM    4  C8  UNL     1      -1.205  -0.036  -0.998  1.00  0.00     0.264 C 
HETATM    5  N3  UNL     1      -1.465  -1.230  -0.165  1.00  0.00    -0.012 N 
ATOM      6  H31 UNL     1      -1.695  -2.053  -0.722  1.00  0.00     0.283 HD
ATOM      7  H32 UNL     1      -2.341  -1.163   0.353  1.00  0.00     0.283 HD
HETATM    8  C11 UNL     1      -0.340  -1.442   0.687  1.00  0.00     0.285 C 
ENDROOT
BRANCH   1   9
HETATM    9  N2  UNL     1       1.769  -0.348  -0.179  1.00  0.00    -0.211 N 
HETATM   10  C2  UNL     1       2.999  -0.172   0.092  1.00  0.00     0.693 C 
HETATM   11  N1  UNL     1       3.520   0.111   1.380  1.00  0.00    -0.229 N 
HETATM   12  N5  UNL     1       3.981  -0.240  -0.990  1.00  0.00    -0.072 N 
HETATM   13  C1  UNL     1       4.180   1.379   1.586  1.00  0.00     0.165 C 
ATOM     14  H1  UNL     1       3.431  -0.563   2.141  1.00  0.00     0.177 HD
ATOM     15  H5  UNL     1       4.685  -0.978  -1.000  1.00  0.00     0.212 HD
ATOM     16  H2  UNL     1       1.607  -0.558  -1.164  1.00  0.00     0.178 HD
BRANCH  12  17
HETATM   17  N6  UNL     1       3.947   0.714  -2.008  1.00  0.00    -0.024 N 
HETATM   18  O9  UNL     1       3.856   1.937  -1.764  1.00  0.00    -0.516 OA
HETATM   19  O10 UNL     1       4.057   0.313  -3.298  1.00  0.00    -0.516 OA
ENDBRANCH  12  17
ENDBRANCH   1   9
BRANCH   8  20
HETATM   20  O6  UNL     1      -0.875  -1.371   2.033  1.00  0.00    -0.361 OA
ATOM     21  H6  UNL     1      -1.491  -2.089   2.122  1.00  0.00     0.212 HD
ENDBRANCH   8  20
BRANCH   8  22
HETATM   22  C12 UNL     1       0.212  -2.848   0.598  1.00  0.00     0.272 C 
BRANCH  22  23
HETATM   23  O7  UNL     1       1.260  -2.912   1.534  1.00  0.00    -0.382 OA
ATOM     24  H7  UNL     1       1.607  -3.795   1.478  1.00  0.00     0.210 HD
ENDBRANCH  22  23
BRANCH  22  25
HETATM   25  C13 UNL     1      -0.901  -3.728   1.044  1.00  0.00     0.264 C 
HETATM   26  N4  UNL     1      -2.017  -3.926   0.189  1.00  0.00    -0.060 NA
HETATM   27  O8  UNL     1      -0.880  -4.313   2.161  1.00  0.00    -0.274 OA
ENDBRANCH  22  25
ENDBRANCH   8  22
BRANCH   3  28
HETATM   28  O1  UNL     1      -1.198   3.006   0.040  1.00  0.00    -0.291 OA
BRANCH  28  29
HETATM   29  C6  UNL     1      -2.338   3.252   0.835  1.00  0.00     0.259 C 
HETATM   30  C7  UNL     1      -3.260   4.316   0.569  1.00  0.00     0.126 C 
HETATM   31  O2  UNL     1      -2.516   2.466   1.851  1.00  0.00    -0.265 OA
ENDBRANCH  28  29
ENDBRANCH   3  28
BRANCH   4  32
HETATM   32  C9  UNL     1      -2.381   0.716  -1.461  1.00  0.00     0.220 C 
BRANCH  32  33
HETATM   33  O3  UNL     1      -3.189   0.012  -2.380  1.00  0.00    -0.397 OA
ATOM     34  H3  UNL     1      -3.949   0.498  -2.679  1.00  0.00     0.209 HD
ENDBRANCH  32  33
ENDBRANCH   4  32
BRANCH   4  35
HETATM   35  C10 UNL     1      -0.500  -0.573  -2.184  1.00  0.00     0.218 C 
HETATM   36  O4  UNL     1       0.634  -0.759  -2.430  1.00  0.00    -0.646 OA
HETATM   37  O5  UNL     1      -1.402  -1.000  -3.260  1.00  0.00    -0.646 OA
ENDBRANCH   4  35
TORSDOF 11
