REMARK  11 active torsions:
REMARK  status: ('A' for Active; 'I' for Inactive)
REMARK       I    between atoms: C2_2  and  N1_4 
REMARK    1  A    between atoms: N1_4  and  C3_6 
REMARK    2  A    between atoms: C3_6  and  C4_7 
REMARK    3  A    between atoms: C4_7  and  N2_8 
REMARK    4  A    between atoms: C4_7  and  C14_39 
REMARK    5  A    between atoms: N2_8  and  C5_10 
REMARK    6  A    between atoms: C5_10  and  C6_11 
REMARK    7  A    between atoms: C7_15  and  N4_16 
REMARK    8  A    between atoms: C9_22  and  N7_23 
REMARK    9  A    between atoms: C10_28  and  N9_29 
REMARK   10  A    between atoms: C13_36  and  O2_37 
REMARK       I    between atoms: C14_39  and  N11_41 
REMARK   11  A    between atoms: N11_41  and  N12_43 
ROOT
HETATM    1  C6  UNL     1       0.267   0.064  -0.689  1.00  0.00     0.254 C 
HETATM    2  N3  UNL     1      -0.779  -0.972  -0.596  1.00  0.00    -0.041 N 
ATOM      3  H31 UNL     1      -0.503  -1.803  -0.073  1.00  0.00     0.280 HD
ATOM      4  H32 UNL     1      -0.972  -1.455  -1.473  1.00  0.00     0.280 HD
HETATM    5  C7  UNL     1      -1.928  -0.256  -0.033  1.00  0.00     0.313 C 
HETATM    6  C12 UNL     1      -1.696   1.214  -0.305  1.00  0.00     0.090 C 
HETATM    7  C13 UNL     1      -0.567   1.154  -1.317  1.00  0.00     0.157 C 
ENDROOT
BRANCH   5   8
HETATM    8  N4  UNL     1      -3.178  -0.634  -0.659  1.00  0.00    -0.228 N 
HETATM    9  N5  UNL     1      -3.450  -1.057  -1.879  1.00  0.00    -0.236 N 
HETATM   10  N6  UNL     1      -4.714  -1.298  -2.061  1.00  0.00    -0.279 N 
ATOM     11  H5  UNL     1      -2.743  -1.182  -2.603  1.00  0.00     0.208 HD
HETATM   12  C8  UNL     1      -5.328  -1.025  -0.910  1.00  0.00     0.140 A 
ATOM     13  H6  UNL     1      -5.152  -1.632  -2.920  1.00  0.00     0.189 HD
HETATM   14  C9  UNL     1      -6.654  -1.090  -0.503  1.00  0.00     0.147 A 
HETATM   15  C11 UNL     1      -4.381  -0.607  -0.020  1.00  0.00     0.173 A 
HETATM   16  N8  UNL     1      -6.992  -0.743   0.758  1.00  0.00    -0.175 N 
HETATM   17  C10 UNL     1      -6.055  -0.333   1.627  1.00  0.00     0.679 A 
ATOM     18  H8  UNL     1      -7.967  -0.793   1.052  1.00  0.00     0.186 HD
HETATM   19  N10 UNL     1      -4.768  -0.274   1.220  1.00  0.00    -0.173 N 
ATOM     20  H10 UNL     1      -4.060   0.037   1.885  1.00  0.00     0.186 HD
BRANCH  14  21
HETATM   21  N7  UNL     1      -7.521  -1.484  -1.355  1.00  0.00    -0.383 N 
ATOM     22  H72 UNL     1      -7.266  -1.746  -2.307  1.00  0.00     0.157 HD
ATOM     23  H71 UNL     1      -8.495  -1.532  -1.056  1.00  0.00     0.157 HD
ENDBRANCH  14  21
BRANCH  17  24
HETATM   24  N9  UNL     1      -6.404  -0.009   2.821  1.00  0.00    -0.234 N 
ATOM     25  H92 UNL     1      -7.376  -0.054   3.128  1.00  0.00     0.174 HD
ATOM     26  H91 UNL     1      -5.692   0.303   3.481  1.00  0.00     0.174 HD
ENDBRANCH  17  24
ENDBRANCH   5   8
BRANCH   1  27
HETATM   27  C5  UNL     1       1.411  -0.408  -1.541  1.00  0.00     0.092 C 
BRANCH  27  28
HETATM   28  N2  UNL     1       2.424   0.522  -1.665  1.00  0.00    -0.386 N 
ATOM     29  H2  UNL     1       2.571   0.923  -2.591  1.00  0.00     0.159 HD
BRANCH  28  30
HETATM   30  C4  UNL     1       3.261   0.963  -0.650  1.00  0.00     0.193 C 
BRANCH  30  31
HETATM   31  C3  UNL     1       4.178  -0.013   0.018  1.00  0.00     0.157 C 
BRANCH  31  32
HETATM   32  N1  UNL     1       3.617  -1.094   0.729  1.00  0.00    -0.359 N 
HETATM   33  C2  UNL     1       4.488  -2.041   1.325  1.00  0.00     0.213 C 
HETATM   34  C1  UNL     1       3.959  -3.198   2.084  1.00  0.00     0.117 C 
HETATM   35  O1  UNL     1       5.727  -1.922   1.223  1.00  0.00    -0.274 OA
ATOM     36  H1  UNL     1       2.605  -1.193   0.813  1.00  0.00     0.162 HD
ENDBRANCH  31  32
ENDBRANCH  30  31
BRANCH  30  37
HETATM   37  C14 UNL     1       4.183   2.044  -1.187  1.00  0.00     0.260 C 
HETATM   38  O3  UNL     1       4.067   2.313  -2.405  1.00  0.00    -0.269 OA
HETATM   39  N11 UNL     1       5.119   2.725  -0.404  1.00  0.00    -0.275 N 
ATOM     40  H11 UNL     1       5.208   2.504   0.588  1.00  0.00     0.189 HD
BRANCH  39  41
HETATM   41  N12 UNL     1       5.931   3.704  -0.970  1.00  0.00    -0.343 N 
ATOM     42 2H12 UNL     1       5.830   3.913  -1.963  1.00  0.00     0.176 HD
ATOM     43 1H12 UNL     1       6.614   4.201  -0.398  1.00  0.00     0.176 HD
ENDBRANCH  39  41
ENDBRANCH  30  37
ENDBRANCH  28  30
ENDBRANCH  27  28
ENDBRANCH   1  27
BRANCH   7  44
HETATM   44  O2  UNL     1       0.087   2.342  -1.487  1.00  0.00    -0.393 OA
ATOM     45  H2  UNL     1      -0.438   3.028  -1.882  1.00  0.00     0.210 HD
ENDBRANCH   7  44
TORSDOF 11
