REMARK  11 active torsions:
REMARK  status: ('A' for Active; 'I' for Inactive)
REMARK    1  A    between atoms: C2_3  and  N2_4 
REMARK    2  A    between atoms: C5_12  and  N5_13 
REMARK    3  A    between atoms: C8_20  and  N7_21 
REMARK    4  A    between atoms: N8_24  and  C9_25 
REMARK    5  A    between atoms: C9_25  and  C10_26 
REMARK    6  A    between atoms: C10_26  and  O3_28 
REMARK    7  A    between atoms: O3_28  and  C11_29 
REMARK    8  A    between atoms: C11_29  and  C12_30 
REMARK    9  A    between atoms: C11_29  and  C13_33 
REMARK   10  A    between atoms: C13_33  and  O6_34 
REMARK   11  A    between atoms: C13_33  and  O7_36 
ROOT
HETATM    1  N1  UNL     1       0.084   0.282  -3.629  1.00  0.00    -0.196 NA
HETATM    2  C1  UNL     1      -0.548   0.894  -2.879  1.00  0.00     0.079 C 
HETATM    3  C2  UNL     1      -1.365   1.680  -1.959  1.00  0.00     0.256 C 
ENDROOT
BRANCH   3   4
HETATM    4  N2  UNL     1      -1.722   0.888  -0.812  1.00  0.00    -0.302 N 
HETATM    5  C3  UNL     1      -2.819   0.109  -0.750  1.00  0.00     0.130 A 
HETATM    6  N3  UNL     1      -3.776  -0.157  -1.644  1.00  0.00    -0.293 N 
HETATM    7  C6  UNL     1      -2.897  -0.487   0.488  1.00  0.00     0.083 A 
HETATM    8  C4  UNL     1      -4.811  -0.994  -1.354  1.00  0.00     0.327 A 
ATOM      9  H3  UNL     1      -3.730   0.277  -2.566  1.00  0.00     0.172 HD
HETATM   10  O1  UNL     1      -5.720  -1.253  -2.188  1.00  0.00    -0.247 OA
HETATM   11  N4  UNL     1      -4.911  -1.594  -0.138  1.00  0.00    -0.294 N 
HETATM   12  C5  UNL     1      -3.949  -1.330   0.767  1.00  0.00     0.119 A 
ATOM     13  H4  UNL     1      -5.686  -2.221   0.081  1.00  0.00     0.172 HD
HETATM   14  C7  UNL     1      -1.791  -0.022   1.162  1.00  0.00     0.112 A 
HETATM   15  N6  UNL     1      -1.151  -0.085   2.345  1.00  0.00    -0.187 N 
HETATM   16  C14 UNL     1      -1.050   0.837   0.357  1.00  0.00     0.157 A 
HETATM   17  C8  UNL     1      -0.063   0.697   2.281  1.00  0.00     0.680 A 
ATOM     18  H6  UNL     1      -1.444  -0.634   3.153  1.00  0.00     0.184 HD
HETATM   19  N8  UNL     1       0.006   1.265   1.065  1.00  0.00    -0.157 N 
BRANCH  12  20
HETATM   20  N5  UNL     1      -4.030  -1.891   1.922  1.00  0.00    -0.385 N 
ATOM     21  H52 UNL     1      -4.809  -2.516   2.129  1.00  0.00     0.157 HD
ATOM     22  H51 UNL     1      -3.301  -1.691   2.607  1.00  0.00     0.157 HD
ENDBRANCH  12  20
BRANCH  17  23
HETATM   23  N7  UNL     1       0.766   0.869   3.233  1.00  0.00    -0.234 N 
ATOM     24  H72 UNL     1       0.714   0.438   4.156  1.00  0.00     0.174 HD
ATOM     25  H71 UNL     1       1.593   1.464   3.184  1.00  0.00     0.174 HD
ENDBRANCH  17  23
BRANCH  19  26
HETATM   26  C9  UNL     1       1.038   2.176   0.666  1.00  0.00     0.260 C 
BRANCH  26  27
HETATM   27  C10 UNL     1       2.263   1.535   0.156  1.00  0.00     0.278 C 
HETATM   28  O2  UNL     1       3.174   2.231  -0.334  1.00  0.00    -0.263 OA
BRANCH  27  29
HETATM   29  O3  UNL     1       2.424   0.170   0.218  1.00  0.00    -0.299 OA
BRANCH  29  30
HETATM   30  C11 UNL     1       3.571  -0.512  -0.233  1.00  0.00     0.286 C 
BRANCH  30  31
HETATM   31  C12 UNL     1       4.266  -0.969   1.040  1.00  0.00     0.208 C 
HETATM   32  O4  UNL     1       5.345  -1.612   0.897  1.00  0.00    -0.646 OA
HETATM   33  O5  UNL     1       3.785  -0.718   2.293  1.00  0.00    -0.646 OA
ENDBRANCH  30  31
BRANCH  30  34
HETATM   34  C13 UNL     1       3.325  -1.758  -1.009  1.00  0.00     0.293 C 
BRANCH  34  35
HETATM   35  O6  UNL     1       2.607  -1.635  -2.164  1.00  0.00    -0.368 OA
ATOM     36  H6  UNL     1       2.450  -2.430  -2.659  1.00  0.00     0.212 HD
ENDBRANCH  34  35
BRANCH  34  37
HETATM   37  O7  UNL     1       4.605  -2.300  -1.294  1.00  0.00    -0.368 OA
ATOM     38  H7  UNL     1       4.448  -3.095  -1.789  1.00  0.00     0.212 HD
ENDBRANCH  34  37
ENDBRANCH  30  34
ENDBRANCH  29  30
ENDBRANCH  27  29
ENDBRANCH  26  27
ENDBRANCH  19  26
ENDBRANCH   3   4
TORSDOF 11
