REMARK  11 active torsions:
REMARK  status: ('A' for Active; 'I' for Inactive)
REMARK    1  A    between atoms: N1_1  and  C1_4 
REMARK    2  A    between atoms: C4_10  and  C5_11 
REMARK    3  A    between atoms: C5_11  and  N3_12 
REMARK    4  A    between atoms: N6_20  and  C7_21 
REMARK    5  A    between atoms: C7_21  and  C8_22 
REMARK       I    between atoms: C8_22  and  N7_24 
REMARK    6  A    between atoms: N7_24  and  C9_26 
REMARK    7  A    between atoms: C9_26  and  C10_27 
REMARK    8  A    between atoms: C10_27  and  C11_28 
REMARK    9  A    between atoms: C11_28  and  O3_29 
REMARK   10  A    between atoms: C12_34  and  O4_35 
REMARK   11  A    between atoms: C13_37  and  O5_38 
ROOT
HETATM    1  C1  UNL     1      -5.399  -2.452  -1.381  1.00  0.00     0.680 A 
HETATM    2  N2  UNL     1      -6.092  -1.364  -1.757  1.00  0.00    -0.155 N 
ATOM      3  H2  UNL     1      -6.960  -1.492  -2.277  1.00  0.00     0.187 HD
HETATM    4  C2  UNL     1      -5.688  -0.115  -1.476  1.00  0.00     0.274 A 
HETATM    5  O1  UNL     1      -6.376   0.844  -1.854  1.00  0.00    -0.267 OA
HETATM    6  C3  UNL     1      -4.531   0.105  -0.783  1.00  0.00     0.087 A 
HETATM    7  C4  UNL     1      -4.086   1.390  -0.478  1.00  0.00     0.018 A 
HETATM    8  C6  UNL     1      -2.898   1.472   0.230  1.00  0.00     0.100 A 
HETATM    9  N4  UNL     1      -2.209   2.539   0.672  1.00  0.00    -0.280 N 
ATOM     10  H4  UNL     1      -2.479   3.514   0.542  1.00  0.00     0.184 HD
HETATM   11  N5  UNL     1      -1.109   2.113   1.311  1.00  0.00    -0.018 NA
HETATM   12  N6  UNL     1      -1.059   0.794   1.298  1.00  0.00    -0.249 N 
HETATM   13  C14 UNL     1      -2.169   0.372   0.627  1.00  0.00     0.151 A 
HETATM   14  N9  UNL     1      -2.652  -0.832   0.301  1.00  0.00    -0.324 N 
ATOM     15  H9  UNL     1      -2.123  -1.656   0.587  1.00  0.00     0.169 HD
HETATM   16  C15 UNL     1      -3.794  -1.017  -0.382  1.00  0.00     0.139 A 
HETATM   17  N10 UNL     1      -4.253  -2.241  -0.694  1.00  0.00    -0.176 N 
ATOM     18  H10 UNL     1      -3.710  -3.052  -0.398  1.00  0.00     0.186 HD
ENDROOT
BRANCH  12  19
HETATM   19  C7  UNL     1      -0.044  -0.063   1.873  1.00  0.00     0.251 C 
BRANCH  19  20
HETATM   20  C8  UNL     1       1.048  -0.327   0.837  1.00  0.00     0.240 C 
HETATM   21  O2  UNL     1       0.926  -1.327   0.100  1.00  0.00    -0.271 OA
HETATM   22  N7  UNL     1       2.142   0.543   0.735  1.00  0.00    -0.337 N 
ATOM     23  H7  UNL     1       2.126   1.344   1.366  1.00  0.00     0.168 HD
BRANCH  22  24
HETATM   24  C9  UNL     1       3.241   0.467  -0.103  1.00  0.00     0.107 C 
BRANCH  24  25
HETATM   25  C10 UNL     1       4.308  -0.556   0.054  1.00  0.00     0.210 C 
HETATM   26  N8  UNL     1       5.367  -0.255  -0.967  1.00  0.00    -0.028 N 
HETATM   27  C12 UNL     1       5.980   0.596   0.019  1.00  0.00     0.352 C 
ATOM     28  H82 UNL     1       5.893  -1.003  -1.419  1.00  0.00     0.281 HD
ATOM     29  H81 UNL     1       5.123   0.099  -1.892  1.00  0.00     0.281 HD
HETATM   30  C13 UNL     1       5.332  -0.205   1.106  1.00  0.00     0.218 C 
BRANCH  25  31
HETATM   31  C11 UNL     1       3.910  -1.978  -0.026  1.00  0.00     0.211 C 
BRANCH  31  32
HETATM   32  O3  UNL     1       5.054  -2.806   0.134  1.00  0.00    -0.398 OA
ATOM     33  H3  UNL     1       4.798  -3.720   0.083  1.00  0.00     0.209 HD
ENDBRANCH  31  32
ENDBRANCH  25  31
BRANCH  27  34
HETATM   34  O4  UNL     1       7.383   0.524   0.004  1.00  0.00    -0.368 OA
ATOM     35  H4  UNL     1       7.788   1.086   0.655  1.00  0.00     0.212 HD
ENDBRANCH  27  34
BRANCH  30  36
HETATM   36  O5  UNL     1       6.095  -1.268   1.529  1.00  0.00    -0.388 OA
ATOM     37  H5  UNL     1       6.739  -1.047   2.191  1.00  0.00     0.210 HD
ENDBRANCH  30  36
ENDBRANCH  24  25
ENDBRANCH  22  24
ENDBRANCH  19  20
ENDBRANCH  12  19
BRANCH   7  38
HETATM   38  C5  UNL     1      -4.857   2.584  -0.895  1.00  0.00     0.271 C 
BRANCH  38  39
HETATM   39  N3  UNL     1      -4.087   3.745  -0.402  1.00  0.00    -0.075 N 
ATOM     40  H33 UNL     1      -3.892   3.712   0.599  1.00  0.00     0.274 HD
ATOM     41  H32 UNL     1      -3.116   3.755  -0.714  1.00  0.00     0.274 HD
ATOM     42  H31 UNL     1      -4.618   4.567  -0.689  1.00  0.00     0.274 HD
ENDBRANCH  38  39
ENDBRANCH   7  38
BRANCH   1  43
HETATM   43  N1  UNL     1      -5.810  -3.659  -1.664  1.00  0.00    -0.234 N 
ATOM     44  H12 UNL     1      -6.674  -3.818  -2.182  1.00  0.00     0.174 HD
ATOM     45  H11 UNL     1      -5.284  -4.485  -1.379  1.00  0.00     0.174 HD
ENDBRANCH   1  43
TORSDOF 11
