REMARK  4 active torsions:
REMARK  status: ('A' for Active; 'I' for Inactive)
REMARK    1  A    between atoms: N1_2  and  C2_4 
REMARK    2  A    between atoms: N3_9  and  C4_10 
REMARK    3  A    between atoms: C4_10  and  C5_11 
REMARK    4  A    between atoms: C9_15  and  N4_16 
ROOT
HETATM    1  C2  UNL     1       3.018   0.144   0.601  1.00  0.00     0.174 C 
HETATM    2  N2  UNL     1       2.444  -0.519  -0.439  1.00  0.00    -0.290 N 
ATOM      3  H2  UNL     1       2.842  -1.432  -0.659  1.00  0.00     0.172 HD
HETATM    4  C3  UNL     1       1.414  -0.122  -1.218  1.00  0.00     0.332 C 
HETATM    5  O1  UNL     1       1.279  -0.747  -2.298  1.00  0.00    -0.246 OA
HETATM    6  N3  UNL     1       0.507   0.848  -1.008  1.00  0.00    -0.247 N 
HETATM    7  C11 UNL     1       0.645   1.962  -0.242  1.00  0.00     0.333 C 
HETATM    8  O4  UNL     1      -0.063   2.962  -0.567  1.00  0.00    -0.246 OA
HETATM    9  N5  UNL     1       1.468   2.067   0.818  1.00  0.00    -0.272 N 
ATOM     10  H5  UNL     1       1.344   2.907   1.384  1.00  0.00     0.174 HD
HETATM   11  C12 UNL     1       2.440   1.218   1.245  1.00  0.00     0.293 C 
HETATM   12  O5  UNL     1       2.896   1.436   2.417  1.00  0.00    -0.264 OA
ENDROOT
BRANCH   6  13
HETATM   13  C4  UNL     1      -0.776   0.715  -1.666  1.00  0.00     0.177 C 
BRANCH  13  14
HETATM   14  C5  UNL     1      -1.779  -0.013  -0.874  1.00  0.00    -0.037 A 
HETATM   15  C6  UNL     1      -1.930  -1.367  -0.959  1.00  0.00     0.009 A 
HETATM   16  C7  UNL     1      -2.866  -2.090  -0.228  1.00  0.00     0.003 A 
HETATM   17  C8  UNL     1      -3.680  -1.382   0.629  1.00  0.00     0.036 A 
HETATM   18  C9  UNL     1      -3.578  -0.011   0.761  1.00  0.00     0.103 A 
HETATM   19  C10 UNL     1      -2.632   0.650   0.010  1.00  0.00     0.045 A 
BRANCH  18  20
HETATM   20  N4  UNL     1      -4.432   0.694   1.653  1.00  0.00    -0.116 N 
HETATM   21  O2  UNL     1      -5.278   0.061   2.317  1.00  0.00    -0.532 OA
HETATM   22  O3  UNL     1      -4.303   2.051   1.758  1.00  0.00    -0.532 OA
ENDBRANCH  18  20
ENDBRANCH  13  14
ENDBRANCH   6  13
BRANCH   1  23
HETATM   23  N1  UNL     1       4.178  -0.254   1.015  1.00  0.00    -0.376 N 
HETATM   24  C1  UNL     1       4.843  -1.374   0.386  1.00  0.00     0.148 C 
ATOM     25  H1  UNL     1       4.628   0.227   1.793  1.00  0.00     0.160 HD
ENDBRANCH   1  23
TORSDOF 4
