REMARK  5 active torsions:
REMARK  status: ('A' for Active; 'I' for Inactive)
REMARK    1  A    between atoms: C4_9  and  N3_10 
REMARK    2  A    between atoms: N4_13  and  C5_14 
REMARK    3  A    between atoms: C5_14  and  C6_15 
REMARK    4  A    between atoms: C9_18  and  S1_19 
REMARK    5  A    between atoms: S1_19  and  N5_20 
ROOT
HETATM    1  C1  UNL     1      -2.216   0.118  -2.029  1.00  0.00     0.183 C 
HETATM    2  N1  UNL     1      -2.678   0.141  -0.680  1.00  0.00    -0.237 N 
HETATM    3  C2  UNL     1      -3.843  -0.537  -0.405  1.00  0.00     0.331 A 
HETATM    4  O1  UNL     1      -4.437  -1.147  -1.327  1.00  0.00    -0.260 OA
HETATM    5  C3  UNL     1      -4.361  -0.558   0.852  1.00  0.00     0.329 A 
HETATM    6  O2  UNL     1      -5.423  -1.166   1.142  1.00  0.00    -0.261 OA
HETATM    7  N2  UNL     1      -3.692   0.106   1.791  1.00  0.00    -0.150 N 
ATOM      8  H2  UNL     1      -4.047   0.117   2.747  1.00  0.00     0.188 HD
HETATM    9  C4  UNL     1      -2.547   0.767   1.497  1.00  0.00     0.700 A 
HETATM   10  N4  UNL     1      -2.009   0.798   0.242  1.00  0.00    -0.092 N 
ENDROOT
BRANCH  10  11
HETATM   11  C5  UNL     1      -0.787   1.472  -0.036  1.00  0.00     0.146 C 
BRANCH  11  12
HETATM   12  C6  UNL     1       0.457   0.736  -0.047  1.00  0.00    -0.018 A 
HETATM   13  C7  UNL     1       1.100   0.483  -1.240  1.00  0.00     0.014 A 
HETATM   14  C8  UNL     1       2.293  -0.229  -1.328  1.00  0.00     0.026 A 
HETATM   15  C9  UNL     1       2.875  -0.712  -0.177  1.00  0.00     0.079 A 
HETATM   16  C10 UNL     1       2.257  -0.475   1.029  1.00  0.00     0.026 A 
HETATM   17  C11 UNL     1       1.051   0.248   1.084  1.00  0.00     0.014 A 
BRANCH  15  18
HETATM   18  S1  UNL     1       4.374  -1.612  -0.241  1.00  0.00     0.256 S 
HETATM   19  O3  UNL     1       4.458  -2.248  -1.601  1.00  0.00    -0.201 OA
HETATM   20  O4  UNL     1       4.425  -2.662   0.827  1.00  0.00    -0.201 OA
BRANCH  18  21
HETATM   21  N5  UNL     1       5.677  -0.493  -0.103  1.00  0.00    -0.324 N 
ATOM     22  H52 UNL     1       5.576   0.517  -0.002  1.00  0.00     0.169 HD
ATOM     23  H51 UNL     1       6.551  -1.018  -0.140  1.00  0.00     0.169 HD
ENDBRANCH  18  21
ENDBRANCH  15  18
ENDBRANCH  11  12
ENDBRANCH  10  11
BRANCH   9  24
HETATM   24  N3  UNL     1      -1.953   1.434   2.431  1.00  0.00    -0.233 N 
ATOM     25  H32 UNL     1      -2.355   1.411   3.368  1.00  0.00     0.174 HD
ATOM     26  H31 UNL     1      -1.091   1.932   2.210  1.00  0.00     0.174 HD
ENDBRANCH   9  24
TORSDOF 5
