REMARK  3 active torsions:
REMARK  status: ('A' for Active; 'I' for Inactive)
REMARK    1  A    between atoms: C2_2  and  N1_3 
REMARK    2  A    between atoms: C4_5  and  C5_6 
REMARK    3  A    between atoms: C5_6  and  C7_9 
ROOT
HETATM    1  C5  UNL     1      -1.027  -0.845  -1.004  1.00  0.00     0.186 C 
HETATM    2  C6  UNL     1      -1.065  -0.314  -2.375  1.00  0.00     0.075 C 
HETATM    3  N2  UNL     1      -1.075   0.107  -3.450  1.00  0.00    -0.196 NA
ENDROOT
BRANCH   1   4
HETATM    4  C4  UNL     1       0.354  -0.826  -0.516  1.00  0.00     0.050 A 
HETATM    5  C3  UNL     1       1.055   0.290  -0.129  1.00  0.00     0.115 A 
HETATM    6  N1  UNL     1       2.357   0.214   0.299  1.00  0.00    -0.285 N 
HETATM    7  C10 UNL     1       2.962  -0.972   0.342  1.00  0.00     0.333 A 
HETATM    8  N6  UNL     1       2.305  -2.121  -0.035  1.00  0.00    -0.275 N 
HETATM    9  O4  UNL     1       4.156  -1.102   0.728  1.00  0.00    -0.246 OA
HETATM   10  C9  UNL     1       1.046  -2.027  -0.447  1.00  0.00     0.258 A 
ATOM     11  H6  UNL     1       2.775  -3.026   0.001  1.00  0.00     0.173 HD
HETATM   12  O3  UNL     1       0.426  -3.083  -0.799  1.00  0.00    -0.267 OA
BRANCH   6  13
HETATM   13  C2  UNL     1       2.980   1.418   0.685  1.00  0.00     0.091 C 
HETATM   14  C1  UNL     1       4.236   1.642   0.917  1.00  0.00     0.030 C 
ENDBRANCH   6  13
ENDBRANCH   1   4
BRANCH   1  15
HETATM   15  C7  UNL     1      -1.977  -0.073  -0.131  1.00  0.00     0.087 A 
HETATM   16  N3  UNL     1      -1.566   0.531   0.908  1.00  0.00    -0.266 N 
HETATM   17  S1  UNL     1      -2.915   1.294   1.644  1.00  0.00     0.324 S 
ATOM     18  H3  UNL     1      -0.604   0.558   1.245  1.00  0.00     0.180 HD
HETATM   19  O1  UNL     1      -2.777   2.778   1.715  1.00  0.00    -0.182 OA
HETATM   20  O2  UNL     1      -3.263   0.686   2.968  1.00  0.00    -0.182 OA
HETATM   21  N4  UNL     1      -4.107   0.790   0.510  1.00  0.00    -0.251 N 
HETATM   22  C8  UNL     1      -3.377   0.014  -0.432  1.00  0.00     0.135 A 
ATOM     23  H4  UNL     1      -5.105   0.999   0.513  1.00  0.00     0.182 HD
HETATM   24  N5  UNL     1      -4.011  -0.550  -1.451  1.00  0.00    -0.383 N 
ATOM     25  H52 UNL     1      -3.487  -1.107  -2.127  1.00  0.00     0.157 HD
ATOM     26  H51 UNL     1      -5.006  -0.488  -1.665  1.00  0.00     0.157 HD
ENDBRANCH   1  15
TORSDOF 3
