REMARK  3 active torsions:
REMARK  status: ('A' for Active; 'I' for Inactive)
REMARK    1  A    between atoms: C2_5  and  C3_6 
REMARK    2  A    between atoms: C3_6  and  N3_7 
REMARK    3  A    between atoms: C6_10  and  C7_11 
ROOT
HETATM    1  N3  UNL     1       0.480   0.050  -1.014  1.00  0.00    -0.361 N 
HETATM    2  C4  UNL     1      -0.415  -0.831  -0.509  1.00  0.00     0.091 A 
HETATM    3  C5  UNL     1      -1.570  -0.396   0.093  1.00  0.00     0.029 A 
HETATM    4  C6  UNL     1      -1.826   0.953   0.185  1.00  0.00    -0.029 A 
HETATM    5  C10 UNL     1      -0.885   1.823  -0.344  1.00  0.00     0.029 A 
HETATM    6  C11 UNL     1       0.268   1.373  -0.944  1.00  0.00     0.091 A 
ENDROOT
BRANCH   1   7
HETATM    7  C3  UNL     1       1.673  -0.455  -1.633  1.00  0.00     0.184 C 
BRANCH   7   8
HETATM    8  C2  UNL     1       2.808  -0.633  -0.729  1.00  0.00     0.035 A 
HETATM    9  N2  UNL     1       3.743   0.277  -0.528  1.00  0.00    -0.332 N 
HETATM   10  C1  UNL     1       4.786   0.100   0.312  1.00  0.00     0.195 A 
ATOM     11  H2  UNL     1       3.674   1.160  -1.034  1.00  0.00     0.168 HD
HETATM   12  N1  UNL     1       5.787   1.103   0.510  1.00  0.00    -0.063 NA
HETATM   13  N6  UNL     1       4.903  -1.065   0.996  1.00  0.00    -0.297 N 
HETATM   14  C13 UNL     1       3.984  -2.043   0.841  1.00  0.00     0.249 A 
ATOM     15  H6  UNL     1       5.689  -1.204   1.631  1.00  0.00     0.171 HD
HETATM   16  C12 UNL     1       2.919  -1.838  -0.028  1.00  0.00     0.101 A 
HETATM   17  O3  UNL     1       4.108  -3.113   1.481  1.00  0.00    -0.268 OA
ENDBRANCH   7   8
ENDBRANCH   1   7
BRANCH   4  18
HETATM   18  C7  UNL     1      -3.061   1.401   0.815  1.00  0.00     0.069 C 
HETATM   19  C8  UNL     1      -4.193   0.747   0.530  1.00  0.00     0.168 A 
HETATM   20  N4  UNL     1      -5.492   1.068   1.074  1.00  0.00    -0.275 N 
HETATM   21  O2  UNL     1      -4.387  -0.324  -0.301  1.00  0.00    -0.241 OA
HETATM   22  N5  UNL     1      -6.444   0.166   0.546  1.00  0.00    -0.243 N 
ATOM     23  H4  UNL     1      -5.690   1.822   1.732  1.00  0.00     0.189 HD
HETATM   24  C9  UNL     1      -5.719  -0.696  -0.314  1.00  0.00     0.386 A 
ATOM     25  H5  UNL     1      -7.444   0.141   0.743  1.00  0.00     0.192 HD
HETATM   26  O1  UNL     1      -6.260  -1.638  -0.965  1.00  0.00    -0.236 OA
ENDBRANCH   4  18
TORSDOF 3
