REMARK  6 active torsions:
REMARK  status: ('A' for Active; 'I' for Inactive)
REMARK    1  A    between atoms: N1_1  and  C1_4 
REMARK    2  A    between atoms: C4_14  and  N6_15 
REMARK    3  A    between atoms: N6_15  and  C5_17 
REMARK    4  A    between atoms: C5_17  and  C6_18 
REMARK    5  A    between atoms: C9_21  and  S1_22 
REMARK    6  A    between atoms: S1_22  and  N7_23 
ROOT
HETATM    1  C1  UNL     1      -4.661  -1.089  -0.461  1.00  0.00     0.705 A 
HETATM    2  N2  UNL     1      -5.318   0.083  -0.499  1.00  0.00    -0.020 N 
ATOM      3  H2  UNL     1      -6.321   0.090  -0.685  1.00  0.00     0.203 HD
HETATM    4  C2  UNL     1      -4.667   1.259  -0.294  1.00  0.00     0.734 A 
HETATM    5  N3  UNL     1      -5.057   2.548  -0.274  1.00  0.00    -0.184 N 
ATOM      6  H3  UNL     1      -6.014   2.866  -0.428  1.00  0.00     0.185 HD
HETATM    7  C3  UNL     1      -4.014   3.359  -0.023  1.00  0.00     0.216 A 
HETATM    8  N4  UNL     1      -2.950   2.545   0.116  1.00  0.00    -0.260 N 
ATOM      9  H4  UNL     1      -1.996   2.847   0.314  1.00  0.00     0.189 HD
HETATM   10  N5  UNL     1      -3.344   1.281  -0.047  1.00  0.00     0.092 N 
HETATM   11  C4  UNL     1      -2.683   0.103  -0.009  1.00  0.00     0.729 A 
HETATM   12  N8  UNL     1      -3.337  -1.054  -0.212  1.00  0.00    -0.020 N 
ATOM     13  H8  UNL     1      -2.816  -1.930  -0.177  1.00  0.00     0.203 HD
ENDROOT
BRANCH  11  14
HETATM   14  N6  UNL     1      -1.421   0.091   0.225  1.00  0.00    -0.219 N 
ATOM     15  H6  UNL     1      -0.930   0.972   0.380  1.00  0.00     0.178 HD
BRANCH  14  16
HETATM   16  C5  UNL     1      -0.694  -1.138   0.272  1.00  0.00     0.176 C 
BRANCH  16  17
HETATM   17  C6  UNL     1       0.762  -0.970   0.209  1.00  0.00    -0.040 A 
HETATM   18  C7  UNL     1       1.438  -0.955  -0.991  1.00  0.00     0.010 A 
HETATM   19  C8  UNL     1       2.788  -0.801  -1.070  1.00  0.00     0.026 A 
HETATM   20  C9  UNL     1       3.554  -0.648   0.074  1.00  0.00     0.079 A 
HETATM   21  C10 UNL     1       2.878  -0.662   1.277  1.00  0.00     0.026 A 
HETATM   22  C11 UNL     1       1.512  -0.818   1.378  1.00  0.00     0.010 A 
BRANCH  20  23
HETATM   23  S1  UNL     1       5.286  -0.448  -0.009  1.00  0.00     0.256 S 
HETATM   24  O1  UNL     1       5.932  -1.105   1.201  1.00  0.00    -0.201 OA
HETATM   25  O2  UNL     1       5.763  -1.128  -1.278  1.00  0.00    -0.201 OA
BRANCH  23  26
HETATM   26  N7  UNL     1       5.737   1.215  -0.126  1.00  0.00    -0.324 N 
ATOM     27  H72 UNL     1       5.060   1.978  -0.143  1.00  0.00     0.169 HD
ATOM     28  H71 UNL     1       6.749   1.332  -0.175  1.00  0.00     0.169 HD
ENDBRANCH  23  26
ENDBRANCH  20  23
ENDBRANCH  16  17
ENDBRANCH  14  16
ENDBRANCH  11  14
BRANCH   1  29
HETATM   29  N1  UNL     1      -5.289  -2.220  -0.658  1.00  0.00    -0.234 N 
ATOM     30  H12 UNL     1      -6.291  -2.246  -0.846  1.00  0.00     0.174 HD
ATOM     31  H11 UNL     1      -4.790  -3.109  -0.629  1.00  0.00     0.174 HD
ENDBRANCH   1  29
TORSDOF 6
