REMARK  4 active torsions:
REMARK  status: ('A' for Active; 'I' for Inactive)
REMARK    1  A    between atoms: C3_3  and  C4_4 
REMARK    2  A    between atoms: C4_4  and  N1_5 
REMARK    3  A    between atoms: N2_8  and  C7_9 
REMARK    4  A    between atoms: C10_19  and  N6_20 
ROOT
HETATM    1  C1  UNL     1       7.080  -0.792   0.484  1.00  0.00     0.012 C 
HETATM    2  C2  UNL     1       5.887  -0.716   0.655  1.00  0.00    -0.116 C 
HETATM    3  C3  UNL     1       4.418  -0.617   0.839  1.00  0.00     0.123 C 
ENDROOT
BRANCH   3   4
HETATM    4  C4  UNL     1       3.894   0.154  -0.338  1.00  0.00     0.284 C 
BRANCH   4   5
HETATM    5  N1  UNL     1       2.477   0.358  -0.340  1.00  0.00     0.092 N 
HETATM    6  C5  UNL     1       2.044   1.242   0.699  1.00  0.00     0.293 C 
HETATM    7  C6  UNL     1       0.578   1.504   0.634  1.00  0.00     0.171 C 
HETATM    8  N2  UNL     1      -0.042   1.046  -0.601  1.00  0.00    -0.213 N 
HETATM    9  C12 UNL     1       0.675   1.139  -1.844  1.00  0.00     0.171 C 
HETATM   10  C13 UNL     1       2.112   0.805  -1.661  1.00  0.00     0.293 C 
BRANCH   8  11
HETATM   11  C7  UNL     1      -1.362   0.509  -0.611  1.00  0.00     0.696 A 
HETATM   12  N3  UNL     1      -1.882   0.058  -1.759  1.00  0.00    -0.131 N 
HETATM   13  N4  UNL     1      -3.099  -0.449  -1.850  1.00  0.00    -0.278 N 
ATOM     14  H3  UNL     1      -1.312   0.108  -2.603  1.00  0.00     0.205 HD
HETATM   15  C8  UNL     1      -3.872  -0.524  -0.742  1.00  0.00     0.162 A 
ATOM     16  H4  UNL     1      -3.452  -0.781  -2.747  1.00  0.00     0.188 HD
HETATM   17  C9  UNL     1      -5.153  -1.049  -0.807  1.00  0.00     0.291 A 
HETATM   18  C11 UNL     1      -3.369  -0.070   0.450  1.00  0.00     0.170 A 
HETATM   19  O1  UNL     1      -5.594  -1.459  -1.908  1.00  0.00    -0.265 OA
HETATM   20  N5  UNL     1      -5.857  -1.085   0.343  1.00  0.00    -0.154 N 
HETATM   21  C10 UNL     1      -5.372  -0.643   1.514  1.00  0.00     0.680 A 
ATOM     22  H5  UNL     1      -6.803  -1.466   0.322  1.00  0.00     0.187 HD
HETATM   23  N7  UNL     1      -4.124  -0.131   1.582  1.00  0.00    -0.174 N 
ATOM     24  H7  UNL     1      -3.752   0.206   2.470  1.00  0.00     0.186 HD
HETATM   25  N8  UNL     1      -2.112   0.447   0.513  1.00  0.00    -0.172 N 
ATOM     26  H8  UNL     1      -1.739   0.785   1.400  1.00  0.00     0.186 HD
BRANCH  21  27
HETATM   27  N6  UNL     1      -6.105  -0.713   2.554  1.00  0.00    -0.234 N 
ATOM     28  H62 UNL     1      -7.047  -1.100   2.503  1.00  0.00     0.174 HD
ATOM     29  H61 UNL     1      -5.736  -0.377   3.444  1.00  0.00     0.174 HD
ENDBRANCH  21  27
ENDBRANCH   8  11
ENDBRANCH   4   5
ENDBRANCH   3   4
TORSDOF 4
