REMARK  13 active torsions:
REMARK  status: ('A' for Active; 'I' for Inactive)
REMARK    1  A    between atoms: N1_2  and  C2_5 
REMARK    2  A    between atoms: C2_5  and  N2_6 
REMARK    3  A    between atoms: C2_5  and  C4_10 
REMARK    4  A    between atoms: N2_6  and  C3_8 
REMARK    5  A    between atoms: C4_10  and  O2_11 
REMARK    6  A    between atoms: C4_10  and  C5_13 
REMARK       I    between atoms: C5_13  and  N3_15 
REMARK    7  A    between atoms: N3_15  and  C6_17 
REMARK    8  A    between atoms: C7_18  and  N4_19 
REMARK    9  A    between atoms: C9_24  and  N5_25 
REMARK   10  A    between atoms: N5_25  and  C10_27 
REMARK   11  A    between atoms: C12_30  and  N7_31 
REMARK   12  A    between atoms: C13_36  and  N9_37 
REMARK   13  A    between atoms: C19_48  and  O5_49 
ROOT
HETATM    1  C6  UNL     1      -2.540  -0.246   0.230  1.00  0.00     0.170 C 
HETATM    2  C7  UNL     1      -2.069  -1.679   0.466  1.00  0.00     0.215 C 
HETATM    3  C8  UNL     1      -0.563  -1.659   0.136  1.00  0.00     0.088 C 
HETATM    4  C9  UNL     1       0.149  -0.905   1.223  1.00  0.00     0.227 C 
HETATM    5  O4  UNL     1      -0.697   0.108   1.746  1.00  0.00    -0.335 OA
HETATM    6  C19 UNL     1      -1.490   0.663   0.751  1.00  0.00     0.284 C 
ENDROOT
BRANCH   4   7
HETATM    7  N5  UNL     1       1.421  -0.360   0.852  1.00  0.00    -0.347 N 
ATOM      8  H5  UNL     1       1.415   0.648   0.695  1.00  0.00     0.163 HD
BRANCH   7   9
HETATM    9  C10 UNL     1       2.667  -0.962   0.667  1.00  0.00     0.149 A 
HETATM   10  C11 UNL     1       2.999  -2.271   0.931  1.00  0.00     0.134 A 
HETATM   11  N6  UNL     1       2.097  -3.159   1.528  1.00  0.00    -0.094 NA
HETATM   12  C12 UNL     1       4.280  -2.757   0.651  1.00  0.00     0.143 A 
HETATM   13  N8  UNL     1       5.193  -1.940   0.120  1.00  0.00    -0.175 N 
HETATM   14  C13 UNL     1       4.890  -0.636  -0.151  1.00  0.00     0.685 A 
ATOM     15  H8  UNL     1       6.127  -2.294  -0.086  1.00  0.00     0.186 HD
HETATM   16  N11 UNL     1       3.665  -0.190   0.122  1.00  0.00    -0.171 N 
HETATM   17  C18 UNL     1       3.368   1.214  -0.187  1.00  0.00     0.177 C 
BRANCH  12  18
HETATM   18  N7  UNL     1       4.518  -3.988   0.926  1.00  0.00    -0.383 N 
ATOM     19  H72 UNL     1       3.821  -4.612   1.332  1.00  0.00     0.157 HD
ATOM     20  H71 UNL     1       5.452  -4.342   0.722  1.00  0.00     0.157 HD
ENDBRANCH  12  18
BRANCH  14  21
HETATM   21  N9  UNL     1       5.947   0.142  -0.712  1.00  0.00    -0.214 N 
HETATM   22  C14 UNL     1       6.927   0.669   0.210  1.00  0.00     0.168 C 
HETATM   23  C15 UNL     1       7.289   2.062  -0.155  1.00  0.00     0.252 C 
HETATM   24  N10 UNL     1       7.692   2.206  -1.537  1.00  0.00    -0.072 N 
HETATM   25  C16 UNL     1       6.727   1.705  -2.459  1.00  0.00     0.252 C 
ATOM     26 2H10 UNL     1       7.925   3.176  -1.748  1.00  0.00     0.277 HD
ATOM     27 1H10 UNL     1       8.603   1.776  -1.696  1.00  0.00     0.277 HD
HETATM   28  C17 UNL     1       6.095   0.407  -2.118  1.00  0.00     0.168 C 
ENDBRANCH  14  21
ENDBRANCH   7   9
ENDBRANCH   4   7
BRANCH   2  29
HETATM   29  N4  UNL     1      -2.698  -2.540  -0.487  1.00  0.00    -0.073 N 
ATOM     30  H43 UNL     1      -3.715  -2.458  -0.472  1.00  0.00     0.274 HD
ATOM     31  H42 UNL     1      -2.544  -2.234  -1.448  1.00  0.00     0.274 HD
ATOM     32  H41 UNL     1      -2.383  -3.497  -0.329  1.00  0.00     0.274 HD
ENDBRANCH   2  29
BRANCH   6  33
HETATM   33  O5  UNL     1      -2.095   1.798   1.332  1.00  0.00    -0.369 OA
ATOM     34  H5  UNL     1      -1.423   2.380   1.666  1.00  0.00     0.212 HD
ENDBRANCH   6  33
BRANCH   1  35
HETATM   35  N3  UNL     1      -3.864  -0.041   0.778  1.00  0.00    -0.347 N 
HETATM   36  C5  UNL     1      -5.026   0.097  -0.018  1.00  0.00     0.250 C 
HETATM   37  O3  UNL     1      -4.993   0.052  -1.284  1.00  0.00    -0.271 OA
ATOM     38  H3  UNL     1      -3.965   0.007   1.792  1.00  0.00     0.163 HD
BRANCH  36  39
HETATM   39  C4  UNL     1      -6.364   0.303   0.589  1.00  0.00     0.260 C 
BRANCH  39  40
HETATM   40  C2  UNL     1      -7.069   1.533   0.085  1.00  0.00     0.323 C 
BRANCH  40  41
HETATM   41  N1  UNL     1      -8.378   1.661   0.718  1.00  0.00    -0.055 N 
HETATM   42  C1  UNL     1      -9.260   0.570   0.417  1.00  0.00     0.269 C 
ATOM     43  H12 UNL     1      -8.810   2.554   0.480  1.00  0.00     0.279 HD
ATOM     44  H11 UNL     1      -8.283   1.784   1.726  1.00  0.00     0.279 HD
ENDBRANCH  40  41
BRANCH  40  45
HETATM   45  N2  UNL     1      -7.347   1.387  -1.353  1.00  0.00    -0.338 N 
ATOM     46  H2  UNL     1      -7.738   0.515  -1.710  1.00  0.00     0.164 HD
BRANCH  45  47
HETATM   47  C3  UNL     1      -7.097   2.359  -2.163  1.00  0.00     0.350 C 
HETATM   48  O1  UNL     1      -6.612   3.077  -3.065  1.00  0.00    -0.284 OA
ENDBRANCH  45  47
ENDBRANCH  40  45
ENDBRANCH  39  40
BRANCH  39  49
HETATM   49  O2  UNL     1      -6.205   0.403   1.958  1.00  0.00    -0.382 OA
ATOM     50  H2  UNL     1      -5.760  -0.374   2.276  1.00  0.00     0.210 HD
ENDBRANCH  39  49
ENDBRANCH  36  39
ENDBRANCH   1  35
TORSDOF 13
