REMARK  11 active torsions:
REMARK  status: ('A' for Active; 'I' for Inactive)
REMARK    1  A    between atoms: N1_1  and  C1_4 
REMARK    2  A    between atoms: C3_8  and  N3_9 
REMARK    3  A    between atoms: N5_14  and  O1_15 
REMARK    4  A    between atoms: O1_15  and  C4_16 
REMARK    5  A    between atoms: C6_21  and  C7_22 
REMARK    6  A    between atoms: C7_22  and  N7_23 
REMARK    7  A    between atoms: C9_29  and  N10_30 
REMARK    8  A    between atoms: C14_46  and  N15_47 
REMARK    9  A    between atoms: N15_47  and  C15_49 
REMARK   10  A    between atoms: C15_49  and  C16_50 
REMARK   11  A    between atoms: C16_50  and  O3_51 
ROOT
HETATM    1  C4  UNL     1       0.867  -0.022   1.164  1.00  0.00     0.293 C 
HETATM    2  C5  UNL     1       1.593   0.466   2.393  1.00  0.00     0.292 C 
HETATM    3  N6  UNL     1       3.012   0.192   2.365  1.00  0.00    -0.047 N 
ATOM      4  H61 UNL     1       3.399   0.006   3.290  1.00  0.00     0.279 HD
ATOM      5  H62 UNL     1       3.571   1.017   2.149  1.00  0.00     0.279 HD
HETATM    6  C6  UNL     1       3.229  -0.888   1.441  1.00  0.00     0.318 C 
HETATM    7  N13 UNL     1       2.880  -0.372   0.137  1.00  0.00    -0.306 N 
ATOM      8  H13 UNL     1       3.548  -0.356  -0.634  1.00  0.00     0.182 HD
HETATM    9  N14 UNL     1       1.719   0.051   0.010  1.00  0.00    -0.306 N 
ATOM     10  H14 UNL     1       1.385   0.433  -0.875  1.00  0.00     0.183 HD
ENDROOT
BRANCH   1  11
HETATM   11  O1  UNL     1      -0.346   0.643   0.984  1.00  0.00    -0.226 OA
BRANCH  11  12
HETATM   12  N5  UNL     1      -1.531  -0.037   0.961  1.00  0.00    -0.116 N 
HETATM   13  N4  UNL     1      -1.774  -0.963   1.865  1.00  0.00    -0.254 N 
HETATM   14  C3  UNL     1      -2.923  -1.654   1.881  1.00  0.00     0.144 A 
ATOM     15  H4  UNL     1      -1.068  -1.160   2.574  1.00  0.00     0.191 HD
HETATM   16  C2  UNL     1      -3.853  -1.335   0.880  1.00  0.00     0.113 A 
HETATM   17  N2  UNL     1      -5.018  -2.001   0.865  1.00  0.00    -0.187 N 
HETATM   18  C13 UNL     1      -3.606  -0.361  -0.076  1.00  0.00     0.111 A 
HETATM   19  C1  UNL     1      -5.934  -1.723  -0.071  1.00  0.00     0.678 A 
ATOM     20  H2  UNL     1      -5.205  -2.718   1.566  1.00  0.00     0.184 HD
HETATM   21  N16 UNL     1      -5.712  -0.788  -1.001  1.00  0.00    -0.176 N 
HETATM   22  C14 UNL     1      -4.563  -0.078  -1.047  1.00  0.00     0.135 A 
ATOM     23  H16 UNL     1      -6.433  -0.605  -1.698  1.00  0.00     0.186 HD
HETATM   24  C12 UNL     1      -2.411   0.299  -0.024  1.00  0.00     0.303 A 
HETATM   25  O2  UNL     1      -2.101   1.191  -0.840  1.00  0.00    -0.263 OA
BRANCH  14  26
HETATM   26  N3  UNL     1      -3.196  -2.565   2.746  1.00  0.00    -0.382 N 
ATOM     27  H32 UNL     1      -4.070  -3.091   2.758  1.00  0.00     0.157 HD
ATOM     28  H31 UNL     1      -2.520  -2.797   3.474  1.00  0.00     0.157 HD
ENDBRANCH  14  26
BRANCH  19  29
HETATM   29  N1  UNL     1      -7.072  -2.384  -0.073  1.00  0.00    -0.234 N 
ATOM     30  H12 UNL     1      -7.241  -3.097   0.636  1.00  0.00     0.174 HD
ATOM     31  H11 UNL     1      -7.770  -2.172  -0.786  1.00  0.00     0.174 HD
ENDBRANCH  19  29
BRANCH  22  32
HETATM   32  N15 UNL     1      -4.346   0.863  -2.081  1.00  0.00    -0.373 N 
ATOM     33  H15 UNL     1      -3.432   1.311  -2.148  1.00  0.00     0.161 HD
BRANCH  32  34
HETATM   34  C15 UNL     1      -5.377   1.224  -3.061  1.00  0.00     0.147 C 
BRANCH  34  35
HETATM   35  C16 UNL     1      -6.327   2.264  -2.592  1.00  0.00     0.183 C 
BRANCH  35  36
HETATM   36  O3  UNL     1      -7.068   2.017  -1.481  1.00  0.00    -0.399 OA
ATOM     37  H3  UNL     1      -7.676   2.682  -1.181  1.00  0.00     0.209 HD
ENDBRANCH  35  36
ENDBRANCH  34  35
ENDBRANCH  32  34
ENDBRANCH  22  32
ENDBRANCH  11  12
ENDBRANCH   1  11
BRANCH   6  38
HETATM   38  C7  UNL     1       4.653  -1.395   1.476  1.00  0.00     0.208 C 
BRANCH  38  39
HETATM   39  N7  UNL     1       5.581  -0.327   1.129  1.00  0.00    -0.256 N 
HETATM   40  N8  UNL     1       6.173   0.542   1.911  1.00  0.00    -0.238 N 
HETATM   41  N9  UNL     1       6.923   1.318   1.152  1.00  0.00    -0.279 N 
ATOM     42  H8  UNL     1       6.072   0.607   2.924  1.00  0.00     0.208 HD
HETATM   43  C8  UNL     1       6.826   0.959  -0.133  1.00  0.00     0.139 A 
ATOM     44  H9  UNL     1       7.498   2.086   1.498  1.00  0.00     0.189 HD
HETATM   45  C9  UNL     1       7.363   1.392  -1.325  1.00  0.00     0.132 A 
HETATM   46  C11 UNL     1       5.954  -0.108  -0.141  1.00  0.00     0.157 A 
HETATM   47  N11 UNL     1       7.002   0.740  -2.451  1.00  0.00    -0.337 N 
HETATM   48  C10 UNL     1       6.162  -0.291  -2.474  1.00  0.00     0.183 A 
ATOM     49  H11 UNL     1       7.397   1.057  -3.336  1.00  0.00     0.168 HD
HETATM   50  N12 UNL     1       5.640  -0.713  -1.321  1.00  0.00    -0.335 N 
ATOM     51  H12 UNL     1       4.994  -1.503  -1.323  1.00  0.00     0.168 HD
BRANCH  45  52
HETATM   52  N10 UNL     1       8.169   2.378  -1.311  1.00  0.00    -0.383 N 
ATOM     53 2H10 UNL     1       8.442   2.871  -0.460  1.00  0.00     0.157 HD
ATOM     54 1H10 UNL     1       8.567   2.699  -2.194  1.00  0.00     0.157 HD
ENDBRANCH  45  52
ENDBRANCH  38  39
ENDBRANCH   6  38
TORSDOF 11
