REMARK  12 active torsions:
REMARK  status: ('A' for Active; 'I' for Inactive)
REMARK    1  A    between atoms: C2_2  and  N1_4 
REMARK    2  A    between atoms: C2_2  and  C16_47 
REMARK    3  A    between atoms: N1_4  and  C4_6 
REMARK    4  A    between atoms: C4_6  and  O1_7 
REMARK    5  A    between atoms: C4_6  and  C5_9 
REMARK    6  A    between atoms: C5_9  and  C6_11 
REMARK    7  A    between atoms: C7_17  and  N4_18 
REMARK    8  A    between atoms: N4_18  and  C8_20 
REMARK    9  A    between atoms: C8_20  and  N5_21 
REMARK   10  A    between atoms: N5_21  and  C9_23 
REMARK   11  A    between atoms: N8_28  and  N9_29 
REMARK   12  A    between atoms: C13_37  and  N12_38 
ROOT
HETATM    1  N5  UNL     1       1.798   1.425   1.511  1.00  0.00    -0.208 N 
ATOM      2  H5  UNL     1       1.259   2.244   1.231  1.00  0.00     0.179 HD
ENDROOT
BRANCH   1   3
HETATM    3  C8  UNL     1       1.258   0.124   1.190  1.00  0.00     0.263 C 
BRANCH   3   4
HETATM    4  N4  UNL     1      -0.067   0.265   0.569  1.00  0.00    -0.356 N 
ATOM      5  H4  UNL     1      -0.468   1.195   0.447  1.00  0.00     0.162 HD
BRANCH   4   6
HETATM    6  C7  UNL     1      -0.790  -0.862   0.141  1.00  0.00     0.157 A 
HETATM    7  C6  UNL     1      -2.034  -0.923  -0.414  1.00  0.00     0.152 A 
HETATM    8  N2  UNL     1      -2.242  -2.253  -0.656  1.00  0.00    -0.234 N 
HETATM    9  O3  UNL     1      -1.205  -2.938  -0.276  1.00  0.00    -0.155 OA
ATOM     10  H2  UNL     1      -3.085  -2.648  -1.072  1.00  0.00     0.197 HD
HETATM   11  N3  UNL     1      -0.304  -2.120   0.213  1.00  0.00    -0.223 N 
ATOM     12  H3  UNL     1       0.608  -2.388   0.584  1.00  0.00     0.198 HD
BRANCH   7  13
HETATM   13  C5  UNL     1      -2.946   0.151  -0.672  1.00  0.00     0.229 C 
HETATM   14  O2  UNL     1      -2.670   1.337  -0.421  1.00  0.00    -0.286 OA
BRANCH  13  15
HETATM   15  C4  UNL     1      -4.320  -0.128  -1.271  1.00  0.00     0.292 C 
BRANCH  15  16
HETATM   16  N1  UNL     1      -5.232   0.188  -0.231  1.00  0.00    -0.373 N 
ATOM     17  H1  UNL     1      -4.916   0.756   0.555  1.00  0.00     0.157 HD
BRANCH  16  18
HETATM   18  C2  UNL     1      -6.556  -0.264  -0.263  1.00  0.00     0.110 C 
HETATM   19  C1  UNL     1      -7.367   0.208  -1.456  1.00  0.00     0.050 C 
HETATM   20  C3  UNL     1      -7.263   0.479   0.937  1.00  0.00     0.050 C 
BRANCH  18  21
HETATM   21  C16 UNL     1      -6.826  -1.686  -0.027  1.00  0.00     0.201 C 
HETATM   22  O4  UNL     1      -5.923  -2.494   0.249  1.00  0.00    -0.646 OA
HETATM   23  O5  UNL     1      -8.122  -2.224  -0.096  1.00  0.00    -0.646 OA
ENDBRANCH  18  21
ENDBRANCH  16  18
ENDBRANCH  15  16
BRANCH  15  24
HETATM   24  O1  UNL     1      -4.318  -1.450  -1.665  1.00  0.00    -0.369 OA
ATOM     25  H1  UNL     1      -3.707  -1.662  -2.361  1.00  0.00     0.212 HD
ENDBRANCH  15  24
ENDBRANCH  13  15
ENDBRANCH   7  13
ENDBRANCH   4   6
ENDBRANCH   3   4
ENDBRANCH   1   3
BRANCH   1  26
HETATM   26  C9  UNL     1       3.017   1.643   2.184  1.00  0.00     0.710 C 
HETATM   27  N6  UNL     1       3.173   1.829   3.474  1.00  0.00    -0.208 N 
HETATM   28  C10 UNL     1       4.608   2.014   3.730  1.00  0.00     0.277 C 
ATOM     29  H6  UNL     1       2.431   1.843   4.174  1.00  0.00     0.179 HD
HETATM   30  N7  UNL     1       5.093   2.557   2.440  1.00  0.00    -0.081 NA
HETATM   31  N8  UNL     1       4.303   1.707   1.598  1.00  0.00    -0.001 N 
BRANCH  31  32
HETATM   32  N9  UNL     1       4.721   1.050   0.444  1.00  0.00    -0.034 N 
HETATM   33  C11 UNL     1       4.369   1.219  -0.841  1.00  0.00     0.701 A 
HETATM   34  N10 UNL     1       3.502   2.076  -1.254  1.00  0.00    -0.233 N 
HETATM   35  N11 UNL     1       5.051   0.359  -1.636  1.00  0.00    -0.183 N 
ATOM     36 2H10 UNL     1       2.989   2.723  -0.656  1.00  0.00     0.174 HD
ATOM     37 1H10 UNL     1       3.235   2.204  -2.230  1.00  0.00     0.174 HD
HETATM   38  C12 UNL     1       5.867  -0.392  -0.864  1.00  0.00     0.139 A 
ATOM     39  H11 UNL     1       4.963   0.290  -2.650  1.00  0.00     0.184 HD
HETATM   40  C13 UNL     1       6.764  -1.401  -1.181  1.00  0.00     0.131 A 
HETATM   41  C15 UNL     1       5.651   0.048   0.420  1.00  0.00     0.180 A 
HETATM   42  N13 UNL     1       7.449  -1.965  -0.146  1.00  0.00    -0.337 N 
HETATM   43  C14 UNL     1       7.234  -1.530   1.117  1.00  0.00     0.183 A 
ATOM     44  H13 UNL     1       8.121  -2.712  -0.323  1.00  0.00     0.168 HD
HETATM   45  N14 UNL     1       6.353  -0.540   1.411  1.00  0.00    -0.335 N 
ATOM     46  H14 UNL     1       6.222  -0.242   2.378  1.00  0.00     0.168 HD
BRANCH  40  47
HETATM   47  N12 UNL     1       6.968  -1.821  -2.373  1.00  0.00    -0.383 N 
ATOM     48 2H12 UNL     1       6.455  -1.399  -3.147  1.00  0.00     0.157 HD
ATOM     49 1H12 UNL     1       7.628  -2.563  -2.606  1.00  0.00     0.157 HD
ENDBRANCH  40  47
ENDBRANCH  31  32
ENDBRANCH   1  26
TORSDOF 12
