REMARK  15 active torsions:
REMARK  status: ('A' for Active; 'I' for Inactive)
REMARK    1  A    between atoms: N1_1  and  C1_4 
REMARK    2  A    between atoms: C2_8  and  C3_9 
REMARK    3  A    between atoms: C5_11  and  C6_12 
REMARK    4  A    between atoms: C6_12  and  O1_13 
REMARK    5  A    between atoms: C6_12  and  O2_15 
REMARK    6  A    between atoms: N5_19  and  C7_20 
REMARK    7  A    between atoms: C7_20  and  N6_21 
REMARK    8  A    between atoms: C7_20  and  S1_31 
REMARK    9  A    between atoms: N6_21  and  O3_22 
REMARK   10  A    between atoms: N6_21  and  C8_26 
REMARK   11  A    between atoms: O3_22  and  N7_23 
REMARK   12  A    between atoms: C8_26  and  O4_27 
REMARK   13  A    between atoms: C8_26  and  O5_29 
REMARK   14  A    between atoms: C9_35  and  N8_36 
REMARK   15  A    between atoms: C12_43  and  N10_44 
ROOT
HETATM    1  C3  UNL     1       0.905   0.776   0.043  1.00  0.00     0.042 A 
HETATM    2  C4  UNL     1       0.385   2.102   0.090  1.00  0.00     0.049 A 
HETATM    3  C5  UNL     1      -0.959   2.289   0.045  1.00  0.00     0.081 A 
HETATM    4  N4  UNL     1      -1.735   1.232  -0.042  1.00  0.00    -0.290 N 
ATOM      5  H4  UNL     1      -2.740   1.400  -0.077  1.00  0.00     0.187 HD
HETATM    6  N5  UNL     1      -1.331  -0.054  -0.089  1.00  0.00    -0.213 N 
HETATM    7  C9  UNL     1       0.015  -0.268  -0.041  1.00  0.00     0.136 A 
ENDROOT
BRANCH   1   8
HETATM    8  C2  UNL     1       2.324   0.624   0.150  1.00  0.00     0.088 A 
HETATM    9  N3  UNL     1       3.192  -0.193  -0.428  1.00  0.00    -0.234 N 
HETATM   10  N2  UNL     1       3.334  -1.245  -1.251  1.00  0.00    -0.275 N 
HETATM   11  C11 UNL     1       4.447   0.182  -0.088  1.00  0.00     0.165 A 
HETATM   12  C1  UNL     1       4.626  -1.538  -1.432  1.00  0.00     0.151 A 
ATOM     13  H2  UNL     1       2.560  -1.752  -1.680  1.00  0.00     0.189 HD
HETATM   14  C12 UNL     1       5.370  -0.648  -0.706  1.00  0.00     0.193 A 
HETATM   15  N9  UNL     1       4.392   1.253   0.712  1.00  0.00    -0.346 N 
HETATM   16  C10 UNL     1       3.102   1.549   0.877  1.00  0.00     0.122 A 
ATOM     17  H9  UNL     1       5.185   1.749   1.118  1.00  0.00     0.167 HD
BRANCH  12  18
HETATM   18  N1  UNL     1       5.066  -2.518  -2.187  1.00  0.00    -0.382 N 
ATOM     19  H12 UNL     1       4.511  -3.181  -2.728  1.00  0.00     0.157 HD
ATOM     20  H11 UNL     1       6.052  -2.742  -2.325  1.00  0.00     0.157 HD
ENDBRANCH  12  18
BRANCH  14  21
HETATM   21  N10 UNL     1       6.774  -0.569  -0.578  1.00  0.00    -0.108 N 
HETATM   22  O9  UNL     1       7.303   0.501  -0.188  1.00  0.00    -0.531 OA
HETATM   23  O10 UNL     1       7.610  -1.611  -0.847  1.00  0.00    -0.531 OA
ENDBRANCH  14  21
ENDBRANCH   1   8
BRANCH   7  24
HETATM   24  N8  UNL     1       0.363  -1.454   0.046  1.00  0.00    -0.383 N 
ATOM     25  H82 UNL     1       1.370  -1.614   0.082  1.00  0.00     0.157 HD
ATOM     26  H81 UNL     1      -0.297  -2.229  -0.016  1.00  0.00     0.157 HD
ENDBRANCH   7  24
BRANCH   3  27
HETATM   27  C6  UNL     1      -1.520   3.696   0.114  1.00  0.00     0.306 C 
BRANCH  27  28
HETATM   28  O1  UNL     1      -2.596   3.771   0.980  1.00  0.00    -0.366 OA
ATOM     29  H1  UNL     1      -2.947   4.653   1.023  1.00  0.00     0.213 HD
ENDBRANCH  27  28
BRANCH  27  30
HETATM   30  O2  UNL     1      -0.534   4.567   0.576  1.00  0.00    -0.366 OA
ATOM     31  H2  UNL     1      -0.885   5.449   0.619  1.00  0.00     0.213 HD
ENDBRANCH  27  30
ENDBRANCH   3  27
BRANCH   6  32
HETATM   32  C7  UNL     1      -2.309  -1.099  -0.202  1.00  0.00     0.255 C 
BRANCH  32  33
HETATM   33  N6  UNL     1      -3.145  -1.387   0.897  1.00  0.00    -0.052 NA
BRANCH  33  34
HETATM   34  O3  UNL     1      -3.917  -2.467   0.587  1.00  0.00    -0.178 OA
BRANCH  34  35
HETATM   35  N7  UNL     1      -5.216  -2.213   0.488  1.00  0.00    -0.291 N 
ATOM     36  H72 UNL     1      -5.592  -1.276   0.635  1.00  0.00     0.186 HD
ATOM     37  H71 UNL     1      -5.794  -3.021   0.256  1.00  0.00     0.186 HD
ENDBRANCH  34  35
ENDBRANCH  33  34
BRANCH  33  38
HETATM   38  C8  UNL     1      -4.062  -0.382   1.355  1.00  0.00     0.373 C 
BRANCH  38  39
HETATM   39  O4  UNL     1      -3.512   0.665   2.072  1.00  0.00    -0.357 OA
ATOM     40  H4  UNL     1      -4.119   1.330   2.375  1.00  0.00     0.214 HD
ENDBRANCH  38  39
BRANCH  38  41
HETATM   41  O5  UNL     1      -4.757   0.208   0.279  1.00  0.00    -0.357 OA
ATOM     42  H5  UNL     1      -5.364   0.873   0.582  1.00  0.00     0.214 HD
ENDBRANCH  38  41
ENDBRANCH  33  38
ENDBRANCH  32  33
BRANCH  32  43
HETATM   43  S1  UNL     1      -1.895  -2.514  -1.165  1.00  0.00     0.171 S 
HETATM   44  O6  UNL     1      -3.202  -3.135  -1.673  1.00  0.00    -0.589 OA
HETATM   45  O7  UNL     1      -1.197  -2.096  -2.434  1.00  0.00    -0.589 OA
HETATM   46  O8  UNL     1      -1.083  -3.735  -0.429  1.00  0.00    -0.589 OA
ENDBRANCH  32  43
ENDBRANCH   6  32
TORSDOF 15
