REMARK  15 active torsions:
REMARK  status: ('A' for Active; 'I' for Inactive)
REMARK    1  A    between atoms: N1_1  and  C1_4 
REMARK    2  A    between atoms: C2_7  and  N3_8 
REMARK    3  A    between atoms: C4_14  and  N5_15 
REMARK    4  A    between atoms: C6_17  and  N6_18 
REMARK    5  A    between atoms: C8_23  and  N7_24 
REMARK    6  A    between atoms: C9_28  and  O1_29 
REMARK    7  A    between atoms: C10_33  and  S1_34 
REMARK    8  A    between atoms: S1_34  and  C11_35 
REMARK    9  A    between atoms: C11_35  and  C12_36 
REMARK   10  A    between atoms: C12_36  and  N9_37 
REMARK   11  A    between atoms: N9_37  and  C13_38 
REMARK   12  A    between atoms: C13_38  and  O2_39 
REMARK   13  A    between atoms: C13_38  and  C14_41 
REMARK   14  A    between atoms: C14_41  and  N10_42 
REMARK   15  A    between atoms: C15_47  and  O3_48 
ROOT
HETATM    1  C1  UNL     1      -0.440  -4.634   0.542  1.00  0.00     0.678 A 
HETATM    2  N2  UNL     1      -1.649  -4.844  -0.040  1.00  0.00    -0.175 N 
ATOM      3  H2  UNL     1      -1.960  -5.795  -0.240  1.00  0.00     0.186 HD
HETATM    4  C2  UNL     1      -2.448  -3.786  -0.357  1.00  0.00     0.144 A 
HETATM    5  C3  UNL     1      -1.950  -2.539  -0.050  1.00  0.00     0.123 A 
HETATM    6  N4  UNL     1      -2.680  -1.458  -0.340  1.00  0.00    -0.185 N 
ATOM      7  H4  UNL     1      -3.591  -1.595  -0.778  1.00  0.00     0.184 HD
HETATM    8  C4  UNL     1      -2.278  -0.196  -0.085  1.00  0.00     0.684 A 
HETATM    9  N8  UNL     1      -1.058  -0.026   0.502  1.00  0.00    -0.183 N 
ATOM     10  H8  UNL     1      -0.735   0.920   0.705  1.00  0.00     0.185 HD
HETATM   11  C10 UNL     1      -0.274  -1.060   0.819  1.00  0.00     0.116 A 
HETATM   12  C16 UNL     1      -0.728  -2.328   0.539  1.00  0.00     0.114 A 
HETATM   13  N14 UNL     1       0.026  -3.399   0.832  1.00  0.00    -0.187 N 
ATOM     14  H14 UNL     1       0.940  -3.282   1.269  1.00  0.00     0.184 HD
ENDROOT
BRANCH   8  15
HETATM   15  N5  UNL     1      -3.083   0.942  -0.394  1.00  0.00    -0.187 N 
HETATM   16  C5  UNL     1      -2.641   2.256  -0.030  1.00  0.00     0.177 C 
HETATM   17  C6  UNL     1      -3.712   3.142   0.512  1.00  0.00     0.204 C 
HETATM   18  C7  UNL     1      -5.095   2.805   0.128  1.00  0.00     0.071 C 
HETATM   19  C8  UNL     1      -5.399   1.399  -0.229  1.00  0.00     0.234 C 
HETATM   20  C9  UNL     1      -4.339   0.734  -1.070  1.00  0.00     0.268 C 
BRANCH  17  21
HETATM   21  N6  UNL     1      -3.439   4.495  -0.003  1.00  0.00    -0.073 N 
ATOM     22  H63 UNL     1      -2.497   4.825   0.209  1.00  0.00     0.274 HD
ATOM     23  H62 UNL     1      -3.361   4.532  -1.019  1.00  0.00     0.274 HD
ATOM     24  H61 UNL     1      -4.171   5.101   0.368  1.00  0.00     0.274 HD
ENDBRANCH  17  21
BRANCH  19  25
HETATM   25  N7  UNL     1      -5.524   0.604   1.003  1.00  0.00    -0.071 N 
ATOM     26  H73 UNL     1      -4.701   0.683   1.600  1.00  0.00     0.274 HD
ATOM     27  H72 UNL     1      -6.209   0.996   1.649  1.00  0.00     0.274 HD
ATOM     28  H71 UNL     1      -5.733  -0.364   0.757  1.00  0.00     0.274 HD
ENDBRANCH  19  25
BRANCH  20  29
HETATM   29  O1  UNL     1      -4.319   1.212  -2.385  1.00  0.00    -0.374 OA
ATOM     30  H1  UNL     1      -5.147   1.075  -2.831  1.00  0.00     0.212 HD
ENDBRANCH  20  29
ENDBRANCH   8  15
BRANCH  11  31
HETATM   31  S1  UNL     1       1.349  -0.844   1.548  1.00  0.00    -0.107 SA
BRANCH  31  32
HETATM   32  C11 UNL     1       2.537  -0.789   0.195  1.00  0.00     0.114 C 
BRANCH  32  33
HETATM   33  C12 UNL     1       3.989  -0.669   0.691  1.00  0.00     0.231 C 
BRANCH  33  34
HETATM   34  N9  UNL     1       4.925  -0.686  -0.319  1.00  0.00    -0.426 NA
BRANCH  34  35
HETATM   35  C13 UNL     1       5.854  -0.704  -1.321  1.00  0.00     0.203 C 
BRANCH  35  36
HETATM   36  O2  UNL     1       5.961  -1.680  -2.176  1.00  0.00    -0.338 OA
ATOM     37  H2  UNL     1       6.607  -1.693  -2.873  1.00  0.00     0.220 HD
ENDBRANCH  35  36
BRANCH  35  38
HETATM   38  C14 UNL     1       6.857   0.388  -1.567  1.00  0.00     0.249 C 
BRANCH  38  39
HETATM   39  N10 UNL     1       7.169   1.161  -0.394  1.00  0.00    -0.232 N 
HETATM   40  N11 UNL     1       8.179   0.898   0.466  1.00  0.00    -0.003 NA
HETATM   41  N12 UNL     1       8.208   1.805   1.428  1.00  0.00    -0.005 NA
HETATM   42  N13 UNL     1       7.228   2.663   1.213  1.00  0.00    -0.250 N 
HETATM   43  C15 UNL     1       6.585   2.262   0.084  1.00  0.00     0.250 A 
ATOM     44  H13 UNL     1       6.997   3.474   1.786  1.00  0.00     0.187 HD
BRANCH  43  45
HETATM   45  O3  UNL     1       5.490   2.955  -0.426  1.00  0.00    -0.331 OA
ATOM     46  H3  UNL     1       5.074   3.739  -0.086  1.00  0.00     0.221 HD
ENDBRANCH  43  45
ENDBRANCH  38  39
ENDBRANCH  35  38
ENDBRANCH  34  35
ENDBRANCH  33  34
ENDBRANCH  32  33
ENDBRANCH  31  32
ENDBRANCH  11  31
BRANCH   4  47
HETATM   47  N3  UNL     1      -3.587  -3.997  -0.911  1.00  0.00    -0.383 N 
ATOM     48  H32 UNL     1      -3.956  -4.920  -1.138  1.00  0.00     0.157 HD
ATOM     49  H31 UNL     1      -4.185  -3.205  -1.148  1.00  0.00     0.157 HD
ENDBRANCH   4  47
BRANCH   1  50
HETATM   50  N1  UNL     1       0.268  -5.674   0.819  1.00  0.00    -0.234 N 
ATOM     51  H12 UNL     1      -0.084  -6.606   0.600  1.00  0.00     0.174 HD
ATOM     52  H11 UNL     1       1.176  -5.516   1.256  1.00  0.00     0.174 HD
ENDBRANCH   1  50
TORSDOF 15
