REMARK  13 active torsions:
REMARK  status: ('A' for Active; 'I' for Inactive)
REMARK    1  A    between atoms: N1_1  and  C1_4 
REMARK    2  A    between atoms: C2_7  and  N3_8 
REMARK    3  A    between atoms: N3_8  and  N4_9 
REMARK    4  A    between atoms: N3_8  and  C3_12 
REMARK    5  A    between atoms: C4_13  and  C5_14 
REMARK    6  A    between atoms: C5_14  and  O1_15 
REMARK    7  A    between atoms: C7_19  and  C8_20 
REMARK    8  A    between atoms: C8_20  and  S2_21 
REMARK    9  A    between atoms: S2_21  and  C9_22 
REMARK   10  A    between atoms: N8_31  and  N9_32 
REMARK   11  A    between atoms: C11_36  and  O3_37 
REMARK   12  A    between atoms: C11_36  and  C12_39 
REMARK   13  A    between atoms: C13_42  and  N10_43 
ROOT
HETATM    1  C3  UNL     1      -1.305   0.032  -0.494  1.00  0.00     0.167 C 
HETATM    2  C4  UNL     1      -1.839  -1.284  -0.169  1.00  0.00     0.057 C 
HETATM    3  C6  UNL     1      -0.918  -2.199   0.617  1.00  0.00     0.132 C 
HETATM    4  S1  UNL     1      -0.551  -1.298   2.198  1.00  0.00    -0.117 SA
HETATM    5  C7  UNL     1       0.491  -0.143   1.173  1.00  0.00     0.152 C 
HETATM    6  O2  UNL     1       0.933  -0.863   0.116  1.00  0.00    -0.320 OA
HETATM    7  C11 UNL     1       0.499  -2.148   0.129  1.00  0.00     0.268 C 
HETATM    8  C13 UNL     1      -0.600   0.780   0.638  1.00  0.00     0.255 C 
ENDROOT
BRANCH   5   9
HETATM    9  C8  UNL     1       1.482   0.544   2.023  1.00  0.00     0.134 C 
BRANCH   9  10
HETATM   10  S2  UNL     1       2.512   1.625   1.048  1.00  0.00    -0.086 SA
BRANCH  10  11
HETATM   11  C9  UNL     1       3.581   0.755  -0.065  1.00  0.00     0.198 A 
HETATM   12  N5  UNL     1       3.307   0.421  -1.325  1.00  0.00    -0.263 N 
HETATM   13  N6  UNL     1       4.342  -0.225  -1.828  1.00  0.00    -0.129 N 
ATOM     14  H5  UNL     1       2.440   0.630  -1.820  1.00  0.00     0.189 HD
HETATM   15  C10 UNL     1       5.329  -0.326  -0.885  1.00  0.00     0.713 A 
ATOM     16  H6  UNL     1       4.398  -0.594  -2.777  1.00  0.00     0.205 HD
HETATM   17  N7  UNL     1       6.482  -0.886  -1.010  1.00  0.00    -0.231 N 
HETATM   18  N8  UNL     1       4.820   0.296   0.203  1.00  0.00    -0.068 N 
ATOM     19  H72 UNL     1       6.866  -1.355  -1.830  1.00  0.00     0.174 HD
ATOM     20  H71 UNL     1       7.217  -0.961  -0.307  1.00  0.00     0.174 HD
BRANCH  18  21
HETATM   21  N9  UNL     1       5.439   0.463   1.432  1.00  0.00    -0.322 N 
ATOM     22  H92 UNL     1       5.055   0.932   2.252  1.00  0.00     0.178 HD
ATOM     23  H91 UNL     1       6.376   0.116   1.635  1.00  0.00     0.178 HD
ENDBRANCH  18  21
ENDBRANCH  10  11
ENDBRANCH   9  10
ENDBRANCH   5   9
BRANCH   8  24
HETATM   24  N10 UNL     1       0.023   1.951   0.103  1.00  0.00    -0.069 N 
ATOM     25 3H10 UNL     1       0.651   1.738  -0.672  1.00  0.00     0.275 HD
ATOM     26 2H10 UNL     1      -0.634   2.544  -0.405  1.00  0.00     0.275 HD
ATOM     27 1H10 UNL     1       0.493   2.450   0.858  1.00  0.00     0.275 HD
ENDBRANCH   8  24
BRANCH   7  28
HETATM   28  O3  UNL     1       1.261  -2.786   1.165  1.00  0.00    -0.356 OA
ATOM     29  H3  UNL     1       2.159  -2.754   0.856  1.00  0.00     0.213 HD
ENDBRANCH   7  28
BRANCH   7  30
HETATM   30  C12 UNL     1       0.702  -2.902  -1.087  1.00  0.00     0.240 C 
HETATM   31  O4  UNL     1       1.478  -3.906  -1.105  1.00  0.00    -0.644 OA
HETATM   32  O5  UNL     1       0.089  -2.603  -2.283  1.00  0.00    -0.644 OA
ENDBRANCH   7  30
BRANCH   1  33
HETATM   33  N3  UNL     1      -2.251   0.903  -1.153  1.00  0.00    -0.121 N 
BRANCH  33  34
HETATM   34  C2  UNL     1      -3.210   1.737  -0.561  1.00  0.00     0.722 A 
HETATM   35  N2  UNL     1      -2.952   2.879   0.117  1.00  0.00    -0.150 N 
HETATM   36  C1  UNL     1      -4.106   3.406   0.514  1.00  0.00     0.256 A 
ATOM     37  H2  UNL     1      -2.027   3.270   0.294  1.00  0.00     0.188 HD
HETATM   38  O6  UNL     1      -5.039   2.604   0.087  1.00  0.00    -0.186 OA
HETATM   39  N11 UNL     1      -4.526   1.599  -0.558  1.00  0.00    -0.086 N 
ATOM     40  H11 UNL     1      -5.048   0.835  -0.988  1.00  0.00     0.214 HD
BRANCH  36  41
HETATM   41  N1  UNL     1      -4.196   4.510   1.197  1.00  0.00    -0.363 N 
ATOM     42  H12 UNL     1      -3.465   5.138   1.531  1.00  0.00     0.159 HD
ATOM     43  H11 UNL     1      -5.081   4.914   1.502  1.00  0.00     0.159 HD
ENDBRANCH  36  41
ENDBRANCH  33  34
BRANCH  33  44
HETATM   44  N4  UNL     1      -2.216   0.944  -2.582  1.00  0.00    -0.328 N 
ATOM     45  H42 UNL     1      -2.884   1.559  -3.047  1.00  0.00     0.177 HD
ATOM     46  H41 UNL     1      -1.518   0.337  -3.013  1.00  0.00     0.177 HD
ENDBRANCH  33  44
ENDBRANCH   1  33
BRANCH   2  47
HETATM   47  C5  UNL     1      -3.195  -1.376   0.486  1.00  0.00     0.172 C 
BRANCH  47  48
HETATM   48  O1  UNL     1      -3.296  -0.741   1.693  1.00  0.00    -0.400 OA
ATOM     49  H1  UNL     1      -4.150  -0.799   2.105  1.00  0.00     0.209 HD
ENDBRANCH  47  48
ENDBRANCH   2  47
TORSDOF 13
