REMARK  11 active torsions:
REMARK  status: ('A' for Active; 'I' for Inactive)
REMARK    1  A    between atoms: N1_1  and  C1_4 
REMARK    2  A    between atoms: C2_7  and  C3_8 
REMARK    3  A    between atoms: C3_8  and  C4_10 
REMARK    4  A    between atoms: C4_10  and  O2_11 
REMARK    5  A    between atoms: C4_10  and  N3_13 
REMARK    6  A    between atoms: N3_13  and  C5_15 
REMARK    7  A    between atoms: C7_19  and  C8_20 
REMARK    8  A    between atoms: C10_30  and  C11_31 
REMARK       I    between atoms: C11_31  and  N9_33 
REMARK    9  A    between atoms: N9_33  and  C12_35 
REMARK   10  A    between atoms: C12_35  and  O4_39 
REMARK   11  A    between atoms: N12_43  and  S1_44 
ROOT
HETATM    1  C5  UNL     1      -1.556   0.517   0.012  1.00  0.00     0.119 A 
HETATM    2  N4  UNL     1      -2.175   1.709   0.242  1.00  0.00    -0.351 N 
ATOM      3  H4  UNL     1      -1.864   2.522  -0.291  1.00  0.00     0.166 HD
HETATM    4  C6  UNL     1      -3.158   1.875   1.118  1.00  0.00     0.105 A 
HETATM    5  C7  UNL     1      -3.579   0.777   1.838  1.00  0.00     0.027 A 
HETATM    6  C9  UNL     1      -2.995  -0.470   1.661  1.00  0.00     0.037 A 
HETATM    7  C10 UNL     1      -1.964  -0.566   0.722  1.00  0.00     0.077 A 
ENDROOT
BRANCH   1   8
HETATM    8  N3  UNL     1      -0.561   0.534  -0.968  1.00  0.00    -0.343 N 
ATOM      9  H3  UNL     1      -0.056  -0.322  -1.199  1.00  0.00     0.164 HD
BRANCH   8  10
HETATM   10  C4  UNL     1      -0.237   1.812  -1.680  1.00  0.00     0.297 C 
BRANCH  10  11
HETATM   11  C3  UNL     1       0.934   1.528  -2.525  1.00  0.00     0.227 C 
HETATM   12  O1  UNL     1       0.800   1.550  -3.762  1.00  0.00    -0.286 OA
BRANCH  11  13
HETATM   13  C2  UNL     1       2.210   1.230  -1.903  1.00  0.00     0.142 A 
HETATM   14  N2  UNL     1       2.498   1.222  -0.572  1.00  0.00    -0.184 N 
HETATM   15  C1  UNL     1       3.801   0.910  -0.393  1.00  0.00     0.696 A 
ATOM     16  H2  UNL     1       1.833   1.421   0.175  1.00  0.00     0.184 HD
HETATM   17  N12 UNL     1       4.379   0.709  -1.590  1.00  0.00    -0.037 N 
HETATM   18  C13 UNL     1       3.417   0.900  -2.517  1.00  0.00     0.184 A 
HETATM   19  N11 UNL     1       3.619   0.793  -3.919  1.00  0.00    -0.078 NA
BRANCH  15  20
HETATM   20  N1  UNL     1       4.445   0.813   0.744  1.00  0.00    -0.233 N 
ATOM     21  H12 UNL     1       4.006   0.966   1.652  1.00  0.00     0.174 HD
ATOM     22  H11 UNL     1       5.428   0.578   0.879  1.00  0.00     0.174 HD
ENDBRANCH  15  20
BRANCH  17  23
HETATM   23  S1  UNL     1       6.037   0.295  -1.908  1.00  0.00     0.231 S 
HETATM   24  O5  UNL     1       6.223   0.019  -3.391  1.00  0.00    -0.577 OA
HETATM   25  O6  UNL     1       6.992   1.356  -1.496  1.00  0.00    -0.577 OA
HETATM   26  O7  UNL     1       6.365  -1.198  -1.162  1.00  0.00    -0.577 OA
ENDBRANCH  17  23
ENDBRANCH  11  13
ENDBRANCH  10  11
BRANCH  10  27
HETATM   27  O2  UNL     1      -1.374   2.091  -2.417  1.00  0.00    -0.369 OA
ATOM     28  H2  UNL     1      -2.130   2.274  -1.872  1.00  0.00     0.212 HD
ENDBRANCH  10  27
ENDBRANCH   8  10
ENDBRANCH   1   8
BRANCH   7  29
HETATM   29  C11 UNL     1      -1.269  -1.842   0.578  1.00  0.00     0.262 C 
HETATM   30  O3  UNL     1      -0.181  -1.951  -0.034  1.00  0.00    -0.267 OA
HETATM   31  N9  UNL     1      -1.849  -3.006   1.142  1.00  0.00    -0.289 N 
ATOM     32  H9  UNL     1      -2.731  -2.820   1.619  1.00  0.00     0.172 HD
BRANCH  31  33
HETATM   33  C12 UNL     1      -1.487  -4.318   1.187  1.00  0.00     0.217 C 
HETATM   34  N10 UNL     1      -1.132  -5.592   1.229  1.00  0.00    -0.365 N 
ATOM     35 2H10 UNL     1      -2.040  -5.817   1.635  1.00  0.00     0.159 HD
ATOM     36 1H10 UNL     1      -0.861  -6.575   1.263  1.00  0.00     0.159 HD
BRANCH  33  37
HETATM   37  O4  UNL     1      -0.027  -3.957   0.534  1.00  0.00    -0.333 OA
ATOM     38  H4  UNL     1       0.226  -4.872   0.565  1.00  0.00     0.220 HD
ENDBRANCH  33  37
ENDBRANCH  31  33
ENDBRANCH   7  29
BRANCH   5  39
HETATM   39  C8  UNL     1      -4.671   0.913   2.812  1.00  0.00     0.148 A 
HETATM   40  N5  UNL     1      -5.179  -0.014   3.620  1.00  0.00    -0.268 N 
HETATM   41  N6  UNL     1      -6.169   0.528   4.334  1.00  0.00    -0.227 N 
ATOM     42  H5  UNL     1      -4.863  -0.982   3.684  1.00  0.00     0.190 HD
HETATM   43  N7  UNL     1      -6.281   1.788   3.973  1.00  0.00    -0.227 N 
ATOM     44  H6  UNL     1      -6.737   0.050   5.034  1.00  0.00     0.210 HD
HETATM   45  N8  UNL     1      -5.369   2.044   3.040  1.00  0.00    -0.268 N 
ATOM     46  H7  UNL     1      -6.955   2.457   4.346  1.00  0.00     0.210 HD
ATOM     47  H8  UNL     1      -5.223   2.941   2.577  1.00  0.00     0.190 HD
ENDBRANCH   5  39
TORSDOF 11
