REMARK  15 active torsions:
REMARK  status: ('A' for Active; 'I' for Inactive)
REMARK    1  A    between atoms: N1_2  and  C3_4 
REMARK    2  A    between atoms: C6_13  and  N5_14 
REMARK    3  A    between atoms: C8_20  and  C9_21 
REMARK    4  A    between atoms: C11_26  and  C12_27 
REMARK    5  A    between atoms: C12_27  and  C13_29 
REMARK    6  A    between atoms: C13_29  and  N9_30 
REMARK    7  A    between atoms: C13_29  and  C14_34 
REMARK    8  A    between atoms: C14_34  and  C15_35 
REMARK    9  A    between atoms: C14_34  and  C16_40 
REMARK   10  A    between atoms: C15_35  and  O2_36 
REMARK   11  A    between atoms: C15_35  and  O3_38 
REMARK   12  A    between atoms: C16_40  and  O4_41 
REMARK   13  A    between atoms: C16_40  and  O5_43 
REMARK   14  A    between atoms: C16_40  and  C17_45 
REMARK   15  A    between atoms: C17_45  and  O6_46 
ROOT
HETATM    1  C9  UNL     1       1.640  -0.720  -0.232  1.00  0.00     0.107 A 
HETATM    2  N7  UNL     1       1.123  -1.896  -0.484  1.00  0.00    -0.336 N 
ATOM      3  H7  UNL     1       1.695  -2.729  -0.347  1.00  0.00     0.168 HD
HETATM    4  C10 UNL     1      -0.090  -2.029  -0.901  1.00  0.00     0.138 A 
HETATM    5  N8  UNL     1      -0.656  -3.350  -1.179  1.00  0.00    -0.081 NA
HETATM    6  C11 UNL     1      -0.837  -0.867  -1.077  1.00  0.00     0.096 A 
HETATM    7  S1  UNL     1       0.327   0.307  -0.608  1.00  0.00    -0.063 SA
ENDROOT
BRANCH   6   8
HETATM    8  C12 UNL     1      -2.210  -0.731  -1.534  1.00  0.00     0.200 C 
HETATM    9  O1  UNL     1      -2.775  -1.828  -1.800  1.00  0.00    -0.289 OA
BRANCH   8  10
HETATM   10  C13 UNL     1      -2.845   0.565  -1.661  1.00  0.00     0.272 C 
BRANCH  10  11
HETATM   11  N9  UNL     1      -1.766   1.568  -1.581  1.00  0.00    -0.067 N 
ATOM     12  H93 UNL     1      -1.193   1.479  -0.742  1.00  0.00     0.275 HD
ATOM     13  H92 UNL     1      -1.021   1.415  -2.260  1.00  0.00     0.275 HD
ATOM     14  H91 UNL     1      -2.213   2.480  -1.670  1.00  0.00     0.275 HD
ENDBRANCH  10  11
BRANCH  10  15
HETATM   15  C14 UNL     1      -3.859   1.005  -0.693  1.00  0.00     0.143 C 
BRANCH  15  16
HETATM   16  C15 UNL     1      -4.421   2.341  -1.091  1.00  0.00     0.265 C 
BRANCH  16  17
HETATM   17  O2  UNL     1      -3.509   3.380  -1.159  1.00  0.00    -0.371 OA
ATOM     18  H2  UNL     1      -3.864   4.224  -1.411  1.00  0.00     0.212 HD
ENDBRANCH  16  17
BRANCH  16  19
HETATM   19  O3  UNL     1      -4.866   2.170  -2.437  1.00  0.00    -0.371 OA
ATOM     20  H3  UNL     1      -5.221   3.014  -2.689  1.00  0.00     0.212 HD
ENDBRANCH  16  19
ENDBRANCH  15  16
BRANCH  15  21
HETATM   21  C16 UNL     1      -4.925   0.127  -0.207  1.00  0.00     0.191 C 
BRANCH  21  22
HETATM   22  O4  UNL     1      -5.781  -0.423  -1.127  1.00  0.00    -0.363 OA
ATOM     23  H4  UNL     1      -6.473  -0.993  -0.812  1.00  0.00     0.213 HD
ENDBRANCH  21  22
BRANCH  21  24
HETATM   24  O5  UNL     1      -5.830   1.051   0.467  1.00  0.00    -0.363 OA
ATOM     25  H5  UNL     1      -6.522   0.481   0.782  1.00  0.00     0.213 HD
ENDBRANCH  21  24
BRANCH  21  26
HETATM   26  C17 UNL     1      -4.564  -0.792   0.952  1.00  0.00     0.233 C 
BRANCH  26  27
HETATM   27  O6  UNL     1      -5.735  -1.145   1.667  1.00  0.00    -0.396 OA
ATOM     28  H6  UNL     1      -5.510  -1.718   2.390  1.00  0.00     0.209 HD
ENDBRANCH  26  27
ENDBRANCH  21  26
ENDBRANCH  15  21
ENDBRANCH  10  15
ENDBRANCH   8  10
ENDBRANCH   6   8
BRANCH   1  29
HETATM   29  C8  UNL     1       2.938  -0.286   0.235  1.00  0.00     0.111 A 
HETATM   30  C3  UNL     1       3.980  -1.118   0.507  1.00  0.00     0.134 A 
HETATM   31  N2  UNL     1       5.198  -0.617   0.921  1.00  0.00    -0.325 N 
HETATM   32  C4  UNL     1       5.383   0.685   1.064  1.00  0.00     0.139 A 
ATOM     33  H2  UNL     1       5.965  -1.259   1.119  1.00  0.00     0.169 HD
HETATM   34  N3  UNL     1       6.546   1.229   1.464  1.00  0.00    -0.337 N 
HETATM   35  C7  UNL     1       4.347   1.548   0.798  1.00  0.00     0.121 A 
HETATM   36  C5  UNL     1       6.701   2.559   1.601  1.00  0.00     0.183 A 
ATOM     37  H3  UNL     1       7.334   0.615   1.670  1.00  0.00     0.168 HD
HETATM   38  N4  UNL     1       5.697   3.429   1.345  1.00  0.00    -0.337 N 
HETATM   39  C6  UNL     1       4.526   2.918   0.945  1.00  0.00     0.130 A 
ATOM     40  H4  UNL     1       5.827   4.435   1.453  1.00  0.00     0.168 HD
HETATM   41  N6  UNL     1       3.168   1.050   0.396  1.00  0.00    -0.345 N 
ATOM     42  H6  UNL     1       2.407   1.701   0.201  1.00  0.00     0.166 HD
BRANCH  30  43
HETATM   43  N1  UNL     1       3.834  -2.524   0.419  1.00  0.00    -0.374 N 
HETATM   44  C1  UNL     1       3.167  -3.245   1.465  1.00  0.00     0.150 C 
HETATM   45  C2  UNL     1       4.369  -3.198  -0.738  1.00  0.00     0.150 C 
ENDBRANCH  30  43
BRANCH  39  46
HETATM   46  N5  UNL     1       3.536   3.695   0.687  1.00  0.00    -0.383 N 
ATOM     47  H52 UNL     1       3.667   4.701   0.795  1.00  0.00     0.157 HD
ATOM     48  H51 UNL     1       2.644   3.306   0.382  1.00  0.00     0.157 HD
ENDBRANCH  39  46
ENDBRANCH   1  29
TORSDOF 15
