REMARK  11 active torsions:
REMARK  status: ('A' for Active; 'I' for Inactive)
REMARK    1  A    between atoms: C2_2  and  O1_3 
REMARK    2  A    between atoms: C2_2  and  C3_5 
REMARK    3  A    between atoms: C3_5  and  N1_6 
REMARK    4  A    between atoms: C3_5  and  C6_13 
REMARK       I    between atoms: N1_6  and  C4_8 
REMARK    5  A    between atoms: C4_8  and  C5_10 
REMARK    6  A    between atoms: C5_10  and  O3_11 
REMARK       I    between atoms: N2_16  and  C9_18 
REMARK       I    between atoms: C9_18  and  N3_19 
REMARK       I    between atoms: C9_18  and  N4_23 
REMARK    7  A    between atoms: C11_29  and  C12_30 
REMARK    8  A    between atoms: C12_30  and  N6_31 
REMARK    9  A    between atoms: C12_30  and  C13_35 
REMARK   10  A    between atoms: C19_49  and  C20_50 
REMARK   11  A    between atoms: C20_50  and  N11_51 
ROOT
HETATM    1  C6  UNL     1      -2.892  -0.070   0.774  1.00  0.00     0.081 A 
HETATM    2  C7  UNL     1      -3.055   1.222   0.387  1.00  0.00     0.066 A 
HETATM    3  C8  UNL     1      -1.990   2.126   0.605  1.00  0.00     0.060 A 
HETATM    4  N2  UNL     1      -2.207   3.300   0.231  1.00  0.00    -0.339 N 
ATOM      5  H2  UNL     1      -3.138   3.395  -0.174  1.00  0.00     0.163 HD
HETATM    6  C9  UNL     1      -1.519   4.515   0.218  1.00  0.00     0.480 C 
HETATM    7  N3  UNL     1      -2.486   5.640   0.270  1.00  0.00    -0.033 N 
ATOM      8  H31 UNL     1      -1.983   6.528   0.261  1.00  0.00     0.278 HD
ATOM      9  H32 UNL     1      -3.119   5.566   1.067  1.00  0.00     0.278 HD
ATOM     10  H33 UNL     1      -3.180   5.584  -0.475  1.00  0.00     0.278 HD
HETATM   11  N4  UNL     1      -0.828   4.650  -1.082  1.00  0.00    -0.033 N 
ATOM     12  H41 UNL     1      -0.325   5.538  -1.091  1.00  0.00     0.278 HD
ATOM     13  H42 UNL     1      -1.463   4.551  -1.874  1.00  0.00     0.278 HD
ATOM     14  H43 UNL     1      -0.223   3.855  -1.288  1.00  0.00     0.278 HD
HETATM   15  C10 UNL     1      -0.869   1.592   1.201  1.00  0.00     0.105 A 
HETATM   16  N5  UNL     1       0.211   2.476   1.435  1.00  0.00    -0.097 NA
HETATM   17  C11 UNL     1      -0.747   0.277   1.576  1.00  0.00     0.116 A 
HETATM   18  O4  UNL     1      -1.796  -0.488   1.331  1.00  0.00    -0.312 OA
ENDROOT
BRANCH  17  19
HETATM   19  C12 UNL     1       0.467  -0.234   2.204  1.00  0.00     0.291 C 
BRANCH  19  20
HETATM   20  N6  UNL     1       0.864   0.489   3.414  1.00  0.00    -0.064 N 
ATOM     21  H63 UNL     1       0.954   1.487   3.221  1.00  0.00     0.275 HD
ATOM     22  H62 UNL     1       0.096   0.511   4.085  1.00  0.00     0.275 HD
ATOM     23  H61 UNL     1       1.713   0.132   3.853  1.00  0.00     0.275 HD
ENDBRANCH  19  20
BRANCH  19  24
HETATM   24  C13 UNL     1       1.608  -0.491   1.303  1.00  0.00     0.048 A 
HETATM   25  C14 UNL     1       1.790  -1.680   0.608  1.00  0.00     0.028 A 
HETATM   26  C15 UNL     1       2.894  -1.870  -0.211  1.00  0.00     0.019 A 
HETATM   27  C16 UNL     1       3.825  -0.862  -0.336  1.00  0.00     0.034 A 
HETATM   28  C17 UNL     1       3.624   0.306   0.362  1.00  0.00     0.118 A 
HETATM   29  C19 UNL     1       4.932  -1.209  -1.233  1.00  0.00     0.065 C 
HETATM   30  N7  UNL     1       2.551   0.434   1.131  1.00  0.00    -0.343 N 
HETATM   31  N8  UNL     1       4.484   1.437   0.345  1.00  0.00    -0.337 N 
ATOM     32  H7  UNL     1       2.438   1.315   1.633  1.00  0.00     0.167 HD
HETATM   33  C18 UNL     1       5.862   1.604  -0.047  1.00  0.00     0.199 C 
ATOM     34  H8  UNL     1       4.042   2.296   0.673  1.00  0.00     0.168 HD
HETATM   35  N9  UNL     1       6.266   0.838  -1.179  1.00  0.00    -0.296 N 
HETATM   36  N10 UNL     1       5.926  -0.448  -1.545  1.00  0.00    -0.301 N 
ATOM     37  H9  UNL     1       6.905   1.314  -1.816  1.00  0.00     0.187 HD
ATOM     38  H10 UNL     1       6.590  -0.881  -2.187  1.00  0.00     0.186 HD
BRANCH  29  39
HETATM   39  C20 UNL     1       4.881  -2.576  -1.828  1.00  0.00     0.288 C 
BRANCH  39  40
HETATM   40  N11 UNL     1       6.062  -2.720  -2.683  1.00  0.00    -0.074 N 
ATOM     41 3H11 UNL     1       6.141  -1.982  -3.383  1.00  0.00     0.274 HD
ATOM     42 2H11 UNL     1       6.936  -2.530  -2.193  1.00  0.00     0.274 HD
ATOM     43 1H11 UNL     1       6.027  -3.655  -3.090  1.00  0.00     0.274 HD
ENDBRANCH  39  40
ENDBRANCH  29  39
ENDBRANCH  19  24
ENDBRANCH  17  19
BRANCH   1  44
HETATM   44  C3  UNL     1      -4.035  -1.024   0.536  1.00  0.00     0.170 C 
BRANCH  44  45
HETATM   45  C2  UNL     1      -5.055  -0.494  -0.417  1.00  0.00     0.143 C 
HETATM   46  C1  UNL     1      -4.522  -0.321  -1.828  1.00  0.00     0.042 C 
BRANCH  45  47
HETATM   47  O1  UNL     1      -6.093  -1.456  -0.547  1.00  0.00    -0.393 OA
ATOM     48  H1  UNL     1      -6.427  -1.564   0.336  1.00  0.00     0.210 HD
ENDBRANCH  45  47
ENDBRANCH  44  45
BRANCH  44  49
HETATM   49  N1  UNL     1      -3.503  -2.287   0.004  1.00  0.00    -0.346 N 
HETATM   50  C4  UNL     1      -3.678  -3.473   0.747  1.00  0.00     0.241 C 
HETATM   51  O2  UNL     1      -4.280  -3.442   1.843  1.00  0.00    -0.271 OA
ATOM     52  H1  UNL     1      -3.014  -2.305  -0.891  1.00  0.00     0.163 HD
BRANCH  50  53
HETATM   53  C5  UNL     1      -3.158  -4.753   0.243  1.00  0.00     0.266 C 
BRANCH  53  54
HETATM   54  O3  UNL     1      -2.521  -4.644  -0.972  1.00  0.00    -0.392 OA
ATOM     55  H3  UNL     1      -2.185  -5.471  -1.298  1.00  0.00     0.210 HD
ENDBRANCH  53  54
ENDBRANCH  50  53
ENDBRANCH  44  49
ENDBRANCH   1  44
TORSDOF 11
