REMARK  11 active torsions:
REMARK  status: ('A' for Active; 'I' for Inactive)
REMARK    1  A    between atoms: C2_2  and  C13_43 
REMARK    2  A    between atoms: N1_3  and  N2_5 
REMARK       I    between atoms: N2_5  and  C3_7 
REMARK       I    between atoms: C3_7  and  N4_11 
REMARK       I    between atoms: N4_11  and  C4_13 
REMARK    3  A    between atoms: C4_13  and  C5_15 
REMARK    4  A    between atoms: C5_15  and  O2_16 
REMARK    5  A    between atoms: C5_15  and  C6_18 
REMARK    6  A    between atoms: C5_15  and  C9_31 
REMARK    7  A    between atoms: C6_18  and  S1_19 
REMARK    8  A    between atoms: S1_19  and  C7_20 
REMARK       I    between atoms: N7_25  and  C8_26 
REMARK    9  A    between atoms: C10_34  and  C11_35 
REMARK   10  A    between atoms: C11_35  and  O4_36 
REMARK   11  A    between atoms: C11_35  and  O5_38 
ROOT
HETATM    1  C5  UNL     1       1.194  -0.685  -0.120  1.00  0.00     0.192 C 
ENDROOT
BRANCH   1   2
HETATM    2  C4  UNL     1      -0.229  -0.260   0.029  1.00  0.00     0.277 C 
HETATM    3  N4  UNL     1      -0.623   0.785   0.893  1.00  0.00    -0.156 N 
HETATM    4  C3  UNL     1      -1.985   1.155   1.004  1.00  0.00     0.693 C 
ATOM      5  H4  UNL     1       0.081   1.278   1.443  1.00  0.00     0.187 HD
HETATM    6  N2  UNL     1      -2.985   0.484   0.258  1.00  0.00    -0.132 N 
HETATM    7  N3  UNL     1      -2.295   2.113   1.801  1.00  0.00    -0.233 N 
ATOM      8  H2  UNL     1      -3.207  -0.479   0.510  1.00  0.00     0.205 HD
ATOM      9  H32 UNL     1      -3.276   2.380   1.881  1.00  0.00     0.174 HD
ATOM     10  H31 UNL     1      -1.575   2.596   2.338  1.00  0.00     0.174 HD
HETATM   11  O1  UNL     1      -1.098  -0.868  -0.648  1.00  0.00    -0.269 OA
BRANCH   6  12
HETATM   12  N1  UNL     1      -3.681   1.063  -0.798  1.00  0.00    -0.286 N 
HETATM   13  C2  UNL     1      -4.941   1.282  -0.847  1.00  0.00     0.087 C 
HETATM   14  C1  UNL     1      -5.527   1.923  -2.084  1.00  0.00     0.075 C 
ATOM     15  H1  UNL     1      -3.134   1.340  -1.613  1.00  0.00     0.187 HD
BRANCH  13  16
HETATM   16  C13 UNL     1      -5.827   0.939   0.245  1.00  0.00     0.278 C 
HETATM   17  N12 UNL     1      -7.209   1.199   0.143  1.00  0.00    -0.056 NA
HETATM   18  O6  UNL     1      -5.359   0.412   1.274  1.00  0.00    -0.270 OA
ENDBRANCH  13  16
ENDBRANCH   6  12
ENDBRANCH   1   2
BRANCH   1  19
HETATM   19  O2  UNL     1       2.058   0.048   0.684  1.00  0.00    -0.373 OA
ATOM     20  H2  UNL     1       2.964  -0.223   0.589  1.00  0.00     0.211 HD
ENDBRANCH   1  19
BRANCH   1  21
HETATM   21  C6  UNL     1       1.615  -0.583  -1.553  1.00  0.00     0.137 C 
BRANCH  21  22
HETATM   22  S1  UNL     1       1.445   1.122  -2.115  1.00  0.00    -0.087 SA
BRANCH  22  23
HETATM   23  C7  UNL     1       2.578   2.231  -1.287  1.00  0.00     0.176 A 
HETATM   24  N5  UNL     1       2.394   2.916  -0.159  1.00  0.00    -0.262 N 
HETATM   25  N6  UNL     1       3.483   3.603   0.082  1.00  0.00    -0.215 N 
ATOM     26  H5  UNL     1       1.552   2.907   0.417  1.00  0.00     0.190 HD
HETATM   27  N7  UNL     1       4.345   3.354  -0.885  1.00  0.00    -0.128 N 
ATOM     28  H6  UNL     1       3.637   4.222   0.878  1.00  0.00     0.210 HD
HETATM   29  C8  UNL     1       5.660   3.898  -1.011  1.00  0.00     0.370 C 
HETATM   30  N9  UNL     1       3.802   2.509  -1.738  1.00  0.00    -0.252 N 
HETATM   31  N8  UNL     1       6.131   4.795  -0.035  1.00  0.00    -0.037 NA
HETATM   32  O3  UNL     1       6.375   3.564  -1.997  1.00  0.00    -0.247 OA
ATOM     33  H9  UNL     1       4.236   2.138  -2.583  1.00  0.00     0.191 HD
ENDBRANCH  22  23
ENDBRANCH  21  22
ENDBRANCH   1  21
BRANCH   1  34
HETATM   34  C9  UNL     1       1.304  -2.124   0.364  1.00  0.00     0.086 A 
HETATM   35  N10 UNL     1       1.690  -3.125  -0.385  1.00  0.00    -0.348 N 
HETATM   36  C10 UNL     1       1.751  -4.336   0.124  1.00  0.00     0.108 A 
ATOM     37  H10 UNL     1       1.943  -2.967  -1.360  1.00  0.00     0.166 HD
HETATM   38  S2  UNL     1       1.251  -4.099   1.731  1.00  0.00    -0.055 SA
HETATM   39  C12 UNL     1       0.980  -2.404   1.666  1.00  0.00     0.115 A 
HETATM   40  N11 UNL     1       0.532  -1.503   2.700  1.00  0.00    -0.092 NA
BRANCH  36  41
HETATM   41  C11 UNL     1       2.152  -5.642  -0.497  1.00  0.00     0.312 C 
BRANCH  41  42
HETATM   42  O4  UNL     1       3.001  -6.351   0.351  1.00  0.00    -0.365 OA
ATOM     43  H4  UNL     1       3.255  -7.178  -0.042  1.00  0.00     0.213 HD
ENDBRANCH  41  42
BRANCH  41  44
HETATM   44  O5  UNL     1       0.963  -6.398  -0.585  1.00  0.00    -0.365 OA
ATOM     45  H5  UNL     1       1.217  -7.225  -0.978  1.00  0.00     0.213 HD
ENDBRANCH  41  44
ENDBRANCH  36  41
ENDBRANCH   1  34
TORSDOF 11
