REMARK  8 active torsions:
REMARK  status: ('A' for Active; 'I' for Inactive)
REMARK    1  A    between atoms: N1_1  and  C1_4 
REMARK       I    between atoms: N5_15  and  C5_17 
REMARK       I    between atoms: C5_17  and  N6_19 
REMARK    2  A    between atoms: N6_19  and  C6_21 
REMARK    3  A    between atoms: C6_21  and  C7_22 
REMARK    4  A    between atoms: C8_26  and  N10_27 
REMARK    5  A    between atoms: C9_32  and  C10_33 
REMARK    6  A    between atoms: C10_33  and  O3_34 
REMARK    7  A    between atoms: O3_34  and  N13_35 
REMARK    8  A    between atoms: C11_37  and  C12_38 
ROOT
HETATM    1  C7  UNL     1      -1.611  -0.469  -1.894  1.00  0.00     0.253 C 
HETATM    2  N7  UNL     1      -0.931  -0.346  -3.159  1.00  0.00    -0.096 NA
HETATM    3  N8  UNL     1      -1.488   0.744  -3.844  1.00  0.00    -0.033 NA
HETATM    4  N9  UNL     1      -1.431   1.904  -3.067  1.00  0.00    -0.075 NA
HETATM    5  C8  UNL     1      -0.877   1.671  -1.763  1.00  0.00     0.364 C 
HETATM    6  O4  UNL     1      -1.487   0.652  -1.104  1.00  0.00    -0.325 OA
ENDROOT
BRANCH   1   7
HETATM    7  C6  UNL     1      -1.197  -1.726  -1.161  1.00  0.00     0.175 C 
BRANCH   7   8
HETATM    8  N6  UNL     1      -2.032  -1.917  -0.016  1.00  0.00    -0.339 N 
HETATM    9  C5  UNL     1      -3.427  -2.151  -0.006  1.00  0.00     0.321 C 
HETATM   10  N5  UNL     1      -4.095  -2.313   1.217  1.00  0.00    -0.292 N 
HETATM   11  O2  UNL     1      -4.081  -2.217  -1.105  1.00  0.00    -0.247 OA
HETATM   12  C4  UNL     1      -4.876  -1.446   1.718  1.00  0.00     0.157 A 
ATOM     13  H5  UNL     1      -3.944  -3.179   1.735  1.00  0.00     0.172 HD
HETATM   14  C3  UNL     1      -5.166  -0.248   1.132  1.00  0.00     0.147 A 
HETATM   15  N17 UNL     1      -5.481  -1.695   2.924  1.00  0.00    -0.174 N 
HETATM   16  C2  UNL     1      -6.086   0.702   1.794  1.00  0.00     0.175 A 
HETATM   17  N4  UNL     1      -4.817   0.379   0.010  1.00  0.00    -0.234 N 
HETATM   18  N2  UNL     1      -6.617   0.367   2.956  1.00  0.00    -0.173 N 
HETATM   19  N3  UNL     1      -6.144   1.762   0.951  1.00  0.00    -0.223 N 
HETATM   20  C1  UNL     1      -6.309  -0.821   3.502  1.00  0.00     0.679 A 
ATOM     21  H2  UNL     1      -7.254   1.004   3.434  1.00  0.00     0.186 HD
HETATM   22  O1  UNL     1      -5.389   1.534  -0.079  1.00  0.00    -0.155 OA
ATOM     23  H3  UNL     1      -6.695   2.607   1.103  1.00  0.00     0.198 HD
ATOM     24  H4  UNL     1      -4.180  -0.003  -0.689  1.00  0.00     0.197 HD
ATOM     25  H17 UNL     1      -5.292  -2.579   3.396  1.00  0.00     0.186 HD
ATOM     26  H6  UNL     1      -1.571  -1.881   0.893  1.00  0.00     0.164 HD
BRANCH  20  27
HETATM   27  N1  UNL     1      -6.835  -1.133   4.649  1.00  0.00    -0.234 N 
ATOM     28  H12 UNL     1      -7.467  -0.465   5.090  1.00  0.00     0.174 HD
ATOM     29  H11 UNL     1      -6.601  -2.035   5.064  1.00  0.00     0.174 HD
ENDBRANCH  20  27
ENDBRANCH   7   8
ENDBRANCH   1   7
BRANCH   5  30
HETATM   30  N10 UNL     1       0.569   1.535  -1.823  1.00  0.00    -0.217 N 
HETATM   31  N11 UNL     1       1.301   1.769  -2.927  1.00  0.00    -0.235 N 
HETATM   32  N12 UNL     1       2.564   1.551  -2.634  1.00  0.00    -0.285 N 
ATOM     33  H11 UNL     1       0.939   2.064  -3.834  1.00  0.00     0.208 HD
HETATM   34  C9  UNL     1       2.685   1.175  -1.352  1.00  0.00     0.096 A 
ATOM     35  H12 UNL     1       3.340   1.653  -3.288  1.00  0.00     0.188 HD
HETATM   36  C15 UNL     1       1.403   1.169  -0.844  1.00  0.00     0.164 A 
HETATM   37  N16 UNL     1       1.023   0.843   0.482  1.00  0.00    -0.079 NA
BRANCH  34  38
HETATM   38  C10 UNL     1       3.950   0.822  -0.590  1.00  0.00     0.263 C 
BRANCH  38  39
HETATM   39  O3  UNL     1       5.002   0.941  -1.438  1.00  0.00    -0.275 OA
BRANCH  39  40
HETATM   40  N13 UNL     1       6.266   0.826  -1.558  1.00  0.00    -0.275 N 
HETATM   41  C11 UNL     1       7.228   0.512  -0.841  1.00  0.00     0.144 C 
ATOM     42  H13 UNL     1       6.570   1.055  -2.504  1.00  0.00     0.193 HD
BRANCH  41  43
HETATM   43  C12 UNL     1       7.256   0.120   0.547  1.00  0.00     0.066 A 
HETATM   44  C13 UNL     1       8.418  -0.229   1.249  1.00  0.00     0.119 A 
HETATM   45  N14 UNL     1       8.111  -0.538   2.521  1.00  0.00    -0.360 N 
HETATM   46  C14 UNL     1       6.783  -0.399   2.661  1.00  0.00     0.180 A 
ATOM     47  H14 UNL     1       8.767  -0.826   3.247  1.00  0.00     0.166 HD
HETATM   48  N15 UNL     1       6.291  -0.004   1.465  1.00  0.00    -0.350 N 
ATOM     49  H15 UNL     1       5.304   0.177   1.285  1.00  0.00     0.166 HD
ENDBRANCH  41  43
ENDBRANCH  39  40
ENDBRANCH  38  39
ENDBRANCH  34  38
ENDBRANCH   5  30
TORSDOF 8
