REMARK  4 active torsions:
REMARK  status: ('A' for Active; 'I' for Inactive)
REMARK    1  A    between atoms: N1_1  and  C1_5 
REMARK    2  A    between atoms: C1_5  and  C2_6 
REMARK    3  A    between atoms: C2_6  and  C3_7 
REMARK    4  A    between atoms: C4_8  and  C5_9 
ROOT
HETATM    1  C5  UNL     1       1.974  -0.388  -0.005  1.00  0.00     0.133 A 
HETATM    2  N2  UNL     1       2.970  -1.211   0.384  1.00  0.00    -0.250 N 
ATOM      3  H2  UNL     1       2.863  -2.213   0.541  1.00  0.00     0.195 HD
HETATM    4  O1  UNL     1       4.076  -0.563   0.531  1.00  0.00    -0.228 OA
HETATM    5  C6  UNL     1       3.924   0.715   0.261  1.00  0.00     0.169 A 
HETATM    6 BR1  UNL     1       5.285   2.058   0.343  1.00  0.00    -0.019 Br
HETATM    7  C7  UNL     1       2.594   0.860  -0.084  1.00  0.00     0.114 A 
HETATM    8 CL1  UNL     1       1.835   2.365  -0.540  1.00  0.00    -0.077 Cl
ENDROOT
BRANCH   1   9
HETATM    9  C4  UNL     1       0.598  -0.706  -0.276  1.00  0.00    -0.045 C 
HETATM   10  C3  UNL     1      -0.556  -0.968  -0.524  1.00  0.00    -0.098 C 
BRANCH  10  11
HETATM   11  C2  UNL     1      -1.955  -1.274  -0.842  1.00  0.00     0.121 C 
BRANCH  11  12
HETATM   12  C1  UNL     1      -2.868  -0.314  -0.127  1.00  0.00     0.241 C 
BRANCH  12  13
HETATM   13  N1  UNL     1      -2.587   1.062  -0.531  1.00  0.00    -0.079 N 
ATOM     14  H13 UNL     1      -1.605   1.303  -0.397  1.00  0.00     0.274 HD
ATOM     15  H12 UNL     1      -2.636   1.177  -1.543  1.00  0.00     0.274 HD
ATOM     16  H11 UNL     1      -3.206   1.712  -0.047  1.00  0.00     0.274 HD
ENDBRANCH  12  13
ENDBRANCH  11  12
ENDBRANCH  10  11
ENDBRANCH   1   9
TORSDOF 4
