REMARK  2 active torsions:
REMARK  status: ('A' for Active; 'I' for Inactive)
REMARK    1  A    between atoms: C2_7  and  N3_8 
REMARK    2  A    between atoms: N3_8  and  C3_10 
ROOT
HETATM    1 CL1  UNL     1       4.824  -3.573   1.889  1.00  0.00    -0.060 Cl
HETATM    2  C1  UNL     1       3.706  -2.282   1.424  1.00  0.00     0.158 A 
HETATM    3  N1  UNL     1       4.164  -1.066   1.074  1.00  0.00    -0.273 N 
ATOM      4  H1  UNL     1       5.172  -0.907   1.083  1.00  0.00     0.188 HD
HETATM    5  N2  UNL     1       3.383  -0.076   0.722  1.00  0.00    -0.131 N 
ATOM      6  H2  UNL     1       3.788   0.825   0.467  1.00  0.00     0.205 HD
HETATM    7  C2  UNL     1       2.036  -0.245   0.695  1.00  0.00     0.694 A 
HETATM    8  N4  UNL     1       1.553  -1.453   1.040  1.00  0.00    -0.177 N 
ATOM      9  H4  UNL     1       0.544  -1.599   1.025  1.00  0.00     0.185 HD
HETATM   10  C10 UNL     1       2.347  -2.474   1.403  1.00  0.00     0.159 A 
HETATM   11 CL2  UNL     1       1.720  -4.039   1.850  1.00  0.00    -0.060 Cl
ENDROOT
BRANCH   7  12
HETATM   12  N3  UNL     1       1.285   0.736   0.347  1.00  0.00    -0.220 N 
ATOM     13  H3  UNL     1       1.717   1.626   0.097  1.00  0.00     0.178 HD
BRANCH  12  14
HETATM   14  C3  UNL     1      -0.156   0.617   0.299  1.00  0.00     0.103 C 
HETATM   15  C4  UNL     1      -0.781   1.985   0.318  1.00  0.00     0.026 C 
HETATM   16  C5  UNL     1      -2.181   1.997  -0.240  1.00  0.00     0.007 C 
HETATM   17  C6  UNL     1      -2.340   0.941  -1.310  1.00  0.00    -0.014 C 
HETATM   18  C7  UNL     1      -1.003   0.812  -2.007  1.00  0.00     0.011 C 
HETATM   19  C9  UNL     1      -2.093  -0.440  -0.722  1.00  0.00     0.011 C 
HETATM   20  C8  UNL     1      -0.617  -0.164  -0.912  1.00  0.00     0.009 C 
ENDBRANCH  12  14
ENDBRANCH   7  12
TORSDOF 2
