REMARK  1 active torsions:
REMARK  status: ('A' for Active; 'I' for Inactive)
REMARK    1  A    between atoms: C3_3  and  O1_4 
ROOT
HETATM    1  C1  UNL     1       2.278   1.196   0.090  1.00  0.00     0.015 C 
HETATM    2  C2  UNL     1       1.141   0.791   0.119  1.00  0.00    -0.079 C 
HETATM    3  C3  UNL     1      -0.244   0.313   0.135  1.00  0.00     0.120 A 
HETATM    4  C4  UNL     1      -0.625  -0.855  -0.746  1.00  0.00     0.055 A 
HETATM    5  C5  UNL     1      -0.549  -1.023   0.778  1.00  0.00     0.055 A 
ENDROOT
BRANCH   3   6
HETATM    6  O1  UNL     1      -1.178   1.337   0.215  1.00  0.00    -0.378 OA
ATOM      7  H1  UNL     1      -2.076   1.027   0.225  1.00  0.00     0.211 HD
ENDBRANCH   3   6
TORSDOF 1
