REMARK  1 active torsions:
REMARK  status: ('A' for Active; 'I' for Inactive)
REMARK    1  A    between atoms: O1_1  and  C1_3 
ROOT
HETATM    1  C1  UNL     1       0.790   0.200   0.045  1.00  0.00     0.118 C 
HETATM    2  C2  UNL     1      -0.079  -0.660  -0.874  1.00  0.00     0.032 C 
HETATM    3  C3  UNL     1      -1.264   0.138  -0.322  1.00  0.00     0.005 C 
HETATM    4  C4  UNL     1      -0.441   0.296   0.954  1.00  0.00     0.032 C 
ENDROOT
BRANCH   1   5
HETATM    5  O1  UNL     1       1.848  -0.458   0.627  1.00  0.00    -0.396 OA
ATOM      6  H1  UNL     1       2.388   0.076   1.198  1.00  0.00     0.210 HD
ENDBRANCH   1   5
TORSDOF 1
