REMARK  4 active torsions:
REMARK  status: ('A' for Active; 'I' for Inactive)
REMARK    1  A    between atoms: C4_6  and  N2_7 
REMARK    2  A    between atoms: N2_7  and  N3_9 
REMARK       I    between atoms: C5_11  and  N5_13 
REMARK    3  A    between atoms: N5_13  and  N6_15 
REMARK    4  A    between atoms: N6_15  and  N7_17 
ROOT
HETATM    1  N3  UNL     1       0.751  -0.035   0.648  1.00  0.00    -0.271 N 
ATOM      2  H3  UNL     1       0.850   0.780   1.253  1.00  0.00     0.189 HD
HETATM    3  C5  UNL     1       1.419  -0.121  -0.450  1.00  0.00     0.219 C 
HETATM    4  N4  UNL     1       1.281  -1.270  -1.306  1.00  0.00    -0.061 NA
HETATM    5  N5  UNL     1       2.309   0.917  -0.844  1.00  0.00    -0.275 N 
ATOM      6  H5  UNL     1       2.080   1.450  -1.683  1.00  0.00     0.185 HD
ENDROOT
BRANCH   1   7
HETATM    7  N2  UNL     1      -0.116  -1.083   0.997  1.00  0.00    -0.277 N 
ATOM      8  H2  UNL     1       0.234  -1.965   1.371  1.00  0.00     0.189 HD
BRANCH   7   9
HETATM    9  C4  UNL     1      -1.400  -0.873   0.818  1.00  0.00     0.163 A 
HETATM   10  N1  UNL     1      -2.418  -1.700   1.068  1.00  0.00    -0.344 N 
HETATM   11  C3  UNL     1      -3.628  -1.288   0.815  1.00  0.00     0.104 A 
ATOM     12  H1  UNL     1      -2.252  -2.632   1.448  1.00  0.00     0.167 HD
HETATM   13  C2  UNL     1      -3.787  -0.033   0.307  1.00  0.00    -0.002 A 
HETATM   14  C1  UNL     1      -5.017   0.721  -0.084  1.00  0.00     0.058 C 
HETATM   15  S1  UNL     1      -2.177   0.521   0.209  1.00  0.00    -0.056 SA
ENDBRANCH   7   9
ENDBRANCH   1   7
BRANCH   5  16
HETATM   16  N6  UNL     1       3.467   1.250  -0.161  1.00  0.00    -0.149 NA
HETATM   17  C6  UNL     1       4.282   0.105   0.177  1.00  0.00     0.162 C 
BRANCH  16  18
HETATM   18  N7  UNL     1       3.152   1.959   1.003  1.00  0.00    -0.346 NA
ATOM     19  H72 UNL     1       2.577   2.767   0.764  1.00  0.00     0.172 HD
ATOM     20  H71 UNL     1       4.005   2.204   1.506  1.00  0.00     0.172 HD
ENDBRANCH  16  18
ENDBRANCH   5  16
TORSDOF 4
