REMARK  4 active torsions:
REMARK  status: ('A' for Active; 'I' for Inactive)
REMARK    1  A    between atoms: O1_2  and  N1_3 
REMARK       I    between atoms: N1_3  and  C2_5 
REMARK       I    between atoms: C2_5  and  N3_9 
REMARK    2  A    between atoms: N3_9  and  N4_11 
REMARK    3  A    between atoms: N4_11  and  C3_13 
REMARK    4  A    between atoms: C3_13  and  N5_15 
ROOT
HETATM    1  N1  UNL     1      -2.711  -0.960  -0.560  1.00  0.00    -0.096 N 
ATOM      2  H1  UNL     1      -2.644  -1.977  -0.523  1.00  0.00     0.213 HD
HETATM    3  C2  UNL     1      -1.533  -0.198  -0.448  1.00  0.00     0.710 C 
HETATM    4  N2  UNL     1      -1.525   1.036  -0.753  1.00  0.00    -0.232 N 
ATOM      5  H21 UNL     1      -0.671   1.588  -0.672  1.00  0.00     0.174 HD
ATOM      6  H22 UNL     1      -2.382   1.478  -1.084  1.00  0.00     0.174 HD
HETATM    7  N3  UNL     1      -0.339  -0.814   0.013  1.00  0.00    -0.129 N 
ATOM      8  H3  UNL     1      -0.021  -1.664  -0.454  1.00  0.00     0.205 HD
ENDROOT
BRANCH   7   9
HETATM    9  N4  UNL     1       0.416  -0.320   1.064  1.00  0.00    -0.262 N 
ATOM     10  H4  UNL     1      -0.057  -0.272   1.966  1.00  0.00     0.190 HD
BRANCH   9  11
HETATM   11  C3  UNL     1       1.729   0.117   1.048  1.00  0.00     0.188 C 
HETATM   12  S1  UNL     1       2.343   0.658   2.505  1.00  0.00    -0.039 SA
BRANCH  11  13
HETATM   13  N5  UNL     1       2.624   0.171  -0.026  1.00  0.00    -0.366 N 
HETATM   14  C4  UNL     1       2.223  -0.264  -1.331  1.00  0.00     0.151 C 
HETATM   15  C5  UNL     1       3.999   0.665   0.127  1.00  0.00     0.151 C 
ENDBRANCH  11  13
ENDBRANCH   9  11
ENDBRANCH   7   9
BRANCH   1  16
HETATM   16  O1  UNL     1      -3.934  -0.391  -0.716  1.00  0.00    -0.271 OA
HETATM   17  C1  UNL     1      -4.322   0.288   0.452  1.00  0.00     0.238 C 
ENDBRANCH   1  16
TORSDOF 4
