REMARK  6 active torsions:
REMARK  status: ('A' for Active; 'I' for Inactive)
REMARK    1  A    between atoms: C2_2  and  C3_3 
REMARK    2  A    between atoms: C5_5  and  N1_6 
REMARK    3  A    between atoms: N1_6  and  C6_8 
REMARK    4  A    between atoms: C6_8  and  O1_9 
REMARK    5  A    between atoms: N2_11  and  N3_13 
REMARK    6  A    between atoms: C7_18  and  N5_19 
ROOT
HETATM    1  C3  UNL     1      -1.875   0.437  -0.067  1.00  0.00     0.052 A 
HETATM    2  C4  UNL     1      -0.725   1.208   0.160  1.00  0.00     0.079 A 
HETATM    3  C5  UNL     1       0.513   0.614   0.237  1.00  0.00     0.126 A 
HETATM    4  N4  UNL     1       0.669  -0.711   0.100  1.00  0.00    -0.177 N 
ATOM      5  H4  UNL     1       1.592  -1.141   0.159  1.00  0.00     0.185 HD
HETATM    6  C7  UNL     1      -0.427  -1.452  -0.117  1.00  0.00     0.677 A 
HETATM    7  N6  UNL     1      -1.653  -0.875  -0.195  1.00  0.00    -0.192 N 
ATOM      8  H6  UNL     1      -2.456  -1.481  -0.362  1.00  0.00     0.184 HD
ENDROOT
BRANCH   3   9
HETATM    9  N1  UNL     1       1.564   1.322   0.445  1.00  0.00    -0.307 N 
ATOM     10  H1  UNL     1       1.467   2.332   0.552  1.00  0.00     0.171 HD
BRANCH   9  11
HETATM   11  C6  UNL     1       2.853   0.743   0.530  1.00  0.00     0.237 C 
HETATM   12  N2  UNL     1       3.589   0.744  -0.520  1.00  0.00    -0.272 N 
ATOM     13  H2  UNL     1       3.201   1.165  -1.364  1.00  0.00     0.190 HD
BRANCH  11  14
HETATM   14  O1  UNL     1       3.360   0.177   1.689  1.00  0.00    -0.331 OA
ATOM     15  H1  UNL     1       4.225  -0.212   1.746  1.00  0.00     0.221 HD
ENDBRANCH  11  14
BRANCH  12  16
HETATM   16  N3  UNL     1       4.856   0.225  -0.601  1.00  0.00    -0.342 N 
ATOM     17  H32 UNL     1       5.228  -0.192   0.252  1.00  0.00     0.176 HD
ATOM     18  H31 UNL     1       5.441   0.226  -1.436  1.00  0.00     0.176 HD
ENDBRANCH  12  16
ENDBRANCH   9  11
ENDBRANCH   3   9
BRANCH   1  19
HETATM   19  C2  UNL     1      -3.181   1.068  -0.148  1.00  0.00     0.020 C 
HETATM   20  C1  UNL     1      -4.286   0.417  -0.356  1.00  0.00     0.013 C 
ENDBRANCH   1  19
BRANCH   6  21
HETATM   21  N5  UNL     1      -0.295  -2.725  -0.251  1.00  0.00    -0.234 N 
ATOM     22  H52 UNL     1       0.626  -3.159  -0.192  1.00  0.00     0.174 HD
ATOM     23  H51 UNL     1      -1.129  -3.289  -0.416  1.00  0.00     0.174 HD
ENDBRANCH   6  21
TORSDOF 6
