REMARK  2 active torsions:
REMARK  status: ('A' for Active; 'I' for Inactive)
REMARK    1  A    between atoms: C3_7  and  N3_8 
REMARK    2  A    between atoms: C5_12  and  N4_13 
REMARK       I    between atoms: N4_13  and  C6_15 
ROOT
HETATM    1  C1  UNL     1      -2.715  -2.641   0.289  1.00  0.00     0.165 C 
HETATM    2  N1  UNL     1      -2.585  -1.209   0.131  1.00  0.00    -0.230 N 
ATOM      3  H1  UNL     1      -3.434  -0.646   0.080  1.00  0.00     0.177 HD
HETATM    4  C2  UNL     1      -1.452  -0.616   0.052  1.00  0.00     0.683 A 
HETATM    5  N2  UNL     1      -1.459   0.722  -0.095  1.00  0.00    -0.155 N 
ATOM      6  H2  UNL     1      -2.331   1.248  -0.143  1.00  0.00     0.188 HD
HETATM    7  C3  UNL     1      -0.263   1.334  -0.176  1.00  0.00     0.241 A 
HETATM    8  O1  UNL     1       0.869   0.662  -0.116  1.00  0.00    -0.245 OA
HETATM    9  C5  UNL     1       0.909  -0.642   0.027  1.00  0.00     0.248 A 
HETATM   10  N7  UNL     1      -0.274  -1.278   0.111  1.00  0.00    -0.154 N 
ATOM     11  H7  UNL     1      -0.283  -2.292   0.223  1.00  0.00     0.188 HD
ENDROOT
BRANCH   9  12
HETATM   12  N4  UNL     1       1.999  -1.327   0.089  1.00  0.00    -0.296 N 
HETATM   13  C6  UNL     1       3.286  -0.796   0.015  1.00  0.00     0.189 C 
HETATM   14  N5  UNL     1       4.301  -1.557   0.191  1.00  0.00    -0.373 N 
HETATM   15  N6  UNL     1       3.499   0.574  -0.252  1.00  0.00    -0.064 NA
ATOM     16  H52 UNL     1       4.147  -2.547   0.384  1.00  0.00     0.158 HD
ATOM     17  H51 UNL     1       5.243  -1.169   0.137  1.00  0.00     0.158 HD
ATOM     18  H4  UNL     1       1.913  -2.337   0.201  1.00  0.00     0.172 HD
ENDBRANCH   9  12
BRANCH   7  19
HETATM   19  N3  UNL     1      -0.210   2.602  -0.316  1.00  0.00    -0.360 N 
HETATM   20  C4  UNL     1      -1.336   3.475  -0.399  1.00  0.00     0.150 C 
ATOM     21  H3  UNL     1       0.715   3.027  -0.373  1.00  0.00     0.162 HD
ENDBRANCH   7  19
TORSDOF 2
