REMARK  2 active torsions:
REMARK  status: ('A' for Active; 'I' for Inactive)
REMARK    1  A    between atoms: C2_2  and  N1_3 
REMARK    2  A    between atoms: N1_3  and  C3_5 
ROOT
HETATM    1  C3  UNL     1       0.641  -0.216  -0.526  1.00  0.00     0.119 A 
HETATM    2  N2  UNL     1       1.570  -1.008  -1.076  1.00  0.00    -0.338 N 
ATOM      3  H2  UNL     1       2.469  -0.602  -1.335  1.00  0.00     0.168 HD
HETATM    4  C4  UNL     1       1.364  -2.310  -1.298  1.00  0.00     0.183 A 
HETATM    5  N3  UNL     1       0.166  -2.834  -0.949  1.00  0.00    -0.337 N 
ATOM      6  H3  UNL     1      -0.010  -3.825  -1.111  1.00  0.00     0.168 HD
HETATM    7  C5  UNL     1      -0.798  -2.078  -0.393  1.00  0.00     0.138 A 
HETATM    8  N4  UNL     1      -2.067  -2.329   0.047  1.00  0.00    -0.283 N 
ATOM      9  H4  UNL     1      -2.528  -3.238   0.016  1.00  0.00     0.188 HD
HETATM   10  N5  UNL     1      -2.607  -1.222   0.518  1.00  0.00    -0.283 N 
ATOM     11  H5  UNL     1      -3.548  -1.154   0.904  1.00  0.00     0.188 HD
HETATM   12  C6  UNL     1      -1.744  -0.196   0.418  1.00  0.00     0.133 A 
HETATM   13  N6  UNL     1      -1.854   1.033   0.747  1.00  0.00    -0.379 N 
ATOM     14  H6  UNL     1      -1.049   1.634   0.569  1.00  0.00     0.160 HD
HETATM   15  C7  UNL     1      -2.999   1.642   1.340  1.00  0.00     0.147 C 
HETATM   16  C8  UNL     1      -0.609  -0.732  -0.154  1.00  0.00     0.098 A 
ENDROOT
BRANCH   1  17
HETATM   17  N1  UNL     1       0.805   1.031  -0.300  1.00  0.00    -0.376 N 
ATOM     18  H1  UNL     1       0.031   1.543   0.124  1.00  0.00     0.161 HD
BRANCH  17  19
HETATM   19  C2  UNL     1       2.012   1.764  -0.604  1.00  0.00     0.116 C 
HETATM   20  C1  UNL     1       3.127   1.474   0.380  1.00  0.00     0.026 C 
ENDBRANCH  17  19
ENDBRANCH   1  17
TORSDOF 2
