REMARK  5 active torsions:
REMARK  status: ('A' for Active; 'I' for Inactive)
REMARK    1  A    between atoms: N1_1  and  N2_4 
REMARK    2  A    between atoms: N2_4  and  C1_6 
REMARK    3  A    between atoms: C1_6  and  N3_8 
REMARK    4  A    between atoms: N3_8  and  N4_10 
REMARK    5  A    between atoms: N4_10  and  C2_12 
ROOT
HETATM    1  N3  UNL     1      -1.060  -1.508  -0.270  1.00  0.00    -0.274 N 
ATOM      2  H3  UNL     1      -0.494  -2.330  -0.478  1.00  0.00     0.189 HD
ENDROOT
BRANCH   1   3
HETATM    3  C1  UNL     1      -2.356  -1.407  -0.825  1.00  0.00     0.204 C 
HETATM    4  S1  UNL     1      -2.928  -2.624  -1.800  1.00  0.00    -0.038 SA
BRANCH   3   5
HETATM    5  N2  UNL     1      -3.150  -0.282  -0.548  1.00  0.00    -0.282 N 
ATOM      6  H2  UNL     1      -4.084  -0.215  -0.951  1.00  0.00     0.189 HD
BRANCH   5   7
HETATM    7  N1  UNL     1      -2.684   0.736   0.263  1.00  0.00    -0.343 N 
ATOM      8  H12 UNL     1      -1.747   0.653   0.658  1.00  0.00     0.176 HD
ATOM      9  H11 UNL     1      -3.261   1.553   0.464  1.00  0.00     0.176 HD
ENDBRANCH   5   7
ENDBRANCH   3   5
ENDBRANCH   1   3
BRANCH   1  10
HETATM   10  N4  UNL     1      -0.545  -0.531   0.539  1.00  0.00    -0.283 N 
ATOM     11  H4  UNL     1      -1.150  -0.161   1.272  1.00  0.00     0.188 HD
BRANCH  10  12
HETATM   12  C2  UNL     1       0.644  -0.041   0.448  1.00  0.00     0.119 A 
HETATM   13  C3  UNL     1       1.454  -0.546  -0.545  1.00  0.00     0.050 A 
HETATM   14  C4  UNL     1       2.727  -0.044  -0.668  1.00  0.00     0.005 A 
HETATM   15  C5  UNL     1       3.139   0.937   0.202  1.00  0.00     0.017 A 
HETATM   16  C6  UNL     1       2.312   1.419   1.179  1.00  0.00     0.089 A 
HETATM   17  N5  UNL     1       1.077   0.918   1.281  1.00  0.00    -0.351 N 
ATOM     18  H5  UNL     1       0.452   1.271   2.006  1.00  0.00     0.166 HD
ENDBRANCH  10  12
ENDBRANCH   1  10
TORSDOF 5
