REMARK  4 active torsions:
REMARK  status: ('A' for Active; 'I' for Inactive)
REMARK    1  A    between atoms: N1_1  and  N2_4 
REMARK    2  A    between atoms: C3_9  and  N4_10 
REMARK    3  A    between atoms: N4_10  and  N5_12 
REMARK    4  A    between atoms: N5_12  and  C4_14 
ROOT
HETATM    1  N4  UNL     1       0.011  -1.271   0.336  1.00  0.00    -0.128 N 
ATOM      2  H4  UNL     1       0.012  -2.089   0.946  1.00  0.00     0.205 HD
ENDROOT
BRANCH   1   3
HETATM    3  C3  UNL     1      -1.048  -0.304   0.394  1.00  0.00     0.709 C 
HETATM    4  N2  UNL     1      -2.278  -0.464  -0.301  1.00  0.00    -0.128 N 
HETATM    5  C1  UNL     1      -2.796   0.885  -0.431  1.00  0.00     0.187 C 
HETATM    6  C2  UNL     1      -2.297   1.497   0.858  1.00  0.00     0.160 C 
HETATM    7  N3  UNL     1      -1.047   0.803   1.054  1.00  0.00    -0.222 N 
ATOM      8  H3  UNL     1      -0.276   1.139   1.630  1.00  0.00     0.177 HD
BRANCH   4   9
HETATM    9  N1  UNL     1      -2.859  -1.635  -0.755  1.00  0.00    -0.329 N 
ATOM     10  H12 UNL     1      -3.741  -1.750  -1.254  1.00  0.00     0.177 HD
ATOM     11  H11 UNL     1      -2.495  -2.583  -0.664  1.00  0.00     0.177 HD
ENDBRANCH   4   9
ENDBRANCH   1   3
BRANCH   1  12
HETATM   12  N5  UNL     1       1.031  -1.056  -0.576  1.00  0.00    -0.249 N 
ATOM     13  H5  UNL     1       0.914  -1.383  -1.535  1.00  0.00     0.191 HD
BRANCH  12  14
HETATM   14  C4  UNL     1       2.141  -0.445  -0.244  1.00  0.00     0.263 A 
HETATM   15  N6  UNL     1       3.186  -0.188  -1.048  1.00  0.00    -0.259 N 
HETATM   16  N7  UNL     1       4.081   0.435  -0.322  1.00  0.00    -0.242 N 
ATOM     17  H6  UNL     1       3.267  -0.431  -2.035  1.00  0.00     0.190 HD
HETATM   18  C5  UNL     1       3.613   0.574   0.931  1.00  0.00     0.387 A 
ATOM     19  H7  UNL     1       4.988   0.762  -0.654  1.00  0.00     0.192 HD
HETATM   20  O1  UNL     1       4.148   1.107   1.929  1.00  0.00    -0.236 OA
HETATM   21  O2  UNL     1       2.433   0.027   0.935  1.00  0.00    -0.224 OA
ENDBRANCH  12  14
ENDBRANCH   1  12
TORSDOF 4
