REMARK  2 active torsions:
REMARK  status: ('A' for Active; 'I' for Inactive)
REMARK    1  A    between atoms: N1_1  and  N2_4 
REMARK    2  A    between atoms: N2_4  and  C1_6 
ROOT
HETATM    1  C1  UNL     1       1.053  -0.683   0.523  1.00  0.00     0.153 C 
HETATM    2  N3  UNL     1       0.661  -1.958   0.404  1.00  0.00    -0.291 N 
ATOM      3  H3  UNL     1       1.342  -2.661   0.691  1.00  0.00     0.172 HD
HETATM    4  C2  UNL     1      -0.530  -2.436  -0.051  1.00  0.00     0.328 C 
HETATM    5  O1  UNL     1      -0.558  -3.675  -0.213  1.00  0.00    -0.247 OA
HETATM    6  N4  UNL     1      -1.663  -1.751  -0.345  1.00  0.00    -0.273 N 
ATOM      7  H4  UNL     1      -2.467  -2.339  -0.562  1.00  0.00     0.173 HD
HETATM    8  C3  UNL     1      -1.907  -0.441  -0.399  1.00  0.00     0.278 C 
HETATM    9  O2  UNL     1      -3.073  -0.065  -0.732  1.00  0.00    -0.265 OA
HETATM   10  C4  UNL     1      -1.027   0.583  -0.133  1.00  0.00     0.133 A 
HETATM   11  N5  UNL     1      -1.344   1.888  -0.242  1.00  0.00    -0.346 N 
ATOM     12  H5  UNL     1      -2.239   2.287  -0.524  1.00  0.00     0.167 HD
HETATM   13  C5  UNL     1      -0.225   2.553   0.102  1.00  0.00     0.181 A 
HETATM   14  N6  UNL     1       0.762   1.704   0.415  1.00  0.00    -0.347 N 
ATOM     15  H6  UNL     1       1.704   1.967   0.706  1.00  0.00     0.167 HD
HETATM   16  C6  UNL     1       0.303   0.446   0.282  1.00  0.00     0.112 A 
ENDROOT
BRANCH   1  17
HETATM   17  N2  UNL     1       2.253  -0.439   0.901  1.00  0.00    -0.290 N 
ATOM     18  H2  UNL     1       2.844  -1.249   1.090  1.00  0.00     0.188 HD
BRANCH  17  19
HETATM   19  N1  UNL     1       2.826   0.786   1.078  1.00  0.00    -0.344 N 
ATOM     20  H12 UNL     1       2.220   1.583   0.884  1.00  0.00     0.176 HD
ATOM     21  H11 UNL     1       3.781   0.980   1.379  1.00  0.00     0.176 HD
ENDBRANCH  17  19
ENDBRANCH   1  17
TORSDOF 2
