REMARK  4 active torsions:
REMARK  status: ('A' for Active; 'I' for Inactive)
REMARK    1  A    between atoms: C5_7  and  N2_8 
REMARK    2  A    between atoms: N2_8  and  N3_10 
REMARK    3  A    between atoms: N7_18  and  C6_19 
REMARK    4  A    between atoms: C6_19  and  O1_20 
ROOT
HETATM    1  C1  UNL     1      -2.409  -2.611   0.370  1.00  0.00     0.063 C 
HETATM    2  C2  UNL     1      -1.693  -1.520   0.182  1.00  0.00     0.098 A 
HETATM    3  N1  UNL     1      -0.350  -1.539   0.402  1.00  0.00    -0.326 N 
ATOM      4  H1  UNL     1       0.109  -2.395   0.713  1.00  0.00     0.169 HD
HETATM    5  C3  UNL     1       0.359  -0.429   0.207  1.00  0.00     0.156 A 
HETATM    6  C4  UNL     1      -0.284   0.713  -0.214  1.00  0.00     0.137 A 
HETATM    7  C5  UNL     1      -1.651   0.722  -0.435  1.00  0.00     0.153 A 
HETATM    8  N4  UNL     1      -2.328  -0.416  -0.227  1.00  0.00    -0.326 N 
ATOM      9  H4  UNL     1      -3.336  -0.440  -0.382  1.00  0.00     0.169 HD
HETATM   10  N5  UNL     1       0.558   1.691  -0.351  1.00  0.00    -0.277 N 
ATOM     11  H5  UNL     1       0.308   2.633  -0.653  1.00  0.00     0.184 HD
HETATM   12  N6  UNL     1       1.855   1.279  -0.029  1.00  0.00    -0.016 NA
HETATM   13  N7  UNL     1       1.731  -0.065   0.325  1.00  0.00    -0.235 N 
ENDROOT
BRANCH   7  14
HETATM   14  N2  UNL     1      -2.269   1.799  -0.833  1.00  0.00    -0.290 N 
ATOM     15  H2  UNL     1      -3.276   1.805  -0.996  1.00  0.00     0.188 HD
BRANCH  14  16
HETATM   16  N3  UNL     1      -1.495   2.940  -1.026  1.00  0.00    -0.344 N 
ATOM     17  H32 UNL     1      -0.489   2.918  -0.859  1.00  0.00     0.176 HD
ATOM     18  H31 UNL     1      -1.978   3.782  -1.337  1.00  0.00     0.176 HD
ENDBRANCH  14  16
ENDBRANCH   7  14
BRANCH  13  19
HETATM   19  C6  UNL     1       2.758  -0.984   0.744  1.00  0.00     0.313 C 
BRANCH  19  20
HETATM   20  O1  UNL     1       4.008  -0.422   0.787  1.00  0.00    -0.381 OA
ATOM     21  H1  UNL     1       4.685  -1.028   1.063  1.00  0.00     0.211 HD
ENDBRANCH  19  20
ENDBRANCH  13  19
TORSDOF 4
