REMARK  2 active torsions:
REMARK  status: ('A' for Active; 'I' for Inactive)
REMARK    1  A    between atoms: N4_10  and  N5_12 
REMARK    2  A    between atoms: N5_12  and  C4_14 
ROOT
HETATM    1  C1  UNL     1      -1.656  -2.505   0.489  1.00  0.00     0.197 C 
HETATM    2  N1  UNL     1      -1.917  -1.086   0.435  1.00  0.00    -0.123 N 
HETATM    3  N2  UNL     1      -3.107  -0.552   0.704  1.00  0.00    -0.235 N 
ATOM      4  H2  UNL     1      -3.942  -1.073   0.971  1.00  0.00     0.192 HD
HETATM    5  C2  UNL     1      -3.031   0.777   0.568  1.00  0.00     0.353 A 
HETATM    6  O1  UNL     1      -3.922   1.659   0.728  1.00  0.00    -0.245 OA
HETATM    7  N3  UNL     1      -1.758   1.034   0.207  1.00  0.00    -0.137 N 
ATOM      8  H3  UNL     1      -1.381   1.964   0.025  1.00  0.00     0.189 HD
HETATM    9  C3  UNL     1      -1.059  -0.104   0.121  1.00  0.00     0.717 A 
HETATM   10  N4  UNL     1       0.176  -0.303  -0.190  1.00  0.00    -0.116 N 
ATOM     11  H4  UNL     1       0.548  -1.252  -0.206  1.00  0.00     0.206 HD
ENDROOT
BRANCH  10  12
HETATM   12  N5  UNL     1       1.006   0.773  -0.505  1.00  0.00    -0.116 N 
ATOM     13  H5  UNL     1       0.585   1.616  -0.895  1.00  0.00     0.206 HD
BRANCH  12  14
HETATM   14  C4  UNL     1       2.282   0.748  -0.324  1.00  0.00     0.722 A 
HETATM   15  N6  UNL     1       2.950  -0.298   0.179  1.00  0.00    -0.115 N 
HETATM   16  N7  UNL     1       4.247   0.044   0.217  1.00  0.00     0.006 NA
ATOM     17  H6  UNL     1       2.549  -1.187   0.477  1.00  0.00     0.202 HD
HETATM   18  N8  UNL     1       4.405   1.271  -0.247  1.00  0.00     0.006 NA
HETATM   19  N9  UNL     1       3.181   1.711  -0.585  1.00  0.00    -0.115 N 
ATOM     20  H9  UNL     1       2.969   2.629  -0.977  1.00  0.00     0.202 HD
ENDBRANCH  12  14
ENDBRANCH  10  12
TORSDOF 2
