REMARK  3 active torsions:
REMARK  status: ('A' for Active; 'I' for Inactive)
REMARK    1  A    between atoms: N1_1  and  C1_4 
REMARK    2  A    between atoms: C3_9  and  S1_10 
REMARK    3  A    between atoms: S1_10  and  N4_11 
ROOT
HETATM    1  C1  UNL     1      -2.452  -0.395   0.227  1.00  0.00     0.677 A 
HETATM    2  N2  UNL     1      -1.724   0.612   0.740  1.00  0.00    -0.178 N 
ATOM      3  H2  UNL     1      -2.171   1.268   1.380  1.00  0.00     0.185 HD
HETATM    4  C2  UNL     1      -0.416   0.782   0.433  1.00  0.00     0.156 A 
HETATM    5  N3  UNL     1       0.355   1.848   0.976  1.00  0.00    -0.080 NA
HETATM    6  C3  UNL     1       0.222  -0.087  -0.431  1.00  0.00     0.136 A 
HETATM    7  C4  UNL     1      -0.542  -1.115  -0.949  1.00  0.00     0.135 A 
HETATM    8  N5  UNL     1      -1.853  -1.254  -0.617  1.00  0.00    -0.201 N 
ATOM      9  H5  UNL     1      -2.392  -2.023  -1.015  1.00  0.00     0.183 HD
ENDROOT
BRANCH   6  10
HETATM   10  S1  UNL     1       1.912   0.090  -0.860  1.00  0.00     0.261 S 
HETATM   11  O1  UNL     1       2.302  -1.038  -1.742  1.00  0.00    -0.201 OA
HETATM   12  O2  UNL     1       2.188   1.432  -1.460  1.00  0.00    -0.201 OA
BRANCH  10  13
HETATM   13  N4  UNL     1       2.873  -0.015   0.595  1.00  0.00    -0.324 N 
ATOM     14  H42 UNL     1       2.498  -0.156   1.533  1.00  0.00     0.169 HD
ATOM     15  H41 UNL     1       3.857   0.088   0.345  1.00  0.00     0.169 HD
ENDBRANCH  10  13
ENDBRANCH   6  10
BRANCH   1  16
HETATM   16  N1  UNL     1      -3.705  -0.571   0.512  1.00  0.00    -0.234 N 
ATOM     17  H12 UNL     1      -4.159   0.080   1.152  1.00  0.00     0.174 HD
ATOM     18  H11 UNL     1      -4.257  -1.335   0.123  1.00  0.00     0.174 HD
ENDBRANCH   1  16
TORSDOF 3
