REMARK  1 active torsions:
REMARK  status: ('A' for Active; 'I' for Inactive)
REMARK    1  A    between atoms: C3_11  and  N5_12 
ROOT
HETATM    1  N1  UNL     1      -3.019   2.364  -0.624  1.00  0.00    -0.235 N 
ATOM      2  H11 UNL     1      -2.551   3.236  -0.376  1.00  0.00     0.174 HD
ATOM      3  H12 UNL     1      -3.909   2.352  -1.121  1.00  0.00     0.174 HD
HETATM    4  C1  UNL     1      -2.414   1.278  -0.269  1.00  0.00     0.677 A 
HETATM    5  N2  UNL     1      -3.070   0.055  -0.617  1.00  0.00    -0.164 N 
ATOM      6  H2  UNL     1      -3.960   0.079  -1.114  1.00  0.00     0.187 HD
HETATM    7  C2  UNL     1      -2.538  -1.081  -0.303  1.00  0.00     0.205 A 
HETATM    8  N3  UNL     1      -3.152  -2.315  -0.628  1.00  0.00    -0.063 NA
HETATM    9  N4  UNL     1      -1.313  -1.085   0.380  1.00  0.00    -0.318 N 
ATOM     10  H4  UNL     1      -0.887  -1.995   0.556  1.00  0.00     0.166 HD
HETATM   11  C3  UNL     1      -0.595   0.076   0.859  1.00  0.00     0.444 A 
HETATM   12  N6  UNL     1      -1.177   1.295   0.422  1.00  0.00    -0.177 N 
ATOM     13  H6  UNL     1      -0.706   2.181   0.605  1.00  0.00     0.181 HD
ENDROOT
BRANCH  11  14
HETATM   14  N5  UNL     1       0.791  -0.089   0.533  1.00  0.00     0.135 N 
HETATM   15  C4  UNL     1       1.073  -0.218  -0.856  1.00  0.00     0.303 C 
HETATM   16  C5  UNL     1       2.407  -0.969  -0.950  1.00  0.00     0.198 C 
HETATM   17  O1  UNL     1       3.263  -0.619   0.061  1.00  0.00    -0.388 OA
HETATM   18  C6  UNL     1       3.058   0.642   0.584  1.00  0.00     0.198 C 
HETATM   19  C7  UNL     1       1.673   0.836   1.152  1.00  0.00     0.303 C 
ENDBRANCH  11  14
TORSDOF 1
