REMARK  5 active torsions:
REMARK  status: ('A' for Active; 'I' for Inactive)
REMARK    1  A    between atoms: N1_2  and  C2_5 
REMARK    2  A    between atoms: C4_9  and  C5_10 
REMARK       I    between atoms: C5_10  and  N3_12 
REMARK    3  A    between atoms: N3_12  and  C6_14 
REMARK    4  A    between atoms: C6_14  and  C7_15 
REMARK    5  A    between atoms: C6_14  and  C10_20 
REMARK       I    between atoms: C7_15  and  N4_17 
ROOT
HETATM    1  C2  UNL     1      -3.283   0.591   0.542  1.00  0.00     0.301 C 
HETATM    2  C3  UNL     1      -2.358   1.322  -0.356  1.00  0.00     0.254 C 
HETATM    3  O1  UNL     1      -2.082   2.524  -0.535  1.00  0.00    -0.271 OA
HETATM    4  N2  UNL     1      -1.953   0.070  -0.888  1.00  0.00    -0.319 N 
HETATM    5  C4  UNL     1      -1.072  -0.868  -1.529  1.00  0.00     0.243 C 
HETATM    6  S1  UNL     1      -1.570  -2.409  -0.652  1.00  0.00    -0.123 SA
HETATM    7  C12 UNL     1      -3.251  -1.854  -0.213  1.00  0.00     0.026 C 
HETATM    8  C13 UNL     1      -4.182  -2.600  -1.183  1.00  0.00     0.029 C 
HETATM    9  C14 UNL     1      -3.609  -2.275   1.166  1.00  0.00     0.029 C 
HETATM   10  C15 UNL     1      -3.218  -0.442  -0.524  1.00  0.00     0.146 C 
ENDROOT
BRANCH   5  11
HETATM   11  C5  UNL     1       0.355  -0.612  -1.372  1.00  0.00     0.251 C 
HETATM   12  O2  UNL     1       1.140  -1.430  -1.970  1.00  0.00    -0.270 OA
HETATM   13  N3  UNL     1       0.966   0.416  -0.651  1.00  0.00    -0.343 N 
ATOM     14  H3  UNL     1       0.379   1.091  -0.161  1.00  0.00     0.163 HD
BRANCH  13  15
HETATM   15  C6  UNL     1       2.431   0.558  -0.574  1.00  0.00     0.206 C 
BRANCH  15  16
HETATM   16  C7  UNL     1       2.885   0.511   0.823  1.00  0.00     0.244 C 
HETATM   17  O3  UNL     1       2.057   0.972   1.684  1.00  0.00    -0.271 OA
HETATM   18  N4  UNL     1       4.121   0.013   1.289  1.00  0.00    -0.359 N 
HETATM   19  C8  UNL     1       4.435   0.073   2.725  1.00  0.00     0.152 C 
HETATM   20  C9  UNL     1       5.141  -0.599   0.469  1.00  0.00     0.152 C 
ENDBRANCH  15  16
BRANCH  15  21
HETATM   21  C10 UNL     1       2.713   1.908  -1.219  1.00  0.00     0.101 C 
HETATM   22  C11 UNL     1       2.252   1.963  -2.657  1.00  0.00     0.043 C 
HETATM   23 BR1  UNL     1       4.551   2.427  -1.152  1.00  0.00    -0.070 Br
HETATM   24 BR2  UNL     1       1.645   3.254  -0.281  1.00  0.00    -0.070 Br
ENDBRANCH  15  21
ENDBRANCH  13  15
ENDBRANCH   5  11
BRANCH   1  25
HETATM   25  N1  UNL     1      -2.638   0.357   1.795  1.00  0.00    -0.064 N 
HETATM   26  C1  UNL     1      -2.343   1.617   2.422  1.00  0.00     0.268 C 
ATOM     27  H12 UNL     1      -1.809  -0.230   1.699  1.00  0.00     0.277 HD
ATOM     28  H11 UNL     1      -3.182  -0.258   2.401  1.00  0.00     0.277 HD
ENDBRANCH   1  25
TORSDOF 5
