REMARK  3 active torsions:
REMARK  status: ('A' for Active; 'I' for Inactive)
REMARK    1  A    between atoms: C5_6  and  N1_7 
REMARK       I    between atoms: N1_7  and  C6_9 
REMARK    2  A    between atoms: C6_9  and  C7_11 
REMARK    3  A    between atoms: C13_22  and  C14_23 
ROOT
HETATM    1  C1  UNL     1      -4.774  -0.192  -1.566  1.00  0.00     0.029 C 
HETATM    2  C2  UNL     1      -3.654  -0.537  -0.645  1.00  0.00     0.033 C 
HETATM    3  C3  UNL     1      -3.865  -1.905  -0.047  1.00  0.00     0.029 C 
HETATM    4  S1  UNL     1      -2.032  -0.497  -1.448  1.00  0.00    -0.129 SA
HETATM    5  C4  UNL     1      -1.131   0.352  -0.124  1.00  0.00     0.183 C 
HETATM    6  C5  UNL     1      -0.178  -0.535   0.665  1.00  0.00     0.210 C 
HETATM    7  C12 UNL     1      -1.023  -0.096   1.841  1.00  0.00     0.247 C 
HETATM    8  O3  UNL     1      -0.783  -0.049   3.058  1.00  0.00    -0.271 OA
HETATM    9  N2  UNL     1      -2.123   0.207   0.956  1.00  0.00    -0.318 N 
HETATM   10  C13 UNL     1      -3.453   0.436   0.475  1.00  0.00     0.207 C 
ENDROOT
BRANCH   6  11
HETATM   11  N1  UNL     1       1.147  -0.011   0.738  1.00  0.00    -0.344 N 
HETATM   12  C6  UNL     1       2.265  -0.828   0.512  1.00  0.00     0.238 C 
HETATM   13  O1  UNL     1       2.094  -2.041   0.240  1.00  0.00    -0.272 OA
ATOM     14  H1  UNL     1       1.284   0.975   0.958  1.00  0.00     0.163 HD
BRANCH  12  15
HETATM   15  C7  UNL     1       3.635  -0.301   0.584  1.00  0.00     0.106 C 
HETATM   16 BR1  UNL     1       4.057   0.425   2.318  1.00  0.00    -0.075 Br
HETATM   17  C8  UNL     1       4.675  -1.272   0.130  1.00  0.00     0.110 C 
HETATM   18  C9  UNL     1       5.804  -0.356  -0.257  1.00  0.00     0.143 C 
HETATM   19  O2  UNL     1       6.949  -0.754  -0.408  1.00  0.00    -0.297 OA
HETATM   20  C10 UNL     1       5.295   1.034  -0.409  1.00  0.00     0.129 C 
HETATM   21 BR2  UNL     1       5.947   1.842  -2.039  1.00  0.00    -0.083 Br
HETATM   22  C11 UNL     1       3.804   0.836  -0.425  1.00  0.00     0.055 C 
ENDBRANCH  12  15
ENDBRANCH   6  11
BRANCH  10  23
HETATM   23  C14 UNL     1      -3.593   1.855   0.095  1.00  0.00     0.198 C 
HETATM   24  O4  UNL     1      -4.615   2.316  -0.488  1.00  0.00    -0.646 OA
HETATM   25  O5  UNL     1      -2.574   2.733   0.382  1.00  0.00    -0.646 OA
ENDBRANCH  10  23
TORSDOF 3
