REMARK  7 active torsions:
REMARK  status: ('A' for Active; 'I' for Inactive)
REMARK    1  A    between atoms: N1_1  and  C1_5 
REMARK    2  A    between atoms: C1_5  and  C2_6 
REMARK    3  A    between atoms: C4_8  and  C5_9 
REMARK       I    between atoms: C5_9  and  N2_11 
REMARK    4  A    between atoms: N2_11  and  C6_13 
REMARK    5  A    between atoms: N4_20  and  C11_21 
REMARK    6  A    between atoms: C11_21  and  C12_22 
REMARK    7  A    between atoms: C13_24  and  C14_25 
ROOT
HETATM    1  C2  UNL     1       1.033  -1.569   0.284  1.00  0.00     0.042 C 
HETATM    2  C3  UNL     1       1.055  -0.860  -1.023  1.00  0.00     0.053 C 
HETATM    3  C4  UNL     1       0.608   0.535  -0.670  1.00  0.00     0.315 C 
HETATM    4  N4  UNL     1      -0.415   0.338   0.371  1.00  0.00     0.105 N 
HETATM    5  C18 UNL     1       0.042  -0.824   1.111  1.00  0.00     0.280 C 
ENDROOT
BRANCH   3   6
HETATM    6  C5  UNL     1       1.676   1.426  -0.213  1.00  0.00     0.257 C 
HETATM    7  O1  UNL     1       1.621   1.891   0.954  1.00  0.00    -0.271 OA
HETATM    8  N2  UNL     1       2.764   1.777  -1.046  1.00  0.00    -0.311 N 
ATOM      9  H2  UNL     1       2.577   2.336  -1.879  1.00  0.00     0.170 HD
BRANCH   8  10
HETATM   10  C6  UNL     1       3.968   1.428  -0.806  1.00  0.00     0.107 A 
HETATM   11  C7  UNL     1       4.245   0.675   0.306  1.00  0.00     0.048 A 
HETATM   12  C8  UNL     1       5.566   0.292   0.572  1.00  0.00     0.005 A 
HETATM   13  C9  UNL     1       6.533   0.711  -0.331  1.00  0.00     0.017 A 
HETATM   14  C10 UNL     1       6.188   1.472  -1.439  1.00  0.00     0.089 A 
HETATM   15  N3  UNL     1       4.926   1.830  -1.681  1.00  0.00    -0.352 N 
ATOM     16  H3  UNL     1       4.687   2.390  -2.500  1.00  0.00     0.166 HD
ENDBRANCH   8  10
ENDBRANCH   3   6
BRANCH   4  17
HETATM   17  C11 UNL     1      -1.631   0.089  -0.348  1.00  0.00     0.306 C 
BRANCH  17  18
HETATM   18  C12 UNL     1      -2.860  -0.082   0.509  1.00  0.00     0.168 C 
HETATM   19  O2  UNL     1      -3.903  -0.331  -0.381  1.00  0.00    -0.373 OA
HETATM   20  C13 UNL     1      -4.757   0.756  -0.558  1.00  0.00     0.154 C 
HETATM   21  C15 UNL     1      -5.426   0.913   0.787  1.00  0.00     0.003 C 
HETATM   22  C16 UNL     1      -4.563   1.083   1.778  1.00  0.00    -0.010 C 
HETATM   23  C17 UNL     1      -3.125   1.088   1.395  1.00  0.00     0.111 C 
HETATM   24 BR2  UNL     1      -2.082   1.118   2.999  1.00  0.00    -0.084 Br
BRANCH  20  25
HETATM   25  C14 UNL     1      -5.771   0.382  -1.585  1.00  0.00     0.121 C 
HETATM   26 BR1  UNL     1      -7.029   1.794  -1.940  1.00  0.00    -0.093 Br
ENDBRANCH  20  25
ENDBRANCH  17  18
ENDBRANCH   4  17
BRANCH   1  27
HETATM   27  C1  UNL     1       0.689  -3.041   0.150  1.00  0.00     0.236 C 
BRANCH  27  28
HETATM   28  N1  UNL     1       0.694  -3.637   1.454  1.00  0.00    -0.079 N 
ATOM     29  H13 UNL     1       1.573  -3.486   1.948  1.00  0.00     0.274 HD
ATOM     30  H12 UNL     1       0.079  -3.151   2.107  1.00  0.00     0.274 HD
ATOM     31  H11 UNL     1       0.463  -4.626   1.364  1.00  0.00     0.274 HD
ENDBRANCH  27  28
ENDBRANCH   1  27
TORSDOF 7
