REMARK  4 active torsions:
REMARK  status: ('A' for Active; 'I' for Inactive)
REMARK    1  A    between atoms: C6_7  and  C7_8 
REMARK       I    between atoms: C7_8  and  N1_10 
REMARK    2  A    between atoms: N1_10  and  C8_12 
REMARK    3  A    between atoms: C10_16  and  C11_17 
REMARK    4  A    between atoms: C14_22  and  C15_23 
ROOT
HETATM    1  C7  UNL     1      -0.244   1.210  -0.572  1.00  0.00     0.223 C 
HETATM    2  O1  UNL     1       0.079   2.346  -0.146  1.00  0.00    -0.273 OA
HETATM    3  N1  UNL     1       0.775   0.237  -0.744  1.00  0.00    -0.345 N 
ATOM      4  H1  UNL     1       0.527  -0.690  -1.089  1.00  0.00     0.163 HD
ENDROOT
BRANCH   1   5
HETATM    5  C6  UNL     1      -1.664   0.957  -0.868  1.00  0.00     0.092 C 
HETATM    6  C5  UNL     1      -2.487   2.185  -0.581  1.00  0.00     0.031 C 
HETATM    7  C4  UNL     1      -3.182   1.959   0.732  1.00  0.00     0.067 C 
HETATM    8  C2  UNL     1      -3.447   0.456   0.682  1.00  0.00    -0.022 C 
HETATM    9 BR1  UNL     1      -2.082   2.320   2.254  1.00  0.00    -0.090 Br
HETATM   10  C1  UNL     1      -3.601  -0.065   2.096  1.00  0.00     0.017 C 
HETATM   11  C3  UNL     1      -4.724   0.242  -0.067  1.00  0.00     0.017 C 
HETATM   12  C14 UNL     1      -2.255  -0.128  -0.012  1.00  0.00     0.097 C 
BRANCH  12  13
HETATM   13  C15 UNL     1      -2.653  -1.247  -0.904  1.00  0.00     0.236 C 
HETATM   14  N3  UNL     1      -3.294  -2.396  -0.370  1.00  0.00    -0.062 NA
HETATM   15  O3  UNL     1      -2.440  -1.217  -2.148  1.00  0.00    -0.276 OA
ENDBRANCH  12  13
ENDBRANCH   1   5
BRANCH   3  16
HETATM   16  C8  UNL     1       2.157   0.532  -0.440  1.00  0.00     0.209 C 
HETATM   17  C9  UNL     1       3.132   0.112  -1.491  1.00  0.00     0.247 C 
HETATM   18  O2  UNL     1       3.159   0.326  -2.730  1.00  0.00    -0.271 OA
HETATM   19  N2  UNL     1       3.961  -0.590  -0.544  1.00  0.00    -0.328 N 
HETATM   20  C10 UNL     1       5.058  -1.249   0.102  1.00  0.00     0.108 C 
HETATM   21  C13 UNL     1       2.784  -0.580   0.338  1.00  0.00     0.181 C 
HETATM   22  C12 UNL     1       5.327  -0.525   1.403  1.00  0.00     0.102 C 
HETATM   23  S1  UNL     1       3.620  -0.044   1.883  1.00  0.00    -0.139 SA
BRANCH  20  24
HETATM   24  C11 UNL     1       6.277  -1.107  -0.759  1.00  0.00     0.111 C 
HETATM   25 BR2  UNL     1       6.711   0.780  -1.014  1.00  0.00    -0.094 Br
ENDBRANCH  20  24
ENDBRANCH   3  16
TORSDOF 4
