REMARK  5 active torsions:
REMARK  status: ('A' for Active; 'I' for Inactive)
REMARK    1  A    between atoms: C3_3  and  N1_4 
REMARK       I    between atoms: N1_4  and  C4_6 
REMARK    2  A    between atoms: C4_6  and  C5_8 
REMARK    3  A    between atoms: C9_14  and  N2_15 
REMARK    4  A    between atoms: N2_15  and  S1_17 
REMARK    5  A    between atoms: S1_17  and  C10_20 
ROOT
HETATM    1  C1  UNL     1       3.509  -0.901  -3.505  1.00  0.00     0.040 C 
HETATM    2  C2  UNL     1       2.589  -0.971  -2.564  1.00  0.00     0.023 C 
HETATM    3  C3  UNL     1       2.571  -0.996  -1.101  1.00  0.00     0.156 C 
HETATM    4  C7  UNL     1       1.238  -1.669  -1.291  1.00  0.00     0.115 C 
HETATM    5  C8  UNL     1       0.062  -1.000  -0.621  1.00  0.00     0.055 C 
HETATM    6  C9  UNL     1      -0.947  -0.774  -1.756  1.00  0.00     0.113 C 
HETATM    7  C16 UNL     1      -0.216  -0.968  -3.037  1.00  0.00     0.149 C 
HETATM    8  N3  UNL     1       1.172  -1.056  -2.618  1.00  0.00    -0.374 N 
ENDROOT
BRANCH   6   9
HETATM    9  N2  UNL     1      -2.065  -1.577  -1.518  1.00  0.00    -0.309 N 
ATOM     10  H2  UNL     1      -2.004  -2.595  -1.541  1.00  0.00     0.172 HD
BRANCH   9  11
HETATM   11  S1  UNL     1      -3.535  -0.783  -1.187  1.00  0.00     0.259 S 
HETATM   12  O2  UNL     1      -4.656  -1.742  -0.903  1.00  0.00    -0.201 OA
HETATM   13  O3  UNL     1      -3.973   0.119  -2.299  1.00  0.00    -0.201 OA
BRANCH  11  14
HETATM   14  C10 UNL     1      -3.320   0.156   0.276  1.00  0.00     0.079 A 
HETATM   15  C11 UNL     1      -3.576  -0.430   1.494  1.00  0.00     0.025 A 
HETATM   16  C12 UNL     1      -3.430   0.243   2.686  1.00  0.00     0.002 A 
HETATM   17  C13 UNL     1      -3.011   1.557   2.665  1.00  0.00     0.000 A 
HETATM   18  C14 UNL     1      -2.752   2.151   1.445  1.00  0.00     0.002 A 
HETATM   19  C15 UNL     1      -2.901   1.467   0.258  1.00  0.00     0.025 A 
ENDBRANCH  11  14
ENDBRANCH   9  11
ENDBRANCH   6   9
BRANCH   3  20
HETATM   20  N1  UNL     1       2.558   0.272  -0.434  1.00  0.00    -0.344 N 
HETATM   21  C4  UNL     1       3.376   0.553   0.698  1.00  0.00     0.260 C 
HETATM   22  O1  UNL     1       4.149  -0.323   1.152  1.00  0.00    -0.267 OA
ATOM     23  H1  UNL     1       1.938   1.003  -0.784  1.00  0.00     0.163 HD
BRANCH  21  24
HETATM   24  C5  UNL     1       3.332   1.846   1.343  1.00  0.00     0.085 C 
HETATM   25 BR1  UNL     1       2.179   3.220   0.703  1.00  0.00    -0.045 Br
HETATM   26  C6  UNL     1       4.090   2.101   2.389  1.00  0.00     0.080 C 
HETATM   27 BR2  UNL     1       4.041   3.809   3.251  1.00  0.00    -0.062 Br
ENDBRANCH  21  24
ENDBRANCH   3  20
TORSDOF 5
