REMARK  5 active torsions:
REMARK  status: ('A' for Active; 'I' for Inactive)
REMARK    1  A    between atoms: C1_2  and  C2_3 
REMARK    2  A    between atoms: C3_4  and  N1_5 
REMARK    3  A    between atoms: C4_7  and  C5_8 
REMARK    4  A    between atoms: C6_9  and  C7_10 
REMARK    5  A    between atoms: C15_23  and  O4_24 
ROOT
HETATM    1  N1  UNL     1       0.564   0.628   0.183  1.00  0.00    -0.364 N 
ATOM      2  H1  UNL     1       0.049   1.488  -0.007  1.00  0.00     0.165 HD
HETATM    3  C4  UNL     1      -0.083  -0.496   0.285  1.00  0.00     0.103 C 
ENDROOT
BRANCH   1   4
HETATM    4  C3  UNL     1       1.976   0.678   0.332  1.00  0.00     0.048 A 
HETATM    5  C2  UNL     1       2.778  -0.044  -0.525  1.00  0.00     0.048 A 
HETATM    6  C16 UNL     1       4.142   0.005  -0.381  1.00  0.00     0.060 A 
HETATM    7  C15 UNL     1       4.738   0.753   0.594  1.00  0.00     0.101 A 
HETATM    8 BR2  UNL     1       5.186  -1.035  -1.621  1.00  0.00    -0.047 Br
HETATM    9  C14 UNL     1       3.933   1.487   1.466  1.00  0.00     0.047 A 
HETATM   10  C13 UNL     1       2.565   1.443   1.327  1.00  0.00     0.052 A 
HETATM   11 BR1  UNL     1       4.782   2.529   2.824  1.00  0.00    -0.048 Br
BRANCH   5  12
HETATM   12  C1  UNL     1       2.158  -0.854  -1.578  1.00  0.00     0.273 C 
HETATM   13  O1  UNL     1       1.942  -0.331  -2.698  1.00  0.00    -0.301 OA
ENDBRANCH   5  12
BRANCH   7  14
HETATM   14  O4  UNL     1       6.119   0.770   0.700  1.00  0.00    -0.358 OA
ATOM     15  H4  UNL     1       6.667   0.270   0.106  1.00  0.00     0.217 HD
ENDBRANCH   7  14
ENDBRANCH   1   4
BRANCH   3  16
HETATM   16  C5  UNL     1      -1.517  -0.480   0.123  1.00  0.00     0.031 A 
HETATM   17  C6  UNL     1      -2.287  -1.604   0.211  1.00  0.00     0.056 A 
HETATM   18  C8  UNL     1      -3.657  -1.421   0.031  1.00  0.00     0.037 A 
HETATM   19  C9  UNL     1      -4.176  -0.209  -0.214  1.00  0.00     0.098 A 
HETATM   20  N2  UNL     1      -3.432   0.935  -0.308  1.00  0.00    -0.326 N 
HETATM   21  C10 UNL     1      -3.876   2.144  -0.545  1.00  0.00     0.104 A 
HETATM   22  C12 UNL     1      -2.129   0.764  -0.137  1.00  0.00     0.092 A 
HETATM   23  C11 UNL     1      -2.962   3.164  -0.601  1.00  0.00     0.069 A 
HETATM   24  S1  UNL     1      -1.495   2.338  -0.310  1.00  0.00    -0.082 SA
BRANCH  17  25
HETATM   25  C7  UNL     1      -1.808  -2.931   0.470  1.00  0.00     0.210 C 
HETATM   26  O2  UNL     1      -0.611  -3.210   0.646  1.00  0.00    -0.644 OA
HETATM   27  O3  UNL     1      -2.728  -4.016   0.535  1.00  0.00    -0.644 OA
ENDBRANCH  17  25
ENDBRANCH   3  16
TORSDOF 5
