REMARK  5 active torsions:
REMARK  status: ('A' for Active; 'I' for Inactive)
REMARK       I    between atoms: C2_2  and  N1_4 
REMARK    1  A    between atoms: N1_4  and  C3_6 
REMARK    2  A    between atoms: C6_9  and  O2_10 
REMARK    3  A    between atoms: C6_9  and  C13_21 
REMARK    4  A    between atoms: O2_10  and  C7_11 
REMARK       I    between atoms: C7_11  and  N2_13 
REMARK       I    between atoms: C13_21  and  N3_23 
REMARK    5  A    between atoms: N3_23  and  C14_25 
ROOT
HETATM    1  C3  UNL     1       1.682   3.508   0.126  1.00  0.00     0.087 C 
HETATM    2  C4  UNL     1       2.351   3.110  -1.139  1.00  0.00     0.029 C 
HETATM    3  C5  UNL     1       1.671   1.804  -1.490  1.00  0.00     0.051 C 
HETATM    4  C6  UNL     1       1.073   1.263  -0.248  1.00  0.00     0.154 C 
HETATM    5  C24 UNL     1       1.447   2.205   0.837  1.00  0.00     0.074 C 
ENDROOT
BRANCH   4   6
HETATM    6  O2  UNL     1       1.438  -0.078   0.016  1.00  0.00    -0.282 OA
BRANCH   6   7
HETATM    7  C7  UNL     1       2.740  -0.504   0.183  1.00  0.00     0.367 C 
HETATM    8  O3  UNL     1       3.647   0.355   0.088  1.00  0.00    -0.238 OA
HETATM    9  N2  UNL     1       2.989  -1.871   0.448  1.00  0.00    -0.279 N 
HETATM   10  C8  UNL     1       1.940  -2.867   0.555  1.00  0.00     0.133 C 
HETATM   11  C12 UNL     1       4.347  -2.405   0.639  1.00  0.00     0.260 C 
HETATM   12  C9  UNL     1       2.200  -3.893  -0.529  1.00  0.00     0.020 C 
HETATM   13  C10 UNL     1       3.608  -4.385  -0.563  1.00  0.00     0.008 C 
HETATM   14  C11 UNL     1       4.620  -3.248  -0.591  1.00  0.00     0.085 C 
HETATM   15  F1  UNL     1       4.321  -3.309   1.711  1.00  0.00    -0.201 F 
HETATM   16 CL1  UNL     1       5.531  -1.142   0.912  1.00  0.00    -0.059 Cl
ENDBRANCH   6   7
ENDBRANCH   4   6
BRANCH   4  17
HETATM   17  C13 UNL     1      -0.425   1.294  -0.352  1.00  0.00     0.253 C 
HETATM   18  O4  UNL     1      -1.043   2.360  -0.598  1.00  0.00    -0.270 OA
HETATM   19  N3  UNL     1      -1.179   0.112  -0.171  1.00  0.00    -0.353 N 
ATOM     20  H3  UNL     1      -0.703  -0.767   0.031  1.00  0.00     0.163 HD
BRANCH  19  21
HETATM   21  C14 UNL     1      -2.607   0.141  -0.270  1.00  0.00     0.092 C 
HETATM   22  C15 UNL     1      -3.059  -0.681  -1.473  1.00  0.00     0.009 C 
HETATM   23  C16 UNL     1      -2.884  -2.150  -1.201  1.00  0.00     0.011 C 
HETATM   24  C20 UNL     1      -4.532  -0.332  -1.680  1.00  0.00     0.011 C 
HETATM   25  C17 UNL     1      -3.733  -2.548  -0.031  1.00  0.00    -0.013 C 
HETATM   26  C18 UNL     1      -5.184  -2.191  -0.240  1.00  0.00     0.009 C 
HETATM   27  C23 UNL     1      -3.227  -1.794   1.194  1.00  0.00     0.011 C 
HETATM   28  C19 UNL     1      -5.298  -0.698  -0.444  1.00  0.00    -0.013 C 
HETATM   29  C21 UNL     1      -4.801   0.021   0.783  1.00  0.00     0.011 C 
HETATM   30  C22 UNL     1      -3.320  -0.307   0.965  1.00  0.00     0.009 C 
ENDBRANCH  19  21
ENDBRANCH   4  17
BRANCH   1  31
HETATM   31  N1  UNL     1       2.454   4.439   0.923  1.00  0.00    -0.357 N 
HETATM   32  C2  UNL     1       1.977   5.704   1.289  1.00  0.00     0.213 C 
HETATM   33  C1  UNL     1       2.776   6.647   2.105  1.00  0.00     0.117 C 
HETATM   34  O1  UNL     1       0.835   6.070   0.924  1.00  0.00    -0.274 OA
ATOM     35  H1  UNL     1       3.386   4.161   1.231  1.00  0.00     0.162 HD
ENDBRANCH   1  31
TORSDOF 5
