REMARK  6 active torsions:
REMARK  status: ('A' for Active; 'I' for Inactive)
REMARK    1  A    between atoms: C2_2  and  O2_4 
REMARK    2  A    between atoms: O2_4  and  C3_5 
REMARK    3  A    between atoms: C5_7  and  C6_8 
REMARK    4  A    between atoms: C15_22  and  C16_23 
REMARK    5  A    between atoms: C16_23  and  C17_25 
REMARK    6  A    between atoms: C17_25  and  C18_28 
ROOT
HETATM    1  C3  UNL     1       0.444  -0.253   0.467  1.00  0.00     0.200 C 
HETATM    2  C4  UNL     1      -1.024  -0.118   0.062  1.00  0.00     0.043 C 
HETATM    3  C5  UNL     1      -1.946   0.368   0.834  1.00  0.00     0.045 C 
HETATM    4  C14 UNL     1      -1.001  -0.663  -1.272  1.00  0.00     0.251 C 
HETATM    5  O3  UNL     1      -2.029  -1.087  -1.869  1.00  0.00    -0.268 OA
HETATM    6  N2  UNL     1       0.347  -0.635  -1.769  1.00  0.00    -0.343 N 
ATOM      7  H2  UNL     1       0.744  -1.140  -2.561  1.00  0.00     0.163 HD
HETATM    8  C15 UNL     1       1.017   0.311  -0.843  1.00  0.00     0.193 C 
ENDROOT
BRANCH   1   9
HETATM    9  O2  UNL     1       0.640  -1.637   0.578  1.00  0.00    -0.309 OA
BRANCH   9  10
HETATM   10  C2  UNL     1       1.021  -2.310   1.720  1.00  0.00     0.255 C 
HETATM   11  C1  UNL     1       1.197  -3.807   1.683  1.00  0.00     0.126 C 
HETATM   12  O1  UNL     1       1.214  -1.661   2.774  1.00  0.00    -0.266 OA
ENDBRANCH   9  10
ENDBRANCH   1   9
BRANCH   3  13
HETATM   13  C6  UNL     1      -3.350   0.534   0.532  1.00  0.00     0.034 A 
HETATM   14  C7  UNL     1      -3.898   1.009  -0.621  1.00  0.00     0.043 A 
HETATM   15  C8  UNL     1      -5.275   0.974  -0.453  1.00  0.00    -0.007 A 
HETATM   16  C9  UNL     1      -6.337   1.333  -1.289  1.00  0.00     0.014 A 
HETATM   17  C13 UNL     1      -5.553   0.476   0.803  1.00  0.00     0.043 A 
HETATM   18  C10 UNL     1      -7.647   1.199  -0.883  1.00  0.00     0.001 A 
HETATM   19  C11 UNL     1      -7.863   0.698   0.380  1.00  0.00     0.002 A 
HETATM   20  C12 UNL     1      -6.860   0.329   1.243  1.00  0.00     0.030 A 
HETATM   21  N1  UNL     1      -4.358   0.227   1.356  1.00  0.00    -0.356 N 
ATOM     22  H1  UNL     1      -4.232  -0.152   2.295  1.00  0.00     0.166 HD
ENDBRANCH   3  13
BRANCH   8  23
HETATM   23  C16 UNL     1       2.458   0.238  -0.976  1.00  0.00     0.207 C 
HETATM   24  O4  UNL     1       2.993  -0.646  -1.677  1.00  0.00    -0.291 OA
BRANCH  23  25
HETATM   25  C17 UNL     1       3.373   1.182  -0.318  1.00  0.00     0.249 C 
HETATM   26  F1  UNL     1       3.166   2.491  -0.811  1.00  0.00    -0.216 F 
HETATM   27 BR1  UNL     1       3.141   1.334   1.592  1.00  0.00    -0.035 Br
BRANCH  25  28
HETATM   28  C18 UNL     1       4.818   0.890  -0.612  1.00  0.00    -0.000 A 
HETATM   29  C19 UNL     1       5.699   1.890  -1.037  1.00  0.00     0.012 A 
HETATM   30  C20 UNL     1       7.028   1.632  -1.294  1.00  0.00     0.001 A 
HETATM   31  C21 UNL     1       7.544   0.372  -1.141  1.00  0.00     0.000 A 
HETATM   32  C22 UNL     1       6.687  -0.620  -0.723  1.00  0.00     0.001 A 
HETATM   33  C23 UNL     1       5.334  -0.365  -0.460  1.00  0.00     0.012 A 
ENDBRANCH  25  28
ENDBRANCH  23  25
ENDBRANCH   8  23
TORSDOF 6
