REMARK  7 active torsions:
REMARK  status: ('A' for Active; 'I' for Inactive)
REMARK    1  A    between atoms: C2_2  and  O2_4 
REMARK    2  A    between atoms: O2_4  and  C3_5 
REMARK    3  A    between atoms: C8_10  and  C9_11 
REMARK    4  A    between atoms: C9_11  and  N1_12 
REMARK    5  A    between atoms: N1_12  and  C10_14 
REMARK    6  A    between atoms: C10_14  and  N2_16 
REMARK       I    between atoms: N2_16  and  C11_18 
REMARK    7  A    between atoms: C11_18  and  C12_20 
ROOT
HETATM    1  C10 UNL     1      -0.555   0.430   0.361  1.00  0.00     0.174 C 
HETATM    2  S1  UNL     1      -0.118   1.916  -0.155  1.00  0.00    -0.041 SA
ENDROOT
BRANCH   1   3
HETATM    3  N1  UNL     1       0.416  -0.449   0.906  1.00  0.00    -0.363 N 
ATOM      4  H1  UNL     1       0.115  -1.366   1.236  1.00  0.00     0.162 HD
BRANCH   3   5
HETATM    5  C9  UNL     1       1.806  -0.101   1.012  1.00  0.00     0.163 C 
BRANCH   5   6
HETATM    6  C8  UNL     1       2.500  -0.086  -0.293  1.00  0.00    -0.006 A 
HETATM    7  C3  UNL     1       3.836   0.283  -0.291  1.00  0.00     0.087 A 
HETATM    8  C4  UNL     1       4.498   0.281  -1.496  1.00  0.00     0.038 A 
HETATM    9  C5  UNL     1       3.902  -0.069  -2.697  1.00  0.00     0.003 A 
HETATM   10  C6  UNL     1       2.581  -0.431  -2.678  1.00  0.00     0.001 A 
HETATM   11  C7  UNL     1       1.863  -0.446  -1.485  1.00  0.00     0.011 A 
BRANCH   7  12
HETATM   12  O2  UNL     1       4.416   0.630   0.916  1.00  0.00    -0.279 OA
BRANCH  12  13
HETATM   13  C2  UNL     1       5.088  -0.237   1.747  1.00  0.00     0.260 C 
HETATM   14  C1  UNL     1       5.692   0.216   3.050  1.00  0.00     0.126 C 
HETATM   15  O1  UNL     1       5.186  -1.431   1.386  1.00  0.00    -0.265 OA
ENDBRANCH  12  13
ENDBRANCH   7  12
ENDBRANCH   5   6
ENDBRANCH   3   5
ENDBRANCH   1   3
BRANCH   1  16
HETATM   16  N2  UNL     1      -1.927  -0.007   0.286  1.00  0.00    -0.300 N 
HETATM   17  C11 UNL     1      -2.943   0.810  -0.225  1.00  0.00     0.257 C 
HETATM   18  O3  UNL     1      -2.647   1.969  -0.635  1.00  0.00    -0.267 OA
ATOM     19  H2  UNL     1      -2.165  -0.942   0.616  1.00  0.00     0.171 HD
BRANCH  17  20
HETATM   20  C12 UNL     1      -4.327   0.390  -0.307  1.00  0.00     0.033 A 
HETATM   21  C13 UNL     1      -5.284   1.275  -0.823  1.00  0.00     0.018 A 
HETATM   22  C14 UNL     1      -6.607   0.914  -0.917  1.00  0.00     0.021 A 
HETATM   23  C15 UNL     1      -7.046  -0.322  -0.512  1.00  0.00     0.028 A 
HETATM   24 BR1  UNL     1      -8.889  -0.804  -0.650  1.00  0.00    -0.050 Br
HETATM   25  C16 UNL     1      -6.135  -1.196  -0.009  1.00  0.00     0.029 A 
HETATM   26 BR2  UNL     1      -6.681  -2.922   0.570  1.00  0.00    -0.050 Br
HETATM   27  C17 UNL     1      -4.814  -0.835   0.085  1.00  0.00     0.037 A 
ENDBRANCH  17  20
ENDBRANCH   1  16
TORSDOF 7
