REMARK  8 active torsions:
REMARK  status: ('A' for Active; 'I' for Inactive)
REMARK    1  A    between atoms: N1_6  and  C5_7 
REMARK    2  A    between atoms: C5_7  and  C6_9 
REMARK    3  A    between atoms: C10_16  and  O2_17 
REMARK    4  A    between atoms: C10_16  and  C11_19 
REMARK    5  A    between atoms: C11_19  and  C12_20 
REMARK    6  A    between atoms: C12_20  and  N3_21 
REMARK       I    between atoms: N3_21  and  C13_23 
REMARK    7  A    between atoms: C13_23  and  C14_25 
REMARK    8  A    between atoms: C14_25  and  C15_26 
ROOT
HETATM    1  C1  UNL     1      -3.816   0.032   3.985  1.00  0.00     0.104 C 
HETATM    2  C2  UNL     1      -3.011   0.082   3.060  1.00  0.00    -0.135 C 
HETATM    3  C3  UNL     1      -2.028   0.095   1.993  1.00  0.00     0.102 C 
HETATM    4 CL1  UNL     1      -0.364   0.230   2.548  1.00  0.00    -0.073 Cl
HETATM    5  C4  UNL     1      -2.311  -0.054   0.724  1.00  0.00     0.109 C 
HETATM    6  N1  UNL     1      -3.731  -0.249   0.279  1.00  0.00    -0.238 N 
HETATM    7  N2  UNL     1      -3.678  -1.259  -0.723  1.00  0.00    -0.255 N 
HETATM    8  C8  UNL     1      -4.694  -1.861  -1.529  1.00  0.00     0.181 C 
HETATM    9  C9  UNL     1      -2.255  -1.609  -0.842  1.00  0.00     0.279 C 
HETATM   10  O1  UNL     1      -1.759  -2.670  -1.141  1.00  0.00    -0.268 OA
HETATM   11  C10 UNL     1      -1.558  -0.325  -0.502  1.00  0.00     0.188 C 
ENDROOT
BRANCH   6  12
HETATM   12  C5  UNL     1      -4.801   0.586   0.646  1.00  0.00     0.140 C 
HETATM   13  S1  UNL     1      -4.312   2.220   1.054  1.00  0.00    -0.057 SA
BRANCH  12  14
HETATM   14  C6  UNL     1      -6.207   0.570   0.509  1.00  0.00     0.041 C 
HETATM   15  C7  UNL     1      -6.998  -0.444   0.341  1.00  0.00     0.035 C 
HETATM   16 BR1  UNL     1      -7.155   2.282   0.550  1.00  0.00    -0.049 Br
ENDBRANCH  12  14
ENDBRANCH   6  12
BRANCH  11  17
HETATM   17  O2  UNL     1      -2.113   0.592  -1.541  1.00  0.00    -0.374 OA
ATOM     18  H2  UNL     1      -1.624   0.416  -2.337  1.00  0.00     0.211 HD
ENDBRANCH  11  17
BRANCH  11  19
HETATM   19  C11 UNL     1      -0.155  -0.198  -0.726  1.00  0.00     0.074 C 
BRANCH  19  20
HETATM   20  C12 UNL     1       0.397   1.209  -0.665  1.00  0.00     0.126 C 
BRANCH  20  21
HETATM   21  N3  UNL     1       1.796   1.305  -0.954  1.00  0.00    -0.361 N 
HETATM   22  C13 UNL     1       2.868   0.684  -0.281  1.00  0.00     0.218 C 
HETATM   23  O3  UNL     1       2.661  -0.060   0.695  1.00  0.00    -0.274 OA
ATOM     24  H3  UNL     1       2.049   1.897  -1.746  1.00  0.00     0.162 HD
BRANCH  22  25
HETATM   25  C14 UNL     1       4.288   0.881  -0.697  1.00  0.00     0.111 C 
BRANCH  25  26
HETATM   26  C15 UNL     1       5.239   0.120   0.170  1.00  0.00    -0.043 C 
HETATM   27  C16 UNL     1       6.649   0.406  -0.360  1.00  0.00     0.015 C 
HETATM   28  C17 UNL     1       5.208   0.541   1.605  1.00  0.00     0.015 C 
HETATM   29  C18 UNL     1       4.991  -1.366   0.007  1.00  0.00     0.015 C 
ENDBRANCH  25  26
ENDBRANCH  22  25
ENDBRANCH  20  21
ENDBRANCH  19  20
ENDBRANCH  11  19
TORSDOF 8
