REMARK  6 active torsions:
REMARK  status: ('A' for Active; 'I' for Inactive)
REMARK    1  A    between atoms: C1_2  and  C2_4 
REMARK    2  A    between atoms: N2_8  and  C6_9 
REMARK    3  A    between atoms: C6_9  and  C15_25 
REMARK       I    between atoms: N3_10  and  C7_12 
REMARK    4  A    between atoms: C7_12  and  C8_14 
REMARK    5  A    between atoms: C8_14  and  N4_15 
REMARK    6  A    between atoms: C8_14  and  C9_19 
ROOT
HETATM    1  C6  UNL     1      -1.528  -0.557  -1.220  1.00  0.00     0.124 C 
HETATM    2  N3  UNL     1      -0.691   0.300  -0.910  1.00  0.00    -0.310 N 
ATOM      3  H3  UNL     1      -1.239   0.985  -0.390  1.00  0.00     0.170 HD
HETATM    4  C7  UNL     1       0.545   0.813  -0.889  1.00  0.00     0.254 C 
HETATM    5  O2  UNL     1       1.111   1.336  -1.934  1.00  0.00    -0.271 OA
ENDROOT
BRANCH   1   6
HETATM    6  N2  UNL     1      -2.910  -0.339  -0.786  1.00  0.00    -0.353 N 
HETATM    7  C2  UNL     1      -3.537  -0.718   0.452  1.00  0.00     0.175 C 
HETATM    8  C3  UNL     1      -5.036  -0.502   0.272  1.00  0.00     0.036 C 
HETATM    9  C4  UNL     1      -5.149   0.395  -0.904  1.00  0.00     0.022 C 
HETATM   10  C5  UNL     1      -3.831   0.406  -1.614  1.00  0.00     0.125 C 
BRANCH   7  11
HETATM   11  C1  UNL     1      -3.163   0.282   1.520  1.00  0.00     0.254 C 
HETATM   12  N1  UNL     1      -3.493   0.011   2.866  1.00  0.00    -0.060 NA
HETATM   13  O1  UNL     1      -2.576   1.312   1.180  1.00  0.00    -0.275 OA
ENDBRANCH   7  11
ENDBRANCH   1   6
BRANCH   1  14
HETATM   14  C15 UNL     1      -1.184  -1.716  -2.006  1.00  0.00     0.061 C 
HETATM   15 BR1  UNL     1       0.709  -1.719  -2.584  1.00  0.00    -0.046 Br
HETATM   16  C16 UNL     1      -1.877  -2.730  -2.414  1.00  0.00     0.079 C 
HETATM   17 BR2  UNL     1      -3.677  -3.147  -2.154  1.00  0.00    -0.062 Br
ENDBRANCH   1  14
BRANCH   4  18
HETATM   18  C8  UNL     1       1.403   0.850   0.324  1.00  0.00     0.279 C 
BRANCH  18  19
HETATM   19  N4  UNL     1       0.718   0.120   1.369  1.00  0.00    -0.066 N 
ATOM     20  H43 UNL     1      -0.226   0.465   1.540  1.00  0.00     0.275 HD
ATOM     21  H42 UNL     1       0.466  -0.828   1.090  1.00  0.00     0.275 HD
ATOM     22  H41 UNL     1       1.307   0.145   2.201  1.00  0.00     0.275 HD
ENDBRANCH  18  19
BRANCH  18  23
HETATM   23  C9  UNL     1       2.753   0.214   0.185  1.00  0.00     0.025 C 
HETATM   24  C10 UNL     1       3.425   0.383   1.539  1.00  0.00     0.007 C 
HETATM   25  C11 UNL     1       4.840  -0.133   1.564  1.00  0.00     0.000 C 
HETATM   26  C12 UNL     1       5.617   0.813   0.633  1.00  0.00     0.000 C 
HETATM   27  C13 UNL     1       5.060   0.555  -0.739  1.00  0.00     0.000 C 
HETATM   28  C14 UNL     1       3.596   0.806  -0.884  1.00  0.00     0.007 C 
ENDBRANCH  18  23
ENDBRANCH   4  18
TORSDOF 6
