REMARK  5 active torsions:
REMARK  status: ('A' for Active; 'I' for Inactive)
REMARK    1  A    between atoms: C2_2  and  N1_3 
REMARK    2  A    between atoms: C2_2  and  C10_18 
REMARK    3  A    between atoms: C10_18  and  C11_20 
REMARK    4  A    between atoms: C11_20  and  C12_22 
REMARK    5  A    between atoms: C12_22  and  C15_25 
ROOT
HETATM    1  N1  UNL     1       0.340   0.032   0.589  1.00  0.00    -0.374 N 
ATOM      2  H1  UNL     1       0.233  -0.376   1.518  1.00  0.00     0.161 HD
HETATM    3  C3  UNL     1       1.513   0.045   0.110  1.00  0.00     0.074 C 
HETATM    4  C4  UNL     1       2.623  -0.528   0.931  1.00  0.00     0.093 C 
HETATM    5  C5  UNL     1       3.539  -1.243  -0.068  1.00  0.00     0.079 C 
HETATM    6  S1  UNL     1       4.735  -2.205   0.887  1.00  0.00    -0.152 SA
HETATM    7  C6  UNL     1       5.953  -1.062   1.565  1.00  0.00     0.177 C 
HETATM    8  C7  UNL     1       6.058   0.089   0.632  1.00  0.00     0.227 C 
HETATM    9  O1  UNL     1       6.721   1.089   1.050  1.00  0.00    -0.273 OA
HETATM   10  N2  UNL     1       5.490   0.148  -0.649  1.00  0.00    -0.353 N 
ATOM     11  H2  UNL     1       6.067   0.552  -1.387  1.00  0.00     0.163 HD
HETATM   12  C8  UNL     1       4.180  -0.302  -1.030  1.00  0.00     0.116 C 
HETATM   13  C9  UNL     1       3.266   0.863  -1.386  1.00  0.00     0.147 C 
HETATM   14  N3  UNL     1       1.879   0.566  -1.163  1.00  0.00    -0.378 N 
ATOM     15  H3  UNL     1       1.181   0.723  -1.890  1.00  0.00     0.160 HD
ENDROOT
BRANCH   1  16
HETATM   16  C2  UNL     1      -0.850   0.526  -0.029  1.00  0.00     0.100 C 
HETATM   17  C1  UNL     1      -1.042   1.968   0.318  1.00  0.00     0.034 C 
BRANCH  16  18
HETATM   18  C10 UNL     1      -2.029  -0.329   0.497  1.00  0.00     0.150 C 
HETATM   19 BR1  UNL     1      -1.582  -2.179  -0.063  1.00  0.00    -0.081 Br
BRANCH  18  20
HETATM   20  C11 UNL     1      -3.222   0.028  -0.249  1.00  0.00     0.151 C 
HETATM   21  O2  UNL     1      -2.969   0.693  -1.303  1.00  0.00    -0.296 OA
BRANCH  20  22
HETATM   22  C12 UNL     1      -4.633  -0.208  -0.053  1.00  0.00     0.023 C 
HETATM   23  C13 UNL     1      -5.407   0.197  -1.307  1.00  0.00     0.024 C 
HETATM   24  C14 UNL     1      -5.206   0.719   1.047  1.00  0.00     0.024 C 
BRANCH  22  25
HETATM   25  C15 UNL     1      -4.973  -1.596   0.360  1.00  0.00     0.101 C 
HETATM   26 BR2  UNL     1      -4.209  -2.013   2.062  1.00  0.00    -0.095 Br
ENDBRANCH  22  25
ENDBRANCH  20  22
ENDBRANCH  18  20
ENDBRANCH  16  18
ENDBRANCH   1  16
TORSDOF 5
