REMARK  5 active torsions:
REMARK  status: ('A' for Active; 'I' for Inactive)
REMARK       I    between atoms: C1_2  and  N1_3 
REMARK    1  A    between atoms: C1_2  and  C13_18 
REMARK    2  A    between atoms: N1_3  and  C2_5 
REMARK    3  A    between atoms: C2_5  and  C3_6 
REMARK       I    between atoms: C3_6  and  N2_8 
REMARK       I    between atoms: C13_18  and  N3_20 
REMARK    4  A    between atoms: N3_20  and  C14_21 
REMARK    5  A    between atoms: C14_21  and  C15_22 
ROOT
HETATM    1  O1  UNL     1       0.251   0.674   1.041  1.00  0.00    -0.261 OA
HETATM    2  C1  UNL     1       0.188   1.199  -0.079  1.00  0.00     0.324 C 
HETATM    3  N1  UNL     1      -1.055   1.426  -0.693  1.00  0.00    -0.343 N 
ATOM      4  H1  UNL     1      -1.099   1.861  -1.614  1.00  0.00     0.163 HD
ENDROOT
BRANCH   2   5
HETATM    5  C13 UNL     1       1.464   1.577  -0.745  1.00  0.00     0.383 C 
HETATM    6  O3  UNL     1       1.333   2.077  -1.906  1.00  0.00    -0.246 OA
HETATM    7  N3  UNL     1       2.628   1.359  -0.063  1.00  0.00    -0.379 NA
BRANCH   7   8
HETATM    8  C14 UNL     1       3.789   1.141   0.616  1.00  0.00     0.175 C 
BRANCH   8   9
HETATM    9  C15 UNL     1       4.838   0.197   0.105  1.00  0.00     0.071 C 
HETATM   10  C16 UNL     1       4.308  -1.232  -0.024  1.00  0.00     0.027 C 
HETATM   11  C17 UNL     1       5.469  -2.145  -0.303  1.00  0.00    -0.012 C 
HETATM   12  C18 UNL     1       6.539  -2.107   0.773  1.00  0.00     0.009 C 
HETATM   13  C22 UNL     1       6.073  -1.743  -1.647  1.00  0.00     0.015 C 
HETATM   14  C19 UNL     1       7.064  -0.711   0.874  1.00  0.00    -0.012 C 
HETATM   15  C20 UNL     1       7.700  -0.303  -0.438  1.00  0.00     0.015 C 
HETATM   16  C24 UNL     1       5.908   0.185   1.215  1.00  0.00     0.027 C 
HETATM   17  C21 UNL     1       6.641  -0.348  -1.481  1.00  0.00     0.060 C 
HETATM   18  C23 UNL     1       5.494   0.615  -1.160  1.00  0.00     0.260 C 
HETATM   19  F1  UNL     1       5.954   1.890  -1.053  1.00  0.00    -0.205 F 
HETATM   20  F2  UNL     1       4.652   0.475  -2.278  1.00  0.00    -0.205 F 
ENDBRANCH   8   9
ENDBRANCH   7   8
ENDBRANCH   2   5
BRANCH   3  21
HETATM   21  C2  UNL     1      -2.258   1.045  -0.023  1.00  0.00     0.226 C 
BRANCH  21  22
HETATM   22  C3  UNL     1      -3.483   1.367  -0.775  1.00  0.00     0.237 C 
HETATM   23  O2  UNL     1      -3.400   1.938  -1.890  1.00  0.00    -0.272 OA
HETATM   24  N2  UNL     1      -4.737   1.040  -0.251  1.00  0.00    -0.350 N 
HETATM   25  C4  UNL     1      -5.935   1.381  -0.976  1.00  0.00     0.131 C 
HETATM   26  C9  UNL     1      -4.832   0.356   1.012  1.00  0.00     0.131 C 
HETATM   27  C5  UNL     1      -7.001   0.316  -0.844  1.00  0.00     0.012 C 
HETATM   28  C6  UNL     1      -6.433  -1.009  -1.350  1.00  0.00     0.007 C 
HETATM   29  C10 UNL     1      -7.229   0.011   0.593  1.00  0.00    -0.030 A 
HETATM   30  C7  UNL     1      -5.702  -1.606  -0.148  1.00  0.00     0.007 C 
HETATM   31  C8  UNL     1      -5.952  -0.669   1.013  1.00  0.00     0.012 C 
HETATM   32  C11 UNL     1      -7.990   0.873   1.513  1.00  0.00     0.011 A 
HETATM   33  C12 UNL     1      -8.492  -0.520   1.117  1.00  0.00     0.011 A 
ENDBRANCH  21  22
ENDBRANCH   3  21
TORSDOF 5
