REMARK  4 active torsions:
REMARK  status: ('A' for Active; 'I' for Inactive)
REMARK    1  A    between atoms: C1_2  and  C2_4 
REMARK    2  A    between atoms: C8_10  and  N2_11 
REMARK       I    between atoms: N2_11  and  C9_13 
REMARK    3  A    between atoms: C9_13  and  C10_15 
REMARK    4  A    between atoms: N3_20  and  C14_21 
ROOT
HETATM    1  N2  UNL     1      -0.447  -1.038  -0.431  1.00  0.00    -0.353 N 
ATOM      2  H2  UNL     1      -0.478  -1.995  -0.080  1.00  0.00     0.163 HD
HETATM    3  C9  UNL     1       0.783  -0.402  -0.621  1.00  0.00     0.240 C 
HETATM    4  O2  UNL     1       0.829   0.774  -1.067  1.00  0.00    -0.271 OA
ENDROOT
BRANCH   1   5
HETATM    5  C8  UNL     1      -1.669  -0.340  -0.731  1.00  0.00     0.107 C 
HETATM    6  C6  UNL     1      -1.895   0.745   0.362  1.00  0.00     0.011 C 
HETATM    7  C5  UNL     1      -2.180   0.044   1.648  1.00  0.00     0.011 C 
HETATM    8  C7  UNL     1      -2.994   1.611  -0.139  1.00  0.00     0.025 C 
HETATM    9  C4  UNL     1      -3.511  -0.666   1.516  1.00  0.00    -0.011 C 
HETATM   10  C3  UNL     1      -4.602   0.233   1.038  1.00  0.00     0.023 C 
HETATM   11  C20 UNL     1      -3.312  -1.762   0.500  1.00  0.00     0.027 C 
HETATM   12  C2  UNL     1      -4.246   0.762  -0.323  1.00  0.00     0.041 C 
HETATM   13  C21 UNL     1      -4.044  -0.338  -1.304  1.00  0.00     0.042 C 
HETATM   14  C19 UNL     1      -2.872  -1.182  -0.833  1.00  0.00     0.040 C 
HETATM   15 BR1  UNL     1      -2.643  -2.634  -2.081  1.00  0.00    -0.083 Br
BRANCH  12  16
HETATM   16  C1  UNL     1      -5.257   1.709  -0.856  1.00  0.00     0.239 C 
HETATM   17  N1  UNL     1      -6.566   1.813  -0.353  1.00  0.00    -0.061 NA
HETATM   18  O1  UNL     1      -4.866   2.450  -1.824  1.00  0.00    -0.276 OA
ENDBRANCH  12  16
ENDBRANCH   1   5
BRANCH   3  19
HETATM   19  C10 UNL     1       2.065  -1.106  -0.289  1.00  0.00     0.174 C 
HETATM   20  C11 UNL     1       1.806  -1.921   0.954  1.00  0.00     0.073 C 
HETATM   21  C12 UNL     1       2.525  -1.160   2.060  1.00  0.00     0.190 C 
HETATM   22  F1  UNL     1       1.676  -0.362   2.770  1.00  0.00    -0.248 F 
HETATM   23  C13 UNL     1       3.604  -0.400   1.324  1.00  0.00     0.155 C 
HETATM   24  N3  UNL     1       3.130  -0.223   0.003  1.00  0.00    -0.393 N 
BRANCH  24  25
HETATM   25  C14 UNL     1       4.030   0.173  -0.987  1.00  0.00     0.080 C 
HETATM   26  C15 UNL     1       4.353   1.651  -0.988  1.00  0.00     0.025 C 
HETATM   27  C16 UNL     1       5.801   1.784  -0.617  1.00  0.00     0.002 C 
HETATM   28  C17 UNL     1       6.322   0.420  -0.256  1.00  0.00     0.002 C 
HETATM   29  C18 UNL     1       5.377  -0.513  -0.939  1.00  0.00     0.025 C 
ENDBRANCH  24  25
ENDBRANCH   3  19
TORSDOF 4
