REMARK  6 active torsions:
REMARK  status: ('A' for Active; 'I' for Inactive)
REMARK    1  A    between atoms: N1_2  and  C2_3 
REMARK    2  A    between atoms: N1_2  and  S1_31 
REMARK    3  A    between atoms: C2_3  and  C3_4 
REMARK       I    between atoms: C3_4  and  N2_6 
REMARK    4  A    between atoms: N2_6  and  C4_8 
REMARK    5  A    between atoms: C4_8  and  C7_11 
REMARK    6  A    between atoms: C10_14  and  C11_15 
ROOT
HETATM    1  C2  UNL     1      -0.909  -0.424   0.077  1.00  0.00     0.127 C 
HETATM    2  C14 UNL     1      -1.853  -0.771  -1.037  1.00  0.00     0.048 C 
HETATM    3  C15 UNL     1      -2.938  -0.893   0.021  1.00  0.00     0.004 C 
HETATM    4  C16 UNL     1      -2.151   0.187   0.756  1.00  0.00     0.029 C 
HETATM    5  C17 UNL     1      -2.704   1.426   0.110  1.00  0.00     0.017 C 
HETATM    6  C18 UNL     1      -4.226   1.158   0.044  1.00  0.00    -0.040 C 
HETATM    7  C19 UNL     1      -4.890   1.573   1.307  1.00  0.00     0.015 C 
HETATM    8  C20 UNL     1      -4.861   1.885  -1.118  1.00  0.00     0.015 C 
HETATM    9  C21 UNL     1      -4.275  -0.309  -0.270  1.00  0.00    -0.037 C 
HETATM   10  C22 UNL     1      -5.297  -1.013   0.651  1.00  0.00     0.016 C 
HETATM   11  C23 UNL     1      -4.749  -0.633  -1.668  1.00  0.00     0.016 C 
ENDROOT
BRANCH   1  12
HETATM   12  N1  UNL     1      -0.417  -1.533   0.814  1.00  0.00    -0.296 N 
HETATM   13  C1  UNL     1       0.033  -1.276   2.120  1.00  0.00     0.164 C 
BRANCH  12  14
HETATM   14  S1  UNL     1      -0.094  -3.000   0.133  1.00  0.00     0.225 S 
HETATM   15  C24 UNL     1       0.969  -3.005  -1.280  1.00  0.00     0.186 C 
HETATM   16  O2  UNL     1      -1.289  -3.862  -0.237  1.00  0.00    -0.206 OA
HETATM   17  O3  UNL     1       0.653  -3.846   1.179  1.00  0.00    -0.206 OA
ENDBRANCH  12  14
ENDBRANCH   1  12
BRANCH   1  18
HETATM   18  C3  UNL     1       0.150   0.578  -0.107  1.00  0.00     0.248 C 
HETATM   19  O1  UNL     1      -0.202   1.749  -0.398  1.00  0.00    -0.271 OA
HETATM   20  N2  UNL     1       1.544   0.393   0.006  1.00  0.00    -0.346 N 
ATOM     21  H2  UNL     1       1.867  -0.552   0.215  1.00  0.00     0.163 HD
BRANCH  20  22
HETATM   22  C4  UNL     1       2.557   1.407  -0.145  1.00  0.00     0.053 C 
HETATM   23  C5  UNL     1       2.463   2.420   1.003  1.00  0.00     0.043 C 
HETATM   24  C6  UNL     1       2.391   2.252  -1.403  1.00  0.00     0.043 C 
BRANCH  22  25
HETATM   25  C7  UNL     1       3.900   0.815  -0.097  1.00  0.00    -0.031 A 
HETATM   26  C8  UNL     1       4.899   1.056  -1.020  1.00  0.00     0.010 A 
HETATM   27  C9  UNL     1       6.154   0.455  -0.925  1.00  0.00     0.017 A 
HETATM   28  C10 UNL     1       6.462  -0.411   0.091  1.00  0.00     0.047 A 
HETATM   29  C12 UNL     1       5.481  -0.664   1.018  1.00  0.00     0.017 A 
HETATM   30  C13 UNL     1       4.225  -0.058   0.920  1.00  0.00     0.010 A 
BRANCH  28  31
HETATM   31  C11 UNL     1       7.809  -1.055   0.191  1.00  0.00     0.417 C 
HETATM   32  F1  UNL     1       8.388  -0.779   1.399  1.00  0.00    -0.166 F 
HETATM   33  F2  UNL     1       8.635  -0.488  -0.779  1.00  0.00    -0.166 F 
HETATM   34  F3  UNL     1       7.752  -2.408   0.027  1.00  0.00    -0.166 F 
ENDBRANCH  28  31
ENDBRANCH  22  25
ENDBRANCH  20  22
ENDBRANCH   1  18
TORSDOF 6
