REMARK  6 active torsions:
REMARK  status: ('A' for Active; 'I' for Inactive)
REMARK       I    between atoms: C1_2  and  N1_3 
REMARK    1  A    between atoms: C1_2  and  C12_15 
REMARK    2  A    between atoms: N1_3  and  C2_5 
REMARK       I    between atoms: N2_18  and  C15_19 
REMARK    3  A    between atoms: C15_19  and  O3_21 
REMARK    4  A    between atoms: O3_21  and  C16_22 
REMARK    5  A    between atoms: C16_22  and  C17_23 
REMARK    6  A    between atoms: C20_26  and  C21_27 
ROOT
HETATM    1  C12 UNL     1      -0.671  -0.062  -0.111  1.00  0.00     0.081 C 
HETATM    2  C13 UNL     1      -0.378   1.439  -0.262  1.00  0.00     0.034 C 
HETATM    3  C14 UNL     1       1.059   1.633   0.155  1.00  0.00     0.129 C 
HETATM    4  N2  UNL     1       1.815   0.613  -0.556  1.00  0.00    -0.328 N 
HETATM    5  C15 UNL     1       3.055   0.202  -0.053  1.00  0.00     0.363 C 
HETATM    6  O2  UNL     1       3.520   0.668   1.025  1.00  0.00    -0.238 OA
HETATM    7  C26 UNL     1       1.193   0.052  -1.732  1.00  0.00     0.129 C 
HETATM    8  C27 UNL     1      -0.012  -0.784  -1.220  1.00  0.00     0.034 C 
ENDROOT
BRANCH   5   9
HETATM    9  O3  UNL     1       3.783  -0.736  -0.740  1.00  0.00    -0.288 OA
BRANCH   9  10
HETATM   10  C16 UNL     1       4.999  -1.246  -0.334  1.00  0.00     0.100 A 
HETATM   11  C24 UNL     1       5.289  -2.643  -0.865  1.00  0.00     0.047 A 
HETATM   12  C25 UNL     1       4.881  -2.484   0.545  1.00  0.00     0.047 A 
BRANCH  10  13
HETATM   13  C17 UNL     1       6.189  -0.385  -0.106  1.00  0.00    -0.023 A 
HETATM   14  C18 UNL     1       6.615  -0.140   1.201  1.00  0.00     0.011 A 
HETATM   15  C19 UNL     1       7.730   0.626   1.467  1.00  0.00     0.017 A 
HETATM   16  C20 UNL     1       8.471   1.171   0.425  1.00  0.00     0.047 A 
HETATM   17  C22 UNL     1       8.069   0.938  -0.853  1.00  0.00     0.017 A 
HETATM   18  C23 UNL     1       6.931   0.168  -1.114  1.00  0.00     0.011 A 
BRANCH  16  19
HETATM   19  C21 UNL     1       9.711   1.970   0.732  1.00  0.00     0.417 C 
HETATM   20  F1  UNL     1      10.734   1.081   0.920  1.00  0.00    -0.166 F 
HETATM   21  F2  UNL     1       9.537   2.764   1.858  1.00  0.00    -0.166 F 
HETATM   22  F3  UNL     1       9.993   2.720  -0.372  1.00  0.00    -0.166 F 
ENDBRANCH  16  19
ENDBRANCH  10  13
ENDBRANCH   9  10
ENDBRANCH   5   9
BRANCH   1  23
HETATM   23  C1  UNL     1      -2.101  -0.296   0.150  1.00  0.00     0.226 C 
HETATM   24  O1  UNL     1      -2.418  -1.247   0.890  1.00  0.00    -0.273 OA
HETATM   25  N1  UNL     1      -3.079   0.524  -0.418  1.00  0.00    -0.333 N 
ATOM     26  H1  UNL     1      -2.684   1.244  -1.023  1.00  0.00     0.168 HD
BRANCH  25  27
HETATM   27  C2  UNL     1      -4.474   0.587  -0.350  1.00  0.00    -0.002 C 
HETATM   28  C3  UNL     1      -5.357  -0.432  -0.973  1.00  0.00     0.032 C 
HETATM   29  C4  UNL     1      -5.822  -1.546  -0.079  1.00  0.00     0.015 C 
HETATM   30  C8  UNL     1      -6.668   0.324  -1.368  1.00  0.00     0.015 C 
HETATM   31  C5  UNL     1      -6.465  -1.071   1.173  1.00  0.00    -0.013 C 
HETATM   32  C6  UNL     1      -7.706  -0.251   0.845  1.00  0.00     0.009 C 
HETATM   33  C11 UNL     1      -5.507  -0.120   1.861  1.00  0.00     0.015 C 
HETATM   34  C7  UNL     1      -7.290   0.858  -0.104  1.00  0.00    -0.013 C 
HETATM   35  C9  UNL     1      -6.323   1.777   0.626  1.00  0.00     0.015 C 
HETATM   36  C10 UNL     1      -5.045   0.989   0.986  1.00  0.00     0.032 C 
ENDBRANCH  25  27
ENDBRANCH   1  23
TORSDOF 6
