REMARK  5 active torsions:
REMARK  status: ('A' for Active; 'I' for Inactive)
REMARK    1  A    between atoms: C2_2  and  O1_3 
REMARK    2  A    between atoms: C4_6  and  N1_7 
REMARK       I    between atoms: N1_7  and  C5_8 
REMARK    3  A    between atoms: N1_7  and  C20_28 
REMARK    4  A    between atoms: C5_8  and  C6_10 
REMARK    5  A    between atoms: C8_12  and  C9_13 
ROOT
HETATM    1  C6  UNL     1      -0.486  -0.433   0.436  1.00  0.00     0.036 C 
HETATM    2  C7  UNL     1      -1.186   0.673   0.574  1.00  0.00     0.009 C 
HETATM    3  C8  UNL     1      -2.583   0.766   0.816  1.00  0.00     0.054 C 
HETATM    4  C10 UNL     1      -3.667   1.183  -0.062  1.00  0.00     0.061 C 
HETATM    5  C11 UNL     1      -4.798   1.149   0.973  1.00  0.00     0.036 C 
HETATM    6 CL1  UNL     1      -6.028   2.321   1.271  1.00  0.00    -0.087 Cl
HETATM    7  C12 UNL     1      -4.560  -0.050   1.581  1.00  0.00     0.041 C 
HETATM    8 CL2  UNL     1      -5.417  -0.815   2.877  1.00  0.00    -0.086 Cl
HETATM    9  C13 UNL     1      -3.363  -0.539   0.798  1.00  0.00     0.029 C 
HETATM   10  C14 UNL     1      -2.588  -1.679   1.236  1.00  0.00     0.058 C 
HETATM   11  C15 UNL     1      -1.305  -1.672   0.394  1.00  0.00    -0.031 C 
HETATM   12  C16 UNL     1      -1.115  -2.692  -0.374  1.00  0.00     0.092 C 
HETATM   13 CL3  UNL     1       0.066  -3.023  -1.592  1.00  0.00    -0.096 Cl
HETATM   14  C17 UNL     1      -3.820  -0.245  -0.554  1.00  0.00    -0.023 C 
HETATM   15  C18 UNL     1      -5.346  -0.547  -0.635  1.00  0.00     0.016 C 
HETATM   16  C19 UNL     1      -3.163  -0.578  -1.816  1.00  0.00     0.016 C 
ENDROOT
BRANCH   1  17
HETATM   17  C5  UNL     1       0.940  -0.526   0.198  1.00  0.00     0.254 C 
HETATM   18  N1  UNL     1       1.889   0.426  -0.136  1.00  0.00    -0.338 N 
HETATM   19  O2  UNL     1       1.418  -1.728   0.322  1.00  0.00    -0.267 OA
BRANCH  18  20
HETATM   20  C4  UNL     1       3.312   0.148  -0.038  1.00  0.00     0.093 C 
HETATM   21  C3  UNL     1       3.879  -1.010  -0.771  1.00  0.00     0.062 C 
HETATM   22  C2  UNL     1       4.723  -1.309   0.455  1.00  0.00     0.058 C 
HETATM   23  C1  UNL     1       4.830  -2.742   0.864  1.00  0.00     0.046 C 
HETATM   24  C24 UNL     1       3.789  -0.439   1.261  1.00  0.00     0.062 C 
BRANCH  22  25
HETATM   25  O1  UNL     1       5.996  -0.734   0.421  1.00  0.00    -0.390 OA
ATOM     26  H1  UNL     1       5.928   0.177   0.161  1.00  0.00     0.210 HD
ENDBRANCH  22  25
ENDBRANCH  18  20
BRANCH  18  27
HETATM   27  C20 UNL     1       1.580   1.699  -0.771  1.00  0.00     0.088 C 
HETATM   28  C21 UNL     1       2.243   2.885  -0.143  1.00  0.00     0.025 C 
HETATM   29  C22 UNL     1       2.781   3.294  -1.483  1.00  0.00     0.004 C 
HETATM   30  C23 UNL     1       2.429   1.943  -2.030  1.00  0.00     0.025 C 
ENDBRANCH  18  27
ENDBRANCH   1  17
BRANCH   3  31
HETATM   31  C9  UNL     1      -2.840   1.434   2.202  1.00  0.00     0.246 C 
HETATM   32  O3  UNL     1      -2.850   2.629   2.279  1.00  0.00    -0.306 OA
ENDBRANCH   3  31
TORSDOF 5
