REMARK  7 active torsions:
REMARK  status: ('A' for Active; 'I' for Inactive)
REMARK    1  A    between atoms: C4_4  and  C5_5 
REMARK    2  A    between atoms: C5_5  and  C6_6 
REMARK    3  A    between atoms: C6_6  and  N1_7 
REMARK    4  A    between atoms: N1_7  and  C7_8 
REMARK    5  A    between atoms: N1_7  and  C29_33 
REMARK    6  A    between atoms: C16_17  and  O1_18 
REMARK    7  A    between atoms: C16_17  and  C17_20 
ROOT
HETATM    1  C1  UNL     1       8.305   1.936   1.670  1.00  0.00     0.102 C 
HETATM    2  C2  UNL     1       7.399   2.240   0.905  1.00  0.00    -0.161 C 
HETATM    3  C3  UNL     1       6.332   2.616   0.034  1.00  0.00     0.046 C 
HETATM    4  C4  UNL     1       5.760   1.694  -0.699  1.00  0.00    -0.017 C 
ENDROOT
BRANCH   4   5
HETATM    5  C5  UNL     1       6.198   0.264  -0.649  1.00  0.00     0.058 C 
BRANCH   5   6
HETATM    6  C6  UNL     1       5.087  -0.606  -0.188  1.00  0.00     0.288 C 
BRANCH   6   7
HETATM    7  N1  UNL     1       3.932  -0.525  -1.058  1.00  0.00     0.201 N 
BRANCH   7   8
HETATM    8  C7  UNL     1       2.757  -0.988  -0.334  1.00  0.00     0.235 C 
HETATM    9  C8  UNL     1       2.724  -2.401   0.092  1.00  0.00     0.040 C 
HETATM   10  C9  UNL     1       1.690  -2.544   1.188  1.00  0.00     0.037 C 
HETATM   11  C10 UNL     1       0.535  -1.613   1.030  1.00  0.00    -0.075 C 
HETATM   12  C11 UNL     1      -0.556  -1.924   1.717  1.00  0.00    -0.023 C 
HETATM   13  C26 UNL     1       0.505  -0.400   0.199  1.00  0.00    -0.015 C 
HETATM   14  C12 UNL     1      -1.832  -1.175   1.738  1.00  0.00     0.033 C 
HETATM   15  C13 UNL     1      -1.771   0.045   0.904  1.00  0.00    -0.001 C 
HETATM   16  C14 UNL     1      -3.084   0.577   0.394  1.00  0.00     0.010 C 
HETATM   17  C25 UNL     1      -0.890  -0.112  -0.310  1.00  0.00     0.003 C 
HETATM   18  C15 UNL     1      -4.132   0.639   1.446  1.00  0.00     0.066 C 
HETATM   19  C21 UNL     1      -3.631  -0.099  -0.805  1.00  0.00     0.025 C 
HETATM   20  C16 UNL     1      -5.441   0.350   0.755  1.00  0.00     0.182 C 
HETATM   21  C20 UNL     1      -5.009  -0.480  -0.392  1.00  0.00     0.182 C 
HETATM   22  O2  UNL     1      -5.673  -1.342  -0.919  1.00  0.00    -0.293 OA
HETATM   23  C22 UNL     1      -3.798   0.870  -1.981  1.00  0.00     0.024 C 
HETATM   24  C23 UNL     1      -2.884  -1.287  -1.291  1.00  0.00     0.018 C 
HETATM   25  C24 UNL     1      -1.395  -1.185  -1.199  1.00  0.00     0.007 C 
HETATM   26  C27 UNL     1       1.009   0.849   0.864  1.00  0.00     0.020 C 
HETATM   27  C28 UNL     1       1.452  -0.645  -0.986  1.00  0.00     0.050 C 
BRANCH  20  28
HETATM   28  O1  UNL     1      -6.277  -0.336   1.631  1.00  0.00    -0.371 OA
ATOM     29  H1  UNL     1      -7.102  -0.518   1.196  1.00  0.00     0.212 HD
ENDBRANCH  20  28
BRANCH  20  30
HETATM   30  C17 UNL     1      -6.013   1.593   0.297  1.00  0.00    -0.060 C 
HETATM   31  C18 UNL     1      -6.510   2.620  -0.080  1.00  0.00    -0.107 C 
HETATM   32  C19 UNL     1      -7.136   3.881  -0.547  1.00  0.00     0.112 C 
ENDBRANCH  20  30
ENDBRANCH   7   8
BRANCH   7  33
HETATM   33  C29 UNL     1       4.078  -1.247  -2.304  1.00  0.00     0.603 C 
HETATM   34  F1  UNL     1       5.060  -0.683  -3.062  1.00  0.00    -0.144 F 
HETATM   35  F2  UNL     1       4.447  -2.568  -2.105  1.00  0.00    -0.144 F 
HETATM   36  F3  UNL     1       2.916  -1.140  -3.022  1.00  0.00    -0.144 F 
ENDBRANCH   7  33
ENDBRANCH   6   7
ENDBRANCH   5   6
ENDBRANCH   4   5
TORSDOF 7
