REMARK  4 active torsions:
REMARK  status: ('A' for Active; 'I' for Inactive)
REMARK    1  A    between atoms: C2_2  and  C4_4 
REMARK    2  A    between atoms: C4_4  and  C5_5 
REMARK       I    between atoms: C5_5  and  N1_7 
REMARK    3  A    between atoms: N1_7  and  C7_10 
REMARK    4  A    between atoms: C9_12  and  O2_13 
ROOT
HETATM    1  C5  UNL     1       2.008  -0.092   0.380  1.00  0.00     0.233 C 
HETATM    2  O1  UNL     1       2.065   0.311   1.572  1.00  0.00    -0.272 OA
HETATM    3  N1  UNL     1       0.737  -0.213  -0.318  1.00  0.00    -0.246 N 
HETATM    4  C6  UNL     1       0.848  -0.671  -1.613  1.00  0.00     0.187 C 
HETATM    5  N2  UNL     1       0.987  -1.047  -2.731  1.00  0.00    -0.172 NA
ENDROOT
BRANCH   3   6
HETATM    6  C7  UNL     1      -0.424   0.183   0.293  1.00  0.00     0.152 C 
HETATM    7  C8  UNL     1      -1.327   1.171  -0.415  1.00  0.00     0.061 C 
HETATM    8  C9  UNL     1      -2.176   0.225  -1.273  1.00  0.00     0.137 C 
HETATM    9  C15 UNL     1      -2.101   1.620   0.808  1.00  0.00     0.025 C 
HETATM   10  C10 UNL     1      -2.371  -1.026  -0.477  1.00  0.00     0.017 C 
HETATM   11  C11 UNL     1      -3.857  -1.216  -0.090  1.00  0.00     0.021 C 
HETATM   12  C12 UNL     1      -2.020  -2.311  -1.176  1.00  0.00     0.021 C 
HETATM   13  C13 UNL     1      -1.521  -0.757   0.721  1.00  0.00     0.136 C 
HETATM   14  F1  UNL     1      -1.156  -1.799   1.464  1.00  0.00    -0.240 F 
HETATM   15  C14 UNL     1      -2.337   0.306   1.523  1.00  0.00     0.067 C 
HETATM   16  C16 UNL     1      -3.306   2.433   0.534  1.00  0.00     0.028 C 
HETATM   17 BR1  UNL     1      -0.855   2.693   1.884  1.00  0.00    -0.085 Br
BRANCH   8  18
HETATM   18  O2  UNL     1      -3.427   0.858  -1.485  1.00  0.00    -0.394 OA
ATOM     19  H2  UNL     1      -3.953   0.272  -2.016  1.00  0.00     0.210 HD
ENDBRANCH   8  18
ENDBRANCH   3   6
BRANCH   1  20
HETATM   20  C4  UNL     1       3.305  -0.433  -0.258  1.00  0.00     0.108 C 
BRANCH  20  21
HETATM   21  C2  UNL     1       4.469  -0.231   0.649  1.00  0.00    -0.014 C 
HETATM   22  C1  UNL     1       4.622   1.181   1.129  1.00  0.00     0.010 C 
HETATM   23  C3  UNL     1       5.725  -0.743  -0.022  1.00  0.00     0.010 C 
ENDBRANCH  20  21
ENDBRANCH   1  20
TORSDOF 4
