REMARK  4 active torsions:
REMARK  status: ('A' for Active; 'I' for Inactive)
REMARK    1  A    between atoms: O1_2  and  C2_3 
REMARK    2  A    between atoms: C2_3  and  C3_5 
REMARK    3  A    between atoms: C11_14  and  C12_15 
REMARK       I    between atoms: C12_15  and  N1_17 
REMARK    4  A    between atoms: N1_17  and  N2_19 
ROOT
HETATM    1  C3  UNL     1      -1.307  -0.088  -0.985  1.00  0.00     0.110 C 
HETATM    2  C4  UNL     1      -2.377  -1.101  -1.348  1.00  0.00     0.003 C 
HETATM    3  C5  UNL     1      -3.075  -1.276  -0.032  1.00  0.00     0.015 C 
HETATM    4  C6  UNL     1      -1.947  -1.150   1.004  1.00  0.00     0.029 C 
HETATM    5  C7  UNL     1      -1.691  -2.493   1.532  1.00  0.00    -0.023 C 
HETATM    6  C8  UNL     1      -0.863  -3.115   0.704  1.00  0.00    -0.008 C 
HETATM    7  C9  UNL     1      -0.508  -2.219  -0.436  1.00  0.00     0.054 C 
HETATM    8 BR1  UNL     1       1.280  -2.578  -0.977  1.00  0.00    -0.080 Br
HETATM    9  C10 UNL     1      -1.508  -2.339  -1.563  1.00  0.00     0.032 C 
HETATM   10  C11 UNL     1      -0.732  -0.856   0.175  1.00  0.00     0.083 C 
ENDROOT
BRANCH  10  11
HETATM   11  C12 UNL     1       0.360  -0.248   0.866  1.00  0.00     0.248 C 
HETATM   12  O3  UNL     1       0.241  -0.109   2.136  1.00  0.00    -0.271 OA
HETATM   13  N1  UNL     1       1.574   0.226   0.325  1.00  0.00    -0.269 N 
ATOM     14  H1  UNL     1       1.712   0.137  -0.682  1.00  0.00     0.190 HD
BRANCH  13  15
HETATM   15  N2  UNL     1       2.589   0.802   1.065  1.00  0.00    -0.307 N 
HETATM   16  C13 UNL     1       3.693   1.234   0.573  1.00  0.00    -0.004 C 
HETATM   17  C14 UNL     1       3.893   1.107  -0.886  1.00  0.00     0.064 C 
HETATM   18  C15 UNL     1       4.766   1.847   1.384  1.00  0.00     0.064 C 
ATOM     19  H2  UNL     1       2.451   0.890   2.072  1.00  0.00     0.186 HD
ENDBRANCH  13  15
ENDBRANCH  10  11
BRANCH   1  20
HETATM   20  C2  UNL     1      -1.927   1.184  -0.669  1.00  0.00     0.264 C 
HETATM   21  O2  UNL     1      -3.151   1.391  -0.833  1.00  0.00    -0.265 OA
BRANCH  20  22
HETATM   22  O1  UNL     1      -1.218   2.290  -0.156  1.00  0.00    -0.326 OA
HETATM   23  C1  UNL     1      -1.865   3.515   0.137  1.00  0.00     0.213 C 
ENDBRANCH  20  22
ENDBRANCH   1  20
TORSDOF 4
