REMARK  2 active torsions:
REMARK  status: ('A' for Active; 'I' for Inactive)
REMARK    1  A    between atoms: C5_5  and  C6_6 
REMARK    2  A    between atoms: C6_6  and  N1_7 
ROOT
HETATM    1  C1  UNL     1      -2.727  -1.611  -0.467  1.00  0.00     0.015 C 
HETATM    2  C2  UNL     1      -1.571  -0.857   0.208  1.00  0.00    -0.040 C 
HETATM    3  C3  UNL     1      -0.610  -1.827   0.773  1.00  0.00     0.010 C 
HETATM    4  C4  UNL     1       0.613  -1.121   1.253  1.00  0.00     0.008 C 
HETATM    5  C5  UNL     1       1.238  -0.492   0.008  1.00  0.00     0.019 C 
HETATM    6  C7  UNL     1       0.372   0.621  -0.456  1.00  0.00    -0.038 C 
HETATM    7  C8  UNL     1       0.889   1.034  -1.846  1.00  0.00     0.015 C 
HETATM    8  C9  UNL     1       0.580   1.872   0.409  1.00  0.00     0.015 C 
HETATM    9  C10 UNL     1      -1.047   0.247  -0.595  1.00  0.00     0.002 C 
HETATM   10  C11 UNL     1      -2.028   1.183   0.126  1.00  0.00     0.007 C 
HETATM   11  C12 UNL     1      -2.170   0.127   1.202  1.00  0.00     0.010 C 
ENDROOT
BRANCH   5  12
HETATM   12  C6  UNL     1       2.635  -0.127   0.341  1.00  0.00     0.234 C 
BRANCH  12  13
HETATM   13  N1  UNL     1       3.367   0.481  -0.733  1.00  0.00    -0.079 N 
ATOM     14  H13 UNL     1       3.344  -0.116  -1.560  1.00  0.00     0.274 HD
ATOM     15  H12 UNL     1       2.864   1.294  -1.089  1.00  0.00     0.274 HD
ATOM     16  H11 UNL     1       4.329   0.732  -0.504  1.00  0.00     0.274 HD
ENDBRANCH  12  13
ENDBRANCH   5  12
TORSDOF 2
