REMARK  2 active torsions:
REMARK  status: ('A' for Active; 'I' for Inactive)
REMARK    1  A    between atoms: C3_3  and  O1_4 
REMARK    2  A    between atoms: C6_8  and  C7_9 
ROOT
HETATM    1  C1  UNL     1       1.463  -0.185   1.646  1.00  0.00     0.013 C 
HETATM    2  C2  UNL     1       1.500   0.588   0.385  1.00  0.00     0.015 C 
HETATM    3  C3  UNL     1       2.915   0.413  -0.201  1.00  0.00     0.122 C 
HETATM    4  C4  UNL     1       2.819  -0.980  -0.745  1.00  0.00     0.032 C 
HETATM    5  C5  UNL     1       1.348  -1.270  -0.997  1.00  0.00     0.008 C 
HETATM    6  C6  UNL     1       0.706   0.071  -0.746  1.00  0.00    -0.004 C 
ENDROOT
BRANCH   6   7
HETATM    7  C7  UNL     1      -0.767   0.028  -0.647  1.00  0.00    -0.010 C 
HETATM    8  C8  UNL     1      -1.309  -0.816   0.469  1.00  0.00     0.005 C 
HETATM    9  C9  UNL     1      -2.828  -0.879   0.228  1.00  0.00     0.000 C 
HETATM   10  C10 UNL     1      -3.300   0.497   0.637  1.00  0.00     0.000 C 
HETATM   11  C11 UNL     1      -2.778   1.532  -0.316  1.00  0.00     0.000 C 
HETATM   12  C12 UNL     1      -1.392   1.378  -0.766  1.00  0.00     0.005 C 
ENDBRANCH   6   7
BRANCH   3  13
HETATM   13  O1  UNL     1       3.879   0.463   0.771  1.00  0.00    -0.395 OA
ATOM     14  H1  UNL     1       4.751   0.355   0.410  1.00  0.00     0.210 HD
ENDBRANCH   3  13
TORSDOF 2
