REMARK  2 active torsions:
REMARK  status: ('A' for Active; 'I' for Inactive)
REMARK    1  A    between atoms: C10_10  and  C11_11 
REMARK    2  A    between atoms: C11_11  and  O1_12 
ROOT
HETATM    1  C1  UNL     1      -1.707   1.077  -1.187  1.00  0.00     0.015 C 
HETATM    2  C2  UNL     1      -1.168   0.693   0.155  1.00  0.00    -0.043 C 
HETATM    3  C3  UNL     1      -1.235   1.969   1.015  1.00  0.00     0.015 C 
HETATM    4  C4  UNL     1      -2.051  -0.316   0.879  1.00  0.00     0.010 C 
HETATM    5  C5  UNL     1      -1.213  -1.599   1.003  1.00  0.00     0.010 C 
HETATM    6  C6  UNL     1      -0.068  -1.398   0.130  1.00  0.00    -0.039 C 
HETATM    7  C7  UNL     1      -0.200  -1.858  -1.279  1.00  0.00     0.015 C 
HETATM    8  C8  UNL     1       1.291  -1.784   0.608  1.00  0.00     0.010 C 
HETATM    9  C9  UNL     1       2.165  -0.831  -0.227  1.00  0.00     0.008 C 
HETATM   10  C10 UNL     1       1.221   0.301  -0.678  1.00  0.00     0.015 C 
HETATM   11  C12 UNL     1       0.130   0.122   0.248  1.00  0.00     0.007 C 
ENDROOT
BRANCH  10  12
HETATM   12  C11 UNL     1       2.020   1.580  -0.514  1.00  0.00     0.169 C 
BRANCH  12  13
HETATM   13  O1  UNL     1       2.424   1.788   0.794  1.00  0.00    -0.400 OA
ATOM     14  H1  UNL     1       2.924   2.589   0.897  1.00  0.00     0.209 HD
ENDBRANCH  12  13
ENDBRANCH  10  12
TORSDOF 2
