REMARK  3 active torsions:
REMARK  status: ('A' for Active; 'I' for Inactive)
REMARK    1  A    between atoms: C9_10  and  C10_11 
REMARK    2  A    between atoms: C10_11  and  O3_13 
REMARK    3  A    between atoms: O3_13  and  C11_14 
ROOT
HETATM    1  C1  UNL     1      -0.799  -0.698   2.379  1.00  0.00     0.044 C 
HETATM    2  C2  UNL     1      -1.499  -0.841   1.088  1.00  0.00    -0.066 C 
HETATM    3  C3  UNL     1      -2.730  -1.332   1.096  1.00  0.00     0.053 C 
HETATM    4  C4  UNL     1      -3.406  -1.467  -0.191  1.00  0.00     0.150 C 
HETATM    5  O1  UNL     1      -4.237  -2.378  -0.366  1.00  0.00    -0.293 OA
HETATM    6  C5  UNL     1      -3.117  -0.525  -1.302  1.00  0.00     0.093 C 
HETATM    7  C6  UNL     1      -1.928   0.371  -0.951  1.00  0.00    -0.025 C 
HETATM    8  C7  UNL     1      -1.410   1.006  -2.201  1.00  0.00     0.016 C 
HETATM    9  C8  UNL     1      -2.379   1.508  -0.027  1.00  0.00     0.016 C 
HETATM   10  C9  UNL     1      -0.953  -0.489  -0.222  1.00  0.00     0.122 C 
ENDROOT
BRANCH  10  11
HETATM   11  C10 UNL     1       0.412   0.031  -0.208  1.00  0.00     0.268 C 
HETATM   12  O2  UNL     1       0.598   1.195  -0.641  1.00  0.00    -0.264 OA
BRANCH  11  13
HETATM   13  O3  UNL     1       1.532  -0.644   0.243  1.00  0.00    -0.311 OA
BRANCH  13  14
HETATM   14  C11 UNL     1       2.811  -0.069   0.222  1.00  0.00     0.060 C 
HETATM   15  C12 UNL     1       3.772  -1.114   0.794  1.00  0.00     0.045 C 
HETATM   16  C13 UNL     1       3.267   0.190  -1.213  1.00  0.00     0.045 C 
HETATM   17  C14 UNL     1       2.937   1.155   1.066  1.00  0.00     0.045 C 
ENDBRANCH  13  14
ENDBRANCH  11  13
ENDBRANCH  10  11
TORSDOF 3
