REMARK  2 active torsions:
REMARK  status: ('A' for Active; 'I' for Inactive)
REMARK    1  A    between atoms: C3_6  and  O1_7 
REMARK    2  A    between atoms: O1_7  and  C4_8 
ROOT
HETATM    1  C1  UNL     1      -2.935  -0.465  -1.420  1.00  0.00     0.152 C 
HETATM    2  N1  UNL     1      -2.168   0.530  -0.657  1.00  0.00    -0.359 N 
HETATM    3  C2  UNL     1      -2.086   1.927  -0.925  1.00  0.00     0.139 C 
HETATM    4  S1  UNL     1      -3.219   2.848  -1.611  1.00  0.00    -0.053 SA
HETATM    5  S2  UNL     1      -0.463   2.414  -0.338  1.00  0.00    -0.066 SA
HETATM    6  C3  UNL     1       0.021   0.739   0.289  1.00  0.00     0.218 C 
HETATM    7  C8  UNL     1      -1.377   0.210   0.502  1.00  0.00     0.061 C 
HETATM    8  C9  UNL     1      -1.900   0.960   1.740  1.00  0.00     0.041 C 
HETATM    9  C10 UNL     1      -1.441  -1.244   0.847  1.00  0.00     0.041 C 
ENDROOT
BRANCH   6  10
HETATM   10  O1  UNL     1       0.739   0.164  -0.703  1.00  0.00    -0.363 OA
BRANCH  10  11
HETATM   11  C4  UNL     1       2.008  -0.216  -0.365  1.00  0.00     0.051 C 
HETATM   12  C5  UNL     1       2.883   0.921   0.102  1.00  0.00     0.045 C 
HETATM   13  C6  UNL     1       2.710  -0.810  -1.589  1.00  0.00     0.045 C 
HETATM   14  C7  UNL     1       2.014  -1.274   0.694  1.00  0.00     0.045 C 
ENDBRANCH  10  11
ENDBRANCH   6  10
TORSDOF 2
