REMARK  3 active torsions:
REMARK  status: ('A' for Active; 'I' for Inactive)
REMARK    1  A    between atoms: C2_2  and  C4_4 
REMARK       I    between atoms: C4_4  and  N1_6 
REMARK    2  A    between atoms: N1_6  and  C5_8 
REMARK    3  A    between atoms: C8_12  and  C9_13 
ROOT
HETATM    1  C5  UNL     1       0.920  -0.225  -1.071  1.00  0.00     0.194 A 
HETATM    2  O2  UNL     1       0.335   0.774  -0.508  1.00  0.00    -0.291 OA
HETATM    3  C6  UNL     1      -0.770   0.646   0.084  1.00  0.00     0.066 A 
HETATM    4  C7  UNL     1      -1.472   1.818   0.753  1.00  0.00     0.078 C 
HETATM    5  C8  UNL     1      -1.352  -0.587   0.122  1.00  0.00     0.024 A 
HETATM    6  S1  UNL     1      -0.189  -1.494  -0.745  1.00  0.00    -0.048 SA
ENDROOT
BRANCH   1   7
HETATM    7  N1  UNL     1       2.061  -0.266  -1.723  1.00  0.00    -0.297 N 
HETATM    8  C4  UNL     1       2.861   0.864  -1.909  1.00  0.00     0.252 C 
HETATM    9  O1  UNL     1       2.380   1.880  -2.457  1.00  0.00    -0.268 OA
ATOM     10  H1  UNL     1       2.374  -1.157  -2.108  1.00  0.00     0.171 HD
BRANCH   8  11
HETATM   11  C2  UNL     1       4.252   0.830  -1.455  1.00  0.00    -0.003 C 
HETATM   12  C1  UNL     1       4.741  -0.244  -0.883  1.00  0.00     0.024 C 
HETATM   13  C3  UNL     1       5.099   2.043  -1.656  1.00  0.00     0.053 C 
ENDBRANCH   8  11
ENDBRANCH   1   7
BRANCH   5  14
HETATM   14  C9  UNL     1      -2.589  -1.108   0.696  1.00  0.00    -0.015 C 
HETATM   15  C10 UNL     1      -2.668  -2.589   0.392  1.00  0.00     0.020 C 
HETATM   16  C11 UNL     1      -2.523  -1.019   2.228  1.00  0.00     0.020 C 
HETATM   17  C12 UNL     1      -3.843  -0.469   0.272  1.00  0.00     0.020 C 
ENDBRANCH   5  14
TORSDOF 3
