REMARK  3 active torsions:
REMARK  status: ('A' for Active; 'I' for Inactive)
REMARK    1  A    between atoms: C4_5  and  C5_6 
REMARK       I    between atoms: N1_7  and  C6_9 
REMARK    2  A    between atoms: C6_9  and  O2_11 
REMARK    3  A    between atoms: O2_11  and  C7_12 
ROOT
HETATM    1  C5  UNL     1       0.998  -1.924   0.367  1.00  0.00     0.130 C 
HETATM    2  N1  UNL     1      -0.233  -2.110   0.200  1.00  0.00    -0.310 N 
ATOM      3  H1  UNL     1      -0.562  -3.018   0.527  1.00  0.00     0.170 HD
HETATM    4  C6  UNL     1      -1.234  -1.309  -0.348  1.00  0.00     0.365 C 
HETATM    5  O1  UNL     1      -1.409  -1.094  -1.586  1.00  0.00    -0.238 OA
ENDROOT
BRANCH   1   6
HETATM    6  C4  UNL     1       1.677  -0.693  -0.030  1.00  0.00     0.091 A 
HETATM    7  S1  UNL     1       1.012   0.691  -0.762  1.00  0.00    -0.081 SA
HETATM    8  C3  UNL     1       2.432   1.624  -0.881  1.00  0.00     0.076 A 
HETATM    9  C2  UNL     1       3.368   0.789  -0.331  1.00  0.00     0.014 A 
HETATM   10  C1  UNL     1       4.813   1.260  -0.245  1.00  0.00     0.069 C 
HETATM   11  N2  UNL     1       2.974  -0.377   0.094  1.00  0.00    -0.348 N 
HETATM   12  C11 UNL     1       3.902  -1.373   0.710  1.00  0.00     0.156 C 
ENDBRANCH   1   6
BRANCH   4  13
HETATM   13  O2  UNL     1      -2.122  -0.689   0.505  1.00  0.00    -0.294 OA
BRANCH  13  14
HETATM   14  C7  UNL     1      -3.186   0.137   0.166  1.00  0.00     0.061 C 
HETATM   15  C8  UNL     1      -2.844   1.378  -0.587  1.00  0.00     0.046 C 
HETATM   16  C9  UNL     1      -4.271  -0.634  -0.571  1.00  0.00     0.046 C 
HETATM   17  C10 UNL     1      -3.836   0.580   1.486  1.00  0.00     0.046 C 
ENDBRANCH  13  14
ENDBRANCH   4  13
TORSDOF 3
