REMARK  8 active torsions:
REMARK  status: ('A' for Active; 'I' for Inactive)
REMARK    1  A    between atoms: C2_2  and  S1_3 
REMARK    2  A    between atoms: S1_3  and  C3_4 
REMARK    3  A    between atoms: C3_4  and  N4_15 
REMARK    4  A    between atoms: N1_5  and  C4_7 
REMARK    5  A    between atoms: C4_7  and  N2_9 
REMARK    6  A    between atoms: N2_9  and  C6_11 
REMARK    7  A    between atoms: C6_11  and  C7_12 
REMARK    8  A    between atoms: N4_15  and  C9_17 
ROOT
HETATM    1  C7  UNL     1       5.020   0.658  -0.965  1.00  0.00     0.143 C 
HETATM    2  C8  UNL     1       4.446   1.966  -0.828  1.00  0.00     0.060 C 
HETATM    3  N3  UNL     1       4.009   3.027  -0.722  1.00  0.00    -0.197 NA
ENDROOT
BRANCH   1   4
HETATM    4  C6  UNL     1       4.610  -0.360   0.042  1.00  0.00     0.139 C 
BRANCH   4   5
HETATM    5  N2  UNL     1       3.216  -0.689   0.087  1.00  0.00    -0.361 N 
HETATM    6  C5  UNL     1       2.649  -1.387  -1.063  1.00  0.00     0.152 C 
BRANCH   5   7
HETATM    7  C4  UNL     1       2.386  -0.413   1.210  1.00  0.00     0.175 C 
HETATM    8  S2  UNL     1       3.113   0.387   2.463  1.00  0.00    -0.041 SA
BRANCH   7   9
HETATM    9  N1  UNL     1       1.085  -0.765   1.314  1.00  0.00    -0.314 N 
HETATM   10  C3  UNL     1      -0.083  -0.386   1.227  1.00  0.00     0.142 C 
ATOM     11  H1  UNL     1       1.061  -1.752   1.570  1.00  0.00     0.170 HD
BRANCH  10  12
HETATM   12  S1  UNL     1      -0.734   1.201   0.822  1.00  0.00    -0.095 SA
BRANCH  12  13
HETATM   13  C2  UNL     1       0.516   2.429   0.509  1.00  0.00     0.078 C 
HETATM   14  C1  UNL     1      -0.114   3.761   0.147  1.00  0.00     0.016 C 
ENDBRANCH  12  13
ENDBRANCH  10  12
BRANCH  10  15
HETATM   15  N4  UNL     1      -1.090  -1.414   1.491  1.00  0.00    -0.366 N 
ATOM     16  H4  UNL     1      -0.901  -2.074   2.245  1.00  0.00     0.162 HD
BRANCH  15  17
HETATM   17  C9  UNL     1      -2.306  -1.566   0.783  1.00  0.00     0.083 C 
HETATM   18  C10 UNL     1      -2.019  -1.524  -0.686  1.00  0.00     0.025 C 
HETATM   19  C11 UNL     1      -3.057  -0.795  -1.488  1.00  0.00     0.002 C 
HETATM   20  C12 UNL     1      -4.452  -1.021  -0.994  1.00  0.00     0.000 C 
HETATM   21  C13 UNL     1      -4.654  -0.751   0.453  1.00  0.00     0.002 C 
HETATM   22  C14 UNL     1      -3.401  -0.717   1.285  1.00  0.00     0.025 C 
ENDBRANCH  15  17
ENDBRANCH  10  15
ENDBRANCH   7   9
ENDBRANCH   5   7
ENDBRANCH   4   5
ENDBRANCH   1   4
TORSDOF 8
