REMARK  5 active torsions:
REMARK  status: ('A' for Active; 'I' for Inactive)
REMARK    1  A    between atoms: C2_2  and  O1_4 
REMARK    2  A    between atoms: C2_2  and  C4_6 
REMARK    3  A    between atoms: C4_6  and  C5_7 
REMARK    4  A    between atoms: C4_6  and  N1_14 
REMARK    5  A    between atoms: C5_7  and  C6_8 
ROOT
HETATM    1  C4  UNL     1      -0.456  -1.216   0.488  1.00  0.00     0.113 C 
ENDROOT
BRANCH   1   2
HETATM    2  C2  UNL     1      -0.309  -2.725   0.648  1.00  0.00     0.071 C 
HETATM    3  C1  UNL     1      -1.709  -3.233   1.031  1.00  0.00     0.047 C 
HETATM    4  C3  UNL     1       0.105  -3.426  -0.593  1.00  0.00     0.047 C 
BRANCH   2   5
HETATM    5  O1  UNL     1       0.510  -3.047   1.704  1.00  0.00    -0.389 OA
ATOM      6  H1  UNL     1       1.375  -2.733   1.467  1.00  0.00     0.210 HD
ENDBRANCH   2   5
ENDBRANCH   1   2
BRANCH   1   7
HETATM    7  C5  UNL     1      -1.616  -0.865  -0.363  1.00  0.00     0.032 C 
BRANCH   7   8
HETATM    8  C6  UNL     1      -1.841   0.611  -0.570  1.00  0.00    -0.013 C 
HETATM    9  C7  UNL     1      -2.083   1.353   0.671  1.00  0.00     0.005 C 
HETATM   10  C8  UNL     1      -3.492   1.814   0.907  1.00  0.00     0.000 C 
HETATM   11  C9  UNL     1      -3.882   2.638  -0.314  1.00  0.00     0.000 C 
HETATM   12  C10 UNL     1      -3.998   1.650  -1.430  1.00  0.00     0.000 C 
HETATM   13  C11 UNL     1      -2.813   0.806  -1.684  1.00  0.00     0.005 C 
ENDBRANCH   7   8
ENDBRANCH   1   7
BRANCH   1  14
HETATM   14  N1  UNL     1       0.737  -0.515   0.241  1.00  0.00    -0.405 N 
HETATM   15  C12 UNL     1       1.715  -0.570   1.287  1.00  0.00     0.122 C 
HETATM   16  C13 UNL     1       2.661   0.604   1.256  1.00  0.00     0.088 C 
HETATM   17  C14 UNL     1       3.095   0.992  -0.117  1.00  0.00     0.167 C 
HETATM   18  C15 UNL     1       2.203   0.595  -1.225  1.00  0.00     0.088 C 
HETATM   19  O2  UNL     1       4.371   0.499  -0.384  1.00  0.00    -0.353 OA
HETATM   20  O3  UNL     1       3.195   2.401  -0.148  1.00  0.00    -0.353 OA
HETATM   21  C16 UNL     1       1.383  -0.655  -1.007  1.00  0.00     0.122 C 
HETATM   22  C17 UNL     1       5.198   1.428   0.205  1.00  0.00     0.197 C 
HETATM   23  C18 UNL     1       4.523   2.727  -0.137  1.00  0.00     0.197 C 
ENDBRANCH   1  14
TORSDOF 5
