REMARK  4 active torsions:
REMARK  status: ('A' for Active; 'I' for Inactive)
REMARK    1  A    between atoms: C2_2  and  C3_3 
REMARK    2  A    between atoms: C3_3  and  C4_4 
REMARK    3  A    between atoms: C3_3  and  C6_6 
REMARK       I    between atoms: C6_6  and  N1_8 
REMARK    4  A    between atoms: C8_15  and  C9_16 
ROOT
HETATM    1  C6  UNL     1       3.605  -1.056  -0.397  1.00  0.00     0.227 C 
HETATM    2  O1  UNL     1       3.593  -1.631  -1.540  1.00  0.00    -0.273 OA
HETATM    3  N1  UNL     1       2.454  -0.790   0.308  1.00  0.00    -0.306 N 
ATOM      4  H1  UNL     1       2.526  -0.831   1.325  1.00  0.00     0.171 HD
HETATM    5  C7  UNL     1       1.283  -0.492  -0.178  1.00  0.00     0.167 A 
HETATM    6  N2  UNL     1       0.856  -0.351  -1.432  1.00  0.00    -0.279 N 
ATOM      7  H2  UNL     1       1.511  -0.420  -2.211  1.00  0.00     0.189 HD
HETATM    8  N3  UNL     1      -0.379  -0.129  -1.646  1.00  0.00    -0.295 N 
ATOM      9  H3  UNL     1      -0.715  -0.020  -2.603  1.00  0.00     0.187 HD
HETATM   10  C8  UNL     1      -1.219  -0.040  -0.651  1.00  0.00     0.079 A 
HETATM   11  S1  UNL     1      -0.200  -0.285   0.696  1.00  0.00    -0.037 SA
ENDROOT
BRANCH   1  12
HETATM   12  C3  UNL     1       4.962  -0.701   0.105  1.00  0.00     0.077 C 
BRANCH  12  13
HETATM   13  C2  UNL     1       4.991  -0.188   1.496  1.00  0.00     0.009 C 
HETATM   14  C1  UNL     1       4.526  -1.194   2.474  1.00  0.00     0.006 C 
ENDBRANCH  12  13
BRANCH  12  15
HETATM   15  C4  UNL     1       5.495   0.294  -0.920  1.00  0.00     0.009 C 
HETATM   16  C5  UNL     1       4.698   1.539  -0.944  1.00  0.00     0.006 C 
ENDBRANCH  12  15
ENDBRANCH   1  12
BRANCH  10  17
HETATM   17  C9  UNL     1      -2.690   0.152  -0.611  1.00  0.00     0.015 C 
HETATM   18  C10 UNL     1      -3.354  -1.153  -0.208  1.00  0.00     0.021 C 
HETATM   19  C11 UNL     1      -4.758  -0.903   0.208  1.00  0.00    -0.013 C 
HETATM   20  C12 UNL     1      -4.748  -0.237   1.569  1.00  0.00     0.005 C 
HETATM   21  C16 UNL     1      -5.400   0.129  -0.736  1.00  0.00     0.010 C 
HETATM   22  C13 UNL     1      -3.857   0.959   1.500  1.00  0.00     0.006 C 
HETATM   23  C14 UNL     1      -3.304   1.257   0.137  1.00  0.00     0.005 C 
HETATM   24  C15 UNL     1      -4.410   1.229  -0.928  1.00  0.00    -0.008 C 
HETATM   25  C17 UNL     1      -3.286   0.712  -1.860  1.00  0.00     0.021 C 
ENDBRANCH  10  17
TORSDOF 4
