REMARK  11 active torsions:
REMARK  status: ('A' for Active; 'I' for Inactive)
REMARK    1  A    between atoms: C2_2  and  C3_3 
REMARK    2  A    between atoms: C3_3  and  C4_4 
REMARK    3  A    between atoms: C4_4  and  C5_5 
REMARK    4  A    between atoms: C5_5  and  C6_6 
REMARK    5  A    between atoms: C7_7  and  C8_8 
REMARK    6  A    between atoms: C9_9  and  C10_10 
REMARK    7  A    between atoms: C11_11  and  C12_12 
REMARK    8  A    between atoms: C17_17  and  C18_18 
REMARK    9  A    between atoms: C19_19  and  C20_20 
REMARK   10  A    between atoms: C20_20  and  O2_22 
REMARK   11  A    between atoms: C22_24  and  S1_25 
ROOT
HETATM    1  C12 UNL     1       0.902   1.121   0.891  1.00  0.00     0.074 C 
HETATM    2  C13 UNL     1       1.802   0.792   0.017  1.00  0.00    -0.028 C 
HETATM    3  C14 UNL     1       1.480   0.890  -1.441  1.00  0.00     0.041 C 
HETATM    4  C15 UNL     1       2.159  -0.175  -2.226  1.00  0.00     0.009 C 
HETATM    5  C16 UNL     1       2.792  -1.268  -1.386  1.00  0.00     0.040 C 
HETATM    6  C17 UNL     1       3.628  -0.714  -0.297  1.00  0.00    -0.036 C 
HETATM    7  C22 UNL     1       3.119   0.329   0.409  1.00  0.00     0.072 C 
ENDROOT
BRANCH   1   8
HETATM    8  C11 UNL     1      -0.389   1.581   0.472  1.00  0.00    -0.064 C 
HETATM    9  C10 UNL     1      -1.463   1.986   0.116  1.00  0.00    -0.010 C 
BRANCH   9  10
HETATM   10  C9  UNL     1      -2.714   2.483  -0.309  1.00  0.00    -0.010 C 
HETATM   11  C8  UNL     1      -3.791   2.898  -0.658  1.00  0.00    -0.065 C 
BRANCH  11  12
HETATM   12  C7  UNL     1      -5.079   3.396  -1.053  1.00  0.00     0.061 C 
HETATM   13  C6  UNL     1      -6.031   2.568  -1.434  1.00  0.00    -0.018 C 
BRANCH  13  14
HETATM   14  C5  UNL     1      -5.768   1.097  -1.456  1.00  0.00     0.028 C 
BRANCH  14  15
HETATM   15  C4  UNL     1      -6.746   0.457  -0.527  1.00  0.00     0.004 C 
BRANCH  15  16
HETATM   16  C3  UNL     1      -6.576  -1.052  -0.464  1.00  0.00    -0.000 C 
BRANCH  16  17
HETATM   17  C2  UNL     1      -7.611  -1.636   0.507  1.00  0.00    -0.005 C 
HETATM   18  C1  UNL     1      -7.391  -1.032   1.891  1.00  0.00     0.005 C 
ENDBRANCH  16  17
ENDBRANCH  15  16
ENDBRANCH  14  15
ENDBRANCH  13  14
ENDBRANCH  11  12
ENDBRANCH   9  10
ENDBRANCH   1   8
BRANCH   7  19
HETATM   19  S1  UNL     1       4.025   1.057   1.667  1.00  0.00     0.172 S 
HETATM   20  C23 UNL     1       5.243   2.214   1.026  1.00  0.00     0.167 C 
HETATM   21  O3  UNL     1       3.093   1.960   2.487  1.00  0.00    -0.223 OA
HETATM   22  O4  UNL     1       4.639   0.137   2.646  1.00  0.00    -0.223 OA
ENDBRANCH   7  19
BRANCH   6  23
HETATM   23  C18 UNL     1       4.930  -1.251  -0.035  1.00  0.00     0.014 C 
HETATM   24  C19 UNL     1       5.436  -2.258  -0.687  1.00  0.00     0.082 C 
BRANCH  24  25
HETATM   25  C20 UNL     1       6.781  -2.786  -0.393  1.00  0.00     0.282 C 
HETATM   26  O1  UNL     1       7.282  -3.755  -1.011  1.00  0.00    -0.260 OA
BRANCH  25  27
HETATM   27  O2  UNL     1       7.531  -2.193   0.607  1.00  0.00    -0.323 OA
HETATM   28  C21 UNL     1       8.823  -2.675   0.911  1.00  0.00     0.213 C 
ENDBRANCH  25  27
ENDBRANCH  24  25
ENDBRANCH   6  23
TORSDOF 11
