REMARK  7 active torsions:
REMARK  status: ('A' for Active; 'I' for Inactive)
REMARK    1  A    between atoms: C2_2  and  C3_3 
REMARK    2  A    between atoms: C3_3  and  O1_4 
REMARK    3  A    between atoms: O1_4  and  C4_5 
REMARK    4  A    between atoms: C4_5  and  C5_6 
REMARK    5  A    between atoms: C5_6  and  C6_7 
REMARK    6  A    between atoms: C6_7  and  N1_8 
REMARK    7  A    between atoms: C12_16  and  C13_17 
ROOT
HETATM    1  C4  UNL     1      -1.026   0.698  -0.477  1.00  0.00     0.195 C 
HETATM    2  O2  UNL     1      -0.658   1.156  -1.766  1.00  0.00    -0.322 OA
HETATM    3  C10 UNL     1       0.447   0.436  -2.154  1.00  0.00     0.272 C 
HETATM    4  O3  UNL     1       0.402  -0.743  -1.390  1.00  0.00    -0.349 OA
HETATM    5  C11 UNL     1       0.213  -0.117  -0.131  1.00  0.00     0.197 C 
HETATM    6  C12 UNL     1       1.367   0.811  -0.042  1.00  0.00     0.073 C 
HETATM    7  C21 UNL     1       1.667   1.097  -1.497  1.00  0.00     0.013 C 
HETATM    8  C22 UNL     1       1.700   2.576  -1.788  1.00  0.00     0.020 C 
HETATM    9  C23 UNL     1       2.888   0.419  -2.021  1.00  0.00     0.020 C 
ENDROOT
BRANCH   1  10
HETATM   10  O1  UNL     1      -1.223   1.736   0.394  1.00  0.00    -0.349 OA
BRANCH  10  11
HETATM   11  C3  UNL     1      -2.210   2.614   0.017  1.00  0.00     0.198 C 
BRANCH  11  12
HETATM   12  C2  UNL     1      -2.387   3.719   0.977  1.00  0.00    -0.011 C 
HETATM   13  C1  UNL     1      -2.216   4.965   0.589  1.00  0.00     0.009 C 
ENDBRANCH  11  12
ENDBRANCH  10  11
ENDBRANCH   1  10
BRANCH   1  14
HETATM   14  C5  UNL     1      -2.216  -0.200  -0.682  1.00  0.00     0.099 C 
BRANCH  14  15
HETATM   15  C6  UNL     1      -2.683  -0.853   0.577  1.00  0.00     0.241 C 
BRANCH  15  16
HETATM   16  N1  UNL     1      -3.819  -1.691   0.292  1.00  0.00    -0.078 N 
HETATM   17  C7  UNL     1      -4.702  -1.671   1.442  1.00  0.00     0.271 C 
HETATM   18  C8  UNL     1      -4.575  -1.258  -0.855  1.00  0.00     0.271 C 
HETATM   19  C9  UNL     1      -3.420  -3.078   0.050  1.00  0.00     0.271 C 
ENDBRANCH  15  16
ENDBRANCH  14  15
ENDBRANCH   1  14
BRANCH   6  20
HETATM   20  C13 UNL     1       2.515   0.192   0.674  1.00  0.00    -0.008 A 
HETATM   21  C14 UNL     1       3.054  -1.062   0.553  1.00  0.00     0.027 A 
HETATM   22  C15 UNL     1       4.107  -1.362   1.331  1.00  0.00    -0.018 A 
HETATM   23  C16 UNL     1       4.812  -2.579   1.373  1.00  0.00     0.013 A 
HETATM   24  C20 UNL     1       4.556  -0.391   2.182  1.00  0.00     0.015 A 
HETATM   25  C17 UNL     1       5.868  -2.776   2.203  1.00  0.00     0.001 A 
HETATM   26  C18 UNL     1       6.319  -1.799   3.057  1.00  0.00     0.001 A 
HETATM   27  C19 UNL     1       5.649  -0.596   3.039  1.00  0.00     0.019 A 
HETATM   28  S1  UNL     1       3.494   0.911   1.868  1.00  0.00    -0.094 SA
ENDBRANCH   6  20
TORSDOF 7
