REMARK  6 active torsions:
REMARK  status: ('A' for Active; 'I' for Inactive)
REMARK    1  A    between atoms: O1_2  and  C2_3 
REMARK    2  A    between atoms: C2_3  and  O2_4 
REMARK    3  A    between atoms: C11_14  and  O4_15 
REMARK    4  A    between atoms: C18_23  and  C19_24 
REMARK    5  A    between atoms: C22_27  and  O5_28 
REMARK    6  A    between atoms: C24_30  and  O6_31 
ROOT
HETATM    1  C2  UNL     1      -1.224   2.115   0.163  1.00  0.00     0.199 C 
HETATM    2  C4  UNL     1      -0.176   1.820   1.209  1.00  0.00     0.084 C 
HETATM    3  C5  UNL     1       0.158   0.354   1.070  1.00  0.00     0.059 C 
HETATM    4  C6  UNL     1       1.360   0.264   0.214  1.00  0.00    -0.053 C 
HETATM    5  C7  UNL     1       2.420  -0.630   0.732  1.00  0.00     0.004 A 
HETATM    6  C8  UNL     1       2.540  -1.496   1.717  1.00  0.00     0.147 A 
HETATM    7  O3  UNL     1       3.823  -1.811   1.415  1.00  0.00    -0.344 OA
HETATM    8  C9  UNL     1       3.812  -0.901   0.370  1.00  0.00     0.118 A 
HETATM    9  C10 UNL     1       4.747   0.286   0.525  1.00  0.00     0.055 C 
HETATM   10  C11 UNL     1       3.987  -1.583  -0.977  1.00  0.00     0.157 C 
HETATM   11  C12 UNL     1       3.280  -0.675  -1.969  1.00  0.00     0.036 C 
HETATM   12  C13 UNL     1       1.779  -0.921  -1.879  1.00  0.00     0.017 C 
HETATM   13  C14 UNL     1       1.084   0.256  -1.235  1.00  0.00    -0.013 C 
HETATM   14  C15 UNL     1       1.733   1.446  -1.989  1.00  0.00     0.021 C 
HETATM   15  C16 UNL     1      -0.359   0.364  -1.526  1.00  0.00     0.042 C 
HETATM   16  C17 UNL     1      -0.911  -1.062  -1.648  1.00  0.00     0.017 C 
HETATM   17  C18 UNL     1      -1.054  -1.482  -0.148  1.00  0.00     0.028 C 
HETATM   18  C22 UNL     1      -1.160  -0.229   0.558  1.00  0.00     0.108 C 
HETATM   19  C24 UNL     1      -1.357   0.812  -0.568  1.00  0.00     0.153 C 
ENDROOT
BRANCH   1  20
HETATM   20  O1  UNL     1      -0.976   3.165  -0.619  1.00  0.00    -0.357 OA
HETATM   21  C1  UNL     1      -0.794   4.420  -0.238  1.00  0.00     0.205 C 
ENDBRANCH   1  20
BRANCH   1  22
HETATM   22  O2  UNL     1      -2.378   2.239   0.884  1.00  0.00    -0.357 OA
HETATM   23  C3  UNL     1      -2.622   3.206   1.754  1.00  0.00     0.205 C 
ENDBRANCH   1  22
BRANCH  19  24
HETATM   24  O6  UNL     1      -2.500   0.696  -1.285  1.00  0.00    -0.376 OA
HETATM   25  C25 UNL     1      -3.724   0.842  -0.796  1.00  0.00     0.203 C 
ENDBRANCH  19  24
BRANCH  18  26
HETATM   26  O5  UNL     1      -2.061  -0.019   1.545  1.00  0.00    -0.381 OA
HETATM   27  C23 UNL     1      -1.884  -0.412   2.811  1.00  0.00     0.202 C 
ENDBRANCH  18  26
BRANCH  17  28
HETATM   28  C19 UNL     1      -1.846  -2.685  -0.082  1.00  0.00    -0.016 C 
HETATM   29  C20 UNL     1      -3.232  -2.851  -0.507  1.00  0.00     0.010 C 
HETATM   30  C21 UNL     1      -1.612  -3.613   1.087  1.00  0.00     0.010 C 
ENDBRANCH  17  28
BRANCH  10  31
HETATM   31  O4  UNL     1       3.389  -2.814  -1.007  1.00  0.00    -0.392 OA
ATOM     32  H4  UNL     1       3.498  -3.240  -1.849  1.00  0.00     0.210 HD
ENDBRANCH  10  31
TORSDOF 6
