REMARK  5 active torsions:
REMARK  status: ('A' for Active; 'I' for Inactive)
REMARK    1  A    between atoms: C7_7  and  O1_8 
REMARK    2  A    between atoms: O1_8  and  S1_9 
REMARK    3  A    between atoms: S1_9  and  N1_12 
REMARK    4  A    between atoms: N1_12  and  S2_14 
REMARK    5  A    between atoms: S2_14  and  C8_17 
ROOT
HETATM    1  C1  UNL     1      -0.786   0.990   2.633  1.00  0.00     0.054 C 
HETATM    2  C2  UNL     1      -1.108   0.333   1.328  1.00  0.00     0.007 A 
HETATM    3  C3  UNL     1      -2.371   0.540   0.790  1.00  0.00     0.085 A 
HETATM    4  C4  UNL     1      -2.739  -0.031  -0.407  1.00  0.00    -0.017 A 
HETATM    5  C5  UNL     1      -1.803  -0.812  -1.040  1.00  0.00    -0.040 A 
HETATM    6  C6  UNL     1      -0.540  -1.020  -0.503  1.00  0.00    -0.016 A 
HETATM    7  C7  UNL     1      -0.168  -0.450   0.694  1.00  0.00     0.106 A 
HETATM    8  C11 UNL     1       0.380  -1.885  -1.286  1.00  0.00     0.042 C 
HETATM    9  C12 UNL     1      -0.311  -3.176  -1.712  1.00  0.00     0.005 C 
HETATM   10  C13 UNL     1      -1.727  -2.957  -2.138  1.00  0.00     0.005 C 
HETATM   11  C14 UNL     1      -2.064  -1.491  -2.339  1.00  0.00     0.040 C 
HETATM   12  C15 UNL     1      -4.069   0.152  -1.032  1.00  0.00     0.045 C 
HETATM   13  C16 UNL     1      -5.056   0.792  -0.081  1.00  0.00     0.042 C 
HETATM   14  C17 UNL     1      -4.417   1.898   0.725  1.00  0.00     0.061 C 
HETATM   15  C18 UNL     1      -3.917   2.968  -0.188  1.00  0.00     0.046 C 
HETATM   16  C19 UNL     1      -5.430   2.398   1.730  1.00  0.00     0.046 C 
HETATM   17  O6  UNL     1      -3.328   1.338   1.435  1.00  0.00    -0.340 OA
ENDROOT
BRANCH   7  18
HETATM   18  O1  UNL     1       1.096  -0.664   1.221  1.00  0.00    -0.215 OA
BRANCH  18  19
HETATM   19  S1  UNL     1       2.417   0.351   0.867  1.00  0.00     0.375 S 
HETATM   20  O2  UNL     1       2.019   1.785   1.079  1.00  0.00    -0.174 OA
HETATM   21  O3  UNL     1       2.879   0.209  -0.531  1.00  0.00    -0.174 OA
BRANCH  19  22
HETATM   22  N1  UNL     1       3.688  -0.022   1.941  1.00  0.00    -0.188 N 
ATOM     23  H1  UNL     1       3.804   0.392   2.866  1.00  0.00     0.193 HD
BRANCH  22  24
HETATM   24  S2  UNL     1       4.737  -1.177   1.264  1.00  0.00     0.244 S 
HETATM   25  O4  UNL     1       3.986  -1.937   0.182  1.00  0.00    -0.205 OA
HETATM   26  O5  UNL     1       5.126  -2.140   2.370  1.00  0.00    -0.205 OA
BRANCH  24  27
HETATM   27  C8  UNL     1       6.204  -0.544   0.562  1.00  0.00     0.122 C 
HETATM   28  C9  UNL     1       7.127   0.090   1.578  1.00  0.00     0.027 C 
HETATM   29  C10 UNL     1       6.026   0.416  -0.565  1.00  0.00     0.027 C 
ENDBRANCH  24  27
ENDBRANCH  22  24
ENDBRANCH  19  22
ENDBRANCH  18  19
ENDBRANCH   7  18
TORSDOF 5
