REMARK  9 active torsions:
REMARK  status: ('A' for Active; 'I' for Inactive)
REMARK    1  A    between atoms: C2_3  and  C3_4 
REMARK    2  A    between atoms: C3_4  and  O1_5 
REMARK    3  A    between atoms: C3_4  and  C12_18 
REMARK    4  A    between atoms: O1_5  and  C4_6 
REMARK    5  A    between atoms: C4_6  and  C5_8 
REMARK    6  A    between atoms: C5_8  and  O3_9 
REMARK    7  A    between atoms: C5_8  and  N2_11 
REMARK       I    between atoms: C12_18  and  N3_20 
REMARK    8  A    between atoms: N3_20  and  C13_22 
REMARK    9  A    between atoms: C14_25  and  C15_26 
ROOT
HETATM    1  N1  UNL     1      -2.948   2.384  -3.479  1.00  0.00    -0.197 NA
HETATM    2  C1  UNL     1      -2.135   1.643  -3.833  1.00  0.00     0.062 C 
HETATM    3  C2  UNL     1      -1.093   0.713  -4.264  1.00  0.00     0.166 C 
ENDROOT
BRANCH   3   4
HETATM    4  C3  UNL     1      -0.670  -0.100  -3.055  1.00  0.00     0.237 C 
BRANCH   4   5
HETATM    5  O1  UNL     1      -1.754  -0.804  -2.546  1.00  0.00    -0.299 OA
BRANCH   5   6
HETATM    6  C4  UNL     1      -2.287  -0.581  -1.266  1.00  0.00     0.335 C 
HETATM    7  O2  UNL     1      -1.719   0.296  -0.611  1.00  0.00    -0.255 OA
BRANCH   6   8
HETATM    8  C5  UNL     1      -3.415  -1.335  -0.778  1.00  0.00     0.215 C 
BRANCH   8   9
HETATM    9  O3  UNL     1      -3.923  -2.213  -1.611  1.00  0.00    -0.342 OA
ATOM     10  H3  UNL     1      -4.666  -2.710  -1.289  1.00  0.00     0.219 HD
ENDBRANCH   8   9
BRANCH   8  11
HETATM   11  N2  UNL     1      -4.065  -1.283   0.449  1.00  0.00    -0.357 N 
HETATM   12  C6  UNL     1      -3.605  -0.409   1.477  1.00  0.00     0.125 C 
HETATM   13  C7  UNL     1      -4.473   0.819   1.614  1.00  0.00     0.020 C 
HETATM   14  C8  UNL     1      -5.595   0.570   2.553  1.00  0.00     0.002 C 
HETATM   15  C9  UNL     1      -6.203  -0.781   2.440  1.00  0.00     0.002 C 
HETATM   16  C10 UNL     1      -6.426  -1.301   1.062  1.00  0.00     0.020 C 
HETATM   17  C11 UNL     1      -5.250  -2.151   0.590  1.00  0.00     0.125 C 
ENDBRANCH   8  11
ENDBRANCH   6   8
ENDBRANCH   5   6
ENDBRANCH   4   5
BRANCH   4  18
HETATM   18  C12 UNL     1       0.502  -0.959  -3.355  1.00  0.00     0.254 C 
HETATM   19  O4  UNL     1       0.375  -2.202  -3.113  1.00  0.00    -0.270 OA
HETATM   20  N3  UNL     1       1.712  -0.496  -3.875  1.00  0.00    -0.305 N 
ATOM     21  H3  UNL     1       1.803  -0.404  -4.887  1.00  0.00     0.171 HD
BRANCH  20  22
HETATM   22  C13 UNL     1       2.739  -0.173  -3.122  1.00  0.00     0.151 A 
HETATM   23  N4  UNL     1       2.850  -0.212  -1.792  1.00  0.00    -0.339 N 
HETATM   24  C14 UNL     1       3.979   0.161  -1.251  1.00  0.00     0.022 A 
ATOM     25  H4  UNL     1       2.072  -0.526  -1.212  1.00  0.00     0.168 HD
HETATM   26  C21 UNL     1       4.983   0.571  -2.097  1.00  0.00     0.078 A 
HETATM   27  S1  UNL     1       4.258   0.401  -3.627  1.00  0.00    -0.064 SA
BRANCH  24  28
HETATM   28  C15 UNL     1       4.182   0.136   0.266  1.00  0.00     0.036 C 
HETATM   29  C16 UNL     1       5.384  -0.674   0.608  1.00  0.00     0.011 C 
HETATM   30  C17 UNL     1       5.940  -0.278   1.960  1.00  0.00     0.001 C 
HETATM   31  C18 UNL     1       6.481   1.116   1.869  1.00  0.00     0.000 C 
HETATM   32  C19 UNL     1       5.681   2.032   1.005  1.00  0.00     0.001 C 
HETATM   33  C20 UNL     1       4.289   1.519   0.819  1.00  0.00     0.011 C 
ENDBRANCH  24  28
ENDBRANCH  20  22
ENDBRANCH   4  18
ENDBRANCH   3   4
TORSDOF 9
