REMARK  6 active torsions:
REMARK  status: ('A' for Active; 'I' for Inactive)
REMARK    1  A    between atoms: C2_2  and  O1_3 
REMARK    2  A    between atoms: O1_3  and  C3_4 
REMARK    3  A    between atoms: C3_4  and  O2_5 
REMARK    4  A    between atoms: C3_4  and  C5_7 
REMARK    5  A    between atoms: C5_7  and  N1_9 
REMARK       I    between atoms: N1_9  and  C7_11 
REMARK    6  A    between atoms: C7_11  and  C8_13 
ROOT
HETATM    1  C8  UNL     1      -0.060  -0.472  -1.352  1.00  0.00     0.145 C 
HETATM    2  C9  UNL     1      -0.393  -0.745  -2.837  1.00  0.00     0.057 C 
HETATM    3  O4  UNL     1      -0.377   0.812  -1.024  1.00  0.00    -0.340 OA
HETATM    4  C10 UNL     1      -0.974   0.895   0.220  1.00  0.00     0.270 C 
HETATM    5  O5  UNL     1      -1.939   1.668   0.531  1.00  0.00    -0.353 OA
HETATM    6  C11 UNL     1      -3.188   1.983   0.480  1.00  0.00     0.250 C 
HETATM    7  C12 UNL     1      -4.193   1.012   1.091  1.00  0.00     0.159 C 
HETATM    8  O6  UNL     1      -5.073   1.574   1.710  1.00  0.00    -0.295 OA
HETATM    9  C13 UNL     1      -4.468  -0.488   1.185  1.00  0.00     0.027 C 
HETATM   10  C14 UNL     1      -5.864  -0.809   0.697  1.00  0.00     0.024 C 
HETATM   11  C15 UNL     1      -4.150  -1.144   2.472  1.00  0.00     0.018 C 
HETATM   12  C16 UNL     1      -2.698  -1.673   2.348  1.00  0.00     0.007 C 
HETATM   13  C17 UNL     1      -2.346  -0.711   1.232  1.00  0.00     0.008 C 
HETATM   14  C18 UNL     1      -1.016  -0.579   0.719  1.00  0.00     0.017 C 
HETATM   15  C19 UNL     1      -0.002  -0.834   1.807  1.00  0.00     0.021 C 
HETATM   16  C20 UNL     1      -0.797  -1.438  -0.472  1.00  0.00     0.043 C 
HETATM   17  C21 UNL     1      -1.898  -2.206  -1.036  1.00  0.00     0.010 C 
HETATM   18  C22 UNL     1      -3.160  -2.357  -0.150  1.00  0.00     0.011 C 
HETATM   19  C23 UNL     1      -3.402  -0.974   0.257  1.00  0.00    -0.025 C 
HETATM   20  C24 UNL     1      -3.764  -0.286  -0.977  1.00  0.00     0.016 C 
ENDROOT
BRANCH   1  21
HETATM   21  C7  UNL     1       1.406  -0.643  -1.283  1.00  0.00     0.253 C 
HETATM   22  N1  UNL     1       2.351   0.377  -1.020  1.00  0.00    -0.349 N 
ATOM     23  H1  UNL     1       2.009   1.324  -0.860  1.00  0.00     0.163 HD
HETATM   24  O3  UNL     1       1.866  -1.815  -1.480  1.00  0.00    -0.270 OA
BRANCH  22  25
HETATM   25  C5  UNL     1       3.765   0.146  -0.967  1.00  0.00     0.135 C 
HETATM   26  C6  UNL     1       4.324   0.824  -2.240  1.00  0.00     0.037 C 
BRANCH  25  27
HETATM   27  C3  UNL     1       4.365   0.887   0.194  1.00  0.00     0.281 C 
BRANCH  27  28
HETATM   28  O1  UNL     1       5.742   0.666   0.290  1.00  0.00    -0.360 OA
BRANCH  28  29
HETATM   29  C2  UNL     1       6.468   1.816   0.099  1.00  0.00     0.166 C 
HETATM   30  C1  UNL     1       7.960   1.580   0.204  1.00  0.00     0.033 C 
ENDBRANCH  28  29
ENDBRANCH  27  28
BRANCH  27  31
HETATM   31  O2  UNL     1       3.721   0.703   1.391  1.00  0.00    -0.364 OA
HETATM   32  C4  UNL     1       3.225   1.882   1.938  1.00  0.00     0.204 C 
ENDBRANCH  27  31
ENDBRANCH  25  27
ENDBRANCH  22  25
ENDBRANCH   1  21
TORSDOF 6
