REMARK  13 active torsions:
REMARK  status: ('A' for Active; 'I' for Inactive)
REMARK    1  A    between atoms: C5_8  and  N2_9 
REMARK    2  A    between atoms: C6_10  and  C7_11 
REMARK    3  A    between atoms: C7_11  and  N3_12 
REMARK    4  A    between atoms: N3_12  and  C8_13 
REMARK    5  A    between atoms: N3_12  and  C13_19 
REMARK    6  A    between atoms: C8_13  and  C9_14 
REMARK    7  A    between atoms: C9_14  and  C10_15 
REMARK    8  A    between atoms: C10_15  and  N4_16 
REMARK    9  A    between atoms: C19_25  and  C20_26 
REMARK   10  A    between atoms: C20_26  and  O2_27 
REMARK   11  A    between atoms: C20_26  and  C21_29 
REMARK   12  A    between atoms: C21_29  and  N5_30 
REMARK   13  A    between atoms: N5_30  and  C22_33 
ROOT
HETATM    1  N2  UNL     1      -1.369  -1.819  -0.196  1.00  0.00    -0.351 N 
HETATM    2  C6  UNL     1      -0.423  -0.725  -0.544  1.00  0.00     0.121 C 
HETATM    3  C19 UNL     1      -1.349   0.353  -0.809  1.00  0.00     0.043 C 
HETATM    4  C25 UNL     1      -2.568   0.132   0.108  1.00  0.00     0.040 C 
HETATM    5  C26 UNL     1      -2.511  -1.317   0.493  1.00  0.00     0.035 C 
HETATM    6  C27 UNL     1      -2.441  -1.508   1.992  1.00  0.00     0.031 C 
HETATM    7  C28 UNL     1      -3.832  -1.374   2.572  1.00  0.00     0.002 C 
HETATM    8  C29 UNL     1      -4.608  -2.644   2.318  1.00  0.00     0.000 C 
HETATM    9  C30 UNL     1      -4.263  -3.085   0.915  1.00  0.00     0.002 C 
HETATM   10  C31 UNL     1      -3.830  -1.933   0.050  1.00  0.00     0.031 C 
ENDROOT
BRANCH   2  11
HETATM   11  C7  UNL     1       0.646  -0.673   0.454  1.00  0.00     0.298 C 
BRANCH  11  12
HETATM   12  N3  UNL     1       1.677   0.350   0.249  1.00  0.00     0.095 N 
BRANCH  12  13
HETATM   13  C8  UNL     1       2.447   0.085  -0.920  1.00  0.00     0.274 C 
BRANCH  13  14
HETATM   14  C9  UNL     1       3.450   1.189  -1.152  1.00  0.00     0.050 C 
BRANCH  14  15
HETATM   15  C10 UNL     1       4.262   0.912  -2.416  1.00  0.00     0.117 C 
BRANCH  15  16
HETATM   16  N4  UNL     1       5.174   1.998  -2.606  1.00  0.00    -0.421 N 
HETATM   17  C11 UNL     1       4.548   3.236  -2.958  1.00  0.00     0.142 C 
HETATM   18  C12 UNL     1       6.238   2.115  -1.675  1.00  0.00     0.142 C 
ENDBRANCH  15  16
ENDBRANCH  14  15
ENDBRANCH  13  14
ENDBRANCH  12  13
BRANCH  12  19
HETATM   19  C13 UNL     1       2.520   0.320   1.420  1.00  0.00     0.223 C 
HETATM   20  C14 UNL     1       3.265  -0.952   1.651  1.00  0.00     0.036 C 
HETATM   21  C15 UNL     1       4.362  -0.656   2.687  1.00  0.00     0.002 C 
HETATM   22  C16 UNL     1       3.802  -0.077   3.949  1.00  0.00     0.000 C 
HETATM   23  C17 UNL     1       2.827   1.063   3.707  1.00  0.00     0.002 C 
HETATM   24  C18 UNL     1       1.761   0.600   2.713  1.00  0.00     0.036 C 
ENDBRANCH  12  19
ENDBRANCH  11  12
ENDBRANCH   2  11
BRANCH   1  25
HETATM   25  C5  UNL     1      -1.122  -3.171  -0.531  1.00  0.00     0.111 A 
HETATM   26  C4  UNL     1      -0.452  -4.004   0.337  1.00  0.00     0.122 A 
HETATM   27  C3  UNL     1      -0.224  -5.322  -0.040  1.00  0.00     0.250 A 
HETATM   28  N1  UNL     1      -0.667  -5.739  -1.244  1.00  0.00    -0.313 N 
HETATM   29  O1  UNL     1       0.387  -6.103   0.738  1.00  0.00    -0.268 OA
HETATM   30  C2  UNL     1      -1.321  -4.941  -2.103  1.00  0.00     0.081 A 
ATOM     31  H1  UNL     1      -0.497  -6.708  -1.515  1.00  0.00     0.170 HD
HETATM   32  C1  UNL     1      -1.769  -5.482  -3.409  1.00  0.00     0.089 C 
HETATM   33  N6  UNL     1      -1.531  -3.666  -1.713  1.00  0.00    -0.332 N 
ATOM     34  H6  UNL     1      -2.028  -3.043  -2.350  1.00  0.00     0.168 HD
ENDBRANCH   1  25
BRANCH   3  35
HETATM   35  C20 UNL     1      -0.969   1.773  -0.808  1.00  0.00     0.150 C 
BRANCH  35  36
HETATM   36  O2  UNL     1      -0.478   2.314   0.342  1.00  0.00    -0.393 OA
ATOM     37  H2  UNL     1      -0.232   3.232   0.343  1.00  0.00     0.210 HD
ENDBRANCH  35  36
BRANCH  35  38
HETATM   38  C21 UNL     1      -2.247   2.557  -1.145  1.00  0.00     0.264 C 
BRANCH  38  39
HETATM   39  N5  UNL     1      -2.011   3.949  -1.338  1.00  0.00    -0.064 N 
ATOM     40  H52 UNL     1      -1.528   4.393  -0.557  1.00  0.00     0.277 HD
ATOM     41  H51 UNL     1      -1.306   4.149  -2.047  1.00  0.00     0.277 HD
BRANCH  39  42
HETATM   42  C22 UNL     1      -3.327   4.542  -1.632  1.00  0.00     0.233 C 
HETATM   43  C23 UNL     1      -4.309   4.397  -0.488  1.00  0.00     0.202 C 
HETATM   44  O3  UNL     1      -4.550   5.774  -0.468  1.00  0.00    -0.387 OA
HETATM   45  C24 UNL     1      -3.470   5.993  -1.331  1.00  0.00     0.202 C 
ENDBRANCH  39  42
ENDBRANCH  38  39
ENDBRANCH  35  38
ENDBRANCH   3  35
TORSDOF 13
