REMARK  13 active torsions:
REMARK  status: ('A' for Active; 'I' for Inactive)
REMARK    1  A    between atoms: O1_2  and  C2_3 
REMARK    2  A    between atoms: C4_5  and  O2_6 
REMARK    3  A    between atoms: C7_9  and  C8_10 
REMARK    4  A    between atoms: C9_13  and  N2_14 
REMARK    5  A    between atoms: N2_14  and  C10_16 
REMARK    6  A    between atoms: C12_18  and  O3_19 
REMARK    7  A    between atoms: C15_22  and  N3_23 
REMARK    8  A    between atoms: C22_33  and  C23_34 
REMARK    9  A    between atoms: C23_34  and  C24_35 
REMARK       I    between atoms: C24_35  and  N6_37 
REMARK   10  A    between atoms: N6_37  and  C25_39 
REMARK   11  A    between atoms: C25_39  and  C26_40 
REMARK   12  A    between atoms: C26_40  and  C27_41 
REMARK   13  A    between atoms: C27_41  and  N7_42 
ROOT
HETATM    1  C8  UNL     1       0.940   0.833   1.191  1.00  0.00     0.083 A 
HETATM    2  N1  UNL     1      -0.299   0.389   0.761  1.00  0.00    -0.189 N 
ATOM      3  H1  UNL     1      -0.880   0.868   0.074  1.00  0.00     0.184 HD
HETATM    4  C9  UNL     1      -0.627  -0.748   1.367  1.00  0.00     0.683 A 
HETATM    5  N5  UNL     1       0.365  -1.068   2.189  1.00  0.00    -0.193 N 
ATOM      6  H5  UNL     1       0.397  -1.891   2.791  1.00  0.00     0.184 HD
HETATM    7  C22 UNL     1       1.341  -0.108   2.095  1.00  0.00     0.063 A 
ENDROOT
BRANCH   4   8
HETATM    8  N2  UNL     1      -1.688  -1.477   1.240  1.00  0.00    -0.192 N 
ATOM      9  H2  UNL     1      -1.737  -2.322   1.809  1.00  0.00     0.184 HD
BRANCH   8  10
HETATM   10  C10 UNL     1      -2.776  -1.219   0.398  1.00  0.00     0.054 A 
HETATM   11  C11 UNL     1      -2.633  -0.884  -0.934  1.00  0.00     0.066 A 
HETATM   12  C12 UNL     1      -3.734  -0.635  -1.730  1.00  0.00     0.072 A 
HETATM   13  C14 UNL     1      -4.972  -0.728  -1.176  1.00  0.00     0.066 A 
HETATM   14  C15 UNL     1      -5.199  -1.063   0.161  1.00  0.00     0.035 A 
HETATM   15  C21 UNL     1      -4.066  -1.298   0.904  1.00  0.00     0.059 A 
BRANCH  12  16
HETATM   16  O3  UNL     1      -3.530  -0.298  -3.075  1.00  0.00    -0.356 OA
HETATM   17  C13 UNL     1      -4.705  -0.049  -3.858  1.00  0.00     0.210 C 
ENDBRANCH  12  16
BRANCH  14  18
HETATM   18  N3  UNL     1      -6.492  -1.145   0.692  1.00  0.00    -0.377 N 
HETATM   19  C16 UNL     1      -7.635  -0.560   0.017  1.00  0.00     0.153 C 
HETATM   20  C17 UNL     1      -8.516  -1.735  -0.394  1.00  0.00     0.291 C 
HETATM   21  N4  UNL     1      -8.009  -2.987   0.132  1.00  0.00     0.087 N 
HETATM   22  C18 UNL     1      -9.003  -4.012  -0.111  1.00  0.00     0.310 C 
HETATM   23  C19 UNL     1      -7.772  -2.932   1.568  1.00  0.00     0.291 C 
HETATM   24  C20 UNL     1      -6.773  -1.838   1.924  1.00  0.00     0.153 C 
ENDBRANCH  14  18
ENDBRANCH   8  10
ENDBRANCH   4   8
BRANCH   1  25
HETATM   25  C7  UNL     1       1.576   2.024   0.656  1.00  0.00    -0.002 A 
HETATM   26  C6  UNL     1       1.045   2.616  -0.507  1.00  0.00     0.050 A 
HETATM   27  C4  UNL     1       1.571   3.754  -1.056  1.00  0.00     0.071 A 
HETATM   28  C3  UNL     1       2.647   4.362  -0.482  1.00  0.00     0.073 A 
HETATM   29  C2  UNL     1       3.193   3.821   0.648  1.00  0.00     0.071 A 
HETATM   30  C30 UNL     1       2.638   2.651   1.197  1.00  0.00     0.050 A 
BRANCH  27  31
HETATM   31  O2  UNL     1       0.972   4.267  -2.214  1.00  0.00    -0.356 OA
HETATM   32  C5  UNL     1       1.521   5.446  -2.782  1.00  0.00     0.210 C 
ENDBRANCH  27  31
BRANCH  29  33
HETATM   33  O1  UNL     1       4.283   4.433   1.232  1.00  0.00    -0.356 OA
HETATM   34  C1  UNL     1       4.839   5.606   0.683  1.00  0.00     0.210 C 
ENDBRANCH  29  33
ENDBRANCH   1  25
BRANCH   7  35
HETATM   35  C23 UNL     1       2.602  -0.170   2.859  1.00  0.00     0.163 C 
BRANCH  35  36
HETATM   36  C24 UNL     1       3.745  -0.614   2.006  1.00  0.00     0.223 C 
HETATM   37  O4  UNL     1       3.487  -0.871   0.805  1.00  0.00    -0.273 OA
HETATM   38  N6  UNL     1       5.059  -0.743   2.512  1.00  0.00    -0.361 N 
ATOM     39  H6  UNL     1       5.243  -0.527   3.492  1.00  0.00     0.162 HD
BRANCH  38  40
HETATM   40  C25 UNL     1       6.138  -1.173   1.669  1.00  0.00     0.124 C 
BRANCH  40  41
HETATM   41  C26 UNL     1       6.421  -0.282   0.504  1.00  0.00     0.050 C 
BRANCH  41  42
HETATM   42  C27 UNL     1       7.564  -0.787  -0.347  1.00  0.00     0.273 C 
BRANCH  42  43
HETATM   43  N7  UNL     1       7.325  -2.088  -0.899  1.00  0.00     0.080 N 
HETATM   44  C28 UNL     1       8.484  -2.470  -1.686  1.00  0.00     0.309 C 
HETATM   45  C29 UNL     1       6.170  -2.145  -1.760  1.00  0.00     0.309 C 
ENDBRANCH  42  43
ENDBRANCH  41  42
ENDBRANCH  40  41
ENDBRANCH  38  40
ENDBRANCH  35  36
ENDBRANCH   7  35
TORSDOF 13
