REMARK  15 active torsions:
REMARK  status: ('A' for Active; 'I' for Inactive)
REMARK    1  A    between atoms: O1_2  and  C2_3 
REMARK    2  A    between atoms: C2_3  and  C3_4 
REMARK    3  A    between atoms: C3_4  and  C4_5 
REMARK    4  A    between atoms: C4_5  and  N1_6 
REMARK    5  A    between atoms: N1_6  and  C5_7 
REMARK    6  A    between atoms: N1_6  and  C13_22 
REMARK    7  A    between atoms: C5_7  and  O2_8 
REMARK    8  A    between atoms: C5_7  and  C6_10 
REMARK    9  A    between atoms: C10_16  and  C11_17 
REMARK   10  A    between atoms: C13_22  and  C14_23 
REMARK   11  A    between atoms: C13_22  and  C19_31 
REMARK       I    between atoms: C14_23  and  N4_25 
REMARK   12  A    between atoms: N4_25  and  C15_27 
REMARK   13  A    between atoms: C21_33  and  O5_34 
REMARK   14  A    between atoms: C23_36  and  O6_37 
REMARK   15  A    between atoms: C25_39  and  O7_40 
ROOT
HETATM    1  N1  UNL     1       0.213  -0.207  -0.698  1.00  0.00    -0.321 N 
ENDROOT
BRANCH   1   2
HETATM    2  C4  UNL     1       0.457  -0.063  -2.109  1.00  0.00     0.133 C 
BRANCH   2   3
HETATM    3  C3  UNL     1       0.783  -1.434  -2.699  1.00  0.00     0.046 C 
BRANCH   3   4
HETATM    4  C2  UNL     1       1.049  -1.343  -4.171  1.00  0.00     0.168 C 
BRANCH   4   5
HETATM    5  O1  UNL     1       1.332  -2.547  -4.747  1.00  0.00    -0.396 OA
HETATM    6  C1  UNL     1       2.459  -3.145  -4.209  1.00  0.00     0.201 C 
ENDBRANCH   4   5
ENDBRANCH   3   4
ENDBRANCH   2   3
ENDBRANCH   1   2
BRANCH   1   7
HETATM    7  C5  UNL     1       1.224  -0.116   0.264  1.00  0.00     0.160 C 
BRANCH   7   8
HETATM    8  O2  UNL     1       0.870  -0.298   1.525  1.00  0.00    -0.345 OA
ATOM      9  H2  UNL     1       1.557  -0.236   2.178  1.00  0.00     0.219 HD
ENDBRANCH   7   8
BRANCH   7  10
HETATM   10  C6  UNL     1       2.647   0.148   0.144  1.00  0.00     0.057 A 
HETATM   11  C7  UNL     1       3.499   0.374  -0.890  1.00  0.00     0.037 A 
HETATM   12  C8  UNL     1       4.801   0.604  -0.633  1.00  0.00     0.000 A 
HETATM   13  C9  UNL     1       5.986   0.873  -1.352  1.00  0.00     0.101 A 
HETATM   14  C12 UNL     1       5.199   0.596   0.668  1.00  0.00     0.049 A 
HETATM   15  N2  UNL     1       7.005   1.009  -0.479  1.00  0.00    -0.360 N 
HETATM   16  C10 UNL     1       6.578   0.849   0.779  1.00  0.00     0.116 A 
ATOM     17  H2  UNL     1       7.970   1.207  -0.742  1.00  0.00     0.165 HD
HETATM   18  S1  UNL     1       3.762   0.272   1.502  1.00  0.00    -0.083 SA
BRANCH  16  19
HETATM   19  C11 UNL     1       7.313   0.909   2.013  1.00  0.00     0.282 C 
HETATM   20  N3  UNL     1       8.710   1.175   1.982  1.00  0.00    -0.056 NA
HETATM   21  O3  UNL     1       6.770   0.736   3.113  1.00  0.00    -0.269 OA
ENDBRANCH  16  19
ENDBRANCH   7  10
ENDBRANCH   1   7
BRANCH   1  22
HETATM   22  C13 UNL     1      -1.188  -0.403  -0.281  1.00  0.00     0.115 C 
BRANCH  22  23
HETATM   23  C14 UNL     1      -1.411  -1.595   0.512  1.00  0.00     0.269 C 
HETATM   24  O4  UNL     1      -0.521  -2.516   0.555  1.00  0.00    -0.266 OA
HETATM   25  N4  UNL     1      -2.569  -1.852   1.280  1.00  0.00    -0.348 N 
ATOM     26  H4  UNL     1      -3.313  -1.155   1.288  1.00  0.00     0.163 HD
BRANCH  25  27
HETATM   27  C15 UNL     1      -2.745  -3.062   2.056  1.00  0.00     0.022 C 
HETATM   28  C16 UNL     1      -1.683  -3.242   3.106  1.00  0.00     0.037 C 
HETATM   29  C17 UNL     1      -2.693  -4.263   1.137  1.00  0.00     0.037 C 
HETATM   30  C18 UNL     1      -4.084  -3.082   2.743  1.00  0.00     0.037 C 
ENDBRANCH  25  27
ENDBRANCH  22  23
BRANCH  22  31
HETATM   31  C19 UNL     1      -1.890   0.833   0.104  1.00  0.00     0.002 A 
HETATM   32  C20 UNL     1      -3.272   0.957  -0.153  1.00  0.00     0.053 A 
HETATM   33  C21 UNL     1      -4.004   2.077   0.143  1.00  0.00     0.105 A 
HETATM   34  C23 UNL     1      -3.366   3.133   0.718  1.00  0.00     0.135 A 
HETATM   35  C25 UNL     1      -2.030   3.081   0.993  1.00  0.00     0.105 A 
HETATM   36  C27 UNL     1      -1.318   1.917   0.674  1.00  0.00     0.053 A 
BRANCH  33  37
HETATM   37  O5  UNL     1      -5.366   2.093  -0.154  1.00  0.00    -0.353 OA
HETATM   38  C22 UNL     1      -5.931   0.950  -0.748  1.00  0.00     0.210 C 
ENDBRANCH  33  37
BRANCH  34  39
HETATM   39  O6  UNL     1      -4.096   4.274   1.024  1.00  0.00    -0.351 OA
HETATM   40  C24 UNL     1      -4.248   5.333   0.105  1.00  0.00     0.210 C 
ENDBRANCH  34  39
BRANCH  35  41
HETATM   41  O7  UNL     1      -1.376   4.180   1.589  1.00  0.00    -0.353 OA
HETATM   42  C26 UNL     1       0.005   4.094   1.861  1.00  0.00     0.210 C 
ENDBRANCH  35  41
ENDBRANCH  22  31
ENDBRANCH   1  22
TORSDOF 15
