REMARK  14 active torsions:
REMARK  status: ('A' for Active; 'I' for Inactive)
REMARK    1  A    between atoms: C2_2  and  C3_3 
REMARK    2  A    between atoms: C3_3  and  N1_4 
REMARK    3  A    between atoms: N1_4  and  C4_6 
REMARK    4  A    between atoms: C5_9  and  C6_10 
REMARK    5  A    between atoms: C6_10  and  O1_11 
REMARK    6  A    between atoms: C8_13  and  C9_14 
REMARK    7  A    between atoms: C9_14  and  N3_15 
REMARK    8  A    between atoms: N3_15  and  C10_16 
REMARK    9  A    between atoms: N3_15  and  C12_22 
REMARK   10  A    between atoms: C10_16  and  C11_17 
REMARK   11  A    between atoms: C11_17  and  N4_18 
REMARK   12  A    between atoms: C19_29  and  N5_30 
REMARK   13  A    between atoms: C22_33  and  N6_34 
REMARK       I    between atoms: N6_34  and  C23_36 
REMARK       I    between atoms: C23_36  and  N7_38 
REMARK   14  A    between atoms: N7_38  and  C24_39 
REMARK       I    between atoms: N7_38  and  C26_41 
ROOT
HETATM    1  C4  UNL     1      -0.581   3.598  -0.771  1.00  0.00     0.683 A 
HETATM    2  N2  UNL     1      -1.859   3.326  -0.888  1.00  0.00    -0.192 N 
ATOM      3  H2  UNL     1      -2.483   4.101  -1.114  1.00  0.00     0.184 HD
HETATM    4  C5  UNL     1      -2.412   2.120  -0.736  1.00  0.00     0.065 A 
HETATM    5  C8  UNL     1      -1.568   0.996  -0.416  1.00  0.00     0.049 A 
HETATM    6  C19 UNL     1      -0.275   1.304  -0.308  1.00  0.00     0.132 A 
HETATM    7  N8  UNL     1       0.234   2.569  -0.474  1.00  0.00    -0.176 N 
ATOM      8  H8  UNL     1       1.236   2.729  -0.372  1.00  0.00     0.186 HD
ENDROOT
BRANCH   6   9
HETATM    9  N5  UNL     1       0.776   0.347  -0.161  1.00  0.00    -0.366 N 
HETATM   10  C20 UNL     1       1.680   0.590   0.981  1.00  0.00     0.126 C 
HETATM   11  C21 UNL     1       3.094   0.711   0.460  1.00  0.00     0.045 C 
HETATM   12  C22 UNL     1       3.429  -0.631  -0.121  1.00  0.00     0.089 C 
HETATM   13  C27 UNL     1       2.560  -0.931  -1.293  1.00  0.00     0.045 C 
HETATM   14  C28 UNL     1       1.081  -0.747  -1.014  1.00  0.00     0.126 C 
BRANCH  12  15
HETATM   15  N6  UNL     1       4.819  -0.636  -0.569  1.00  0.00    -0.338 N 
HETATM   16  C23 UNL     1       5.770  -1.390   0.230  1.00  0.00     0.327 C 
HETATM   17  O2  UNL     1       5.357  -1.923   1.243  1.00  0.00    -0.247 OA
HETATM   18  N7  UNL     1       7.131  -1.472  -0.191  1.00  0.00    -0.244 N 
HETATM   19  C26 UNL     1       8.070  -1.990   0.581  1.00  0.00     0.294 C 
HETATM   20  O3  UNL     1       9.361  -1.962   0.187  1.00  0.00    -0.629 OA
HETATM   21  O4  UNL     1       8.011  -2.608   1.848  1.00  0.00    -0.629 OA
ATOM     22  H6  UNL     1       5.110  -0.132  -1.407  1.00  0.00     0.164 HD
BRANCH  18  23
HETATM   23  C24 UNL     1       7.510  -0.875  -1.488  1.00  0.00     0.135 C 
HETATM   24  C25 UNL     1       7.988   0.535  -1.236  1.00  0.00     0.027 C 
ENDBRANCH  18  23
ENDBRANCH  12  15
ENDBRANCH   6   9
BRANCH   5  25
HETATM   25  C9  UNL     1      -2.175  -0.296  -0.422  1.00  0.00     0.107 C 
BRANCH  25  26
HETATM   26  N3  UNL     1      -2.399  -1.098   0.698  1.00  0.00    -0.363 N 
BRANCH  26  27
HETATM   27  C10 UNL     1      -1.480  -1.257   1.702  1.00  0.00     0.091 C 
BRANCH  27  28
HETATM   28  C11 UNL     1      -1.944  -1.915   2.994  1.00  0.00     0.274 C 
BRANCH  28  29
HETATM   29  N4  UNL     1      -0.764  -1.928   3.880  1.00  0.00    -0.075 N 
ATOM     30  H43 UNL     1       0.054  -2.373   3.465  1.00  0.00     0.274 HD
ATOM     31  H42 UNL     1      -0.345  -1.008   4.017  1.00  0.00     0.274 HD
ATOM     32  H41 UNL     1      -1.075  -2.369   4.746  1.00  0.00     0.274 HD
ENDBRANCH  28  29
ENDBRANCH  27  28
ENDBRANCH  26  27
BRANCH  26  33
HETATM   33  C12 UNL     1      -3.020  -2.363   0.288  1.00  0.00     0.088 C 
HETATM   34  C13 UNL     1      -2.164  -3.207  -0.584  1.00  0.00     0.026 C 
HETATM   35  C14 UNL     1      -2.658  -4.629  -0.667  1.00  0.00     0.002 C 
HETATM   36  C15 UNL     1      -3.452  -5.106   0.498  1.00  0.00     0.000 C 
HETATM   37  C16 UNL     1      -4.841  -4.522   0.570  1.00  0.00     0.000 C 
HETATM   38  C17 UNL     1      -5.101  -3.502  -0.485  1.00  0.00     0.002 C 
HETATM   39  C18 UNL     1      -4.374  -2.189  -0.287  1.00  0.00     0.026 C 
ENDBRANCH  26  33
ENDBRANCH  25  26
ENDBRANCH   5  25
BRANCH   4  40
HETATM   40  C6  UNL     1      -3.838   1.887  -0.883  1.00  0.00     0.225 C 
BRANCH  40  41
HETATM   41  O1  UNL     1      -4.652   2.983  -1.052  1.00  0.00    -0.390 OA
HETATM   42  C7  UNL     1      -4.738   3.852  -0.011  1.00  0.00     0.201 C 
ENDBRANCH  40  41
ENDBRANCH   4  40
BRANCH   1  43
HETATM   43  N1  UNL     1      -0.060   4.755  -0.980  1.00  0.00    -0.205 N 
ATOM     44  H1  UNL     1       0.949   4.761  -0.828  1.00  0.00     0.183 HD
BRANCH  43  45
HETATM   45  C3  UNL     1      -0.542   5.992  -1.362  1.00  0.00     0.078 C 
BRANCH  45  46
HETATM   46  C2  UNL     1      -1.627   6.655  -0.585  1.00  0.00     0.040 C 
HETATM   47  C1  UNL     1      -1.249   6.923   0.855  1.00  0.00     0.010 C 
ENDBRANCH  45  46
ENDBRANCH  43  45
ENDBRANCH   1  43
TORSDOF 14
