REMARK  12 active torsions:
REMARK  status: ('A' for Active; 'I' for Inactive)
REMARK    1  A    between atoms: S1_2  and  S2_3 
REMARK    2  A    between atoms: S2_3  and  C2_4 
REMARK    3  A    between atoms: C2_4  and  C3_5 
REMARK    4  A    between atoms: C3_5  and  C4_6 
REMARK    5  A    between atoms: C3_5  and  N5_38 
REMARK       I    between atoms: C4_6  and  N1_8 
REMARK    6  A    between atoms: N1_8  and  C5_10 
REMARK    7  A    between atoms: C5_10  and  C6_11 
REMARK    8  A    between atoms: C6_11  and  C7_12 
REMARK    9  A    between atoms: C7_12  and  N2_13 
REMARK   10  A    between atoms: N2_13  and  C10_16 
REMARK   11  A    between atoms: C22_34  and  C23_35 
REMARK   12  A    between atoms: C23_35  and  O3_36 
ROOT
HETATM    1  C10 UNL     1      -1.843  -0.037  -1.105  1.00  0.00     0.203 C 
HETATM    2  C11 UNL     1      -2.292   0.573   0.245  1.00  0.00     0.043 C 
HETATM    3  C12 UNL     1      -3.736   1.003   0.114  1.00  0.00     0.042 C 
HETATM    4  C13 UNL     1      -4.069   2.276   0.812  1.00  0.00     0.015 C 
HETATM    5  C14 UNL     1      -3.993   2.297   2.282  1.00  0.00     0.027 C 
HETATM    6  C15 UNL     1      -3.024   3.299   0.316  1.00  0.00     0.027 C 
HETATM    7  S3  UNL     1      -5.646   2.863   0.113  1.00  0.00    -0.085 SA
HETATM    8  C16 UNL     1      -6.364   1.380  -0.662  1.00  0.00     0.137 C 
HETATM    9  N3  UNL     1      -7.218   1.466  -1.615  1.00  0.00    -0.380 N 
ATOM     10  H31 UNL     1      -7.620   0.635  -2.049  1.00  0.00     0.158 HD
ATOM     11  H32 UNL     1      -7.492   2.394  -1.938  1.00  0.00     0.158 HD
HETATM   12  N4  UNL     1      -5.983   0.091  -0.213  1.00  0.00    -0.345 N 
HETATM   13  C17 UNL     1      -6.664  -1.166  -0.043  1.00  0.00     0.126 C 
HETATM   14  C18 UNL     1      -6.112  -1.635   1.293  1.00  0.00     0.023 C 
HETATM   15  C19 UNL     1      -4.907  -0.726   1.590  1.00  0.00     0.041 C 
HETATM   16  C20 UNL     1      -4.615  -0.160   0.234  1.00  0.00     0.100 C 
HETATM   17  C21 UNL     1      -3.951  -1.263  -0.533  1.00  0.00     0.163 C 
HETATM   18  O2  UNL     1      -4.189  -2.444  -0.341  1.00  0.00    -0.295 OA
HETATM   19  C22 UNL     1      -2.941  -0.851  -1.587  1.00  0.00     0.113 C 
ENDROOT
BRANCH   1  20
HETATM   20  N2  UNL     1      -0.521  -0.553  -0.939  1.00  0.00    -0.070 N 
HETATM   21  C8  UNL     1       0.208  -0.450  -2.194  1.00  0.00     0.272 C 
HETATM   22  C9  UNL     1      -0.412  -1.816  -0.303  1.00  0.00     0.272 C 
BRANCH  20  23
HETATM   23  C7  UNL     1       0.158   0.424  -0.060  1.00  0.00     0.238 C 
BRANCH  23  24
HETATM   24  C6  UNL     1       1.666   0.231  -0.079  1.00  0.00     0.048 C 
BRANCH  24  25
HETATM   25  C5  UNL     1       2.342   1.234   0.828  1.00  0.00     0.124 C 
BRANCH  25  26
HETATM   26  N1  UNL     1       3.752   1.064   0.807  1.00  0.00    -0.359 N 
HETATM   27  C4  UNL     1       4.421  -0.106   1.217  1.00  0.00     0.240 C 
HETATM   28  O1  UNL     1       3.846  -1.131   1.655  1.00  0.00    -0.271 OA
ATOM     29  H1  UNL     1       4.319   1.843   0.472  1.00  0.00     0.162 HD
BRANCH  27  30
HETATM   30  C3  UNL     1       5.931  -0.187   1.147  1.00  0.00     0.181 C 
BRANCH  30  31
HETATM   31  C2  UNL     1       6.324   0.133  -0.244  1.00  0.00     0.120 C 
BRANCH  31  32
HETATM   32  S2  UNL     1       8.076   0.118  -0.590  1.00  0.00    -0.096 SA
BRANCH  32  33
HETATM   33  S1  UNL     1       8.394   0.612  -2.636  1.00  0.00    -0.102 SA
HETATM   34  C1  UNL     1       8.587   2.404  -2.851  1.00  0.00     0.102 C 
ENDBRANCH  32  33
ENDBRANCH  31  32
ENDBRANCH  30  31
BRANCH  30  35
HETATM   35  N5  UNL     1       6.414  -1.444   1.591  1.00  0.00    -0.408 N 
HETATM   36  C24 UNL     1       7.830  -1.579   1.696  1.00  0.00     0.143 C 
HETATM   37  C25 UNL     1       5.793  -2.592   0.987  1.00  0.00     0.143 C 
ENDBRANCH  30  35
ENDBRANCH  27  30
ENDBRANCH  25  26
ENDBRANCH  24  25
ENDBRANCH  23  24
ENDBRANCH  20  23
ENDBRANCH   1  20
BRANCH  19  38
HETATM   38  C23 UNL     1      -2.719  -2.043  -2.441  1.00  0.00     0.178 C 
BRANCH  38  39
HETATM   39  O3  UNL     1      -4.024  -2.578  -2.699  1.00  0.00    -0.400 OA
ATOM     40  H3  UNL     1      -3.882  -3.342  -3.246  1.00  0.00     0.209 HD
ENDBRANCH  38  39
ENDBRANCH  19  38
TORSDOF 12
