REMARK  16 active torsions:
REMARK  status: ('A' for Active; 'I' for Inactive)
REMARK    1  A    between atoms: O1_2  and  C2_3 
REMARK    2  A    between atoms: C4_5  and  C5_6 
REMARK    3  A    between atoms: C5_6  and  C6_7 
REMARK    4  A    between atoms: C6_7  and  C18_30 
REMARK    5  A    between atoms: N1_8  and  N2_10 
REMARK    6  A    between atoms: N2_10  and  C7_12 
REMARK    7  A    between atoms: C7_12  and  N3_14 
REMARK    8  A    between atoms: N3_14  and  C8_16 
REMARK    9  A    between atoms: C8_16  and  C9_17 
REMARK   10  A    between atoms: C9_17  and  C10_18 
REMARK   11  A    between atoms: C10_18  and  N4_19 
REMARK   12  A    between atoms: N4_19  and  C11_21 
REMARK   13  A    between atoms: C20_32  and  O2_33 
REMARK   14  A    between atoms: C22_35  and  O3_36 
REMARK   15  A    between atoms: C24_38  and  O4_39 
REMARK   16  A    between atoms: C28_43  and  O5_44 
ROOT
HETATM    1  C6  UNL     1      -3.136  -1.464  -0.026  1.00  0.00     0.059 C 
HETATM    2  N1  UNL     1      -2.146  -1.268   0.682  1.00  0.00    -0.298 N 
ATOM      3  H1  UNL     1      -1.844  -2.150   1.096  1.00  0.00     0.187 HD
ENDROOT
BRANCH   1   4
HETATM    4  C5  UNL     1      -3.867  -0.471  -0.787  1.00  0.00     0.043 C 
BRANCH   4   5
HETATM    5  C4  UNL     1      -3.473   0.917  -0.725  1.00  0.00    -0.029 A 
HETATM    6  C3  UNL     1      -4.089   1.794   0.153  1.00  0.00     0.048 A 
HETATM    7  C2  UNL     1      -3.746   3.145   0.234  1.00  0.00     0.071 A 
HETATM    8  C30 UNL     1      -2.744   3.606  -0.610  1.00  0.00     0.073 A 
HETATM    9  C28 UNL     1      -2.109   2.751  -1.499  1.00  0.00     0.071 A 
HETATM   10  C27 UNL     1      -2.479   1.422  -1.547  1.00  0.00     0.048 A 
BRANCH   7  11
HETATM   11  O1  UNL     1      -4.416   3.946   1.141  1.00  0.00    -0.356 OA
HETATM   12  C1  UNL     1      -4.073   5.305   1.223  1.00  0.00     0.210 C 
ENDBRANCH   7  11
BRANCH   9  13
HETATM   13  O5  UNL     1      -1.104   3.223  -2.343  1.00  0.00    -0.356 OA
HETATM   14  C29 UNL     1      -0.743   4.602  -2.271  1.00  0.00     0.210 C 
ENDBRANCH   9  13
ENDBRANCH   4   5
ENDBRANCH   1   4
BRANCH   1  15
HETATM   15  C18 UNL     1      -3.602  -2.882  -0.109  1.00  0.00    -0.003 A 
HETATM   16  C19 UNL     1      -4.687  -3.237  -0.849  1.00  0.00     0.053 A 
HETATM   17  C20 UNL     1      -5.120  -4.540  -0.923  1.00  0.00     0.105 A 
HETATM   18  C22 UNL     1      -4.442  -5.537  -0.229  1.00  0.00     0.135 A 
HETATM   19  C24 UNL     1      -3.328  -5.186   0.533  1.00  0.00     0.105 A 
HETATM   20  C26 UNL     1      -2.925  -3.854   0.579  1.00  0.00     0.053 A 
BRANCH  17  21
HETATM   21  O2  UNL     1      -6.227  -4.857  -1.687  1.00  0.00    -0.353 OA
HETATM   22  C21 UNL     1      -6.890  -3.820  -2.376  1.00  0.00     0.210 C 
ENDBRANCH  17  21
BRANCH  18  23
HETATM   23  O3  UNL     1      -4.856  -6.852  -0.287  1.00  0.00    -0.351 OA
HETATM   24  C23 UNL     1      -4.418  -7.792  -1.235  1.00  0.00     0.210 C 
ENDBRANCH  18  23
BRANCH  19  25
HETATM   25  O4  UNL     1      -2.640  -6.166   1.230  1.00  0.00    -0.353 OA
HETATM   26  C25 UNL     1      -1.517  -5.789   1.990  1.00  0.00     0.210 C 
ENDBRANCH  19  25
ENDBRANCH   1  15
BRANCH   2  27
HETATM   27  N2  UNL     1      -1.331  -0.278   1.091  1.00  0.00    -0.276 N 
ATOM     28  H2  UNL     1      -1.734   0.490   1.627  1.00  0.00     0.189 HD
BRANCH  27  29
HETATM   29  C7  UNL     1       0.092  -0.248   0.808  1.00  0.00     0.186 C 
HETATM   30  S1  UNL     1       0.802  -1.445  -0.025  1.00  0.00    -0.040 SA
BRANCH  29  31
HETATM   31  N3  UNL     1       0.856   0.831   1.283  1.00  0.00    -0.366 N 
ATOM     32  H3  UNL     1       0.406   1.572   1.820  1.00  0.00     0.161 HD
BRANCH  31  33
HETATM   33  C8  UNL     1       2.262   0.898   1.018  1.00  0.00     0.123 C 
BRANCH  33  34
HETATM   34  C9  UNL     1       2.662   1.167  -0.388  1.00  0.00     0.039 C 
BRANCH  34  35
HETATM   35  C10 UNL     1       4.204   1.181  -0.392  1.00  0.00     0.123 C 
BRANCH  35  36
HETATM   36  N4  UNL     1       4.620   2.221   0.500  1.00  0.00    -0.376 N 
ATOM     37  H4  UNL     1       3.935   2.889   0.853  1.00  0.00     0.161 HD
BRANCH  36  38
HETATM   38  C11 UNL     1       5.847   2.319   0.859  1.00  0.00     0.101 A 
HETATM   39  C12 UNL     1       6.771   1.431   0.393  1.00  0.00     0.054 A 
HETATM   40  C13 UNL     1       8.115   1.480   0.742  1.00  0.00    -0.057 A 
HETATM   41  C14 UNL     1       9.061   0.471   0.191  1.00  0.00     0.048 C 
HETATM   42  C15 UNL     1       8.498   2.481   1.599  1.00  0.00     0.031 A 
HETATM   43  C16 UNL     1       7.575   3.394   2.085  1.00  0.00     0.007 A 
HETATM   44  C17 UNL     1       7.974   4.498   3.024  1.00  0.00     0.068 C 
HETATM   45  N5  UNL     1       6.284   3.284   1.700  1.00  0.00    -0.347 N 
ATOM     46  H5  UNL     1       5.609   3.959   2.060  1.00  0.00     0.167 HD
ENDBRANCH  36  38
ENDBRANCH  35  36
ENDBRANCH  34  35
ENDBRANCH  33  34
ENDBRANCH  31  33
ENDBRANCH  29  31
ENDBRANCH  27  29
ENDBRANCH   2  27
TORSDOF 16
