REMARK  15 active torsions:
REMARK  status: ('A' for Active; 'I' for Inactive)
REMARK       I    between atoms: C1_2  and  N1_3 
REMARK    1  A    between atoms: C1_2  and  C27_37 
REMARK    2  A    between atoms: N1_3  and  N2_5 
REMARK    3  A    between atoms: C2_7  and  C3_8 
REMARK    4  A    between atoms: C6_11  and  O2_12 
REMARK    5  A    between atoms: O2_12  and  C7_13 
REMARK    6  A    between atoms: C7_13  and  C8_14 
REMARK    7  A    between atoms: C8_14  and  C9_15 
REMARK    8  A    between atoms: C9_15  and  C10_16 
REMARK    9  A    between atoms: C10_16  and  C11_17 
REMARK   10  A    between atoms: C11_17  and  C12_18 
REMARK   11  A    between atoms: C12_18  and  N3_19 
REMARK   12  A    between atoms: N5_40  and  C30_41 
REMARK   13  A    between atoms: C30_41  and  C31_42 
REMARK   14  A    between atoms: C31_42  and  O4_43 
REMARK   15  A    between atoms: C32_45  and  O5_46 
ROOT
HETATM    1  C3  UNL     1       3.710   3.099  -1.000  1.00  0.00    -0.019 A 
HETATM    2  C4  UNL     1       3.810   1.753  -0.808  1.00  0.00     0.015 A 
HETATM    3  C5  UNL     1       2.709   0.953  -0.701  1.00  0.00     0.037 A 
HETATM    4  C6  UNL     1       1.423   1.448  -0.778  1.00  0.00     0.068 A 
HETATM    5  C25 UNL     1       1.296   2.829  -0.974  1.00  0.00     0.037 A 
HETATM    6  C26 UNL     1       2.403   3.616  -1.080  1.00  0.00     0.015 A 
ENDROOT
BRANCH   4   7
HETATM    7  O2  UNL     1       0.352   0.714  -0.680  1.00  0.00    -0.351 OA
BRANCH   7   8
HETATM    8  C7  UNL     1      -0.701  -0.006  -0.585  1.00  0.00     0.175 C 
BRANCH   8   9
HETATM    9  C8  UNL     1      -1.694   0.292   0.554  1.00  0.00     0.027 C 
BRANCH   9  10
HETATM   10  C9  UNL     1      -2.190   1.682   0.395  1.00  0.00     0.002 C 
BRANCH  10  11
HETATM   11  C10 UNL     1      -3.203   2.079   1.448  1.00  0.00     0.002 C 
BRANCH  11  12
HETATM   12  C11 UNL     1      -4.438   1.213   1.432  1.00  0.00     0.020 C 
BRANCH  12  13
HETATM   13  C12 UNL     1      -5.150   1.292   0.100  1.00  0.00     0.133 C 
BRANCH  13  14
HETATM   14  N3  UNL     1      -6.331   0.494   0.022  1.00  0.00    -0.310 N 
HETATM   15  C13 UNL     1      -7.542   0.953   0.364  1.00  0.00     0.186 A 
HETATM   16  N4  UNL     1      -8.662   0.228   0.298  1.00  0.00    -0.351 N 
HETATM   17  C14 UNL     1      -8.620  -1.042  -0.130  1.00  0.00     0.060 A 
ATOM     18  H4  UNL     1      -9.552   0.642   0.574  1.00  0.00     0.166 HD
HETATM   19  C15 UNL     1      -7.395  -1.574  -0.498  1.00  0.00     0.060 A 
HETATM   20  C23 UNL     1      -9.790  -1.744  -0.182  1.00  0.00     0.002 A 
HETATM   21  C16 UNL     1      -7.373  -2.867  -0.933  1.00  0.00     0.020 A 
HETATM   22  C24 UNL     1      -6.251  -0.776  -0.412  1.00  0.00     0.261 A 
HETATM   23  C17 UNL     1      -8.539  -3.607  -0.998  1.00  0.00     0.013 A 
HETATM   24  C18 UNL     1      -9.755  -3.047  -0.622  1.00  0.00    -0.024 A 
HETATM   25  C19 UNL     1     -10.937  -3.767  -0.678  1.00  0.00     0.012 A 
HETATM   26  C20 UNL     1     -12.135  -3.178  -0.296  1.00  0.00     0.001 A 
HETATM   27  C21 UNL     1     -12.182  -1.874   0.146  1.00  0.00     0.001 A 
HETATM   28  C22 UNL     1     -10.999  -1.162   0.200  1.00  0.00     0.014 A 
HETATM   29  O3  UNL     1      -5.174  -1.322  -0.762  1.00  0.00    -0.267 OA
ENDBRANCH  13  14
ENDBRANCH  12  13
ENDBRANCH  11  12
ENDBRANCH  10  11
ENDBRANCH   9  10
ENDBRANCH   8   9
ENDBRANCH   7   8
ENDBRANCH   4   7
BRANCH   1  30
HETATM   30  C2  UNL     1       4.836   3.990  -1.135  1.00  0.00     0.118 C 
HETATM   31  N2  UNL     1       6.050   3.759  -1.151  1.00  0.00    -0.308 N 
ATOM     32  H2  UNL     1       6.612   4.603  -1.262  1.00  0.00     0.186 HD
BRANCH  31  33
HETATM   33  N1  UNL     1       6.793   2.648  -1.055  1.00  0.00    -0.266 N 
HETATM   34  C1  UNL     1       7.613   2.383   0.064  1.00  0.00     0.270 C 
HETATM   35  O1  UNL     1       7.642   3.231   0.998  1.00  0.00    -0.266 OA
ATOM     36  H1  UNL     1       6.765   1.970  -1.817  1.00  0.00     0.190 HD
BRANCH  34  37
HETATM   37  C27 UNL     1       8.398   1.164   0.126  1.00  0.00     0.039 A 
HETATM   38  C28 UNL     1       8.300   0.122  -0.760  1.00  0.00     0.034 A 
HETATM   39  C29 UNL     1       9.100  -1.021  -0.623  1.00  0.00     0.094 A 
HETATM   40  N5  UNL     1       9.990  -1.152   0.371  1.00  0.00    -0.336 N 
HETATM   41  C32 UNL     1      10.097  -0.139   1.246  1.00  0.00     0.142 A 
HETATM   42  C33 UNL     1       9.337   1.002   1.155  1.00  0.00     0.073 A 
BRANCH  40  43
HETATM   43  C30 UNL     1      10.780  -2.361   0.457  1.00  0.00     0.156 C 
BRANCH  43  44
HETATM   44  C31 UNL     1      10.032  -3.388   1.313  1.00  0.00     0.184 C 
BRANCH  44  45
HETATM   45  O4  UNL     1       8.808  -3.626   0.667  1.00  0.00    -0.399 OA
ATOM     46  H4  UNL     1       8.344  -4.263   1.198  1.00  0.00     0.209 HD
ENDBRANCH  44  45
ENDBRANCH  43  44
ENDBRANCH  40  43
BRANCH  41  47
HETATM   47  O5  UNL     1      11.013  -0.267   2.271  1.00  0.00    -0.346 OA
ATOM     48  H5  UNL     1      11.089   0.450   2.890  1.00  0.00     0.219 HD
ENDBRANCH  41  47
ENDBRANCH  34  37
ENDBRANCH  31  33
ENDBRANCH   1  30
TORSDOF 15
