REMARK  13 active torsions:
REMARK  status: ('A' for Active; 'I' for Inactive)
REMARK    1  A    between atoms: C2_2  and  N1_3 
REMARK    2  A    between atoms: C4_6  and  C5_7 
REMARK    3  A    between atoms: C4_6  and  C7_9 
REMARK    4  A    between atoms: C12_16  and  N3_17 
REMARK    5  A    between atoms: N3_17  and  C13_19 
REMARK    6  A    between atoms: C17_25  and  N5_26 
REMARK       I    between atoms: N5_26  and  C19_28 
REMARK    7  A    between atoms: C19_28  and  C20_30 
REMARK    8  A    between atoms: C20_30  and  C21_31 
REMARK    9  A    between atoms: C21_31  and  C22_32 
REMARK   10  A    between atoms: C22_32  and  C23_33 
REMARK   11  A    between atoms: C23_33  and  N6_34 
REMARK   12  A    between atoms: C23_33  and  C24_38 
REMARK   13  A    between atoms: C25_41  and  O5_42 
ROOT
HETATM    1  C13 UNL     1       0.555   0.008   0.413  1.00  0.00     0.157 A 
HETATM    2  N4  UNL     1       0.102   0.135  -0.845  1.00  0.00    -0.344 N 
ATOM      3  H4  UNL     1      -0.842   0.492  -0.995  1.00  0.00     0.167 HD
HETATM    4  C14 UNL     1       0.855  -0.194  -1.921  1.00  0.00     0.009 A 
HETATM    5  C15 UNL     1       0.304  -0.034  -3.313  1.00  0.00     0.068 C 
HETATM    6  C16 UNL     1       2.149  -0.684  -1.771  1.00  0.00     0.057 A 
HETATM    7  C17 UNL     1       2.651  -0.828  -0.478  1.00  0.00     0.076 A 
HETATM    8  C25 UNL     1       1.847  -0.480   0.587  1.00  0.00     0.140 A 
ENDROOT
BRANCH   1   9
HETATM    9  N3  UNL     1      -0.188   0.337   1.551  1.00  0.00    -0.173 N 
ATOM     10  H3  UNL     1       0.335   0.537   2.404  1.00  0.00     0.186 HD
BRANCH   9  11
HETATM   11  C12 UNL     1      -1.482   0.412   1.623  1.00  0.00     0.685 A 
HETATM   12  N2  UNL     1      -2.062   0.740   2.790  1.00  0.00    -0.201 N 
HETATM   13  C11 UNL     1      -3.385   0.846   2.966  1.00  0.00     0.117 A 
ATOM     14  H2  UNL     1      -1.457   0.919   3.591  1.00  0.00     0.183 HD
HETATM   15  C10 UNL     1      -4.235   0.602   1.878  1.00  0.00     0.004 A 
HETATM   16  C9  UNL     1      -5.695   0.707   2.053  1.00  0.00     0.063 C 
HETATM   17  C27 UNL     1      -3.632   0.267   0.687  1.00  0.00     0.133 A 
HETATM   18  C4  UNL     1      -6.387   1.035   0.736  1.00  0.00     0.045 C 
HETATM   19  C3  UNL     1      -5.864   0.127  -0.303  1.00  0.00     0.234 C 
HETATM   20  N1  UNL     1      -4.443   0.012  -0.466  1.00  0.00    -0.303 N 
HETATM   21  O1  UNL     1      -6.630  -0.526  -1.023  1.00  0.00    -0.272 OA
HETATM   22  N7  UNL     1      -2.273   0.173   0.564  1.00  0.00    -0.176 N 
ATOM     23  H7  UNL     1      -1.859  -0.079  -0.334  1.00  0.00     0.186 HD
BRANCH  18  24
HETATM   24  C5  UNL     1      -6.104   2.457   0.317  1.00  0.00     0.015 C 
HETATM   25  C6  UNL     1      -6.796   2.714  -0.997  1.00  0.00     0.006 C 
ENDBRANCH  18  24
BRANCH  18  26
HETATM   26  C7  UNL     1      -7.874   0.895   0.935  1.00  0.00     0.015 C 
HETATM   27  C8  UNL     1      -8.309  -0.477   1.361  1.00  0.00     0.006 C 
ENDBRANCH  18  26
BRANCH  20  28
HETATM   28  C2  UNL     1      -3.881  -0.343  -1.737  1.00  0.00     0.129 C 
HETATM   29  C1  UNL     1      -3.706  -1.812  -1.949  1.00  0.00     0.027 C 
ENDBRANCH  20  28
ENDBRANCH   9  11
ENDBRANCH   1   9
BRANCH   8  30
HETATM   30  O5  UNL     1       2.381  -0.637   1.864  1.00  0.00    -0.350 OA
HETATM   31  C26 UNL     1       2.281  -1.792   2.639  1.00  0.00     0.210 C 
ENDBRANCH   8  30
BRANCH   7  32
HETATM   32  N5  UNL     1       3.973  -1.328  -0.357  1.00  0.00    -0.320 N 
HETATM   33  C18 UNL     1       4.250  -2.642  -0.878  1.00  0.00     0.159 C 
HETATM   34  C19 UNL     1       5.021  -0.590   0.253  1.00  0.00     0.224 C 
HETATM   35  O2  UNL     1       4.746   0.548   0.702  1.00  0.00    -0.273 OA
BRANCH  34  36
HETATM   36  C20 UNL     1       6.379  -1.122   0.363  1.00  0.00     0.103 C 
BRANCH  36  37
HETATM   37  C21 UNL     1       7.402  -0.243   0.954  1.00  0.00     0.012 C 
BRANCH  37  38
HETATM   38  C22 UNL     1       7.760   1.031   0.309  1.00  0.00     0.044 C 
BRANCH  38  39
HETATM   39  C23 UNL     1       8.349   1.008  -1.050  1.00  0.00     0.283 C 
BRANCH  39  40
HETATM   40  N6  UNL     1       9.576   0.230  -1.122  1.00  0.00    -0.065 N 
ATOM     41  H63 UNL     1      10.256   0.557  -0.435  1.00  0.00     0.275 HD
ATOM     42  H62 UNL     1       9.429  -0.717  -0.772  1.00  0.00     0.275 HD
ATOM     43  H61 UNL     1       9.982   0.214  -2.058  1.00  0.00     0.275 HD
ENDBRANCH  39  40
BRANCH  39  44
HETATM   44  C24 UNL     1       7.460   0.689  -2.137  1.00  0.00     0.204 C 
HETATM   45  O3  UNL     1       7.675  -0.266  -2.962  1.00  0.00    -0.646 OA
HETATM   46  O4  UNL     1       6.288   1.431  -2.354  1.00  0.00    -0.646 OA
ENDBRANCH  39  44
ENDBRANCH  38  39
ENDBRANCH  37  38
ENDBRANCH  36  37
ENDBRANCH  34  36
ENDBRANCH   7  32
TORSDOF 13
