REMARK  14 active torsions:
REMARK  status: ('A' for Active; 'I' for Inactive)
REMARK    1  A    between atoms: N1_2  and  C2_4 
REMARK    2  A    between atoms: C3_7  and  N3_8 
REMARK    3  A    between atoms: N3_8  and  C4_10 
REMARK    4  A    between atoms: C8_16  and  N5_17 
REMARK    5  A    between atoms: N5_17  and  C9_18 
REMARK    6  A    between atoms: C9_18  and  C10_19 
REMARK    7  A    between atoms: C10_19  and  C11_20 
REMARK    8  A    between atoms: C11_20  and  N6_21 
REMARK    9  A    between atoms: C17_29  and  O1_30 
REMARK   10  A    between atoms: O1_30  and  C18_31 
REMARK   11  A    between atoms: C18_31  and  C19_32 
REMARK   12  A    between atoms: C22_35  and  C23_36 
REMARK   13  A    between atoms: C23_36  and  N8_38 
REMARK   14  A    between atoms: C28_42  and  O2_43 
ROOT
HETATM    1  C2  UNL     1      -0.692  -2.272   2.763  1.00  0.00     0.681 A 
HETATM    2  N2  UNL     1       0.227  -2.246   1.801  1.00  0.00    -0.177 N 
ATOM      3  H2  UNL     1       1.019  -2.887   1.847  1.00  0.00     0.186 HD
HETATM    4  C3  UNL     1       0.128  -1.373   0.750  1.00  0.00     0.126 A 
HETATM    5  C16 UNL     1      -0.949  -0.548   0.747  1.00  0.00     0.105 A 
HETATM    6  C17 UNL     1      -1.944  -0.544   1.748  1.00  0.00     0.161 A 
HETATM    7  N9  UNL     1      -1.736  -1.467   2.758  1.00  0.00    -0.171 N 
ATOM      8  H9  UNL     1      -2.410  -1.526   3.521  1.00  0.00     0.186 HD
ENDROOT
BRANCH   4   9
HETATM    9  N3  UNL     1       1.149  -1.345  -0.224  1.00  0.00    -0.328 N 
ATOM     10  H3  UNL     1       0.898  -1.475  -1.204  1.00  0.00     0.169 HD
BRANCH   9  11
HETATM   11  C4  UNL     1       2.390  -1.161   0.082  1.00  0.00     0.111 A 
HETATM   12  C5  UNL     1       2.824  -0.970   1.370  1.00  0.00     0.073 A 
HETATM   13  C6  UNL     1       4.179  -0.873   1.675  1.00  0.00     0.013 A 
HETATM   14  C7  UNL     1       4.619  -0.663   3.067  1.00  0.00     0.068 C 
HETATM   15  N4  UNL     1       5.058  -0.970   0.682  1.00  0.00    -0.320 N 
HETATM   16  C8  UNL     1       4.675  -1.157  -0.622  1.00  0.00     0.260 A 
ATOM     17  H4  UNL     1       6.053  -0.903   0.898  1.00  0.00     0.169 HD
HETATM   18  N7  UNL     1       3.313  -1.247  -0.874  1.00  0.00    -0.302 N 
ATOM     19  H7  UNL     1       3.005  -1.385  -1.836  1.00  0.00     0.171 HD
BRANCH  16  20
HETATM   20  N5  UNL     1       5.508  -1.292  -1.498  1.00  0.00    -0.388 NA
BRANCH  20  21
HETATM   21  C9  UNL     1       6.685  -1.398  -2.143  1.00  0.00     0.161 C 
BRANCH  21  22
HETATM   22  C10 UNL     1       7.913  -1.034  -1.353  1.00  0.00     0.089 C 
BRANCH  22  23
HETATM   23  C11 UNL     1       8.085   0.372  -0.964  1.00  0.00     0.278 C 
BRANCH  23  24
HETATM   24  N6  UNL     1       8.259   1.271  -2.080  1.00  0.00     0.088 N 
HETATM   25  C12 UNL     1       8.430   2.651  -1.602  1.00  0.00     0.272 C 
HETATM   26  C13 UNL     1       9.809   2.575  -0.956  1.00  0.00     0.032 C 
HETATM   27  C14 UNL     1      10.573   1.497  -1.701  1.00  0.00     0.032 C 
HETATM   28  C15 UNL     1       9.548   1.089  -2.741  1.00  0.00     0.272 C 
ENDBRANCH  23  24
ENDBRANCH  22  23
ENDBRANCH  21  22
ENDBRANCH  20  21
ENDBRANCH  16  20
ENDBRANCH   9  11
ENDBRANCH   4   9
BRANCH   1  29
HETATM   29  N1  UNL     1      -0.514  -3.121   3.748  1.00  0.00    -0.230 N 
HETATM   30  C1  UNL     1      -1.485  -3.193   4.833  1.00  0.00     0.165 C 
ATOM     31  H1  UNL     1       0.304  -3.731   3.754  1.00  0.00     0.177 HD
ENDBRANCH   1  29
BRANCH   6  32
HETATM   32  O1  UNL     1      -2.979   0.211   1.796  1.00  0.00    -0.331 OA
BRANCH  32  33
HETATM   33  C18 UNL     1      -4.002   0.961   1.838  1.00  0.00     0.218 C 
BRANCH  33  34
HETATM   34  C19 UNL     1      -5.091   0.875   0.802  1.00  0.00    -0.001 A 
HETATM   35  C20 UNL     1      -5.088  -0.011  -0.234  1.00  0.00     0.013 A 
HETATM   36  C21 UNL     1      -6.161  -0.048  -1.120  1.00  0.00     0.013 A 
HETATM   37  C22 UNL     1      -7.261   0.756  -1.043  1.00  0.00    -0.017 A 
HETATM   38  C27 UNL     1      -7.237   1.665   0.037  1.00  0.00     0.050 A 
HETATM   39  C28 UNL     1      -6.186   1.714   0.919  1.00  0.00     0.077 A 
BRANCH  37  40
HETATM   40  C23 UNL     1      -8.422   0.707  -1.936  1.00  0.00    -0.007 C 
HETATM   41  C24 UNL     1      -8.304   1.472  -3.221  1.00  0.00     0.062 C 
BRANCH  40  42
HETATM   42  N8  UNL     1      -9.011  -0.574  -2.063  1.00  0.00    -0.295 NA
HETATM   43  C25 UNL     1      -8.413  -1.529  -2.913  1.00  0.00     0.116 C 
HETATM   44  C26 UNL     1      -9.393  -1.136  -0.763  1.00  0.00     0.116 C 
ENDBRANCH  40  42
ENDBRANCH  37  40
BRANCH  39  45
HETATM   45  O2  UNL     1      -6.165   2.606   1.977  1.00  0.00    -0.355 OA
HETATM   46  C29 UNL     1      -7.157   3.531   2.279  1.00  0.00     0.210 C 
ENDBRANCH  39  45
ENDBRANCH  33  34
ENDBRANCH  32  33
ENDBRANCH   6  32
TORSDOF 14
