REMARK  21 active torsions:
REMARK  status: ('A' for Active; 'I' for Inactive)
REMARK    1  A    between atoms: C2_2  and  C3_3 
REMARK    2  A    between atoms: C3_3  and  C4_4 
REMARK    3  A    between atoms: C4_4  and  C5_5 
REMARK    4  A    between atoms: C5_5  and  N1_6 
REMARK    5  A    between atoms: C5_5  and  C21_39 
REMARK    6  A    between atoms: N1_6  and  C6_8 
REMARK    7  A    between atoms: C6_8  and  O1_9 
REMARK    8  A    between atoms: C6_8  and  C7_11 
REMARK    9  A    between atoms: C9_15  and  N3_16 
REMARK   10  A    between atoms: N3_16  and  C10_17 
REMARK   11  A    between atoms: C10_17  and  O2_18 
REMARK   12  A    between atoms: C10_17  and  C11_20 
REMARK   13  A    between atoms: C11_20  and  N4_21 
REMARK   14  A    between atoms: N4_21  and  C12_22 
REMARK   15  A    between atoms: N4_21  and  C14_24 
REMARK   16  A    between atoms: C16_28  and  N6_29 
REMARK   17  A    between atoms: N6_29  and  C17_30 
REMARK   18  A    between atoms: C17_30  and  O3_31 
REMARK   19  A    between atoms: C17_30  and  C18_33 
REMARK   20  A    between atoms: C21_39  and  O5_41 
REMARK   21  A    between atoms: O5_41  and  C22_42 
ROOT
HETATM    1  C7  UNL     1       0.758   0.467  -0.570  1.00  0.00     0.128 A 
HETATM    2  N2  UNL     1      -0.450   0.193  -0.212  1.00  0.00    -0.341 N 
ATOM      3  H2  UNL     1      -0.666  -0.753   0.104  1.00  0.00     0.167 HD
HETATM    4  C8  UNL     1      -1.435   1.106  -0.239  1.00  0.00     0.126 A 
HETATM    5  C9  UNL     1      -2.723   0.822   0.195  1.00  0.00     0.215 A 
HETATM    6  N5  UNL     1      -3.607   1.915   0.174  1.00  0.00    -0.289 N 
ATOM      7  H5  UNL     1      -4.559   1.752   0.503  1.00  0.00     0.172 HD
HETATM    8  C16 UNL     1      -3.304   3.156  -0.243  1.00  0.00     0.264 A 
HETATM    9  N7  UNL     1      -2.066   3.345  -0.672  1.00  0.00    -0.308 N 
ATOM     10  H7  UNL     1      -1.794   4.265  -1.019  1.00  0.00     0.170 HD
HETATM   11  C20 UNL     1      -1.129   2.321  -0.661  1.00  0.00     0.111 A 
HETATM   12  S1  UNL     1       0.527   2.191  -1.017  1.00  0.00    -0.048 SA
ENDROOT
BRANCH   1  13
HETATM   13  C6  UNL     1       2.083  -0.145  -0.659  1.00  0.00     0.175 C 
BRANCH  13  14
HETATM   14  N1  UNL     1       2.566  -1.339  -0.024  1.00  0.00    -0.333 N 
ATOM     15  H1  UNL     1       1.962  -1.997   0.469  1.00  0.00     0.168 HD
BRANCH  14  16
HETATM   16  C5  UNL     1       3.983  -1.512  -0.153  1.00  0.00     0.087 C 
BRANCH  16  17
HETATM   17  C4  UNL     1       4.586  -2.671  -0.726  1.00  0.00     0.063 C 
BRANCH  17  18
HETATM   18  C3  UNL     1       4.532  -2.796  -2.239  1.00  0.00     0.006 C 
BRANCH  18  19
HETATM   19  C2  UNL     1       5.405  -1.701  -2.921  1.00  0.00    -0.004 C 
HETATM   20  C1  UNL     1       6.827  -1.926  -2.364  1.00  0.00     0.005 C 
ENDBRANCH  18  19
ENDBRANCH  17  18
ENDBRANCH  16  17
BRANCH  16  21
HETATM   21  C21 UNL     1       4.665  -0.978   1.150  1.00  0.00     0.306 C 
HETATM   22  O4  UNL     1       4.529  -1.464   2.201  1.00  0.00    -0.258 OA
BRANCH  21  23
HETATM   23  O5  UNL     1       5.419   0.127   0.927  1.00  0.00    -0.306 OA
BRANCH  23  24
HETATM   24  C22 UNL     1       6.207   0.925   1.663  1.00  0.00     0.060 C 
HETATM   25  C23 UNL     1       7.682   0.671   1.452  1.00  0.00     0.046 C 
HETATM   26  C24 UNL     1       5.988   0.682   3.175  1.00  0.00     0.046 C 
HETATM   27  C25 UNL     1       5.844   2.374   1.425  1.00  0.00     0.046 C 
ENDBRANCH  23  24
ENDBRANCH  21  23
ENDBRANCH  16  21
ENDBRANCH  14  16
ENDBRANCH  13  14
BRANCH  13  28
HETATM   28  O1  UNL     1       2.908   0.545  -1.390  1.00  0.00    -0.344 OA
ATOM     29  H1  UNL     1       2.588   1.335  -1.810  1.00  0.00     0.219 HD
ENDBRANCH  13  28
ENDBRANCH   1  13
BRANCH   5  30
HETATM   30  N3  UNL     1      -3.386  -0.170   0.310  1.00  0.00    -0.363 NA
BRANCH  30  31
HETATM   31  C10 UNL     1      -4.045  -1.266   0.410  1.00  0.00     0.210 C 
BRANCH  31  32
HETATM   32  O2  UNL     1      -4.922  -1.180  -0.767  1.00  0.00    -0.338 OA
ATOM     33  H2  UNL     1      -5.410  -1.992  -0.693  1.00  0.00     0.220 HD
ENDBRANCH  31  32
BRANCH  31  34
HETATM   34  C11 UNL     1      -4.409  -2.501   1.038  1.00  0.00     0.221 C 
BRANCH  34  35
HETATM   35  N4  UNL     1      -5.573  -2.980   0.242  1.00  0.00    -0.386 N 
BRANCH  35  36
HETATM   36  C12 UNL     1      -6.787  -2.295   0.487  1.00  0.00     0.118 C 
HETATM   37  C13 UNL     1      -7.723  -2.435  -0.661  1.00  0.00     0.026 C 
ENDBRANCH  35  36
BRANCH  35  38
HETATM   38  C14 UNL     1      -5.541  -4.201  -0.381  1.00  0.00     0.054 C 
HETATM   39  C15 UNL     1      -5.585  -5.470   0.375  1.00  0.00     0.054 C 
ENDBRANCH  35  38
ENDBRANCH  34  35
ENDBRANCH  31  34
ENDBRANCH  30  31
ENDBRANCH   5  30
BRANCH   8  40
HETATM   40  N6  UNL     1      -4.130   4.051  -0.174  1.00  0.00    -0.350 NA
BRANCH  40  41
HETATM   41  C17 UNL     1      -4.719   5.190  -0.259  1.00  0.00     0.193 C 
BRANCH  41  42
HETATM   42  O3  UNL     1      -5.940   5.371  -0.699  1.00  0.00    -0.339 OA
ATOM     43  H3  UNL     1      -6.375   6.213  -0.762  1.00  0.00     0.220 HD
ENDBRANCH  41  42
BRANCH  41  44
HETATM   44  C18 UNL     1      -4.005   6.452   0.173  1.00  0.00     0.096 C 
HETATM   45  C19 UNL     1      -5.099   7.524   0.356  1.00  0.00     0.014 C 
ENDBRANCH  41  44
ENDBRANCH  40  41
ENDBRANCH   8  40
TORSDOF 21
