REMARK  13 active torsions:
REMARK  status: ('A' for Active; 'I' for Inactive)
REMARK    1  A    between atoms: C2_2  and  C3_3 
REMARK    2  A    between atoms: C3_3  and  C4_4 
REMARK    3  A    between atoms: C4_4  and  N1_5 
REMARK    4  A    between atoms: N1_5  and  C5_7 
REMARK    5  A    between atoms: C6_10  and  N3_11 
REMARK    6  A    between atoms: N7_24  and  C12_25 
REMARK    7  A    between atoms: N8_28  and  C15_29 
REMARK    8  A    between atoms: C15_29  and  C16_30 
REMARK    9  A    between atoms: C16_30  and  N9_31 
REMARK   10  A    between atoms: C19_34  and  C20_35 
REMARK   11  A    between atoms: C26_41  and  N10_42 
REMARK   12  A    between atoms: N10_42  and  C27_43 
REMARK   13  A    between atoms: C27_43  and  C28_44 
ROOT
HETATM    1  N3  UNL     1      -4.560  -0.663   2.451  1.00  0.00    -0.326 N 
ATOM      2  H3  UNL     1      -5.234  -0.897   3.180  1.00  0.00     0.169 HD
HETATM    3  C7  UNL     1      -3.354  -0.921   2.685  1.00  0.00     0.139 A 
HETATM    4  N4  UNL     1      -3.008  -1.491   3.875  1.00  0.00    -0.337 N 
ATOM      5  H4  UNL     1      -3.721  -1.710   4.570  1.00  0.00     0.168 HD
HETATM    6  C8  UNL     1      -1.732  -1.756   4.115  1.00  0.00     0.183 A 
HETATM    7  N5  UNL     1      -0.734  -1.500   3.257  1.00  0.00    -0.336 N 
ATOM      8  H5  UNL     1       0.229  -1.730   3.503  1.00  0.00     0.168 HD
HETATM    9  C9  UNL     1      -1.020  -0.929   2.053  1.00  0.00     0.140 A 
HETATM   10  C10 UNL     1      -2.340  -0.649   1.793  1.00  0.00     0.122 A 
HETATM   11  N6  UNL     1      -2.346  -0.094   0.551  1.00  0.00    -0.346 N 
ATOM     12  H6  UNL     1      -3.175   0.232   0.055  1.00  0.00     0.167 HD
HETATM   13  C11 UNL     1      -1.101  -0.043   0.085  1.00  0.00     0.185 A 
HETATM   14  N7  UNL     1      -0.260  -0.564   1.015  1.00  0.00    -0.322 N 
ENDROOT
BRANCH   1  15
HETATM   15  C6  UNL     1      -5.063  -0.084   1.283  1.00  0.00     0.127 A 
HETATM   16  N2  UNL     1      -5.276   1.263   1.268  1.00  0.00    -0.176 N 
HETATM   17  C5  UNL     1      -5.771   1.910   0.205  1.00  0.00     0.682 A 
ATOM     18  H2  UNL     1      -5.048   1.802   2.104  1.00  0.00     0.186 HD
HETATM   19  N11 UNL     1      -6.065   1.201  -0.886  1.00  0.00    -0.164 N 
HETATM   20  C26 UNL     1      -5.894  -0.156  -0.991  1.00  0.00     0.196 A 
ATOM     21  H11 UNL     1      -6.441   1.699  -1.693  1.00  0.00     0.187 HD
HETATM   22  C25 UNL     1      -5.378  -0.777   0.142  1.00  0.00     0.113 A 
BRANCH  17  23
HETATM   23  N1  UNL     1      -5.971   3.208   0.209  1.00  0.00    -0.226 N 
ATOM     24  H1  UNL     1      -6.351   3.642  -0.632  1.00  0.00     0.177 HD
BRANCH  23  25
HETATM   25  C4  UNL     1      -5.685   4.038   1.326  1.00  0.00     0.142 C 
BRANCH  25  26
HETATM   26  C3  UNL     1      -6.872   4.115   2.291  1.00  0.00     0.046 C 
BRANCH  26  27
HETATM   27  C2  UNL     1      -8.072   4.680   1.573  1.00  0.00    -0.035 C 
HETATM   28  C1  UNL     1      -9.166   3.960   1.482  1.00  0.00     0.007 C 
ENDBRANCH  26  27
ENDBRANCH  25  26
ENDBRANCH  23  25
ENDBRANCH  17  23
BRANCH  20  29
HETATM   29  N10 UNL     1      -6.154  -0.763  -1.980  1.00  0.00    -0.403 NA
BRANCH  29  30
HETATM   30  C27 UNL     1      -6.296  -1.795  -2.845  1.00  0.00     0.162 C 
BRANCH  30  31
HETATM   31  C28 UNL     1      -5.671  -3.127  -2.393  1.00  0.00     0.038 A 
HETATM   32  C29 UNL     1      -5.838  -4.255  -3.370  1.00  0.00     0.011 A 
HETATM   33  C30 UNL     1      -6.580  -4.231  -2.029  1.00  0.00     0.011 A 
ENDBRANCH  30  31
ENDBRANCH  29  30
ENDBRANCH  20  29
ENDBRANCH   1  15
BRANCH  14  34
HETATM   34  C12 UNL     1       1.180  -0.682   0.853  1.00  0.00     0.098 C 
HETATM   35  C13 UNL     1       1.598  -0.294  -0.548  1.00  0.00     0.046 C 
HETATM   36  C14 UNL     1       3.067  -0.540  -0.704  1.00  0.00     0.129 C 
HETATM   37  N8  UNL     1       3.858   0.085   0.327  1.00  0.00    -0.372 N 
HETATM   38  C23 UNL     1       3.430  -0.179   1.639  1.00  0.00     0.065 C 
HETATM   39  C24 UNL     1       1.967   0.169   1.815  1.00  0.00     0.070 C 
BRANCH  37  40
HETATM   40  C15 UNL     1       5.232   0.183   0.042  1.00  0.00     0.082 C 
BRANCH  40  41
HETATM   41  C16 UNL     1       5.607   1.125  -1.060  1.00  0.00     0.161 C 
BRANCH  41  42
HETATM   42  N9  UNL     1       7.007   1.154  -1.303  1.00  0.00    -0.408 N 
HETATM   43  C17 UNL     1       7.835   1.712  -0.298  1.00  0.00     0.117 C 
HETATM   44  C18 UNL     1       9.243   1.246  -0.641  1.00  0.00     0.026 C 
HETATM   45  C19 UNL     1       9.087   0.188  -1.697  1.00  0.00     0.004 C 
HETATM   46  C22 UNL     1       7.589  -0.024  -1.845  1.00  0.00     0.121 C 
BRANCH  45  47
HETATM   47  C20 UNL     1       9.749  -1.084  -1.170  1.00  0.00     0.002 C 
HETATM   48  C21 UNL     1       9.654  -2.214  -2.147  1.00  0.00     0.005 C 
ENDBRANCH  45  47
ENDBRANCH  41  42
ENDBRANCH  40  41
ENDBRANCH  37  40
ENDBRANCH  14  34
TORSDOF 13
