REMARK  16 active torsions:
REMARK  status: ('A' for Active; 'I' for Inactive)
REMARK    1  A    between atoms: C2_2  and  C3_3 
REMARK    2  A    between atoms: C3_3  and  O1_4 
REMARK    3  A    between atoms: C3_3  and  C4_6 
REMARK    4  A    between atoms: C4_6  and  N1_7 
REMARK    5  A    between atoms: N2_9  and  C6_10 
REMARK    6  A    between atoms: C6_10  and  O2_11 
REMARK    7  A    between atoms: C6_10  and  C7_13 
REMARK    8  A    between atoms: C7_13  and  N3_14 
REMARK    9  A    between atoms: N3_14  and  C8_16 
REMARK   10  A    between atoms: C8_16  and  C9_17 
REMARK   11  A    between atoms: C9_17  and  C10_18 
REMARK   12  A    between atoms: C10_18  and  O4_20 
REMARK   13  A    between atoms: O4_20  and  C11_21 
REMARK   14  A    between atoms: C22_32  and  N4_33 
REMARK       I    between atoms: N4_33  and  C23_35 
REMARK   15  A    between atoms: C23_35  and  O6_37 
REMARK   16  A    between atoms: O6_37  and  C24_38 
ROOT
HETATM    1  N1  UNL     1      -0.127  -1.093   1.678  1.00  0.00    -0.331 N 
HETATM    2  C5  UNL     1       0.899  -0.033   1.629  1.00  0.00     0.255 C 
HETATM    3  N2  UNL     1       0.832   0.611   0.322  1.00  0.00    -0.335 N 
HETATM    4  C13 UNL     1      -0.099   1.752   0.148  1.00  0.00     0.038 C 
HETATM    5  C14 UNL     1       0.404   2.783   1.178  1.00  0.00     0.032 C 
HETATM    6  C15 UNL     1       0.698   4.112   0.553  1.00  0.00     0.011 C 
HETATM    7  C16 UNL     1      -0.459   4.688  -0.193  1.00  0.00    -0.048 C 
HETATM    8  C17 UNL     1      -1.585   5.138   0.704  1.00  0.00     0.015 C 
HETATM    9  C18 UNL     1       0.048   5.946  -0.906  1.00  0.00     0.015 C 
HETATM   10  C19 UNL     1      -0.967   3.671  -1.155  1.00  0.00     0.011 C 
HETATM   11  C20 UNL     1      -0.113   2.393  -1.162  1.00  0.00     0.032 C 
HETATM   12  C21 UNL     1      -1.466   1.324   0.662  1.00  0.00     0.066 C 
HETATM   13  C22 UNL     1      -1.890  -0.014   0.120  1.00  0.00     0.181 C 
HETATM   14  C28 UNL     1      -1.310  -1.140   0.902  1.00  0.00     0.244 C 
HETATM   15  O7  UNL     1      -1.953  -2.218   0.845  1.00  0.00    -0.271 OA
ENDROOT
BRANCH   3  16
HETATM   16  C6  UNL     1       1.620   0.135  -0.697  1.00  0.00     0.155 C 
BRANCH  16  17
HETATM   17  O2  UNL     1       1.487   0.672  -1.906  1.00  0.00    -0.345 OA
ATOM     18  H2  UNL     1       2.032   0.343  -2.611  1.00  0.00     0.219 HD
ENDBRANCH  16  17
BRANCH  16  19
HETATM   19  C7  UNL     1       2.642  -0.901  -0.760  1.00  0.00     0.139 C 
BRANCH  19  20
HETATM   20  N3  UNL     1       3.054  -1.621   0.375  1.00  0.00    -0.395 N 
ATOM     21  H3  UNL     1       2.803  -1.398   1.338  1.00  0.00     0.159 HD
BRANCH  20  22
HETATM   22  C8  UNL     1       3.906  -2.749  -0.043  1.00  0.00     0.129 C 
BRANCH  22  23
HETATM   23  C9  UNL     1       5.208  -2.242  -0.564  1.00  0.00     0.130 C 
BRANCH  23  24
HETATM   24  C10 UNL     1       6.087  -3.395  -0.947  1.00  0.00     0.260 C 
HETATM   25  O3  UNL     1       5.672  -4.572  -0.788  1.00  0.00    -0.265 OA
BRANCH  24  26
HETATM   26  O4  UNL     1       7.330  -3.082  -1.465  1.00  0.00    -0.322 OA
BRANCH  26  27
HETATM   27  C11 UNL     1       8.226  -4.096  -1.858  1.00  0.00     0.174 C 
HETATM   28  C12 UNL     1       7.615  -4.930  -2.948  1.00  0.00     0.034 C 
ENDBRANCH  26  27
ENDBRANCH  24  26
ENDBRANCH  23  24
ENDBRANCH  22  23
ENDBRANCH  20  22
ENDBRANCH  19  20
ENDBRANCH  16  19
ENDBRANCH   3  16
BRANCH   1  29
HETATM   29  C4  UNL     1       0.101  -2.148   2.594  1.00  0.00     0.163 C 
BRANCH  29  30
HETATM   30  C3  UNL     1      -0.443  -1.943   3.981  1.00  0.00     0.158 C 
BRANCH  30  31
HETATM   31  C2  UNL     1       0.243  -0.823   4.676  1.00  0.00    -0.004 C 
HETATM   32  C1  UNL     1       1.415  -1.037   5.230  1.00  0.00     0.009 C 
ENDBRANCH  30  31
BRANCH  30  33
HETATM   33  O1  UNL     1      -0.110  -3.119   4.701  1.00  0.00    -0.390 OA
ATOM     34  H1  UNL     1      -0.549  -3.835   4.257  1.00  0.00     0.210 HD
ENDBRANCH  30  33
ENDBRANCH  29  30
ENDBRANCH   1  29
BRANCH  13  35
HETATM   35  N4  UNL     1      -3.326  -0.087   0.282  1.00  0.00    -0.324 N 
HETATM   36  C23 UNL     1      -4.258  -0.229  -0.747  1.00  0.00     0.362 C 
HETATM   37  O5  UNL     1      -3.834  -0.303  -1.935  1.00  0.00    -0.238 OA
ATOM     38  H4  UNL     1      -3.690  -0.030   1.233  1.00  0.00     0.165 HD
BRANCH  36  39
HETATM   39  O6  UNL     1      -5.618  -0.295  -0.548  1.00  0.00    -0.294 OA
BRANCH  39  40
HETATM   40  C24 UNL     1      -6.478  -0.435  -1.643  1.00  0.00     0.061 C 
HETATM   41  C25 UNL     1      -6.335   0.727  -2.621  1.00  0.00     0.046 C 
HETATM   42  C26 UNL     1      -7.903  -0.341  -1.077  1.00  0.00     0.046 C 
HETATM   43  C27 UNL     1      -6.346  -1.731  -2.379  1.00  0.00     0.046 C 
ENDBRANCH  39  40
ENDBRANCH  36  39
ENDBRANCH  13  35
TORSDOF 16
