REMARK  16 active torsions:
REMARK  status: ('A' for Active; 'I' for Inactive)
REMARK    1  A    between atoms: C2_2  and  N1_3 
REMARK    2  A    between atoms: N1_3  and  C3_4 
REMARK    3  A    between atoms: N1_3  and  C5_6 
REMARK    4  A    between atoms: C5_6  and  C6_7 
REMARK    5  A    between atoms: C6_7  and  N2_8 
REMARK    6  A    between atoms: N2_8  and  C7_9 
REMARK    7  A    between atoms: N2_8  and  C26_44 
REMARK    8  A    between atoms: N3_10  and  C8_12 
REMARK    9  A    between atoms: C8_12  and  O1_13 
REMARK   10  A    between atoms: N4_15  and  C9_17 
REMARK   11  A    between atoms: C16_27  and  O2_29 
REMARK   12  A    between atoms: C20_33  and  O3_34 
REMARK   13  A    between atoms: C23_38  and  O4_39 
REMARK   14  A    between atoms: C26_44  and  C27_45 
REMARK   15  A    between atoms: C27_45  and  C28_46 
REMARK   16  A    between atoms: C28_46  and  N8_47 
ROOT
HETATM    1  C9  UNL     1       0.452   0.303  -0.100  1.00  0.00     0.138 C 
HETATM    2  C10 UNL     1       0.863   1.707   0.349  1.00  0.00     0.032 C 
HETATM    3  C11 UNL     1       2.054   2.252  -0.363  1.00  0.00     0.004 C 
HETATM    4  C12 UNL     1       3.187   2.398   0.646  1.00  0.00     0.027 C 
HETATM    5  C13 UNL     1       4.511   2.313  -0.068  1.00  0.00     0.233 C 
HETATM    6  N5  UNL     1       5.375   1.438   0.664  1.00  0.00    -0.068 N 
ATOM      7  H51 UNL     1       4.844   0.904   1.352  1.00  0.00     0.277 HD
ATOM      8  H52 UNL     1       5.979   1.972   1.289  1.00  0.00     0.277 HD
HETATM    9  C14 UNL     1       6.165   0.549  -0.170  1.00  0.00     0.222 C 
HETATM   10  C15 UNL     1       6.752   1.391  -1.279  1.00  0.00     0.043 C 
HETATM   11  C16 UNL     1       7.268  -0.152   0.614  1.00  0.00     0.128 C 
HETATM   12  C17 UNL     1       7.963   0.950   1.415  1.00  0.00     0.055 C 
HETATM   13  C19 UNL     1       6.676  -1.179   1.576  1.00  0.00     0.198 C 
HETATM   14  N6  UNL     1       5.674  -1.733   1.251  1.00  0.00    -0.392 NA
HETATM   15  C20 UNL     1       4.549  -2.466   1.075  1.00  0.00     0.240 C 
HETATM   16  C21 UNL     1       3.143  -1.919   0.940  1.00  0.00     0.101 A 
HETATM   17  C22 UNL     1       2.126  -2.360   1.809  1.00  0.00     0.074 A 
HETATM   18  C23 UNL     1       1.017  -1.622   1.509  1.00  0.00     0.095 A 
HETATM   19  C25 UNL     1       1.391  -0.748   0.461  1.00  0.00     0.066 A 
HETATM   20  N7  UNL     1       2.678  -0.960   0.141  1.00  0.00    -0.351 N 
ATOM     21  H7  UNL     1       3.205  -0.474  -0.584  1.00  0.00     0.166 HD
ENDROOT
BRANCH   1  22
HETATM   22  N4  UNL     1       0.121   0.182  -1.468  1.00  0.00    -0.346 N 
HETATM   23  C8  UNL     1      -0.987   0.027  -2.043  1.00  0.00     0.218 C 
ATOM     24  H4  UNL     1       0.920   0.228  -2.100  1.00  0.00     0.163 HD
BRANCH  23  25
HETATM   25  N3  UNL     1      -2.208  -0.056  -1.306  1.00  0.00    -0.319 N 
HETATM   26  C7  UNL     1      -3.096   0.903  -1.399  1.00  0.00     0.181 C 
ATOM     27  H3  UNL     1      -2.389  -0.862  -0.707  1.00  0.00     0.170 HD
BRANCH  26  28
HETATM   28  N2  UNL     1      -4.319   0.855  -0.686  1.00  0.00    -0.375 N 
BRANCH  28  29
HETATM   29  C6  UNL     1      -4.779  -0.416  -0.094  1.00  0.00     0.154 C 
BRANCH  29  30
HETATM   30  C5  UNL     1      -5.962  -0.864  -0.936  1.00  0.00     0.292 C 
BRANCH  30  31
HETATM   31  N1  UNL     1      -6.550  -2.093  -0.511  1.00  0.00     0.089 N 
BRANCH  31  32
HETATM   32  C2  UNL     1      -7.229  -2.069   0.746  1.00  0.00     0.268 C 
HETATM   33  C1  UNL     1      -8.282  -1.006   0.884  1.00  0.00     0.037 C 
ENDBRANCH  31  32
BRANCH  31  34
HETATM   34  C3  UNL     1      -5.589  -3.182  -0.522  1.00  0.00     0.268 C 
HETATM   35  C4  UNL     1      -6.361  -4.485  -0.520  1.00  0.00     0.037 C 
ENDBRANCH  31  34
ENDBRANCH  30  31
ENDBRANCH  29  30
ENDBRANCH  28  29
BRANCH  28  36
HETATM   36  C26 UNL     1      -5.178   1.996  -0.560  1.00  0.00     0.125 C 
BRANCH  36  37
HETATM   37  C27 UNL     1      -4.612   3.312  -0.978  1.00  0.00     0.047 C 
BRANCH  37  38
HETATM   38  C28 UNL     1      -3.474   3.733  -0.113  1.00  0.00     0.231 C 
BRANCH  38  39
HETATM   39  N8  UNL     1      -3.924   3.869   1.292  1.00  0.00    -0.079 N 
ATOM     40  H83 UNL     1      -4.722   4.499   1.378  1.00  0.00     0.274 HD
ATOM     41  H82 UNL     1      -4.368   3.017   1.634  1.00  0.00     0.274 HD
ATOM     42  H81 UNL     1      -3.145   4.157   1.884  1.00  0.00     0.274 HD
ENDBRANCH  38  39
ENDBRANCH  37  38
ENDBRANCH  36  37
ENDBRANCH  28  36
ENDBRANCH  26  28
ENDBRANCH  23  25
BRANCH  23  43
HETATM   43  O1  UNL     1      -1.070  -0.070  -3.436  1.00  0.00    -0.333 OA
ATOM     44  H1  UNL     1      -0.258  -0.015  -3.926  1.00  0.00     0.220 HD
ENDBRANCH  23  43
ENDBRANCH   1  22
BRANCH  18  45
HETATM   45  O4  UNL     1      -0.240  -1.720   2.127  1.00  0.00    -0.354 OA
HETATM   46  C24 UNL     1      -0.396  -2.662   3.158  1.00  0.00     0.210 C 
ENDBRANCH  18  45
BRANCH  15  47
HETATM   47  O3  UNL     1       4.667  -3.774   1.014  1.00  0.00    -0.334 OA
ATOM     48  H3  UNL     1       3.878  -4.288   0.891  1.00  0.00     0.220 HD
ENDBRANCH  15  47
BRANCH  11  49
HETATM   49  O2  UNL     1       8.167  -0.659  -0.257  1.00  0.00    -0.377 OA
HETATM   50  C18 UNL     1       7.757  -1.570  -1.170  1.00  0.00     0.203 C 
ENDBRANCH  11  49
TORSDOF 16
