REMARK  14 active torsions:
REMARK  status: ('A' for Active; 'I' for Inactive)
REMARK    1  A    between atoms: C2_2  and  C3_3 
REMARK    2  A    between atoms: C3_3  and  C4_4 
REMARK    3  A    between atoms: C4_4  and  C5_5 
REMARK    4  A    between atoms: C5_5  and  C6_6 
REMARK       I    between atoms: C6_6  and  N1_8 
REMARK    5  A    between atoms: N1_8  and  C7_10 
REMARK    6  A    between atoms: C9_14  and  C10_15 
REMARK    7  A    between atoms: C10_15  and  C11_16 
REMARK       I    between atoms: C11_16  and  N3_18 
REMARK    8  A    between atoms: N3_18  and  C12_20 
REMARK    9  A    between atoms: C13_25  and  C14_26 
REMARK   10  A    between atoms: C14_26  and  C15_27 
REMARK   11  A    between atoms: C15_27  and  C16_28 
REMARK   12  A    between atoms: C16_28  and  C17_29 
REMARK   13  A    between atoms: C17_29  and  C18_30 
REMARK       I    between atoms: N8_36  and  C20_38 
REMARK   14  A    between atoms: C20_38  and  C21_40 
ROOT
HETATM    1  C12 UNL     1       0.718   1.074   1.527  1.00  0.00     0.167 A 
HETATM    2  N4  UNL     1       0.118  -0.052   1.130  1.00  0.00    -0.279 N 
ATOM      3  H4  UNL     1       0.645  -0.778   0.644  1.00  0.00     0.189 HD
HETATM    4  N5  UNL     1      -1.120  -0.203   1.368  1.00  0.00    -0.296 N 
ATOM      5  H5  UNL     1      -1.589  -1.058   1.069  1.00  0.00     0.187 HD
HETATM    6  C13 UNL     1      -1.807   0.731   1.996  1.00  0.00     0.069 A 
HETATM    7  S2  UNL     1      -0.598   1.908   2.264  1.00  0.00    -0.038 SA
ENDROOT
BRANCH   1   8
HETATM    8  N3  UNL     1       1.963   1.454   1.409  1.00  0.00    -0.306 N 
HETATM    9  C11 UNL     1       2.850   0.560   0.764  1.00  0.00     0.228 C 
HETATM   10  O2  UNL     1       3.012  -0.576   1.329  1.00  0.00    -0.273 OA
ATOM     11  H3  UNL     1       2.281   2.355   1.766  1.00  0.00     0.171 HD
BRANCH   9  12
HETATM   12  C10 UNL     1       3.562   0.901  -0.493  1.00  0.00     0.150 C 
BRANCH  12  13
HETATM   13  C9  UNL     1       4.420  -0.287  -0.856  1.00  0.00     0.010 A 
HETATM   14  C8  UNL     1       4.118  -1.350  -1.666  1.00  0.00     0.105 A 
HETATM   15  N2  UNL     1       5.031  -2.267  -1.828  1.00  0.00    -0.345 N 
HETATM   16  C7  UNL     1       6.198  -2.125  -1.203  1.00  0.00     0.151 A 
ATOM     17  H2  UNL     1       4.854  -3.077  -2.422  1.00  0.00     0.167 HD
HETATM   18  S3  UNL     1       6.010  -0.656  -0.360  1.00  0.00    -0.057 SA
BRANCH  16  19
HETATM   19  N1  UNL     1       7.234  -2.935  -1.239  1.00  0.00    -0.307 N 
HETATM   20  C6  UNL     1       8.355  -2.539  -0.475  1.00  0.00     0.223 C 
HETATM   21  O1  UNL     1       8.617  -3.112   0.601  1.00  0.00    -0.273 OA
ATOM     22  H1  UNL     1       7.228  -3.796  -1.785  1.00  0.00     0.171 HD
BRANCH  20  23
HETATM   23  C5  UNL     1       9.213  -1.445  -0.956  1.00  0.00     0.103 C 
BRANCH  23  24
HETATM   24  C4  UNL     1      10.304  -1.193   0.040  1.00  0.00     0.009 C 
BRANCH  24  25
HETATM   25  C3  UNL     1      11.242  -0.091  -0.353  1.00  0.00     0.000 C 
BRANCH  25  26
HETATM   26  C2  UNL     1      10.546   1.230  -0.527  1.00  0.00    -0.005 C 
HETATM   27  C1  UNL     1      11.604   2.255  -0.921  1.00  0.00     0.005 C 
ENDBRANCH  25  26
ENDBRANCH  24  25
ENDBRANCH  23  24
ENDBRANCH  20  23
ENDBRANCH  16  19
ENDBRANCH  12  13
ENDBRANCH   9  12
ENDBRANCH   1   8
BRANCH   6  28
HETATM   28  C14 UNL     1      -3.249   0.723   2.361  1.00  0.00     0.066 C 
BRANCH  28  29
HETATM   29  C15 UNL     1      -4.000  -0.479   1.954  1.00  0.00     0.007 C 
BRANCH  29  30
HETATM   30  C16 UNL     1      -4.077  -0.788   0.507  1.00  0.00     0.007 C 
BRANCH  30  31
HETATM   31  C17 UNL     1      -4.733   0.302  -0.308  1.00  0.00     0.066 C 
BRANCH  31  32
HETATM   32  C18 UNL     1      -6.147   0.536   0.168  1.00  0.00     0.069 A 
HETATM   33  N6  UNL     1      -6.550   1.387   1.099  1.00  0.00    -0.296 N 
HETATM   34  N7  UNL     1      -7.778   1.475   1.398  1.00  0.00    -0.279 N 
ATOM     35  H6  UNL     1      -5.868   1.975   1.578  1.00  0.00     0.187 HD
HETATM   36  C19 UNL     1      -8.653   0.696   0.759  1.00  0.00     0.167 A 
ATOM     37  H7  UNL     1      -8.092   2.130   2.114  1.00  0.00     0.189 HD
HETATM   38  N8  UNL     1      -9.953   0.657   0.944  1.00  0.00    -0.306 N 
HETATM   39  S1  UNL     1      -7.629  -0.175  -0.298  1.00  0.00    -0.038 SA
HETATM   40  C20 UNL     1     -10.731  -0.224   0.185  1.00  0.00     0.227 C 
ATOM     41  H8  UNL     1     -10.392   1.265   1.636  1.00  0.00     0.171 HD
HETATM   42  O3  UNL     1     -10.439  -1.423   0.040  1.00  0.00    -0.273 OA
BRANCH  40  43
HETATM   43  C21 UNL     1     -11.962   0.296  -0.479  1.00  0.00     0.070 C 
HETATM   44  C22 UNL     1     -12.679  -0.811  -1.231  1.00  0.00     0.019 C 
HETATM   45  C23 UNL     1     -11.497   1.329  -1.506  1.00  0.00     0.019 C 
ENDBRANCH  40  43
ENDBRANCH  31  32
ENDBRANCH  30  31
ENDBRANCH  29  30
ENDBRANCH  28  29
ENDBRANCH   6  28
TORSDOF 14
