REMARK  15 active torsions:
REMARK  status: ('A' for Active; 'I' for Inactive)
REMARK    1  A    between atoms: C2_2  and  C4_4 
REMARK    2  A    between atoms: C4_4  and  C5_5 
REMARK       I    between atoms: C5_5  and  N1_7 
REMARK    3  A    between atoms: N1_7  and  C6_9 
REMARK    4  A    between atoms: C7_14  and  C8_15 
REMARK    5  A    between atoms: C8_15  and  C9_16 
REMARK    6  A    between atoms: C9_16  and  C10_17 
REMARK    7  A    between atoms: C10_17  and  C11_18 
REMARK    8  A    between atoms: C11_18  and  C12_19 
REMARK       I    between atoms: N6_25  and  C14_27 
REMARK    9  A    between atoms: C14_27  and  C15_29 
REMARK   10  A    between atoms: C15_29  and  C16_30 
REMARK   11  A    between atoms: C15_29  and  N7_36 
REMARK   12  A    between atoms: C16_30  and  C17_31 
REMARK   13  A    between atoms: C17_31  and  C18_32 
REMARK       I    between atoms: N7_36  and  C22_38 
REMARK       I    between atoms: C22_38  and  N8_40 
REMARK   14  A    between atoms: N8_40  and  N9_42 
REMARK   15  A    between atoms: N9_42  and  O4_44 
ROOT
HETATM    1  C12 UNL     1      -0.410  -0.228   1.570  1.00  0.00     0.069 A 
HETATM    2  N4  UNL     1      -0.902   0.577   0.634  1.00  0.00    -0.296 N 
ATOM      3  H4  UNL     1      -0.336   0.808  -0.183  1.00  0.00     0.187 HD
HETATM    4  N5  UNL     1      -2.062   1.058   0.746  1.00  0.00    -0.279 N 
ATOM      5  H5  UNL     1      -2.430   1.675   0.022  1.00  0.00     0.189 HD
HETATM    6  C13 UNL     1      -2.805   0.763   1.804  1.00  0.00     0.167 A 
HETATM    7  N6  UNL     1      -4.043   1.147   2.078  1.00  0.00    -0.304 N 
ATOM      8  H6  UNL     1      -4.531   0.866   2.928  1.00  0.00     0.171 HD
HETATM    9  C14 UNL     1      -4.631   1.974   1.101  1.00  0.00     0.246 C 
HETATM   10  O2  UNL     1      -4.130   3.157   1.024  1.00  0.00    -0.271 OA
HETATM   11  S1  UNL     1      -1.745  -0.266   2.669  1.00  0.00    -0.038 SA
ENDROOT
BRANCH   9  12
HETATM   12  C15 UNL     1      -5.713   1.662   0.176  1.00  0.00     0.178 C 
BRANCH  12  13
HETATM   13  C16 UNL     1      -5.772   0.275  -0.359  1.00  0.00     0.035 C 
BRANCH  13  14
HETATM   14  C17 UNL     1      -5.999  -0.816   0.631  1.00  0.00     0.011 C 
BRANCH  14  15
HETATM   15  C18 UNL     1      -5.982  -2.186  -0.043  1.00  0.00    -0.051 C 
HETATM   16  C19 UNL     1      -6.215  -3.220   1.031  1.00  0.00     0.014 C 
HETATM   17  C20 UNL     1      -7.052  -2.323  -1.087  1.00  0.00     0.014 C 
HETATM   18  C21 UNL     1      -4.621  -2.439  -0.666  1.00  0.00     0.014 C 
ENDBRANCH  14  15
ENDBRANCH  13  14
ENDBRANCH  12  13
BRANCH  12  19
HETATM   19  N7  UNL     1      -5.890   2.675  -0.840  1.00  0.00    -0.328 N 
HETATM   20  C22 UNL     1      -6.953   3.583  -0.953  1.00  0.00     0.338 C 
HETATM   21  O3  UNL     1      -7.882   3.571  -0.114  1.00  0.00    -0.245 OA
HETATM   22  N8  UNL     1      -7.014   4.538  -2.012  1.00  0.00    -0.228 N 
HETATM   23  C23 UNL     1      -8.135   5.443  -2.071  1.00  0.00     0.185 C 
ATOM     24  H7  UNL     1      -5.163   2.736  -1.552  1.00  0.00     0.165 HD
BRANCH  22  25
HETATM   25  N9  UNL     1      -5.980   4.561  -2.969  1.00  0.00    -0.204 N 
ATOM     26  H9  UNL     1      -5.853   3.786  -3.620  1.00  0.00     0.216 HD
BRANCH  25  27
HETATM   27  O4  UNL     1      -5.230   5.544  -3.000  1.00  0.00    -0.274 OA
ATOM     28  H4  UNL     1      -4.533   5.560  -3.645  1.00  0.00     0.246 HD
ENDBRANCH  25  27
ENDBRANCH  22  25
ENDBRANCH  12  19
ENDBRANCH   9  12
BRANCH   1  29
HETATM   29  C11 UNL     1       0.906  -0.909   1.655  1.00  0.00     0.066 C 
BRANCH  29  30
HETATM   30  C10 UNL     1       1.823  -0.466   0.573  1.00  0.00     0.007 C 
BRANCH  30  31
HETATM   31  C9  UNL     1       2.198   0.983   0.652  1.00  0.00     0.007 C 
BRANCH  31  32
HETATM   32  C8  UNL     1       3.132   1.392  -0.470  1.00  0.00     0.066 C 
BRANCH  32  33
HETATM   33  C7  UNL     1       4.404   0.584  -0.430  1.00  0.00     0.069 A 
HETATM   34  N3  UNL     1       5.522   0.843   0.234  1.00  0.00    -0.296 N 
HETATM   35  N2  UNL     1       6.515   0.060   0.145  1.00  0.00    -0.279 N 
ATOM     36  H3  UNL     1       5.583   1.676   0.819  1.00  0.00     0.187 HD
HETATM   37  C6  UNL     1       6.423  -1.026  -0.622  1.00  0.00     0.167 A 
ATOM     38  H2  UNL     1       7.376   0.259   0.655  1.00  0.00     0.189 HD
HETATM   39  S2  UNL     1       4.817  -0.874  -1.224  1.00  0.00    -0.038 SA
BRANCH  37  40
HETATM   40  N1  UNL     1       7.301  -1.960  -0.868  1.00  0.00    -0.306 N 
HETATM   41  C5  UNL     1       8.559  -1.874  -0.267  1.00  0.00     0.224 C 
HETATM   42  O1  UNL     1       8.655  -1.850   0.989  1.00  0.00    -0.273 OA
ATOM     43  H1  UNL     1       7.073  -2.738  -1.487  1.00  0.00     0.171 HD
BRANCH  41  44
HETATM   44  C4  UNL     1       9.763  -1.811  -1.151  1.00  0.00     0.107 C 
BRANCH  44  45
HETATM   45  C2  UNL     1      11.053  -1.714  -0.360  1.00  0.00    -0.014 C 
HETATM   46  C1  UNL     1      11.098  -0.501   0.510  1.00  0.00     0.010 C 
HETATM   47  C3  UNL     1      11.354  -2.990   0.386  1.00  0.00     0.010 C 
ENDBRANCH  44  45
ENDBRANCH  41  44
ENDBRANCH  37  40
ENDBRANCH  32  33
ENDBRANCH  31  32
ENDBRANCH  30  31
ENDBRANCH  29  30
ENDBRANCH   1  29
TORSDOF 15
