REMARK  14 active torsions:
REMARK  status: ('A' for Active; 'I' for Inactive)
REMARK    1  A    between atoms: C2_2  and  C3_3 
REMARK    2  A    between atoms: C5_5  and  C6_6 
REMARK    3  A    between atoms: C9_10  and  C10_11 
REMARK    4  A    between atoms: C10_11  and  C11_13 
REMARK    5  A    between atoms: C11_13  and  C12_14 
REMARK    6  A    between atoms: C12_14  and  C13_15 
REMARK    7  A    between atoms: C14_16  and  C15_17 
REMARK    8  A    between atoms: N1_19  and  C17_20 
REMARK    9  A    between atoms: C17_20  and  C18_21 
REMARK       I    between atoms: C18_21  and  N2_23 
REMARK   10  A    between atoms: N2_23  and  C19_25 
REMARK   11  A    between atoms: C19_25  and  C20_26 
REMARK   12  A    between atoms: C20_26  and  N3_27 
REMARK       I    between atoms: N4_33  and  C24_35 
REMARK       I    between atoms: C24_35  and  N5_37 
REMARK   13  A    between atoms: N5_37  and  C25_39 
REMARK   14  A    between atoms: C29_43  and  O7_44 
ROOT
HETATM    1  C12 UNL     1      -1.254   0.359  -0.538  1.00  0.00     0.020 C 
HETATM    2  N4  UNL     1      -1.956   1.392  -0.708  1.00  0.00    -0.312 N 
ATOM      3  H4  UNL     1      -2.926   1.358  -0.395  1.00  0.00     0.170 HD
HETATM    4  C24 UNL     1      -1.507   2.584  -1.294  1.00  0.00     0.321 C 
HETATM    5  O6  UNL     1      -0.931   2.623  -2.392  1.00  0.00    -0.247 OA
HETATM    6  N5  UNL     1      -1.707   3.824  -0.622  1.00  0.00    -0.335 N 
ATOM      7  H5  UNL     1      -2.176   3.808   0.284  1.00  0.00     0.165 HD
ENDROOT
BRANCH   1   8
HETATM    8  C11 UNL     1      -1.853  -0.837   0.095  1.00  0.00     0.138 C 
BRANCH   8   9
HETATM    9  C10 UNL     1      -3.287  -0.714   0.404  1.00  0.00     0.163 C 
HETATM   10  O2  UNL     1      -3.908   0.266   0.109  1.00  0.00    -0.295 OA
BRANCH   9  11
HETATM   11  C9  UNL     1      -4.037  -1.806   1.101  1.00  0.00     0.222 C 
HETATM   12  O1  UNL     1      -5.370  -1.503   1.250  1.00  0.00    -0.365 OA
HETATM   13  C5  UNL     1      -6.080  -2.401   0.448  1.00  0.00     0.165 C 
HETATM   14  C3  UNL     1      -5.294  -3.701   0.553  1.00  0.00     0.032 C 
HETATM   15  C4  UNL     1      -5.563  -4.649  -0.563  1.00  0.00     0.025 C 
HETATM   16  C29 UNL     1      -3.893  -3.143   0.425  1.00  0.00     0.169 C 
BRANCH  13  17
HETATM   17  C6  UNL     1      -7.457  -2.492   0.941  1.00  0.00    -0.063 C 
HETATM   18  C7  UNL     1      -7.887  -1.749   1.951  1.00  0.00     0.016 C 
HETATM   19  C8  UNL     1      -8.470  -3.428   0.346  1.00  0.00     0.045 C 
ENDBRANCH  13  17
BRANCH  14  20
HETATM   20  C2  UNL     1      -5.471  -4.291   1.904  1.00  0.00    -0.022 C 
HETATM   21  C1  UNL     1      -4.950  -5.439   2.249  1.00  0.00     0.008 C 
ENDBRANCH  14  20
BRANCH  16  22
HETATM   22  O7  UNL     1      -2.952  -3.954   1.050  1.00  0.00    -0.391 OA
ATOM     23  H7  UNL     1      -2.073  -3.604   0.970  1.00  0.00     0.210 HD
ENDBRANCH  16  22
ENDBRANCH   9  11
ENDBRANCH   8   9
ENDBRANCH   1   8
BRANCH   1  24
HETATM   24  C13 UNL     1       0.160   0.263  -0.908  1.00  0.00     0.026 C 
HETATM   25  C14 UNL     1       0.810  -0.858  -0.713  1.00  0.00     0.021 C 
BRANCH  25  26
HETATM   26  C15 UNL     1       2.212  -0.975  -1.071  1.00  0.00     0.059 A 
HETATM   27  C16 UNL     1       3.069  -0.040  -1.587  1.00  0.00     0.135 A 
HETATM   28  N1  UNL     1       4.257  -0.640  -1.740  1.00  0.00    -0.251 N 
HETATM   29  O4  UNL     1       4.189  -1.877  -1.357  1.00  0.00    -0.192 OA
HETATM   30  C23 UNL     1       2.989  -2.131  -0.948  1.00  0.00     0.316 A 
HETATM   31  O5  UNL     1       2.580  -3.237  -0.508  1.00  0.00    -0.257 OA
BRANCH  28  32
HETATM   32  C17 UNL     1       5.448   0.051  -2.245  1.00  0.00     0.258 C 
BRANCH  32  33
HETATM   33  C18 UNL     1       6.181   0.633  -1.051  1.00  0.00     0.241 C 
HETATM   34  O3  UNL     1       5.646   0.364   0.044  1.00  0.00    -0.271 OA
HETATM   35  N2  UNL     1       7.340   1.393  -1.217  1.00  0.00    -0.338 N 
ATOM     36  H2  UNL     1       7.644   1.531  -2.181  1.00  0.00     0.167 HD
BRANCH  35  37
HETATM   37  C19 UNL     1       8.145   1.994  -0.231  1.00  0.00     0.093 C 
BRANCH  37  38
HETATM   38  C20 UNL     1       8.848   1.168   0.767  1.00  0.00     0.315 C 
BRANCH  38  39
HETATM   39  N3  UNL     1       8.044   0.440   1.691  1.00  0.00     0.084 N 
HETATM   40  C21 UNL     1       8.971  -0.449   2.442  1.00  0.00     0.309 C 
HETATM   41  C22 UNL     1       7.576   1.418   2.726  1.00  0.00     0.309 C 
ENDBRANCH  38  39
ENDBRANCH  37  38
ENDBRANCH  35  37
ENDBRANCH  32  33
ENDBRANCH  28  32
ENDBRANCH  25  26
ENDBRANCH   1  24
BRANCH   6  42
HETATM   42  C25 UNL     1      -1.288   5.097  -1.143  1.00  0.00     0.023 C 
HETATM   43  C26 UNL     1       0.194   5.176  -1.371  1.00  0.00     0.037 C 
HETATM   44  C27 UNL     1      -1.649   6.188  -0.153  1.00  0.00     0.037 C 
HETATM   45  C28 UNL     1      -1.995   5.308  -2.466  1.00  0.00     0.037 C 
ENDBRANCH   6  42
TORSDOF 14
