REMARK  13 active torsions:
REMARK  status: ('A' for Active; 'I' for Inactive)
REMARK       I    between atoms: C2_2  and  N1_4 
REMARK    1  A    between atoms: N1_4  and  C3_6 
REMARK    2  A    between atoms: C3_6  and  C4_7 
REMARK       I    between atoms: C4_7  and  N2_9 
REMARK    3  A    between atoms: N2_9  and  C5_11 
REMARK    4  A    between atoms: C6_16  and  C7_17 
REMARK    5  A    between atoms: C7_17  and  C8_18 
REMARK    6  A    between atoms: C8_18  and  C9_19 
REMARK    7  A    between atoms: C9_19  and  C10_20 
REMARK    8  A    between atoms: C10_20  and  C11_21 
REMARK       I    between atoms: N7_27  and  C13_29 
REMARK    9  A    between atoms: C13_29  and  C14_31 
REMARK   10  A    between atoms: C14_31  and  C15_32 
REMARK   11  A    between atoms: C21_38  and  O4_39 
REMARK   12  A    between atoms: O4_39  and  C22_40 
REMARK   13  A    between atoms: C22_40  and  C23_41 
ROOT
HETATM    1  C11 UNL     1       0.778  -1.316   0.428  1.00  0.00     0.069 A 
HETATM    2  N5  UNL     1       0.076  -0.330  -0.095  1.00  0.00    -0.296 N 
ATOM      3  H5  UNL     1       0.559   0.441  -0.556  1.00  0.00     0.187 HD
HETATM    4  N6  UNL     1      -1.188  -0.326  -0.034  1.00  0.00    -0.279 N 
ATOM      5  H6  UNL     1      -1.720   0.443  -0.442  1.00  0.00     0.189 HD
HETATM    6  C12 UNL     1      -1.818  -1.334   0.567  1.00  0.00     0.167 A 
HETATM    7  N7  UNL     1      -3.084  -1.541   0.749  1.00  0.00    -0.306 N 
ATOM      8  H7  UNL     1      -3.398  -2.380   1.237  1.00  0.00     0.171 HD
HETATM    9  C13 UNL     1      -4.026  -0.609   0.273  1.00  0.00     0.228 C 
HETATM   10  O3  UNL     1      -4.616  -0.895  -0.816  1.00  0.00    -0.273 OA
HETATM   11  S1  UNL     1      -0.481  -2.317   1.055  1.00  0.00    -0.038 SA
ENDROOT
BRANCH   1  12
HETATM   12  C10 UNL     1       2.264  -1.546   0.490  1.00  0.00     0.066 C 
BRANCH  12  13
HETATM   13  C9  UNL     1       2.773  -2.294  -0.695  1.00  0.00     0.007 C 
BRANCH  13  14
HETATM   14  C8  UNL     1       4.255  -2.514  -0.544  1.00  0.00     0.007 C 
BRANCH  14  15
HETATM   15  C7  UNL     1       4.994  -1.222  -0.442  1.00  0.00     0.066 C 
BRANCH  15  16
HETATM   16  C6  UNL     1       6.469  -1.520  -0.288  1.00  0.00     0.069 A 
HETATM   17  N4  UNL     1       7.051  -2.703  -0.262  1.00  0.00    -0.296 N 
HETATM   18  N3  UNL     1       8.292  -2.827  -0.120  1.00  0.00    -0.279 N 
ATOM     19  H4  UNL     1       6.477  -3.540  -0.360  1.00  0.00     0.187 HD
HETATM   20  C5  UNL     1       9.043  -1.692   0.009  1.00  0.00     0.167 A 
ATOM     21  H3  UNL     1       8.728  -3.749  -0.101  1.00  0.00     0.189 HD
HETATM   22  S2  UNL     1       7.814  -0.498  -0.093  1.00  0.00    -0.038 SA
BRANCH  20  23
HETATM   23  N2  UNL     1      10.318  -1.653   0.164  1.00  0.00    -0.305 N 
HETATM   24  C4  UNL     1      11.037  -0.477   0.292  1.00  0.00     0.241 C 
HETATM   25  O2  UNL     1      12.302  -0.579   0.473  1.00  0.00    -0.271 OA
ATOM     26  H2  UNL     1      10.828  -2.536   0.194  1.00  0.00     0.171 HD
BRANCH  24  27
HETATM   27  C3  UNL     1      10.481   0.886   0.239  1.00  0.00     0.225 C 
BRANCH  27  28
HETATM   28  N1  UNL     1      11.475   1.905   0.379  1.00  0.00    -0.353 N 
HETATM   29  C2  UNL     1      12.516   2.044  -0.552  1.00  0.00     0.213 C 
HETATM   30  C1  UNL     1      13.527   3.126  -0.340  1.00  0.00     0.117 C 
HETATM   31  O1  UNL     1      12.667   1.330  -1.553  1.00  0.00    -0.274 OA
ATOM     32  H1  UNL     1      11.426   2.544   1.172  1.00  0.00     0.162 HD
ENDBRANCH  27  28
ENDBRANCH  24  27
ENDBRANCH  20  23
ENDBRANCH  15  16
ENDBRANCH  14  15
ENDBRANCH  13  14
ENDBRANCH  12  13
ENDBRANCH   1  12
BRANCH   9  33
HETATM   33  C14 UNL     1      -4.378   0.650   0.928  1.00  0.00     0.144 C 
BRANCH  33  34
HETATM   34  C15 UNL     1      -5.423   1.411   0.232  1.00  0.00    -0.015 A 
HETATM   35  C16 UNL     1      -5.137   2.511  -0.522  1.00  0.00     0.017 A 
HETATM   36  C17 UNL     1      -6.126   3.220  -1.175  1.00  0.00    -0.061 A 
HETATM   37  C18 UNL     1      -5.821   4.418  -2.001  1.00  0.00     0.048 C 
HETATM   38  C19 UNL     1      -7.439   2.790  -1.050  1.00  0.00     0.009 A 
HETATM   39  C20 UNL     1      -7.763   1.678  -0.292  1.00  0.00     0.038 A 
HETATM   40  C21 UNL     1      -6.762   0.963   0.366  1.00  0.00     0.075 A 
BRANCH  40  41
HETATM   41  O4  UNL     1      -6.914  -0.124   1.131  1.00  0.00    -0.347 OA
BRANCH  41  42
HETATM   42  C22 UNL     1      -7.975  -0.870   1.515  1.00  0.00     0.203 C 
BRANCH  42  43
HETATM   43  C23 UNL     1      -8.775  -1.555   0.466  1.00  0.00     0.001 C 
HETATM   44  C24 UNL     1     -10.052  -1.397   0.225  1.00  0.00    -0.089 C 
HETATM   45  C25 UNL     1     -10.676  -2.183  -0.884  1.00  0.00     0.042 C 
HETATM   46  C26 UNL     1     -10.935  -0.498   1.006  1.00  0.00     0.042 C 
ENDBRANCH  42  43
ENDBRANCH  41  42
ENDBRANCH  40  41
ENDBRANCH  33  34
ENDBRANCH   9  33
TORSDOF 13
