REMARK  14 active torsions:
REMARK  status: ('A' for Active; 'I' for Inactive)
REMARK    1  A    between atoms: C2_2  and  C3_3 
REMARK    2  A    between atoms: C3_3  and  C4_4 
REMARK    3  A    between atoms: C6_6  and  C7_7 
REMARK    4  A    between atoms: C7_7  and  C8_8 
REMARK    5  A    between atoms: C8_8  and  N1_9 
REMARK    6  A    between atoms: C8_8  and  C26_34 
REMARK       I    between atoms: N1_9  and  C9_11 
REMARK    7  A    between atoms: C9_11  and  C10_13 
REMARK    8  A    between atoms: C12_15  and  C13_16 
REMARK    9  A    between atoms: C13_16  and  N2_17 
REMARK   10  A    between atoms: C15_21  and  C16_22 
REMARK   11  A    between atoms: C16_22  and  O3_24 
REMARK   12  A    between atoms: O3_24  and  C17_25 
REMARK   13  A    between atoms: C27_37  and  C28_38 
REMARK   14  A    between atoms: C30_42  and  O8_43 
ROOT
HETATM    1  N1  UNL     1      -2.084   3.128   0.022  1.00  0.00    -0.342 N 
ATOM      2  H1  UNL     1      -1.716   3.838  -0.611  1.00  0.00     0.163 HD
HETATM    3  C9  UNL     1      -1.229   2.044   0.328  1.00  0.00     0.253 C 
HETATM    4  O1  UNL     1      -1.751   1.164   1.098  1.00  0.00    -0.268 OA
ENDROOT
BRANCH   3   5
HETATM    5  C10 UNL     1       0.128   1.861  -0.147  1.00  0.00     0.038 A 
HETATM    6  C11 UNL     1       0.488   0.598  -0.538  1.00  0.00     0.027 A 
HETATM    7  C12 UNL     1       1.765   0.322  -1.068  1.00  0.00    -0.033 A 
HETATM    8  C21 UNL     1       2.661   1.336  -1.195  1.00  0.00    -0.053 A 
HETATM    9  C22 UNL     1       4.010   1.171  -1.763  1.00  0.00     0.049 C 
HETATM   10  C23 UNL     1       2.319   2.627  -0.805  1.00  0.00     0.015 A 
HETATM   11  C24 UNL     1       1.053   2.868  -0.285  1.00  0.00    -0.046 A 
HETATM   12  C25 UNL     1       0.707   4.236   0.160  1.00  0.00     0.049 C 
BRANCH   7  13
HETATM   13  C13 UNL     1       2.098  -1.058  -1.446  1.00  0.00     0.168 C 
BRANCH  13  14
HETATM   14  N2  UNL     1       2.790  -1.829  -0.432  1.00  0.00    -0.346 N 
HETATM   15  C14 UNL     1       2.151  -2.575   0.537  1.00  0.00     0.183 A 
HETATM   16  N3  UNL     1       3.057  -3.186   1.303  1.00  0.00    -0.346 N 
HETATM   17  C15 UNL     1       4.296  -2.877   0.883  1.00  0.00     0.124 A 
ATOM     18  H3  UNL     1       2.841  -3.797   2.091  1.00  0.00     0.167 HD
HETATM   19  C20 UNL     1       4.090  -2.037  -0.192  1.00  0.00     0.128 A 
BRANCH  17  20
HETATM   20  C16 UNL     1       5.537  -3.356   1.459  1.00  0.00     0.311 C 
HETATM   21  O2  UNL     1       5.453  -4.162   2.453  1.00  0.00    -0.258 OA
BRANCH  20  22
HETATM   22  O3  UNL     1       6.802  -3.047   1.064  1.00  0.00    -0.312 OA
BRANCH  22  23
HETATM   23  C17 UNL     1       8.004  -3.518   1.619  1.00  0.00     0.124 C 
HETATM   24  C18 UNL     1       8.705  -2.325   2.246  1.00  0.00     0.040 C 
HETATM   25  C19 UNL     1       8.865  -4.220   0.600  1.00  0.00     0.040 C 
ENDBRANCH  22  23
ENDBRANCH  20  22
ENDBRANCH  17  20
ENDBRANCH  13  14
ENDBRANCH   7  13
ENDBRANCH   3   5
BRANCH   1  26
HETATM   26  C8  UNL     1      -3.396   3.325   0.505  1.00  0.00     0.190 C 
BRANCH  26  27
HETATM   27  C7  UNL     1      -4.543   2.963  -0.429  1.00  0.00     0.076 C 
BRANCH  27  28
HETATM   28  C6  UNL     1      -4.581   1.546  -0.800  1.00  0.00    -0.038 A 
HETATM   29  C5  UNL     1      -5.317   0.747   0.121  1.00  0.00     0.018 A 
HETATM   30  C4  UNL     1      -5.335  -0.594  -0.052  1.00  0.00    -0.021 A 
HETATM   31  C30 UNL     1      -4.649  -1.178  -1.109  1.00  0.00     0.075 A 
HETATM   32  C29 UNL     1      -3.953  -0.405  -1.982  1.00  0.00     0.056 A 
HETATM   33  C27 UNL     1      -3.901   1.009  -1.848  1.00  0.00     0.049 A 
BRANCH  30  34
HETATM   34  C3  UNL     1      -6.056  -1.526   0.878  1.00  0.00     0.067 C 
BRANCH  34  35
HETATM   35  C2  UNL     1      -6.847  -0.742   1.870  1.00  0.00    -0.032 C 
HETATM   36  C1  UNL     1      -6.603  -0.831   3.171  1.00  0.00     0.007 C 
ENDBRANCH  34  35
ENDBRANCH  30  34
BRANCH  31  37
HETATM   37  O8  UNL     1      -4.684  -2.536  -1.258  1.00  0.00    -0.355 OA
HETATM   38  C31 UNL     1      -4.014  -3.181  -2.302  1.00  0.00     0.210 C 
ENDBRANCH  31  37
BRANCH  33  39
HETATM   39  C28 UNL     1      -3.197   1.743  -2.895  1.00  0.00     0.210 C 
HETATM   40  O6  UNL     1      -3.400   2.937  -3.122  1.00  0.00    -0.644 OA
HETATM   41  O7  UNL     1      -2.262   1.034  -3.654  1.00  0.00    -0.644 OA
ENDBRANCH  33  39
ENDBRANCH  27  28
ENDBRANCH  26  27
BRANCH  26  42
HETATM   42  C26 UNL     1      -3.565   4.685   1.040  1.00  0.00     0.197 C 
HETATM   43  O4  UNL     1      -2.695   5.574   1.042  1.00  0.00    -0.646 OA
HETATM   44  O5  UNL     1      -4.817   4.987   1.592  1.00  0.00    -0.646 OA
ENDBRANCH  26  42
ENDBRANCH   1  26
TORSDOF 14
