REMARK  15 active torsions:
REMARK  status: ('A' for Active; 'I' for Inactive)
REMARK    1  A    between atoms: C2_2  and  N1_3 
REMARK    2  A    between atoms: N1_3  and  C3_5 
REMARK    3  A    between atoms: C4_8  and  C5_9 
REMARK    4  A    between atoms: C6_10  and  C7_11 
REMARK    5  A    between atoms: C7_11  and  C8_12 
REMARK    6  A    between atoms: C8_12  and  C9_13 
REMARK    7  A    between atoms: N5_21  and  C12_22 
REMARK    8  A    between atoms: C12_22  and  C13_23 
REMARK    9  A    between atoms: C13_23  and  C14_24 
REMARK   10  A    between atoms: C26_40  and  N8_41 
REMARK   11  A    between atoms: N8_41  and  C27_43 
REMARK   12  A    between atoms: C27_43  and  C28_44 
REMARK   13  A    between atoms: C28_44  and  N9_45 
REMARK   14  A    between atoms: N9_45  and  C29_46 
REMARK   15  A    between atoms: N9_45  and  C31_48 
ROOT
HETATM    1  C8  UNL     1       0.303  -1.810  -0.763  1.00  0.00     0.080 C 
ENDROOT
BRANCH   1   2
HETATM    2  C7  UNL     1      -0.266  -0.424  -0.818  1.00  0.00     0.035 C 
BRANCH   2   3
HETATM    3  C6  UNL     1      -1.717  -0.456  -0.502  1.00  0.00    -0.022 C 
HETATM    4  C5  UNL     1      -2.297  -1.597  -0.239  1.00  0.00     0.045 C 
BRANCH   4   5
HETATM    5  C4  UNL     1      -3.710  -1.724   0.081  1.00  0.00     0.136 A 
HETATM    6  N2  UNL     1      -4.264  -2.928   0.347  1.00  0.00    -0.176 N 
HETATM    7  C3  UNL     1      -5.565  -3.071   0.649  1.00  0.00     0.694 A 
ATOM      8  H2  UNL     1      -3.672  -3.758   0.317  1.00  0.00     0.186 HD
HETATM    9  N10 UNL     1      -6.346  -1.968   0.687  1.00  0.00    -0.022 N 
HETATM   10  C26 UNL     1      -5.838  -0.768   0.431  1.00  0.00     0.694 A 
ATOM     11  H10 UNL     1      -7.336  -2.059   0.915  1.00  0.00     0.203 HD
HETATM   12  N7  UNL     1      -4.505  -0.657   0.126  1.00  0.00    -0.176 N 
ATOM     13  H7  UNL     1      -4.114   0.264  -0.071  1.00  0.00     0.186 HD
BRANCH   7  14
HETATM   14  N1  UNL     1      -6.058  -4.238   0.899  1.00  0.00    -0.226 N 
ATOM     15  H1  UNL     1      -5.438  -5.047   0.861  1.00  0.00     0.177 HD
BRANCH  14  16
HETATM   16  C2  UNL     1      -7.445  -4.450   1.229  1.00  0.00     0.133 C 
HETATM   17  C1  UNL     1      -8.325  -4.505  -0.001  1.00  0.00     0.027 C 
ENDBRANCH  14  16
ENDBRANCH   7  14
BRANCH  10  18
HETATM   18  N8  UNL     1      -6.555   0.287   0.461  1.00  0.00    -0.221 N 
ATOM     19  H8  UNL     1      -7.544   0.189   0.690  1.00  0.00     0.178 HD
BRANCH  18  20
HETATM   20  C27 UNL     1      -6.054   1.598   0.193  1.00  0.00     0.182 C 
BRANCH  20  21
HETATM   21  C28 UNL     1      -7.061   2.683   0.354  1.00  0.00     0.083 C 
BRANCH  21  22
HETATM   22  N9  UNL     1      -8.150   2.627  -0.517  1.00  0.00    -0.373 N 
BRANCH  22  23
HETATM   23  C29 UNL     1      -9.064   3.769  -0.343  1.00  0.00     0.122 C 
HETATM   24  C30 UNL     1      -8.380   5.024  -0.798  1.00  0.00     0.027 C 
ENDBRANCH  22  23
BRANCH  22  25
HETATM   25  C31 UNL     1      -8.842   1.447  -0.816  1.00  0.00     0.058 C 
HETATM   26  C32 UNL     1      -9.640   0.839   0.322  1.00  0.00     0.055 C 
ENDBRANCH  22  25
ENDBRANCH  21  22
ENDBRANCH  20  21
ENDBRANCH  18  20
ENDBRANCH  10  18
ENDBRANCH   4   5
ENDBRANCH   2   3
ENDBRANCH   1   2
BRANCH   1  27
HETATM   27  C9  UNL     1       1.761  -1.706  -1.083  1.00  0.00     0.084 A 
HETATM   28  N3  UNL     1       2.178  -1.801  -2.351  1.00  0.00    -0.311 N 
HETATM   29  C10 UNL     1       3.489  -1.711  -2.675  1.00  0.00     0.277 A 
ATOM     30  H3  UNL     1       1.491  -1.945  -3.091  1.00  0.00     0.170 HD
HETATM   31  O1  UNL     1       3.916  -1.794  -3.850  1.00  0.00    -0.266 OA
HETATM   32  C11 UNL     1       4.377  -1.519  -1.655  1.00  0.00     0.144 A 
HETATM   33  N4  UNL     1       5.735  -1.383  -1.592  1.00  0.00    -0.292 N 
HETATM   34  C25 UNL     1       3.912  -1.427  -0.363  1.00  0.00     0.084 A 
HETATM   35  N5  UNL     1       6.122  -1.215  -0.350  1.00  0.00    -0.300 N 
ATOM     36  H4  UNL     1       6.360  -1.409  -2.398  1.00  0.00     0.187 HD
HETATM   37  C24 UNL     1       5.026  -1.238   0.420  1.00  0.00     0.142 A 
HETATM   38  N6  UNL     1       2.611  -1.519  -0.073  1.00  0.00    -0.343 N 
ATOM     39  H6  UNL     1       2.279  -1.449   0.889  1.00  0.00     0.167 HD
BRANCH  35  40
HETATM   40  C12 UNL     1       7.471  -1.036   0.104  1.00  0.00     0.153 C 
BRANCH  40  41
HETATM   41  C13 UNL     1       7.744   0.454   0.094  1.00  0.00     0.060 C 
BRANCH  41  42
HETATM   42  C14 UNL     1       9.113   0.796   0.550  1.00  0.00    -0.056 A 
HETATM   43  C15 UNL     1       9.348   1.036   1.893  1.00  0.00     0.008 A 
HETATM   44  C16 UNL     1      10.617   1.356   2.321  1.00  0.00     0.013 A 
HETATM   45  C17 UNL     1      11.691   1.453   1.460  1.00  0.00    -0.026 A 
HETATM   46  C18 UNL     1      12.962   1.773   1.885  1.00  0.00     0.012 A 
HETATM   47  C22 UNL     1      11.456   1.213   0.116  1.00  0.00    -0.025 A 
HETATM   48  C19 UNL     1      14.047   1.870   1.011  1.00  0.00     0.001 A 
HETATM   49  C20 UNL     1      13.787   1.625  -0.332  1.00  0.00     0.001 A 
HETATM   50  C21 UNL     1      12.519   1.307  -0.750  1.00  0.00     0.012 A 
HETATM   51  C23 UNL     1      10.175   0.889  -0.324  1.00  0.00     0.019 A 
ENDBRANCH  41  42
ENDBRANCH  40  41
ENDBRANCH  35  40
ENDBRANCH   1  27
TORSDOF 15
