REMARK  12 active torsions:
REMARK  status: ('A' for Active; 'I' for Inactive)
REMARK    1  A    between atoms: C2_2  and  C3_3 
REMARK    2  A    between atoms: C6_6  and  C7_7 
REMARK    3  A    between atoms: C7_7  and  C8_8 
REMARK    4  A    between atoms: C8_8  and  C9_9 
REMARK    5  A    between atoms: C9_9  and  C10_11 
REMARK    6  A    between atoms: C10_11  and  C11_12 
REMARK    7  A    between atoms: C11_12  and  C12_13 
REMARK    8  A    between atoms: C12_13  and  N1_14 
REMARK    9  A    between atoms: C15_17  and  C16_18 
REMARK   10  A    between atoms: C16_18  and  N2_19 
REMARK       I    between atoms: N2_19  and  C17_21 
REMARK   11  A    between atoms: C17_21  and  C18_23 
REMARK   12  A    between atoms: C18_23  and  C21_26 
ROOT
HETATM    1  C9  UNL     1      -0.010   0.125   1.034  1.00  0.00     0.127 C 
HETATM    2  O1  UNL     1       0.676   0.132   2.029  1.00  0.00    -0.298 OA
ENDROOT
BRANCH   1   3
HETATM    3  C8  UNL     1      -1.494  -0.153   1.173  1.00  0.00     0.079 C 
BRANCH   3   4
HETATM    4  C7  UNL     1      -2.196  -0.009  -0.126  1.00  0.00     0.012 C 
BRANCH   4   5
HETATM    5  C6  UNL     1      -3.694  -0.295  -0.023  1.00  0.00    -0.014 C 
HETATM    6  C5  UNL     1      -4.390   0.641   0.944  1.00  0.00     0.008 C 
HETATM    7  C4  UNL     1      -5.389   1.443   0.193  1.00  0.00     0.046 C 
HETATM    8  C3  UNL     1      -6.568   1.957   0.879  1.00  0.00     0.140 C 
HETATM    9  C31 UNL     1      -7.593   1.097   1.428  1.00  0.00     0.188 C 
HETATM   10  O4  UNL     1      -6.419   2.363   2.204  1.00  0.00    -0.224 OA
HETATM   11  C30 UNL     1      -7.701  -0.320   1.068  1.00  0.00     0.057 C 
HETATM   12  S1  UNL     1      -9.253   1.828   1.614  1.00  0.00    -0.049 SA
HETATM   13  O3  UNL     1      -6.921   1.234   2.653  1.00  0.00    -0.213 OA
HETATM   14  C29 UNL     1      -8.229  -0.655  -0.286  1.00  0.00     0.004 C 
HETATM   15  C28 UNL     1      -8.192  -2.139  -0.497  1.00  0.00     0.000 C 
HETATM   16  C27 UNL     1      -6.856  -2.782  -0.393  1.00  0.00     0.000 C 
HETATM   17  C26 UNL     1      -5.833  -2.294  -1.361  1.00  0.00     0.000 C 
HETATM   18  C25 UNL     1      -4.425  -2.509  -0.961  1.00  0.00     0.000 C 
HETATM   19  C24 UNL     1      -3.940  -1.743   0.234  1.00  0.00     0.004 C 
BRANCH   8  20
HETATM   20  C2  UNL     1      -7.207   3.065   0.017  1.00  0.00     0.041 C 
HETATM   21  C1  UNL     1      -6.253   4.200  -0.214  1.00  0.00     0.008 C 
ENDBRANCH   8  20
ENDBRANCH   4   5
ENDBRANCH   3   4
ENDBRANCH   1   3
BRANCH   1  22
HETATM   22  C10 UNL     1       0.521   0.373  -0.329  1.00  0.00     0.083 C 
BRANCH  22  23
HETATM   23  C11 UNL     1       1.161  -0.810  -0.964  1.00  0.00     0.052 C 
BRANCH  23  24
HETATM   24  C12 UNL     1       2.389  -1.343  -0.349  1.00  0.00     0.058 C 
BRANCH  24  25
HETATM   25  N1  UNL     1       3.568  -0.596  -0.346  1.00  0.00    -0.393 N 
HETATM   26  C13 UNL     1       3.782   0.563   0.374  1.00  0.00     0.122 C 
HETATM   27  C14 UNL     1       5.344   0.724   0.510  1.00  0.00     0.029 C 
HETATM   28  C15 UNL     1       5.792   1.056  -0.866  1.00  0.00     0.027 C 
HETATM   29  C22 UNL     1       5.545  -0.159  -1.770  1.00  0.00     0.029 C 
HETATM   30  C23 UNL     1       4.656  -1.155  -1.100  1.00  0.00     0.122 C 
BRANCH  28  31
HETATM   31  C16 UNL     1       7.137   1.620  -1.076  1.00  0.00     0.068 C 
BRANCH  31  32
HETATM   32  N2  UNL     1       8.300   0.921  -0.722  1.00  0.00    -0.340 N 
HETATM   33  C17 UNL     1       8.772   0.529   0.530  1.00  0.00     0.238 C 
HETATM   34  O2  UNL     1       8.173   0.782   1.583  1.00  0.00    -0.272 OA
ATOM     35  H2  UNL     1       8.896   0.657  -1.506  1.00  0.00     0.167 HD
BRANCH  33  36
HETATM   36  C18 UNL     1      10.057  -0.236   0.647  1.00  0.00     0.131 C 
HETATM   37  C19 UNL     1      11.216   0.584   0.109  1.00  0.00     0.034 C 
HETATM   38  C20 UNL     1       9.973  -1.509  -0.166  1.00  0.00     0.034 C 
BRANCH  36  39
HETATM   39  C21 UNL     1      10.283  -0.612   2.080  1.00  0.00     0.403 C 
HETATM   40  F1  UNL     1       9.233  -1.398   2.512  1.00  0.00    -0.170 F 
HETATM   41  F2  UNL     1      11.500  -1.249   2.210  1.00  0.00    -0.170 F 
HETATM   42  F3  UNL     1      10.337   0.511   2.899  1.00  0.00    -0.170 F 
ENDBRANCH  36  39
ENDBRANCH  33  36
ENDBRANCH  31  32
ENDBRANCH  28  31
ENDBRANCH  24  25
ENDBRANCH  23  24
ENDBRANCH  22  23
ENDBRANCH   1  22
TORSDOF 12
