REMARK  12 active torsions:
REMARK  status: ('A' for Active; 'I' for Inactive)
REMARK    1  A    between atoms: O1_2  and  C2_3 
REMARK    2  A    between atoms: C4_5  and  C5_6 
REMARK    3  A    between atoms: C5_6  and  O2_8 
REMARK    4  A    between atoms: C10_13  and  C11_14 
REMARK    5  A    between atoms: C14_18  and  C15_19 
REMARK    6  A    between atoms: C15_19  and  N1_20 
REMARK    7  A    between atoms: N1_20  and  C16_22 
REMARK    8  A    between atoms: C21_29  and  O3_30 
REMARK    9  A    between atoms: O3_30  and  C22_31 
REMARK   10  A    between atoms: C22_31  and  C23_32 
REMARK   11  A    between atoms: C22_31  and  C27_39 
REMARK       I    between atoms: C23_32  and  N2_34 
REMARK   12  A    between atoms: N2_34  and  C24_36 
ROOT
HETATM    1  C15 UNL     1       0.970  -0.256   2.031  1.00  0.00     0.161 C 
ENDROOT
BRANCH   1   2
HETATM    2  C14 UNL     1      -0.423  -0.142   1.574  1.00  0.00    -0.001 A 
HETATM    3  C13 UNL     1      -1.387   0.044   2.568  1.00  0.00     0.125 A 
HETATM    4  C12 UNL     1      -2.722   0.187   2.222  1.00  0.00     0.055 A 
HETATM    5  F1  UNL     1      -0.993   0.080   3.874  1.00  0.00    -0.205 F 
HETATM    6  C11 UNL     1      -3.148   0.153   0.917  1.00  0.00    -0.014 A 
HETATM    7  C31 UNL     1      -2.195  -0.029  -0.052  1.00  0.00    -0.050 A 
HETATM    8  C30 UNL     1      -0.846  -0.176   0.272  1.00  0.00     0.019 A 
HETATM    9  C32 UNL     1      -2.573  -0.080  -1.478  1.00  0.00     0.049 C 
BRANCH   6  10
HETATM   10  C10 UNL     1      -4.544   0.318   0.604  1.00  0.00     0.009 A 
HETATM   11  C2  UNL     1      -5.359  -0.740   0.255  1.00  0.00     0.080 A 
HETATM   12  C3  UNL     1      -6.682  -0.542  -0.035  1.00  0.00     0.052 A 
HETATM   13  C4  UNL     1      -7.302   0.723  -0.003  1.00  0.00     0.001 A 
HETATM   14  C7  UNL     1      -6.493   1.766   0.343  1.00  0.00    -0.048 A 
HETATM   15  C8  UNL     1      -7.048   3.152   0.430  1.00  0.00     0.049 C 
HETATM   16  C9  UNL     1      -5.137   1.557   0.640  1.00  0.00     0.022 A 
BRANCH  11  17
HETATM   17  O1  UNL     1      -4.750  -1.985   0.223  1.00  0.00    -0.355 OA
HETATM   18  C1  UNL     1      -5.360  -3.195  -0.099  1.00  0.00     0.210 C 
ENDBRANCH  11  17
BRANCH  13  19
HETATM   19  C5  UNL     1      -8.693   0.850  -0.345  1.00  0.00     0.050 C 
HETATM   20  C6  UNL     1      -9.511   2.031  -0.554  1.00  0.00     0.077 C 
BRANCH  19  21
HETATM   21  O2  UNL     1      -9.329  -0.278  -0.494  1.00  0.00    -0.364 OA
ATOM     22  H2  UNL     1     -10.248  -0.194  -0.720  1.00  0.00     0.217 HD
ENDBRANCH  19  21
ENDBRANCH  13  19
ENDBRANCH   6  10
ENDBRANCH   1   2
BRANCH   1  23
HETATM   23  N1  UNL     1       1.930  -0.475   0.960  1.00  0.00    -0.383 N 
ATOM     24  H1  UNL     1       2.526   0.295   0.656  1.00  0.00     0.160 HD
BRANCH  23  25
HETATM   25  C16 UNL     1       2.051  -1.741   0.331  1.00  0.00     0.064 A 
HETATM   26  C17 UNL     1       1.242  -2.765   0.804  1.00  0.00     0.034 A 
HETATM   27  C18 UNL     1       1.315  -3.995   0.201  1.00  0.00     0.028 A 
HETATM   28  C19 UNL     1       2.166  -4.213  -0.844  1.00  0.00     0.058 A 
HETATM   29 CL1  UNL     1       2.273  -5.780  -1.630  1.00  0.00    -0.082 Cl
HETATM   30  C20 UNL     1       2.991  -3.196  -1.336  1.00  0.00     0.091 A 
HETATM   31 CL2  UNL     1       3.972  -3.511  -2.745  1.00  0.00    -0.079 Cl
HETATM   32  C21 UNL     1       2.933  -1.950  -0.738  1.00  0.00     0.119 A 
BRANCH  32  33
HETATM   33  O3  UNL     1       3.733  -0.915  -1.189  1.00  0.00    -0.332 OA
BRANCH  33  34
HETATM   34  C22 UNL     1       4.968  -0.589  -0.534  1.00  0.00     0.224 C 
BRANCH  34  35
HETATM   35  C23 UNL     1       5.081   0.884  -0.430  1.00  0.00     0.247 C 
HETATM   36  O4  UNL     1       4.307   1.606  -1.164  1.00  0.00    -0.271 OA
HETATM   37  N2  UNL     1       5.960   1.558   0.410  1.00  0.00    -0.354 N 
ATOM     38  H2  UNL     1       6.582   1.017   1.011  1.00  0.00     0.162 HD
BRANCH  37  39
HETATM   39  C24 UNL     1       6.021   3.024   0.459  1.00  0.00     0.084 A 
HETATM   40  C25 UNL     1       7.352   3.672   0.667  1.00  0.00     0.027 A 
HETATM   41  C26 UNL     1       6.284   3.628   1.786  1.00  0.00     0.027 A 
ENDBRANCH  37  39
ENDBRANCH  34  35
BRANCH  34  42
HETATM   42  C27 UNL     1       6.171  -1.092  -1.316  1.00  0.00     0.016 C 
HETATM   43  C28 UNL     1       6.270  -0.478  -2.693  1.00  0.00     0.012 C 
HETATM   44  C29 UNL     1       7.441  -0.776  -0.556  1.00  0.00     0.012 C 
ENDBRANCH  34  42
ENDBRANCH  33  34
ENDBRANCH  32  33
ENDBRANCH  23  25
ENDBRANCH   1  23
TORSDOF 12
