REMARK  12 active torsions:
REMARK  status: ('A' for Active; 'I' for Inactive)
REMARK    1  A    between atoms: O1_2  and  C2_3 
REMARK    2  A    between atoms: C2_3  and  C3_4 
REMARK    3  A    between atoms: C3_4  and  O2_5 
REMARK    4  A    between atoms: O2_5  and  C4_6 
REMARK    5  A    between atoms: C6_8  and  O3_9 
REMARK    6  A    between atoms: O3_9  and  C7_10 
REMARK    7  A    between atoms: C13_21  and  C14_22 
REMARK    8  A    between atoms: N2_25  and  C17_26 
REMARK    9  A    between atoms: C17_26  and  C18_27 
REMARK   10  A    between atoms: C18_27  and  C19_28 
REMARK   11  A    between atoms: C22_31  and  N3_32 
REMARK       I    between atoms: N3_32  and  C23_34 
REMARK   12  A    between atoms: C23_34  and  O5_36 
ROOT
HETATM    1  C4  UNL     1      -4.179   0.683   0.415  1.00  0.00     0.083 A 
HETATM    2  C5  UNL     1      -5.475   0.405   0.736  1.00  0.00     0.075 A 
HETATM    3  C6  UNL     1      -6.046  -0.842   0.592  1.00  0.00     0.080 A 
HETATM    4  C11 UNL     1      -5.233  -1.828   0.102  1.00  0.00     0.062 A 
HETATM    5  C12 UNL     1      -3.896  -1.582  -0.237  1.00  0.00     0.050 A 
HETATM    6 CL3  UNL     1      -3.034  -3.046  -0.724  1.00  0.00    -0.083 Cl
HETATM    7  C13 UNL     1      -3.334  -0.342  -0.097  1.00  0.00     0.022 A 
ENDROOT
BRANCH   7   8
HETATM    8  C14 UNL     1      -1.942  -0.112  -0.370  1.00  0.00    -0.059 C 
HETATM    9  C15 UNL     1      -1.331  -0.904  -1.481  1.00  0.00     0.055 C 
HETATM   10  C16 UNL     1       0.063  -1.291  -1.029  1.00  0.00     0.126 C 
HETATM   11  N2  UNL     1       0.728  -0.065  -0.709  1.00  0.00    -0.393 N 
HETATM   12  C27 UNL     1       0.072   1.144  -0.938  1.00  0.00     0.062 C 
HETATM   13  C28 UNL     1      -1.381   1.247  -0.430  1.00  0.00     0.079 C 
BRANCH  11  14
HETATM   14  C17 UNL     1       1.814  -0.120   0.179  1.00  0.00     0.122 C 
BRANCH  14  15
HETATM   15  C18 UNL     1       2.976  -0.862  -0.506  1.00  0.00     0.024 C 
BRANCH  15  16
HETATM   16  C19 UNL     1       4.163  -0.934   0.420  1.00  0.00    -0.013 C 
HETATM   17  C20 UNL     1       4.585   0.478   0.753  1.00  0.00     0.007 C 
HETATM   18  C21 UNL     1       6.077   0.570   0.989  1.00  0.00     0.026 C 
HETATM   19  C22 UNL     1       6.857   0.097  -0.219  1.00  0.00     0.086 C 
HETATM   20  C25 UNL     1       6.087  -0.835  -1.089  1.00  0.00     0.026 C 
HETATM   21  C26 UNL     1       5.247  -1.743  -0.232  1.00  0.00     0.007 C 
BRANCH  19  22
HETATM   22  N3  UNL     1       8.045  -0.576   0.272  1.00  0.00    -0.332 N 
HETATM   23  C23 UNL     1       9.347  -0.094   0.055  1.00  0.00     0.360 C 
HETATM   24  O4  UNL     1       9.522   0.974  -0.593  1.00  0.00    -0.239 OA
ATOM     25  H3  UNL     1       7.929  -1.441   0.800  1.00  0.00     0.165 HD
BRANCH  23  26
HETATM   26  O5  UNL     1      10.442  -0.761   0.535  1.00  0.00    -0.309 OA
HETATM   27  C24 UNL     1      11.746  -0.230   0.291  1.00  0.00     0.215 C 
ENDBRANCH  23  26
ENDBRANCH  19  22
ENDBRANCH  15  16
ENDBRANCH  14  15
ENDBRANCH  11  14
ENDBRANCH   7   8
BRANCH   1  28
HETATM   28  O2  UNL     1      -3.592   1.913   0.549  1.00  0.00    -0.348 OA
BRANCH  28  29
HETATM   29  C3  UNL     1      -4.218   3.084   0.991  1.00  0.00     0.201 C 
BRANCH  29  30
HETATM   30  C2  UNL     1      -5.290   3.613   0.098  1.00  0.00     0.193 C 
BRANCH  30  31
HETATM   31  O1  UNL     1      -5.874   4.738   0.601  1.00  0.00    -0.394 OA
HETATM   32  C1  UNL     1      -5.006   5.796   0.789  1.00  0.00     0.201 C 
ENDBRANCH  30  31
ENDBRANCH  29  30
ENDBRANCH  28  29
ENDBRANCH   1  28
BRANCH   3  33
HETATM   33  O3  UNL     1      -7.366  -1.076   0.929  1.00  0.00    -0.307 OA
BRANCH  33  34
HETATM   34  C7  UNL     1      -8.022  -2.264   0.598  1.00  0.00     0.117 A 
HETATM   35  C8  UNL     1      -8.569  -3.202   1.444  1.00  0.00     0.082 A 
HETATM   36  C9  UNL     1      -9.118  -4.214   0.649  1.00  0.00     0.107 A 
HETATM   37 CL1  UNL     1      -9.939  -5.644   1.238  1.00  0.00    -0.064 Cl
HETATM   38  N1  UNL     1      -8.918  -3.915  -0.645  1.00  0.00    -0.335 N 
HETATM   39  C10 UNL     1      -8.261  -2.750  -0.687  1.00  0.00     0.139 A 
ATOM     40  H1  UNL     1      -9.212  -4.472  -1.447  1.00  0.00     0.168 HD
HETATM   41 CL2  UNL     1      -7.767  -1.913  -2.142  1.00  0.00    -0.061 Cl
ENDBRANCH  33  34
ENDBRANCH   3  33
TORSDOF 12
