REMARK  13 active torsions:
REMARK  status: ('A' for Active; 'I' for Inactive)
REMARK    1  A    between atoms: C2_2  and  N1_3 
REMARK    2  A    between atoms: N1_3  and  C3_4 
REMARK    3  A    between atoms: N1_3  and  C9_10 
REMARK    4  A    between atoms: C3_4  and  C4_5 
REMARK    5  A    between atoms: C4_5  and  C5_6 
REMARK    6  A    between atoms: C12_15  and  N3_16 
REMARK    7  A    between atoms: N3_16  and  C13_18 
REMARK    8  A    between atoms: C17_22  and  O1_23 
REMARK    9  A    between atoms: O1_23  and  C18_24 
REMARK   10  A    between atoms: C18_24  and  C19_25 
REMARK   11  A    between atoms: C19_25  and  N4_26 
REMARK   12  A    between atoms: C24_34  and  N6_35 
REMARK   13  A    between atoms: N6_35  and  C25_36 
ROOT
HETATM    1  C9  UNL     1      -2.223   0.539  -1.460  1.00  0.00     0.113 A 
HETATM    2  C10 UNL     1      -1.662   1.435  -2.355  1.00  0.00     0.054 A 
HETATM    3  C11 UNL     1      -2.582   2.182  -3.260  1.00  0.00     0.071 C 
HETATM    4  N2  UNL     1      -0.337   1.603  -2.383  1.00  0.00    -0.193 N 
ATOM      5  H2  UNL     1       0.053   2.268  -3.051  1.00  0.00     0.184 HD
HETATM    6  C12 UNL     1       0.507   0.939  -1.575  1.00  0.00     0.685 A 
HETATM    7  N5  UNL     1      -0.002   0.077  -0.711  1.00  0.00    -0.162 N 
ATOM      8  H5  UNL     1       0.628  -0.433  -0.092  1.00  0.00     0.187 HD
HETATM    9  C24 UNL     1      -1.375  -0.156  -0.620  1.00  0.00     0.222 A 
ENDROOT
BRANCH   6  10
HETATM   10  N3  UNL     1       1.778   1.173  -1.689  1.00  0.00    -0.192 N 
ATOM     11  H3  UNL     1       2.059   1.855  -2.394  1.00  0.00     0.184 HD
BRANCH  10  12
HETATM   12  C13 UNL     1       2.799   0.584  -0.942  1.00  0.00     0.051 A 
HETATM   13  C14 UNL     1       3.493  -0.500  -1.414  1.00  0.00     0.039 A 
HETATM   14  C15 UNL     1       4.490  -1.049  -0.659  1.00  0.00    -0.025 A 
HETATM   15  C16 UNL     1       5.244  -2.226  -1.168  1.00  0.00     0.051 C 
HETATM   16  C17 UNL     1       4.855  -0.554   0.605  1.00  0.00     0.096 A 
HETATM   17  C22 UNL     1       4.154   0.530   1.065  1.00  0.00     0.070 A 
HETATM   18 CL1  UNL     1       4.475   1.234   2.643  1.00  0.00    -0.081 Cl
HETATM   19  C23 UNL     1       3.133   1.088   0.287  1.00  0.00     0.056 A 
BRANCH  16  20
HETATM   20  O1  UNL     1       5.875  -1.166   1.307  1.00  0.00    -0.347 OA
BRANCH  20  21
HETATM   21  C18 UNL     1       7.238  -0.934   1.223  1.00  0.00     0.206 C 
BRANCH  21  22
HETATM   22  C19 UNL     1       7.642   0.454   1.581  1.00  0.00     0.297 C 
BRANCH  22  23
HETATM   23  N4  UNL     1       9.112   0.610   1.447  1.00  0.00     0.082 N 
HETATM   24  C20 UNL     1       9.407   1.984   1.848  1.00  0.00     0.309 C 
HETATM   25  C21 UNL     1       9.416   0.450   0.040  1.00  0.00     0.309 C 
ENDBRANCH  22  23
ENDBRANCH  21  22
ENDBRANCH  20  21
ENDBRANCH  16  20
ENDBRANCH  10  12
ENDBRANCH   6  10
BRANCH   9  26
HETATM   26  N6  UNL     1      -1.771  -0.966   0.160  1.00  0.00    -0.383 NA
BRANCH  26  27
HETATM   27  C25 UNL     1      -2.248  -1.858   1.014  1.00  0.00     0.133 A 
HETATM   28  C26 UNL     1      -2.753  -3.092   0.554  1.00  0.00     0.070 A 
HETATM   29  C27 UNL     1      -3.255  -4.047   1.394  1.00  0.00     0.037 A 
HETATM   30 CL2  UNL     1      -3.864  -5.559   0.716  1.00  0.00    -0.084 Cl
HETATM   31  C28 UNL     1      -3.288  -3.836   2.752  1.00  0.00     0.026 A 
HETATM   32  C29 UNL     1      -2.800  -2.635   3.235  1.00  0.00     0.029 A 
HETATM   33  C30 UNL     1      -2.295  -1.671   2.414  1.00  0.00     0.074 A 
HETATM   34 CL3  UNL     1      -1.685  -0.165   3.037  1.00  0.00    -0.081 Cl
ENDBRANCH  26  27
ENDBRANCH   9  26
BRANCH   1  35
HETATM   35  N1  UNL     1      -3.611   0.351  -1.429  1.00  0.00    -0.375 N 
BRANCH  35  36
HETATM   36  C2  UNL     1      -4.325  -0.655  -2.185  1.00  0.00     0.119 C 
HETATM   37  C1  UNL     1      -3.470  -1.540  -3.019  1.00  0.00     0.026 C 
ENDBRANCH  35  36
BRANCH  35  38
HETATM   38  C3  UNL     1      -4.432   1.238  -0.640  1.00  0.00     0.127 C 
BRANCH  38  39
HETATM   39  C4  UNL     1      -5.152   0.638   0.507  1.00  0.00     0.047 C 
BRANCH  39  40
HETATM   40  C5  UNL     1      -5.932   1.768   1.140  1.00  0.00    -0.023 C 
HETATM   41  C6  UNL     1      -7.259   1.743   1.244  1.00  0.00    -0.091 C 
HETATM   42  C7  UNL     1      -7.955   0.550   0.707  1.00  0.00     0.042 C 
HETATM   43  C8  UNL     1      -8.038   2.831   1.858  1.00  0.00     0.042 C 
ENDBRANCH  39  40
ENDBRANCH  38  39
ENDBRANCH  35  38
ENDBRANCH   1  35
TORSDOF 13
