REMARK  12 active torsions:
REMARK  status: ('A' for Active; 'I' for Inactive)
REMARK    1  A    between atoms: S1_2  and  C2_3 
REMARK    2  A    between atoms: C2_3  and  C3_4 
REMARK       I    between atoms: C3_4  and  N1_6 
REMARK    3  A    between atoms: N1_6  and  C4_8 
REMARK    4  A    between atoms: C7_11  and  C8_12 
REMARK    5  A    between atoms: C8_12  and  N2_13 
REMARK    6  A    between atoms: N2_13  and  C9_15 
REMARK    7  A    between atoms: C9_15  and  C10_16 
REMARK    8  A    between atoms: C10_16  and  C11_17 
REMARK    9  A    between atoms: C11_17  and  N3_18 
REMARK   10  A    between atoms: N3_18  and  C13_20 
REMARK   11  A    between atoms: C14_23  and  C15_24 
REMARK   12  A    between atoms: C17_26  and  C18_27 
ROOT
HETATM    1  N3  UNL     1      -2.154   1.274  -1.345  1.00  0.00    -0.366 N 
HETATM    2  C12 UNL     1      -1.840   1.613  -2.710  1.00  0.00     0.151 C 
ENDROOT
BRANCH   1   3
HETATM    3  C11 UNL     1      -1.341   1.755  -0.283  1.00  0.00     0.126 C 
BRANCH   3   4
HETATM    4  C10 UNL     1       0.005   1.151  -0.118  1.00  0.00     0.039 C 
BRANCH   4   5
HETATM    5  C9  UNL     1       0.931   1.195  -1.276  1.00  0.00     0.115 C 
BRANCH   5   6
HETATM    6  N2  UNL     1       2.186   0.577  -0.900  1.00  0.00    -0.421 N 
ATOM      7  H2  UNL     1       2.465  -0.341  -1.246  1.00  0.00     0.153 HD
BRANCH   6   8
HETATM    8  C8  UNL     1       3.002   1.333  -0.018  1.00  0.00     0.118 C 
BRANCH   8   9
HETATM    9  C7  UNL     1       4.239   0.558   0.416  1.00  0.00     0.003 C 
HETATM   10  C6  UNL     1       5.034   0.163  -0.842  1.00  0.00     0.008 C 
HETATM   11  C5  UNL     1       6.117  -0.800  -0.372  1.00  0.00     0.026 C 
HETATM   12  C4  UNL     1       6.571  -0.469   1.010  1.00  0.00     0.084 C 
HETATM   13  C26 UNL     1       6.565   1.036   1.191  1.00  0.00     0.026 C 
HETATM   14  C25 UNL     1       5.149   1.583   1.119  1.00  0.00     0.008 C 
BRANCH  12  15
HETATM   15  N1  UNL     1       7.877  -0.965   1.350  1.00  0.00    -0.356 N 
HETATM   16  C3  UNL     1       9.052  -0.666   0.633  1.00  0.00     0.227 C 
HETATM   17  O1  UNL     1       9.080   0.058  -0.366  1.00  0.00    -0.273 OA
ATOM     18  H1  UNL     1       7.958  -1.574   2.164  1.00  0.00     0.162 HD
BRANCH  16  19
HETATM   19  C2  UNL     1      10.354  -1.263   1.105  1.00  0.00     0.176 C 
BRANCH  19  20
HETATM   20  S1  UNL     1      11.682  -0.804  -0.023  1.00  0.00    -0.164 SA
HETATM   21  C1  UNL     1      11.462  -1.571  -1.634  1.00  0.00     0.090 C 
ENDBRANCH  19  20
ENDBRANCH  16  19
ENDBRANCH  12  15
ENDBRANCH   8   9
ENDBRANCH   6   8
ENDBRANCH   5   6
ENDBRANCH   4   5
ENDBRANCH   3   4
ENDBRANCH   1   3
BRANCH   1  22
HETATM   22  C13 UNL     1      -3.272   0.415  -1.096  1.00  0.00     0.146 A 
HETATM   23  N4  UNL     1      -4.478   0.688  -0.657  1.00  0.00    -0.336 N 
HETATM   24  C14 UNL     1      -5.363  -0.250  -0.522  1.00  0.00     0.052 A 
ATOM     25  H4  UNL     1      -4.722   1.649  -0.419  1.00  0.00     0.168 HD
HETATM   26  C24 UNL     1      -4.988  -1.529  -0.855  1.00  0.00     0.083 A 
HETATM   27  S2  UNL     1      -3.371  -1.299  -1.345  1.00  0.00    -0.064 SA
BRANCH  24  28
HETATM   28  C15 UNL     1      -6.734   0.027  -0.014  1.00  0.00     0.013 A 
HETATM   29  C16 UNL     1      -7.695  -0.959   0.013  1.00  0.00     0.026 A 
HETATM   30  C17 UNL     1      -8.968  -0.727   0.485  1.00  0.00    -0.013 A 
HETATM   31  C21 UNL     1      -9.314   0.512   0.949  1.00  0.00     0.043 A 
HETATM   32 CL2  UNL     1     -10.922   0.887   1.567  1.00  0.00    -0.084 Cl
HETATM   33  C22 UNL     1      -8.363   1.540   0.938  1.00  0.00     0.049 A 
HETATM   34  C23 UNL     1      -7.098   1.270   0.456  1.00  0.00     0.048 A 
HETATM   35 CL3  UNL     1      -5.915   2.589   0.455  1.00  0.00    -0.083 Cl
BRANCH  30  36
HETATM   36  C18 UNL     1      -9.993  -1.800   0.489  1.00  0.00     0.058 C 
HETATM   37  C19 UNL     1     -11.187  -1.407  -0.374  1.00  0.00     0.037 C 
HETATM   38  C20 UNL     1     -10.405  -2.071   1.923  1.00  0.00     0.037 C 
HETATM   39 CL1  UNL     1      -9.280  -3.273  -0.211  1.00  0.00    -0.115 Cl
ENDBRANCH  30  36
ENDBRANCH  24  28
ENDBRANCH   1  22
TORSDOF 12
