REMARK  14 active torsions:
REMARK  status: ('A' for Active; 'I' for Inactive)
REMARK    1  A    between atoms: C2_2  and  C3_3 
REMARK    2  A    between atoms: C3_3  and  C4_4 
REMARK    3  A    between atoms: C4_4  and  C5_5 
REMARK    4  A    between atoms: C5_5  and  C6_6 
REMARK    5  A    between atoms: C6_6  and  O1_7 
REMARK    6  A    between atoms: O1_7  and  C7_8 
REMARK    7  A    between atoms: C10_12  and  C11_13 
REMARK    8  A    between atoms: C12_14  and  C13_15 
REMARK    9  A    between atoms: C13_15  and  O2_16 
REMARK   10  A    between atoms: C13_15  and  C14_18 
REMARK   11  A    between atoms: C15_19  and  O3_20 
REMARK   12  A    between atoms: C18_23  and  C19_24 
REMARK   13  A    between atoms: C19_24  and  O4_25 
REMARK   14  A    between atoms: C21_30  and  O5_31 
ROOT
HETATM    1  C13 UNL     1      -3.843  -0.674  -0.719  1.00  0.00     0.081 C 
ENDROOT
BRANCH   1   2
HETATM    2  C12 UNL     1      -2.486  -0.170  -0.600  1.00  0.00     0.038 C 
HETATM    3  C11 UNL     1      -1.461  -0.884  -1.096  1.00  0.00     0.014 C 
BRANCH   3   4
HETATM    4  C10 UNL     1      -0.091  -0.421  -1.000  1.00  0.00    -0.033 A 
HETATM    5  C9  UNL     1       0.279   0.756  -0.413  1.00  0.00     0.038 A 
HETATM    6  C8  UNL     1       1.603   1.111  -0.364  1.00  0.00     0.069 A 
HETATM    7  C7  UNL     1       2.635   0.291  -0.910  1.00  0.00     0.107 A 
HETATM    8 CL1  UNL     1       2.053   2.631   0.369  1.00  0.00    -0.081 Cl
HETATM    9  C23 UNL     1       2.253  -0.853  -1.483  1.00  0.00     0.046 A 
HETATM   10  C22 UNL     1       0.901  -1.244  -1.546  1.00  0.00     0.033 A 
HETATM   11 BR2  UNL     1       3.486  -1.994  -2.375  1.00  0.00    -0.048 Br
BRANCH   7  12
HETATM   12  O1  UNL     1       3.903   0.792  -0.777  1.00  0.00    -0.348 OA
BRANCH  12  13
HETATM   13  C6  UNL     1       4.651   0.699   0.382  1.00  0.00     0.176 C 
BRANCH  13  14
HETATM   14  C5  UNL     1       5.186  -0.559   0.891  1.00  0.00     0.027 C 
BRANCH  14  15
HETATM   15  C4  UNL     1       6.328  -1.122   0.107  1.00  0.00     0.002 C 
BRANCH  15  16
HETATM   16  C3  UNL     1       7.531  -0.200   0.057  1.00  0.00    -0.000 C 
BRANCH  16  17
HETATM   17  C2  UNL     1       8.027   0.067   1.448  1.00  0.00    -0.005 C 
HETATM   18  C1  UNL     1       9.242   0.980   1.348  1.00  0.00     0.005 C 
ENDBRANCH  16  17
ENDBRANCH  15  16
ENDBRANCH  14  15
ENDBRANCH  13  14
ENDBRANCH  12  13
ENDBRANCH   7  12
ENDBRANCH   3   4
ENDBRANCH   1   2
BRANCH   1  19
HETATM   19  O2  UNL     1      -3.924  -1.822  -1.325  1.00  0.00    -0.360 OA
ATOM     20  H2  UNL     1      -4.812  -2.152  -1.403  1.00  0.00     0.217 HD
ENDBRANCH   1  19
BRANCH   1  21
HETATM   21  C14 UNL     1      -5.058  -0.083  -0.266  1.00  0.00     0.065 A 
HETATM   22  C15 UNL     1      -6.247  -0.791  -0.507  1.00  0.00     0.085 A 
HETATM   23  C17 UNL     1      -7.435  -0.257  -0.083  1.00  0.00     0.054 A 
HETATM   24  C18 UNL     1      -7.496   0.962   0.576  1.00  0.00     0.031 A 
HETATM   25  C20 UNL     1      -6.321   1.626   0.794  1.00  0.00     0.059 A 
HETATM   26 BR1  UNL     1      -6.418   3.317   1.709  1.00  0.00    -0.047 Br
HETATM   27  C21 UNL     1      -5.097   1.120   0.381  1.00  0.00     0.099 A 
BRANCH  22  28
HETATM   28  O3  UNL     1      -6.215  -1.996  -1.154  1.00  0.00    -0.355 OA
HETATM   29  C16 UNL     1      -7.412  -2.709  -1.396  1.00  0.00     0.210 C 
ENDBRANCH  22  28
BRANCH  24  30
HETATM   30  C19 UNL     1      -8.764   1.516   1.019  1.00  0.00     0.145 C 
HETATM   31  S1  UNL     1      -9.876   2.005  -0.062  1.00  0.00    -0.052 SA
BRANCH  30  32
HETATM   32  O4  UNL     1      -9.015   1.623   2.371  1.00  0.00    -0.350 OA
ATOM     33  H4  UNL     1      -9.844   1.985   2.661  1.00  0.00     0.218 HD
ENDBRANCH  30  32
ENDBRANCH  24  30
BRANCH  27  34
HETATM   34  O5  UNL     1      -3.994   1.871   0.654  1.00  0.00    -0.358 OA
ATOM     35  H5  UNL     1      -4.021   2.707   1.104  1.00  0.00     0.217 HD
ENDBRANCH  27  34
ENDBRANCH   1  21
TORSDOF 14
