REMARK  12 active torsions:
REMARK  status: ('A' for Active; 'I' for Inactive)
REMARK    1  A    between atoms: O1_2  and  C2_3 
REMARK    2  A    between atoms: C4_5  and  O2_6 
REMARK    3  A    between atoms: O2_6  and  C5_7 
REMARK    4  A    between atoms: N1_10  and  C8_11 
REMARK    5  A    between atoms: C8_11  and  C10_13 
REMARK    6  A    between atoms: C10_13  and  C11_14 
REMARK    7  A    between atoms: C11_14  and  O3_17 
REMARK    8  A    between atoms: C18_24  and  N2_25 
REMARK       I    between atoms: N2_25  and  C19_27 
REMARK    9  A    between atoms: C19_27  and  C20_29 
REMARK   10  A    between atoms: C24_35  and  O5_36 
REMARK   11  A    between atoms: O5_36  and  C25_37 
REMARK   12  A    between atoms: C25_37  and  C26_38 
ROOT
HETATM    1  C2  UNL     1       0.031  -1.081   0.804  1.00  0.00     0.097 A 
HETATM    2  C3  UNL     1      -1.324  -1.104   0.568  1.00  0.00     0.079 A 
HETATM    3  C4  UNL     1      -2.127   0.000   0.687  1.00  0.00     0.110 A 
HETATM    4  C16 UNL     1      -1.465   1.174   1.073  1.00  0.00     0.151 A 
HETATM    5  F1  UNL     1      -2.194   2.301   1.211  1.00  0.00    -0.203 F 
HETATM    6  C17 UNL     1      -0.090   1.194   1.312  1.00  0.00     0.077 A 
HETATM    7  C18 UNL     1       0.683   0.085   1.186  1.00  0.00     0.071 A 
ENDROOT
BRANCH   7   8
HETATM    8  N2  UNL     1       2.075  -0.024   1.389  1.00  0.00    -0.320 N 
HETATM    9  C19 UNL     1       2.929   1.026   1.773  1.00  0.00     0.260 C 
HETATM   10  O4  UNL     1       2.438   2.190   1.976  1.00  0.00    -0.267 OA
ATOM     11  H2  UNL     1       2.498  -0.941   1.245  1.00  0.00     0.169 HD
BRANCH   9  12
HETATM   12  C20 UNL     1       4.366   0.924   1.974  1.00  0.00     0.089 A 
HETATM   13  C21 UNL     1       4.989   1.873   2.791  1.00  0.00     0.108 A 
HETATM   14  N3  UNL     1       6.299   1.821   3.040  1.00  0.00    -0.366 N 
HETATM   15  C22 UNL     1       7.115   0.848   2.519  1.00  0.00     0.042 A 
ATOM     16  H3  UNL     1       6.711   2.534   3.642  1.00  0.00     0.165 HD
HETATM   17  C23 UNL     1       8.551   0.840   2.915  1.00  0.00     0.071 C 
HETATM   18  C24 UNL     1       6.551  -0.090   1.720  1.00  0.00     0.130 A 
HETATM   19  C32 UNL     1       5.153  -0.035   1.455  1.00  0.00     0.168 A 
HETATM   20  F2  UNL     1       4.690  -0.988   0.636  1.00  0.00    -0.202 F 
BRANCH  18  21
HETATM   21  O5  UNL     1       7.245  -1.103   1.128  1.00  0.00    -0.346 OA
BRANCH  21  22
HETATM   22  C25 UNL     1       7.727  -1.277  -0.131  1.00  0.00     0.180 C 
BRANCH  22  23
HETATM   23  C26 UNL     1       8.726  -0.444  -0.798  1.00  0.00     0.010 C 
HETATM   24  C27 UNL     1      10.100  -0.374  -0.222  1.00  0.00     0.007 C 
HETATM   25  C28 UNL     1      11.113  -0.215  -1.362  1.00  0.00     0.000 C 
HETATM   26  C29 UNL     1      10.571   0.734  -2.408  1.00  0.00     0.000 C 
HETATM   27  C30 UNL     1       9.373   0.105  -3.106  1.00  0.00     0.000 C 
HETATM   28  C31 UNL     1       8.860  -0.993  -2.239  1.00  0.00     0.007 C 
ENDBRANCH  22  23
ENDBRANCH  21  22
ENDBRANCH  18  21
ENDBRANCH   9  12
ENDBRANCH   7   8
BRANCH   1  29
HETATM   29  O1  UNL     1       0.710  -2.284   0.639  1.00  0.00    -0.354 OA
HETATM   30  C1  UNL     1       0.071  -3.470   0.256  1.00  0.00     0.210 C 
ENDBRANCH   1  29
BRANCH   3  31
HETATM   31  O2  UNL     1      -3.488   0.033   0.463  1.00  0.00    -0.343 OA
BRANCH  31  32
HETATM   32  C5  UNL     1      -4.243  -1.066   0.097  1.00  0.00     0.132 C 
HETATM   33  C6  UNL     1      -4.865  -0.834  -1.270  1.00  0.00     0.062 C 
HETATM   34  C7  UNL     1      -6.284  -0.391  -1.233  1.00  0.00     0.275 C 
HETATM   35  N1  UNL     1      -6.499   0.574  -0.174  1.00  0.00     0.093 N 
HETATM   36  C14 UNL     1      -6.138   0.080   1.119  1.00  0.00     0.275 C 
HETATM   37  C15 UNL     1      -5.435  -1.264   1.048  1.00  0.00     0.062 C 
BRANCH  35  38
HETATM   38  C8  UNL     1      -7.759   1.227  -0.264  1.00  0.00     0.221 C 
HETATM   39  C9  UNL     1      -7.828   2.015  -1.548  1.00  0.00     0.043 C 
BRANCH  38  40
HETATM   40  C10 UNL     1      -8.884   0.243  -0.122  1.00  0.00     0.072 C 
BRANCH  40  41
HETATM   41  C11 UNL     1     -10.240   0.889  -0.219  1.00  0.00     0.052 C 
HETATM   42  C12 UNL     1     -11.270  -0.212  -0.058  1.00  0.00     0.045 C 
HETATM   43  C13 UNL     1     -10.500   1.928   0.822  1.00  0.00     0.045 C 
BRANCH  41  44
HETATM   44  O3  UNL     1     -10.443   1.407  -1.519  1.00  0.00    -0.391 OA
ATOM     45  H3  UNL     1     -11.299   1.815  -1.580  1.00  0.00     0.210 HD
ENDBRANCH  41  44
ENDBRANCH  40  41
ENDBRANCH  38  40
ENDBRANCH  35  38
ENDBRANCH  31  32
ENDBRANCH   3  31
TORSDOF 12
