REMARK  13 active torsions:
REMARK  status: ('A' for Active; 'I' for Inactive)
REMARK    1  A    between atoms: C2_2  and  C3_3 
REMARK    2  A    between atoms: C3_3  and  C4_4 
REMARK    3  A    between atoms: C4_4  and  C5_5 
REMARK    4  A    between atoms: C5_5  and  C6_6 
REMARK    5  A    between atoms: C6_6  and  C7_7 
REMARK    6  A    between atoms: C7_7  and  C8_8 
REMARK    7  A    between atoms: C8_8  and  O1_9 
REMARK    8  A    between atoms: C11_13  and  N1_14 
REMARK    9  A    between atoms: N1_14  and  C12_16 
REMARK   10  A    between atoms: C17_23  and  C18_24 
REMARK   11  A    between atoms: C18_24  and  O3_25 
REMARK   12  A    between atoms: O3_25  and  C19_26 
REMARK       I    between atoms: C19_26  and  N2_28 
REMARK   13  A    between atoms: C28_37  and  C29_38 
ROOT
HETATM    1  C12 UNL     1      -0.825  -0.671  -0.636  1.00  0.00     0.137 C 
HETATM    2  C13 UNL     1      -0.481  -0.181  -2.036  1.00  0.00     0.205 C 
HETATM    3  O2  UNL     1      -0.629   1.242  -1.794  1.00  0.00    -0.348 OA
HETATM    4  C14 UNL     1      -1.894   1.277  -1.194  1.00  0.00     0.078 A 
HETATM    5  C15 UNL     1      -2.819   2.336  -1.241  1.00  0.00     0.057 A 
HETATM    6  C16 UNL     1      -3.994   2.213  -0.639  1.00  0.00     0.022 A 
HETATM    7 BR1  UNL     1      -5.355   3.606  -0.716  1.00  0.00    -0.050 Br
HETATM    8  C17 UNL     1      -4.339   0.989   0.072  1.00  0.00    -0.016 A 
HETATM    9  C25 UNL     1      -3.390  -0.039   0.102  1.00  0.00     0.022 A 
HETATM   10  C26 UNL     1      -2.173   0.115  -0.525  1.00  0.00     0.000 A 
ENDROOT
BRANCH   1  11
HETATM   11  N1  UNL     1       0.002  -0.171   0.358  1.00  0.00    -0.407 N 
ATOM     12  H1  UNL     1      -0.551   0.215   1.123  1.00  0.00     0.154 HD
BRANCH  11  13
HETATM   13  C11 UNL     1       1.318  -0.043   0.614  1.00  0.00     0.078 C 
HETATM   14  C10 UNL     1       1.970   1.201   0.029  1.00  0.00     0.028 C 
HETATM   15  C9  UNL     1       3.475   1.248   0.326  1.00  0.00     0.040 C 
HETATM   16  C8  UNL     1       4.251   0.191  -0.393  1.00  0.00     0.067 C 
HETATM   17  C28 UNL     1       3.161  -0.840  -0.829  1.00  0.00     0.087 C 
HETATM   18  C27 UNL     1       2.274  -1.188   0.283  1.00  0.00     0.037 C 
BRANCH  16  19
HETATM   19  C7  UNL     1       5.290  -0.416   0.456  1.00  0.00     0.038 C 
BRANCH  19  20
HETATM   20  C6  UNL     1       6.560   0.367   0.644  1.00  0.00     0.003 C 
BRANCH  20  21
HETATM   21  C5  UNL     1       7.445   0.300  -0.546  1.00  0.00     0.000 C 
BRANCH  21  22
HETATM   22  C4  UNL     1       8.693   1.048  -0.618  1.00  0.00     0.000 C 
BRANCH  22  23
HETATM   23  C3  UNL     1       9.831   0.959   0.303  1.00  0.00    -0.000 C 
BRANCH  23  24
HETATM   24  C2  UNL     1      10.576  -0.318   0.398  1.00  0.00    -0.005 C 
HETATM   25  C1  UNL     1       9.831  -1.455   1.007  1.00  0.00     0.005 C 
ENDBRANCH  23  24
ENDBRANCH  22  23
ENDBRANCH  21  22
ENDBRANCH  20  21
ENDBRANCH  19  20
ENDBRANCH  16  19
BRANCH  16  26
HETATM   26  O1  UNL     1       4.762   0.551  -1.638  1.00  0.00    -0.389 OA
ATOM     27  H1  UNL     1       4.092   0.943  -2.186  1.00  0.00     0.210 HD
ENDBRANCH  16  26
BRANCH  17  28
HETATM   28  C29 UNL     1       3.774  -1.978  -1.596  1.00  0.00     0.360 C 
HETATM   29  F1  UNL     1       2.692  -2.806  -1.966  1.00  0.00    -0.214 F 
HETATM   30  F2  UNL     1       4.354  -1.541  -2.766  1.00  0.00    -0.214 F 
ENDBRANCH  17  28
ENDBRANCH  11  13
ENDBRANCH   1  11
BRANCH   8  31
HETATM   31  C18 UNL     1      -5.571   1.107   0.779  1.00  0.00     0.220 C 
BRANCH  31  32
HETATM   32  O3  UNL     1      -6.725   0.317   0.358  1.00  0.00    -0.299 OA
BRANCH  32  33
HETATM   33  C19 UNL     1      -7.921   0.627   1.034  1.00  0.00     0.363 C 
HETATM   34  O4  UNL     1      -7.778   1.458   1.967  1.00  0.00    -0.238 OA
HETATM   35  N2  UNL     1      -9.211   0.126   0.751  1.00  0.00    -0.328 N 
HETATM   36  C20 UNL     1      -9.533  -0.791  -0.310  1.00  0.00     0.128 C 
HETATM   37  C24 UNL     1     -10.324   0.677   1.555  1.00  0.00     0.128 C 
HETATM   38  C21 UNL     1     -10.808  -1.525  -0.257  1.00  0.00     0.020 C 
HETATM   39  C22 UNL     1     -11.955  -0.659   0.252  1.00  0.00     0.003 C 
HETATM   40  C23 UNL     1     -11.559  -0.083   1.603  1.00  0.00     0.020 C 
ENDBRANCH  32  33
ENDBRANCH  31  32
ENDBRANCH   8  31
TORSDOF 13
