REMARK  15 active torsions:
REMARK  status: ('A' for Active; 'I' for Inactive)
REMARK       I    between atoms: N1_3  and  C3_5 
REMARK    1  A    between atoms: C3_5  and  C4_7 
REMARK    2  A    between atoms: C4_7  and  C5_8 
REMARK    3  A    between atoms: C5_8  and  C7_10 
REMARK    4  A    between atoms: C14_18  and  O2_19 
REMARK    5  A    between atoms: C14_18  and  C15_21 
REMARK    6  A    between atoms: C17_26  and  O3_27 
REMARK    7  A    between atoms: O3_27  and  C18_28 
REMARK    8  A    between atoms: C18_28  and  C19_30 
REMARK    9  A    between atoms: C19_30  and  C20_31 
REMARK   10  A    between atoms: C20_31  and  C21_32 
REMARK   11  A    between atoms: C21_32  and  C22_33 
REMARK   12  A    between atoms: C22_33  and  C23_34 
REMARK   13  A    between atoms: C23_34  and  C24_35 
REMARK   14  A    between atoms: C24_35  and  C25_36 
REMARK   15  A    between atoms: C25_36  and  C26_37 
ROOT
HETATM    1  C7  UNL     1      -2.985   0.245  -0.146  1.00  0.00    -0.028 C 
HETATM    2  C8  UNL     1      -3.299  -0.930  -0.905  1.00  0.00    -0.043 C 
HETATM    3  C9  UNL     1      -3.467  -1.954  -0.037  1.00  0.00    -0.052 C 
HETATM    4  C10 UNL     1      -3.256  -1.503   1.399  1.00  0.00     0.041 C 
HETATM    5  C11 UNL     1      -1.902  -0.717   1.546  1.00  0.00     0.033 C 
HETATM    6  C12 UNL     1      -1.561  -0.270   0.284  1.00  0.00     0.063 C 
HETATM    7  S1  UNL     1      -0.974  -1.792  -0.500  1.00  0.00    -0.148 SA
HETATM    8  C13 UNL     1      -1.424  -3.363   0.030  1.00  0.00     0.126 C 
HETATM    9  C14 UNL     1      -2.580  -4.059  -0.720  1.00  0.00     0.182 C 
HETATM   10  C16 UNL     1      -3.742  -3.097  -0.829  1.00  0.00     0.028 C 
HETATM   11  C17 UNL     1      -0.783   0.515  -0.587  1.00  0.00     0.155 C 
HETATM   12  C27 UNL     1      -1.184   0.469  -2.020  1.00  0.00     0.039 C 
HETATM   13  C28 UNL     1      -1.962  -0.357  -2.869  1.00  0.00    -0.012 C 
HETATM   14  C29 UNL     1      -1.157  -1.280  -3.745  1.00  0.00     0.010 C 
HETATM   15  C30 UNL     1      -3.219  -1.145  -2.294  1.00  0.00     0.044 C 
ENDROOT
BRANCH  11  16
HETATM   16  O3  UNL     1       0.625   0.154  -0.432  1.00  0.00    -0.314 OA
BRANCH  16  17
HETATM   17  C18 UNL     1       1.611   0.944   0.033  1.00  0.00     0.259 C 
HETATM   18  O4  UNL     1       1.334   2.117   0.378  1.00  0.00    -0.265 OA
BRANCH  17  19
HETATM   19  C19 UNL     1       3.009   0.388   0.119  1.00  0.00     0.111 C 
BRANCH  19  20
HETATM   20  C20 UNL     1       3.623   0.681  -1.230  1.00  0.00     0.010 C 
BRANCH  20  21
HETATM   21  C21 UNL     1       5.020   0.202  -1.390  1.00  0.00     0.000 C 
BRANCH  21  22
HETATM   22  C22 UNL     1       5.908   0.871  -0.368  1.00  0.00     0.000 C 
BRANCH  22  23
HETATM   23  C23 UNL     1       7.344   0.393  -0.522  1.00  0.00     0.001 C 
BRANCH  23  24
HETATM   24  C24 UNL     1       8.223   1.071   0.482  1.00  0.00     0.010 C 
BRANCH  24  25
HETATM   25  C25 UNL     1       7.837   0.808   1.888  1.00  0.00     0.113 C 
BRANCH  25  26
HETATM   26  C26 UNL     1       7.906  -0.601   2.301  1.00  0.00     0.172 C 
HETATM   27  O5  UNL     1       7.409  -0.957   3.392  1.00  0.00    -0.648 OA
HETATM   28  O6  UNL     1       8.514  -1.537   1.503  1.00  0.00    -0.648 OA
ENDBRANCH  25  26
ENDBRANCH  24  25
ENDBRANCH  23  24
ENDBRANCH  22  23
ENDBRANCH  21  22
ENDBRANCH  20  21
ENDBRANCH  19  20
ENDBRANCH  17  19
ENDBRANCH  16  17
ENDBRANCH  11  16
BRANCH   1  29
HETATM   29  C5  UNL     1      -3.450   1.371   0.245  1.00  0.00    -0.067 C 
HETATM   30  C6  UNL     1      -4.834   1.844  -0.101  1.00  0.00     0.044 C 
BRANCH  29  31
HETATM   31  C4  UNL     1      -2.881   2.448   1.068  1.00  0.00     0.137 C 
BRANCH  31  32
HETATM   32  C3  UNL     1      -3.808   2.774   2.224  1.00  0.00     0.225 C 
HETATM   33  N1  UNL     1      -4.639   3.944   2.104  1.00  0.00    -0.341 N 
HETATM   34  C2  UNL     1      -4.605   4.881   2.989  1.00  0.00     0.059 C 
ATOM     35  H1  UNL     1      -5.266   4.033   1.304  1.00  0.00     0.167 HD
HETATM   36  C1  UNL     1      -5.476   6.063   2.823  1.00  0.00     0.055 C 
HETATM   37  O1  UNL     1      -3.837   2.043   3.238  1.00  0.00    -0.273 OA
ENDBRANCH  31  32
ENDBRANCH  29  31
ENDBRANCH   1  29
BRANCH   9  38
HETATM   38  O2  UNL     1      -2.153  -4.604  -1.929  1.00  0.00    -0.376 OA
ATOM     39  H2  UNL     1      -2.864  -5.032  -2.391  1.00  0.00     0.211 HD
ENDBRANCH   9  38
BRANCH   9  40
HETATM   40  C15 UNL     1      -2.881  -5.314   0.102  1.00  0.00     0.422 C 
HETATM   41  F1  UNL     1      -3.253  -5.101   1.378  1.00  0.00    -0.167 F 
HETATM   42  F2  UNL     1      -3.933  -6.036  -0.487  1.00  0.00    -0.167 F 
HETATM   43  F3  UNL     1      -1.805  -6.182   0.069  1.00  0.00    -0.167 F 
ENDBRANCH   9  40
TORSDOF 15
