REMARK  15 active torsions:
REMARK  status: ('A' for Active; 'I' for Inactive)
REMARK    1  A    between atoms: C9_9  and  N1_10 
REMARK    2  A    between atoms: C20_21  and  C21_22 
REMARK    3  A    between atoms: C21_22  and  C22_23 
REMARK    4  A    between atoms: C22_23  and  C23_24 
REMARK    5  A    between atoms: N2_26  and  C25_28 
REMARK    6  A    between atoms: C25_28  and  C26_29 
REMARK    7  A    between atoms: C26_29  and  C27_30 
REMARK    8  A    between atoms: C27_30  and  C28_31 
REMARK    9  A    between atoms: C28_31  and  N3_32 
REMARK   10  A    between atoms: C28_31  and  C33_42 
REMARK       I    between atoms: N3_32  and  C29_34 
REMARK   11  A    between atoms: C29_34  and  C30_36 
REMARK   12  A    between atoms: C30_36  and  C31_37 
REMARK       I    between atoms: C33_42  and  N5_44 
REMARK   13  A    between atoms: N5_44  and  C34_46 
REMARK   14  A    between atoms: C34_46  and  C35_47 
REMARK   15  A    between atoms: C34_46  and  C37_49 
ROOT
HETATM    1  C23 UNL     1       1.269   0.703  -1.016  1.00  0.00    -0.018 C 
HETATM    2  C24 UNL     1       2.417   0.811  -1.954  1.00  0.00     0.063 C 
HETATM    3  N2  UNL     1       1.412   0.639   0.201  1.00  0.00    -0.377 N 
ATOM      4  H2  UNL     1       0.508   0.568   0.668  1.00  0.00     0.164 HD
ENDROOT
BRANCH   3   5
HETATM    5  C25 UNL     1       2.442   0.635   1.124  1.00  0.00     0.061 C 
BRANCH   5   6
HETATM    6  C26 UNL     1       3.739   0.002   0.712  1.00  0.00     0.047 C 
BRANCH   6   7
HETATM    7  C27 UNL     1       4.775  -0.023   1.828  1.00  0.00     0.040 C 
BRANCH   7   8
HETATM    8  C28 UNL     1       6.041  -0.687   1.361  1.00  0.00     0.177 C 
BRANCH   8   9
HETATM    9  N3  UNL     1       5.840  -2.052   0.917  1.00  0.00    -0.348 N 
HETATM   10  C29 UNL     1       6.794  -3.080   1.240  1.00  0.00     0.220 C 
HETATM   11  O1  UNL     1       7.813  -2.822   1.890  1.00  0.00    -0.274 OA
ATOM     12  H3  UNL     1       5.012  -2.287   0.369  1.00  0.00     0.163 HD
BRANCH  10  13
HETATM   13  C30 UNL     1       6.528  -4.448   0.774  1.00  0.00     0.137 C 
BRANCH  13  14
HETATM   14  C31 UNL     1       7.740  -5.360   0.866  1.00  0.00     0.220 A 
HETATM   15  C32 UNL     1       7.625  -6.781   0.453  1.00  0.00     0.266 A 
HETATM   16  N4  UNL     1       8.189  -5.796  -0.455  1.00  0.00    -0.067 N 
ATOM     17  H42 UNL     1       7.980  -5.506  -1.410  1.00  0.00     0.277 HD
ATOM     18  H41 UNL     1       9.066  -5.722  -0.970  1.00  0.00     0.277 HD
ENDBRANCH  13  14
ENDBRANCH  10  13
ENDBRANCH   8   9
BRANCH   8  19
HETATM   19  C33 UNL     1       6.762   0.129   0.356  1.00  0.00     0.241 C 
HETATM   20  O2  UNL     1       6.492   0.007  -0.849  1.00  0.00    -0.271 OA
HETATM   21  N5  UNL     1       7.762   1.037   0.778  1.00  0.00    -0.346 N 
ATOM     22  H5  UNL     1       7.949   1.115   1.778  1.00  0.00     0.163 HD
BRANCH  21  23
HETATM   23  C34 UNL     1       8.533   1.860  -0.125  1.00  0.00     0.173 C 
BRANCH  23  24
HETATM   24  C35 UNL     1       8.886   3.216   0.407  1.00  0.00     0.030 C 
HETATM   25  C36 UNL     1       9.734   3.128   1.669  1.00  0.00     0.007 C 
ENDBRANCH  23  24
BRANCH  23  26
HETATM   26  C37 UNL     1       9.803   1.113  -0.486  1.00  0.00     0.254 C 
HETATM   27  N6  UNL     1      10.767   1.711  -1.320  1.00  0.00    -0.060 NA
HETATM   28  O3  UNL     1       9.969  -0.031  -0.030  1.00  0.00    -0.275 OA
ENDBRANCH  23  26
ENDBRANCH  21  23
ENDBRANCH   8  19
ENDBRANCH   7   8
ENDBRANCH   6   7
ENDBRANCH   5   6
ENDBRANCH   3   5
BRANCH   1  29
HETATM   29  C22 UNL     1      -0.083   0.672  -1.641  1.00  0.00     0.052 C 
BRANCH  29  30
HETATM   30  C21 UNL     1      -1.228   0.640  -0.674  1.00  0.00     0.015 C 
BRANCH  30  31
HETATM   31  C20 UNL     1      -2.503   0.542  -1.473  1.00  0.00     0.022 C 
HETATM   32  C2  UNL     1      -2.620   1.706  -2.376  1.00  0.00    -0.084 C 
HETATM   33  C1  UNL     1      -2.407   1.693  -3.678  1.00  0.00     0.014 C 
HETATM   34  C3  UNL     1      -3.042   3.002  -1.745  1.00  0.00     0.034 C 
HETATM   35  C4  UNL     1      -4.474   2.713  -1.271  1.00  0.00     0.010 C 
HETATM   36  C5  UNL     1      -4.398   1.659  -0.229  1.00  0.00    -0.001 C 
HETATM   37  C6  UNL     1      -5.765   1.258   0.299  1.00  0.00    -0.005 C 
HETATM   38  C18 UNL     1      -3.740   0.372  -0.628  1.00  0.00    -0.033 C 
HETATM   39  C7  UNL     1      -6.681   2.413   0.570  1.00  0.00     0.007 C 
HETATM   40  C15 UNL     1      -5.536   0.525   1.589  1.00  0.00    -0.008 C 
HETATM   41  C8  UNL     1      -8.063   1.830   0.790  1.00  0.00     0.036 C 
HETATM   42  C9  UNL     1      -8.042   0.465   1.399  1.00  0.00     0.223 C 
HETATM   43  C14 UNL     1      -6.834   0.175   2.252  1.00  0.00     0.041 C 
HETATM   44  C16 UNL     1      -4.622  -0.650   1.482  1.00  0.00     0.006 C 
HETATM   45  C17 UNL     1      -3.409  -0.370   0.637  1.00  0.00     0.010 C 
HETATM   46  C19 UNL     1      -4.670  -0.539  -1.439  1.00  0.00     0.016 C 
BRANCH  42  47
HETATM   47  N1  UNL     1      -8.281  -0.616   0.492  1.00  0.00     0.093 N 
HETATM   48  C10 UNL     1      -9.088  -1.644   1.179  1.00  0.00     0.273 C 
HETATM   49  C11 UNL     1      -9.220  -2.643   0.023  1.00  0.00     0.032 C 
HETATM   50  C12 UNL     1      -9.528  -1.694  -1.124  1.00  0.00     0.032 C 
HETATM   51  C13 UNL     1      -9.199  -0.292  -0.588  1.00  0.00     0.273 C 
ENDBRANCH  42  47
ENDBRANCH  30  31
ENDBRANCH  29  30
ENDBRANCH   1  29
TORSDOF 15
