REMARK  14 active torsions:
REMARK  status: ('A' for Active; 'I' for Inactive)
REMARK    1  A    between atoms: C8_8  and  C9_9 
REMARK    2  A    between atoms: C9_9  and  C10_10 
REMARK    3  A    between atoms: C10_10  and  C11_11 
REMARK       I    between atoms: C11_11  and  N1_13 
REMARK       I    between atoms: N1_13  and  C12_15 
REMARK    4  A    between atoms: C12_15  and  C13_17 
REMARK       I    between atoms: N2_19  and  C15_20 
REMARK       I    between atoms: C15_20  and  N3_22 
REMARK    5  A    between atoms: N3_22  and  C16_24 
REMARK    6  A    between atoms: C23_31  and  C24_32 
REMARK       I    between atoms: C24_32  and  N4_34 
REMARK    7  A    between atoms: N4_34  and  C25_36 
REMARK    8  A    between atoms: C25_36  and  C26_37 
REMARK    9  A    between atoms: C26_37  and  C27_38 
REMARK   10  A    between atoms: C27_38  and  C28_39 
REMARK   11  A    between atoms: C28_39  and  C29_40 
REMARK   12  A    between atoms: C29_40  and  C30_41 
REMARK   13  A    between atoms: C30_41  and  C31_42 
REMARK   14  A    between atoms: C31_42  and  C32_43 
ROOT
HETATM    1  C13 UNL     1       0.243   1.540  -2.026  1.00  0.00     0.111 C 
HETATM    2  C14 UNL     1       0.383   2.927  -1.496  1.00  0.00     0.142 C 
HETATM    3  N2  UNL     1       1.769   3.047  -1.110  1.00  0.00    -0.333 N 
HETATM    4  C15 UNL     1       2.320   4.155  -0.401  1.00  0.00     0.318 C 
HETATM    5  O3  UNL     1       3.522   4.132  -0.119  1.00  0.00    -0.247 OA
HETATM    6  N3  UNL     1       1.474   5.238  -0.050  1.00  0.00    -0.338 N 
ATOM      7  H3  UNL     1       0.492   5.181  -0.319  1.00  0.00     0.164 HD
HETATM    8  C22 UNL     1       2.527   1.899  -1.557  1.00  0.00     0.142 C 
HETATM    9  C23 UNL     1       1.597   1.197  -2.550  1.00  0.00     0.110 C 
ENDROOT
BRANCH   1  10
HETATM   10  C12 UNL     1      -0.314   0.584  -1.046  1.00  0.00     0.230 C 
HETATM   11  N1  UNL     1      -0.909  -0.605  -1.493  1.00  0.00    -0.297 N 
HETATM   12  C11 UNL     1      -1.500  -1.623  -0.692  1.00  0.00     0.224 C 
ATOM     13  H1  UNL     1      -0.919  -0.757  -2.502  1.00  0.00     0.171 HD
HETATM   14  O1  UNL     1      -2.022  -2.605  -1.321  1.00  0.00    -0.273 OA
HETATM   15  O2  UNL     1      -0.245   0.852   0.171  1.00  0.00    -0.273 OA
BRANCH  12  16
HETATM   16  C10 UNL     1      -1.533  -1.597   0.768  1.00  0.00     0.108 C 
BRANCH  16  17
HETATM   17  C9  UNL     1      -2.408  -2.588   1.452  1.00  0.00     0.048 C 
BRANCH  17  18
HETATM   18  C8  UNL     1      -3.826  -2.349   1.125  1.00  0.00    -0.057 A 
HETATM   19  C7  UNL     1      -4.447  -1.284   1.806  1.00  0.00     0.007 A 
HETATM   20  C6  UNL     1      -5.771  -1.028   1.574  1.00  0.00     0.008 A 
HETATM   21  C5  UNL     1      -6.555  -1.751   0.705  1.00  0.00    -0.051 A 
HETATM   22  C4  UNL     1      -7.994  -1.654   0.302  1.00  0.00     0.048 C 
HETATM   23  C34 UNL     1      -5.953  -2.791   0.040  1.00  0.00    -0.051 A 
HETATM   24  C2  UNL     1      -8.261  -2.985  -0.351  1.00  0.00    -0.040 C 
HETATM   25  C1  UNL     1      -9.246  -2.733  -1.481  1.00  0.00     0.015 C 
HETATM   26  C3  UNL     1      -8.826  -3.957   0.663  1.00  0.00     0.015 C 
HETATM   27  C35 UNL     1      -6.929  -3.440  -0.843  1.00  0.00     0.048 C 
HETATM   28  C33 UNL     1      -4.600  -3.073   0.261  1.00  0.00     0.014 A 
ENDBRANCH  17  18
ENDBRANCH  16  17
ENDBRANCH  12  16
ENDBRANCH   1  10
BRANCH   9  29
HETATM   29  C24 UNL     1       1.924  -0.230  -2.655  1.00  0.00     0.224 C 
HETATM   30  O4  UNL     1       2.005  -0.747  -3.818  1.00  0.00    -0.273 OA
HETATM   31  N4  UNL     1       2.151  -1.049  -1.527  1.00  0.00    -0.361 N 
ATOM     32  H4  UNL     1       2.072  -0.608  -0.611  1.00  0.00     0.162 HD
BRANCH  31  33
HETATM   33  C25 UNL     1       2.485  -2.453  -1.552  1.00  0.00     0.122 C 
BRANCH  33  34
HETATM   34  C26 UNL     1       3.795  -2.628  -2.255  1.00  0.00     0.020 C 
BRANCH  34  35
HETATM   35  C27 UNL     1       4.844  -1.855  -1.518  1.00  0.00     0.002 C 
BRANCH  35  36
HETATM   36  C28 UNL     1       5.024  -2.304  -0.114  1.00  0.00     0.000 C 
BRANCH  36  37
HETATM   37  C29 UNL     1       5.453  -3.742  -0.042  1.00  0.00     0.001 C 
BRANCH  37  38
HETATM   38  C30 UNL     1       5.633  -4.095   1.435  1.00  0.00     0.010 C 
BRANCH  38  39
HETATM   39  C31 UNL     1       6.072  -5.528   1.466  1.00  0.00     0.113 C 
BRANCH  39  40
HETATM   40  C32 UNL     1       6.271  -5.950   2.865  1.00  0.00     0.172 C 
HETATM   41  O5  UNL     1       6.033  -5.130   3.796  1.00  0.00    -0.648 OA
HETATM   42  O6  UNL     1       6.718  -7.244   3.138  1.00  0.00    -0.648 OA
ENDBRANCH  39  40
ENDBRANCH  38  39
ENDBRANCH  37  38
ENDBRANCH  36  37
ENDBRANCH  35  36
ENDBRANCH  34  35
ENDBRANCH  33  34
ENDBRANCH  31  33
ENDBRANCH   9  29
BRANCH   6  43
HETATM   43  C16 UNL     1       1.910   6.418   0.663  1.00  0.00     0.086 C 
HETATM   44  C17 UNL     1       1.182   6.620   1.952  1.00  0.00     0.025 C 
HETATM   45  C18 UNL     1       1.240   8.074   2.339  1.00  0.00     0.002 C 
HETATM   46  C19 UNL     1       2.539   8.749   1.935  1.00  0.00     0.000 C 
HETATM   47  C20 UNL     1       2.713   8.704   0.430  1.00  0.00     0.002 C 
HETATM   48  C21 UNL     1       1.770   7.666  -0.176  1.00  0.00     0.025 C 
ENDBRANCH   6  43
TORSDOF 14
