REMARK  17 active torsions:
REMARK  status: ('A' for Active; 'I' for Inactive)
REMARK    1  A    between atoms: C2_2  and  C3_3 
REMARK    2  A    between atoms: N1_7  and  C7_8 
REMARK    3  A    between atoms: C7_8  and  C8_9 
REMARK    4  A    between atoms: N2_17  and  C15_18 
REMARK    5  A    between atoms: C15_18  and  O2_19 
REMARK    6  A    between atoms: C16_21  and  C17_22 
REMARK    7  A    between atoms: C16_21  and  N3_28 
REMARK    8  A    between atoms: C17_22  and  C18_23 
REMARK       I    between atoms: N3_28  and  C23_30 
REMARK    9  A    between atoms: C23_30  and  C24_32 
REMARK   10  A    between atoms: C24_32  and  C25_33 
REMARK   11  A    between atoms: C24_32  and  N5_42 
REMARK   12  A    between atoms: C25_33  and  C26_34 
REMARK   13  A    between atoms: C26_34  and  C27_35 
REMARK   14  A    between atoms: C27_35  and  C28_36 
REMARK   15  A    between atoms: C28_36  and  C29_37 
REMARK   16  A    between atoms: C29_37  and  N4_38 
REMARK       I    between atoms: N5_42  and  C30_44 
REMARK       I    between atoms: C30_44  and  N6_46 
REMARK   17  A    between atoms: N6_46  and  C31_48 
ROOT
HETATM    1  C15 UNL     1       1.668  -0.355  -0.908  1.00  0.00     0.170 C 
HETATM    2  C16 UNL     1       0.555  -1.243  -0.748  1.00  0.00     0.064 C 
ENDROOT
BRANCH   2   3
HETATM    3  C17 UNL     1       0.512  -2.606  -0.269  1.00  0.00     0.066 C 
BRANCH   3   4
HETATM    4  C18 UNL     1       0.907  -2.908   1.146  1.00  0.00    -0.009 C 
HETATM    5  C19 UNL     1       0.789  -4.424   1.411  1.00  0.00     0.005 C 
HETATM    6  C20 UNL     1       1.513  -4.594   2.707  1.00  0.00     0.000 C 
HETATM    7  C21 UNL     1       2.225  -3.290   3.019  1.00  0.00     0.000 C 
HETATM    8  C22 UNL     1       2.221  -2.543   1.657  1.00  0.00     0.005 C 
ENDBRANCH   3   4
ENDBRANCH   2   3
BRANCH   2   9
HETATM    9  N3  UNL     1      -0.640  -0.828  -1.502  1.00  0.00    -0.325 N 
HETATM   10  C23 UNL     1      -1.630   0.051  -1.039  1.00  0.00     0.244 C 
HETATM   11  O3  UNL     1      -1.486   0.524   0.101  1.00  0.00    -0.271 OA
ATOM     12  H3  UNL     1      -0.758  -1.212  -2.440  1.00  0.00     0.169 HD
BRANCH  10  13
HETATM   13  C24 UNL     1      -2.825   0.418  -1.888  1.00  0.00     0.178 C 
BRANCH  13  14
HETATM   14  C25 UNL     1      -3.354  -0.792  -2.551  1.00  0.00     0.035 C 
BRANCH  14  15
HETATM   15  C26 UNL     1      -4.509  -0.652  -3.455  1.00  0.00     0.002 C 
BRANCH  15  16
HETATM   16  C27 UNL     1      -5.828  -0.240  -2.956  1.00  0.00     0.002 C 
BRANCH  16  17
HETATM   17  C28 UNL     1      -6.422  -1.194  -1.937  1.00  0.00     0.027 C 
BRANCH  17  18
HETATM   18  C29 UNL     1      -7.767  -0.619  -1.533  1.00  0.00     0.229 C 
BRANCH  18  19
HETATM   19  N4  UNL     1      -8.418  -1.479  -0.547  1.00  0.00    -0.079 N 
ATOM     20  H43 UNL     1      -8.501  -2.440  -0.879  1.00  0.00     0.274 HD
ATOM     21  H42 UNL     1      -7.820  -1.648   0.262  1.00  0.00     0.274 HD
ATOM     22  H41 UNL     1      -9.322  -1.093  -0.275  1.00  0.00     0.274 HD
ENDBRANCH  18  19
ENDBRANCH  17  18
ENDBRANCH  16  17
ENDBRANCH  15  16
ENDBRANCH  14  15
ENDBRANCH  13  14
BRANCH  13  23
HETATM   23  N5  UNL     1      -3.742   1.285  -1.257  1.00  0.00    -0.330 N 
HETATM   24  C30 UNL     1      -4.294   1.219   0.034  1.00  0.00     0.317 C 
HETATM   25  O4  UNL     1      -4.017   0.282   0.811  1.00  0.00    -0.247 OA
HETATM   26  N6  UNL     1      -5.201   2.214   0.539  1.00  0.00    -0.339 N 
ATOM     27  H6  UNL     1      -5.454   2.994  -0.067  1.00  0.00     0.164 HD
ATOM     28  H5  UNL     1      -4.050   2.077  -1.821  1.00  0.00     0.165 HD
BRANCH  26  29
HETATM   29  C31 UNL     1      -5.764   2.159   1.853  1.00  0.00     0.086 C 
HETATM   30  C32 UNL     1      -7.268   1.989   1.795  1.00  0.00     0.025 C 
HETATM   31  C33 UNL     1      -7.827   3.243   2.442  1.00  0.00     0.002 C 
HETATM   32  C34 UNL     1      -6.760   3.482   3.517  1.00  0.00     0.002 C 
HETATM   33  C35 UNL     1      -5.508   3.446   2.630  1.00  0.00     0.025 C 
ENDBRANCH  26  29
ENDBRANCH  13  23
ENDBRANCH  10  13
ENDBRANCH   2   9
BRANCH   1  34
HETATM   34  N2  UNL     1       3.006  -0.435  -1.245  1.00  0.00    -0.270 N 
HETATM   35  C3  UNL     1       3.704  -1.585  -1.712  1.00  0.00     0.124 C 
HETATM   36  C4  UNL     1       5.019  -1.258  -2.433  1.00  0.00     0.027 C 
HETATM   37  C5  UNL     1       4.873  -0.355  -3.600  1.00  0.00     0.014 C 
HETATM   38  C6  UNL     1       5.942  -0.648  -1.408  1.00  0.00     0.134 C 
HETATM   39  N1  UNL     1       5.289   0.614  -1.032  1.00  0.00    -0.333 N 
HETATM   40  C14 UNL     1       3.873   0.728  -1.088  1.00  0.00     0.327 C 
HETATM   41  O1  UNL     1       3.397   1.887  -0.995  1.00  0.00    -0.247 OA
BRANCH  35  42
HETATM   42  C2  UNL     1       2.988  -2.472  -2.643  1.00  0.00    -0.011 C 
HETATM   43  C1  UNL     1       2.294  -2.152  -3.701  1.00  0.00     0.009 C 
ENDBRANCH  35  42
BRANCH  39  44
HETATM   44  C7  UNL     1       6.114   1.710  -0.609  1.00  0.00     0.132 C 
BRANCH  44  45
HETATM   45  C8  UNL     1       6.400   1.734   0.873  1.00  0.00     0.004 C 
HETATM   46  C9  UNL     1       5.154   1.836   1.724  1.00  0.00     0.006 C 
HETATM   47  C10 UNL     1       5.478   1.798   3.195  1.00  0.00     0.000 C 
HETATM   48  C11 UNL     1       6.961   2.073   3.449  1.00  0.00     0.000 C 
HETATM   49  C12 UNL     1       7.320   3.284   2.608  1.00  0.00     0.000 C 
HETATM   50  C13 UNL     1       7.294   2.950   1.131  1.00  0.00     0.006 C 
ENDBRANCH  44  45
ENDBRANCH  39  44
ENDBRANCH   1  34
BRANCH   1  51
HETATM   51  O2  UNL     1       1.331   0.943  -0.672  1.00  0.00    -0.344 OA
ATOM     52  H2  UNL     1       0.411   0.998  -0.440  1.00  0.00     0.219 HD
ENDBRANCH   1  51
TORSDOF 17
