REMARK  15 active torsions:
REMARK  status: ('A' for Active; 'I' for Inactive)
REMARK    1  A    between atoms: C7_10  and  C8_11 
REMARK    2  A    between atoms: C8_11  and  C9_12 
REMARK    3  A    between atoms: C9_12  and  C10_13 
REMARK    4  A    between atoms: C10_13  and  C11_14 
REMARK    5  A    between atoms: C11_14  and  N2_15 
REMARK    6  A    between atoms: N2_15  and  C12_17 
REMARK    7  A    between atoms: C12_17  and  C13_18 
REMARK    8  A    between atoms: C13_18  and  C14_19 
REMARK    9  A    between atoms: C14_19  and  C15_20 
REMARK   10  A    between atoms: C15_20  and  C16_21 
REMARK   11  A    between atoms: C16_21  and  C17_22 
REMARK       I    between atoms: N3_25  and  C20_26 
REMARK       I    between atoms: C20_26  and  N5_30 
REMARK   12  A    between atoms: C23_33  and  N6_34 
REMARK   13  A    between atoms: N6_34  and  S1_36 
REMARK   14  A    between atoms: S1_36  and  N7_39 
REMARK   15  A    between atoms: N7_39  and  C25_41 
ROOT
HETATM    1  C17 UNL     1      -0.290   0.471  -0.991  1.00  0.00     0.006 C 
HETATM    2  C18 UNL     1      -0.105  -0.053   0.391  1.00  0.00     0.027 C 
HETATM    3  C19 UNL     1      -1.435  -0.774   0.680  1.00  0.00     0.141 C 
HETATM    4  N3  UNL     1      -2.381   0.080  -0.005  1.00  0.00    -0.218 N 
HETATM    5  C20 UNL     1      -3.625   0.532   0.498  1.00  0.00     0.671 C 
HETATM    6  N4  UNL     1      -3.796   1.758   0.813  1.00  0.00    -0.235 N 
ATOM      7  H41 UNL     1      -4.692   2.084   1.175  1.00  0.00     0.174 HD
ATOM      8  H42 UNL     1      -3.026   2.417   0.702  1.00  0.00     0.174 HD
HETATM    9  N5  UNL     1      -4.694  -0.383   0.652  1.00  0.00    -0.218 N 
HETATM   10  C21 UNL     1      -5.549  -0.351   1.808  1.00  0.00     0.143 C 
HETATM   11  C22 UNL     1      -7.013  -0.485   1.433  1.00  0.00     0.046 C 
HETATM   12  C23 UNL     1      -7.238  -1.516   0.377  1.00  0.00     0.097 C 
HETATM   13  C28 UNL     1      -5.974  -2.336   0.160  1.00  0.00     0.046 C 
HETATM   14  C29 UNL     1      -4.938  -1.388  -0.388  1.00  0.00     0.143 C 
HETATM   15  C30 UNL     1      -1.782   0.356  -1.291  1.00  0.00     0.145 C 
ENDROOT
BRANCH   1  16
HETATM   16  C16 UNL     1       0.133   1.875  -1.224  1.00  0.00     0.006 C 
BRANCH  16  17
HETATM   17  C15 UNL     1       1.562   2.248  -1.043  1.00  0.00     0.000 C 
BRANCH  17  18
HETATM   18  C14 UNL     1       2.158   2.070   0.285  1.00  0.00     0.002 C 
BRANCH  18  19
HETATM   19  C13 UNL     1       3.560   2.578   0.484  1.00  0.00     0.019 C 
BRANCH  19  20
HETATM   20  C12 UNL     1       4.625   1.986  -0.373  1.00  0.00     0.113 C 
BRANCH  20  21
HETATM   21  N2  UNL     1       4.437   2.233  -1.757  1.00  0.00    -0.421 N 
ATOM     22  H2  UNL     1       3.644   2.770  -2.108  1.00  0.00     0.153 HD
BRANCH  21  23
HETATM   23  C11 UNL     1       5.424   1.685  -2.627  1.00  0.00     0.113 C 
BRANCH  23  24
HETATM   24  C10 UNL     1       5.401   0.179  -2.679  1.00  0.00     0.019 C 
BRANCH  24  25
HETATM   25  C9  UNL     1       6.430  -0.413  -3.589  1.00  0.00     0.006 C 
BRANCH  25  26
HETATM   26  C8  UNL     1       7.847  -0.106  -3.244  1.00  0.00     0.044 C 
BRANCH  26  27
HETATM   27  C7  UNL     1       8.273  -0.581  -1.908  1.00  0.00     0.011 A 
HETATM   28  C6  UNL     1       8.530  -1.937  -1.699  1.00  0.00     0.252 A 
HETATM   29  N1  UNL     1       8.924  -2.403  -0.501  1.00  0.00    -0.322 N 
HETATM   30  O1  UNL     1       8.373  -2.701  -2.691  1.00  0.00    -0.268 OA
HETATM   31  C5  UNL     1       9.099  -1.597   0.578  1.00  0.00     0.045 A 
ATOM     32  H1  UNL     1       9.099  -3.403  -0.398  1.00  0.00     0.169 HD
HETATM   33  C4  UNL     1       9.506  -2.085   1.805  1.00  0.00     0.031 A 
HETATM   34  C32 UNL     1       8.859  -0.243   0.427  1.00  0.00    -0.008 A 
HETATM   35  C3  UNL     1       9.674  -1.224   2.886  1.00  0.00     0.009 A 
HETATM   36  C2  UNL     1       9.438   0.124   2.749  1.00  0.00    -0.061 A 
HETATM   37  C1  UNL     1       9.633   0.998   3.932  1.00  0.00     0.048 C 
HETATM   38  C33 UNL     1       9.033   0.583   1.514  1.00  0.00     0.020 A 
HETATM   39  C31 UNL     1       8.453   0.229  -0.808  1.00  0.00     0.026 A 
ENDBRANCH  26  27
ENDBRANCH  25  26
ENDBRANCH  24  25
ENDBRANCH  23  24
ENDBRANCH  21  23
ENDBRANCH  20  21
ENDBRANCH  19  20
ENDBRANCH  18  19
ENDBRANCH  17  18
ENDBRANCH  16  17
ENDBRANCH   1  16
BRANCH  12  40
HETATM   40  N6  UNL     1      -8.342  -2.364   0.765  1.00  0.00    -0.302 N 
ATOM     41  H6  UNL     1      -8.370  -2.909   1.626  1.00  0.00     0.173 HD
BRANCH  40  42
HETATM   42  S1  UNL     1      -9.609  -2.340  -0.411  1.00  0.00     0.299 S 
HETATM   43  O2  UNL     1     -10.276  -3.673  -0.450  1.00  0.00    -0.188 OA
HETATM   44  O3  UNL     1      -8.981  -2.067  -1.748  1.00  0.00    -0.188 OA
BRANCH  42  45
HETATM   45  N7  UNL     1     -10.770  -1.124  -0.109  1.00  0.00    -0.193 NA
HETATM   46  C24 UNL     1     -10.371   0.094  -0.787  1.00  0.00     0.131 C 
BRANCH  45  47
HETATM   47  C25 UNL     1     -10.893  -0.910   1.306  1.00  0.00     0.075 A 
HETATM   48  C26 UNL     1     -11.208   0.481   1.807  1.00  0.00     0.022 A 
HETATM   49  C27 UNL     1     -12.275  -0.575   1.821  1.00  0.00     0.022 A 
ENDBRANCH  45  47
ENDBRANCH  42  45
ENDBRANCH  40  42
ENDBRANCH  12  40
TORSDOF 15
