REMARK  14 active torsions:
REMARK  status: ('A' for Active; 'I' for Inactive)
REMARK    1  A    between atoms: C3_3  and  C4_4 
REMARK    2  A    between atoms: C4_4  and  O1_5 
REMARK    3  A    between atoms: O1_5  and  C5_6 
REMARK    4  A    between atoms: C5_6  and  C6_8 
REMARK    5  A    between atoms: C7_9  and  C8_10 
REMARK    6  A    between atoms: C8_10  and  C9_11 
REMARK    7  A    between atoms: C9_11  and  C10_12 
REMARK    8  A    between atoms: C10_12  and  C11_13 
REMARK    9  A    between atoms: C11_13  and  C12_14 
REMARK       I    between atoms: N3_20  and  C14_22 
REMARK       I    between atoms: C14_22  and  N4_24 
REMARK   10  A    between atoms: C18_32  and  N7_33 
REMARK       I    between atoms: N7_33  and  C19_35 
REMARK   11  A    between atoms: C19_35  and  C20_37 
REMARK   12  A    between atoms: C21_38  and  C22_39 
REMARK   13  A    between atoms: C25_42  and  O5_43 
REMARK   14  A    between atoms: C27_45  and  O6_46 
ROOT
HETATM    1  C1  UNL     1       0.304  -7.147   0.586  1.00  0.00     0.012 C 
HETATM    2  C2  UNL     1      -0.362  -6.630   1.450  1.00  0.00    -0.115 C 
HETATM    3  C3  UNL     1      -1.177  -5.992   2.484  1.00  0.00     0.119 C 
ENDROOT
BRANCH   3   4
HETATM    4  C4  UNL     1      -0.563  -4.611   2.753  1.00  0.00     0.191 C 
BRANCH   4   5
HETATM    5  O1  UNL     1      -0.611  -3.916   1.541  1.00  0.00    -0.316 OA
BRANCH   5   6
HETATM    6  C5  UNL     1      -0.118  -2.600   1.467  1.00  0.00     0.299 C 
HETATM    7  O2  UNL     1       0.341  -2.120   2.508  1.00  0.00    -0.259 OA
BRANCH   6   8
HETATM    8  C6  UNL     1      -0.199  -1.934   0.171  1.00  0.00     0.108 A 
HETATM    9  C7  UNL     1       0.716  -1.922  -0.848  1.00  0.00     0.046 A 
HETATM   10  N5  UNL     1       0.223  -1.184  -1.857  1.00  0.00    -0.300 N 
HETATM   11  N6  UNL     1      -0.980  -0.716  -1.531  1.00  0.00    -0.280 N 
ATOM     12  H5  UNL     1       0.700  -1.008  -2.741  1.00  0.00     0.187 HD
HETATM   13  C17 UNL     1      -1.774   0.112  -2.404  1.00  0.00     0.179 C 
HETATM   14  C18 UNL     1      -1.282  -1.146  -0.303  1.00  0.00     0.143 A 
BRANCH   9  15
HETATM   15  C8  UNL     1       2.061  -2.598  -0.870  1.00  0.00     0.060 C 
BRANCH  15  16
HETATM   16  C9  UNL     1       3.074  -1.807  -0.058  1.00  0.00     0.006 C 
BRANCH  16  17
HETATM   17  C10 UNL     1       4.418  -2.472  -0.082  1.00  0.00     0.007 C 
BRANCH  17  18
HETATM   18  C11 UNL     1       5.442  -1.738   0.704  1.00  0.00     0.066 C 
BRANCH  18  19
HETATM   19  C12 UNL     1       5.706  -0.399   0.109  1.00  0.00     0.069 A 
HETATM   20  N1  UNL     1       5.291   0.187  -0.994  1.00  0.00    -0.296 N 
HETATM   21  N2  UNL     1       5.651   1.361  -1.302  1.00  0.00    -0.279 N 
ATOM     22  H1  UNL     1       4.662  -0.319  -1.618  1.00  0.00     0.187 HD
HETATM   23  C13 UNL     1       6.478   2.012  -0.473  1.00  0.00     0.169 A 
ATOM     24  H2  UNL     1       5.319   1.801  -2.161  1.00  0.00     0.189 HD
HETATM   25  N3  UNL     1       6.960   3.226  -0.617  1.00  0.00    -0.288 N 
HETATM   26  S1  UNL     1       6.713   0.864   0.764  1.00  0.00    -0.038 SA
HETATM   27  C14 UNL     1       7.820   3.706   0.394  1.00  0.00     0.323 C 
ATOM     28  H3  UNL     1       6.722   3.799  -1.427  1.00  0.00     0.172 HD
HETATM   29  O3  UNL     1       7.337   4.339   1.352  1.00  0.00    -0.247 OA
HETATM   30  N4  UNL     1       9.211   3.450   0.285  1.00  0.00    -0.343 N 
HETATM   31  C15 UNL     1       9.756   2.715  -0.831  1.00  0.00     0.154 C 
HETATM   32  C16 UNL     1      10.149   3.916   1.290  1.00  0.00     0.154 C 
ENDBRANCH  18  19
ENDBRANCH  17  18
ENDBRANCH  16  17
ENDBRANCH  15  16
ENDBRANCH   9  15
BRANCH  14  33
HETATM   33  N7  UNL     1      -2.294  -0.980   0.450  1.00  0.00    -0.307 N 
HETATM   34  C19 UNL     1      -3.485  -0.218   0.151  1.00  0.00     0.246 C 
HETATM   35  O4  UNL     1      -3.335   1.004   0.147  1.00  0.00    -0.268 OA
ATOM     36  H7  UNL     1      -2.261  -1.434   1.363  1.00  0.00     0.170 HD
BRANCH  34  37
HETATM   37  C20 UNL     1      -4.691  -0.919  -0.102  1.00  0.00     0.075 C 
HETATM   38  C21 UNL     1      -5.883  -0.591  -0.353  1.00  0.00     0.017 C 
BRANCH  38  39
HETATM   39  C22 UNL     1      -6.637   0.610  -0.500  1.00  0.00    -0.033 A 
HETATM   40  C23 UNL     1      -7.850   0.547  -1.226  1.00  0.00     0.014 A 
HETATM   41  C24 UNL     1      -8.678   1.613  -1.357  1.00  0.00     0.040 A 
HETATM   42  C25 UNL     1      -8.351   2.821  -0.770  1.00  0.00     0.101 A 
HETATM   43  C27 UNL     1      -7.184   2.936  -0.054  1.00  0.00     0.102 A 
HETATM   44  C29 UNL     1      -6.334   1.820   0.076  1.00  0.00     0.051 A 
BRANCH  42  45
HETATM   45  O5  UNL     1      -9.166   3.938  -0.879  1.00  0.00    -0.353 OA
HETATM   46  C26 UNL     1     -10.365   3.803  -1.620  1.00  0.00     0.210 C 
ENDBRANCH  42  45
BRANCH  43  47
HETATM   47  O6  UNL     1      -6.872   4.154   0.528  1.00  0.00    -0.353 OA
HETATM   48  C28 UNL     1      -5.710   4.382   1.279  1.00  0.00     0.210 C 
ENDBRANCH  43  47
ENDBRANCH  38  39
ENDBRANCH  34  37
ENDBRANCH  14  33
ENDBRANCH   6   8
ENDBRANCH   5   6
ENDBRANCH   4   5
ENDBRANCH   3   4
TORSDOF 14
