REMARK  16 active torsions:
REMARK  status: ('A' for Active; 'I' for Inactive)
REMARK    1  A    between atoms: N1_2  and  C3_4 
REMARK    2  A    between atoms: C3_4  and  C4_5 
REMARK    3  A    between atoms: C4_5  and  N2_6 
REMARK    4  A    between atoms: N2_6  and  C6_8 
REMARK    5  A    between atoms: C6_8  and  C7_9 
REMARK    6  A    between atoms: C7_9  and  N3_10 
REMARK       I    between atoms: N3_10  and  C8_12 
REMARK       I    between atoms: C8_12  and  N4_14 
REMARK    7  A    between atoms: N4_14  and  C9_16 
REMARK    8  A    between atoms: C10_21  and  C11_22 
REMARK    9  A    between atoms: C11_22  and  C12_23 
REMARK   10  A    between atoms: C12_23  and  C13_24 
REMARK   11  A    between atoms: C13_24  and  C14_25 
REMARK   12  A    between atoms: C14_25  and  C15_26 
REMARK   13  A    between atoms: C17_30  and  N8_31 
REMARK       I    between atoms: N8_31  and  C18_33 
REMARK   14  A    between atoms: C18_33  and  O3_35 
REMARK   15  A    between atoms: O3_35  and  C19_36 
REMARK   16  A    between atoms: N9_41  and  C23_42 
ROOT
HETATM    1  C9  UNL     1      -1.576  -0.371   0.072  1.00  0.00     0.705 A 
HETATM    2  N5  UNL     1      -1.186   0.237  -1.061  1.00  0.00    -0.130 N 
ATOM      3  H5  UNL     1      -1.778   0.835  -1.637  1.00  0.00     0.205 HD
HETATM    4  N6  UNL     1       0.077  -0.054  -1.319  1.00  0.00    -0.274 N 
ATOM      5  H6  UNL     1       0.619   0.276  -2.118  1.00  0.00     0.189 HD
HETATM    6  C10 UNL     1       0.526  -0.874  -0.326  1.00  0.00     0.116 A 
HETATM    7  N9  UNL     1      -0.484  -1.059   0.511  1.00  0.00    -0.156 N 
ENDROOT
BRANCH   6   8
HETATM    8  C11 UNL     1       1.895  -1.450  -0.198  1.00  0.00     0.079 C 
BRANCH   8   9
HETATM    9  C12 UNL     1       2.719  -0.481   0.636  1.00  0.00     0.008 C 
BRANCH   9  10
HETATM   10  C13 UNL     1       2.828   0.878   0.040  1.00  0.00     0.006 C 
BRANCH  10  11
HETATM   11  C14 UNL     1       3.650   1.763   0.914  1.00  0.00     0.048 C 
BRANCH  11  12
HETATM   12  C15 UNL     1       5.051   1.241   1.093  1.00  0.00     0.001 A 
HETATM   13  C16 UNL     1       6.145   1.511   0.311  1.00  0.00     0.104 A 
HETATM   14  N7  UNL     1       7.283   0.955   0.647  1.00  0.00    -0.345 N 
HETATM   15  C17 UNL     1       7.312   0.167   1.719  1.00  0.00     0.153 A 
ATOM     16  H7  UNL     1       8.127   1.122   0.099  1.00  0.00     0.167 HD
HETATM   17  S1  UNL     1       5.702   0.202   2.275  1.00  0.00    -0.057 SA
BRANCH  15  18
HETATM   18  N8  UNL     1       8.332  -0.486   2.231  1.00  0.00    -0.282 N 
HETATM   19  C18 UNL     1       9.573  -0.371   1.603  1.00  0.00     0.367 C 
HETATM   20  O2  UNL     1      10.540   0.101   2.254  1.00  0.00    -0.238 OA
ATOM     21  H8  UNL     1       8.219  -1.062   3.065  1.00  0.00     0.173 HD
BRANCH  19  22
HETATM   22  O3  UNL     1       9.819  -0.749   0.285  1.00  0.00    -0.294 OA
BRANCH  22  23
HETATM   23  C19 UNL     1      11.105  -0.603  -0.289  1.00  0.00     0.061 C 
HETATM   24  C20 UNL     1      11.514   0.848  -0.266  1.00  0.00     0.046 C 
HETATM   25  C21 UNL     1      10.993  -0.992  -1.767  1.00  0.00     0.046 C 
HETATM   26  C22 UNL     1      12.073  -1.503   0.410  1.00  0.00     0.046 C 
ENDBRANCH  22  23
ENDBRANCH  19  22
ENDBRANCH  15  18
ENDBRANCH  11  12
ENDBRANCH  10  11
ENDBRANCH   9  10
ENDBRANCH   8   9
ENDBRANCH   6   8
BRANCH   7  27
HETATM   27  C23 UNL     1      -0.460  -1.865   1.721  1.00  0.00     0.263 C 
HETATM   28 CL1  UNL     1      -0.930  -3.549   1.412  1.00  0.00    -0.108 Cl
ENDBRANCH   7  27
BRANCH   1  29
HETATM   29  N4  UNL     1      -2.696  -0.365   0.695  1.00  0.00    -0.140 N 
HETATM   30  C8  UNL     1      -3.871   0.297   0.362  1.00  0.00     0.334 C 
HETATM   31  N3  UNL     1      -5.124  -0.092   0.893  1.00  0.00    -0.341 N 
HETATM   32  O1  UNL     1      -3.827   1.266  -0.431  1.00  0.00    -0.247 OA
ATOM     33  H3  UNL     1      -5.137  -0.883   1.537  1.00  0.00     0.164 HD
ATOM     34  H4  UNL     1      -2.729  -0.921   1.550  1.00  0.00     0.189 HD
BRANCH  31  35
HETATM   35  C7  UNL     1      -6.371   0.537   0.597  1.00  0.00     0.154 C 
BRANCH  35  36
HETATM   36  C6  UNL     1      -6.693   0.438  -0.850  1.00  0.00     0.291 C 
BRANCH  36  37
HETATM   37  N2  UNL     1      -7.965   1.070  -1.171  1.00  0.00     0.087 N 
HETATM   38  C5  UNL     1      -8.117   0.981  -2.622  1.00  0.00     0.310 C 
BRANCH  37  39
HETATM   39  C4  UNL     1      -9.077   0.347  -0.599  1.00  0.00     0.302 C 
BRANCH  39  40
HETATM   40  C3  UNL     1     -10.346   1.146  -0.917  1.00  0.00     0.301 C 
BRANCH  40  41
HETATM   41  N1  UNL     1     -11.499   0.434  -0.344  1.00  0.00     0.081 N 
HETATM   42  C1  UNL     1     -11.440   0.482   1.118  1.00  0.00     0.309 C 
HETATM   43  C2  UNL     1     -11.393  -0.972  -0.711  1.00  0.00     0.309 C 
ENDBRANCH  40  41
ENDBRANCH  39  40
ENDBRANCH  37  39
ENDBRANCH  36  37
ENDBRANCH  35  36
ENDBRANCH  31  35
ENDBRANCH   1  29
TORSDOF 16
