REMARK  15 active torsions:
REMARK  status: ('A' for Active; 'I' for Inactive)
REMARK    1  A    between atoms: C2_2  and  C3_3 
REMARK    2  A    between atoms: C3_3  and  C4_4 
REMARK    3  A    between atoms: C4_4  and  C5_5 
REMARK    4  A    between atoms: C5_5  and  C6_6 
REMARK    5  A    between atoms: C6_6  and  C7_7 
REMARK    6  A    between atoms: C8_8  and  C9_9 
REMARK    7  A    between atoms: C9_9  and  C10_10 
REMARK    8  A    between atoms: C10_10  and  O1_11 
REMARK    9  A    between atoms: C10_10  and  C11_13 
REMARK   10  A    between atoms: C12_14  and  C13_15 
REMARK   11  A    between atoms: C13_15  and  O2_16 
REMARK   12  A    between atoms: C13_15  and  C14_19 
REMARK   13  A    between atoms: C16_22  and  O4_23 
REMARK   14  A    between atoms: C20_29  and  O5_30 
REMARK   15  A    between atoms: C21_32  and  O6_33 
ROOT
HETATM    1  C14 UNL     1      -2.472  -1.661   0.359  1.00  0.00     0.122 C 
HETATM    2  C15 UNL     1      -3.073  -2.275   1.627  1.00  0.00     0.164 C 
HETATM    3  O3  UNL     1      -2.358  -2.434   2.580  1.00  0.00    -0.295 OA
HETATM    4  C16 UNL     1      -4.470  -2.670   1.726  1.00  0.00     0.188 C 
HETATM    5  C17 UNL     1      -5.395  -2.301   0.630  1.00  0.00     0.048 C 
HETATM    6  C18 UNL     1      -4.669  -1.936  -0.590  1.00  0.00     0.041 C 
HETATM    7  C19 UNL     1      -5.206  -0.865  -1.489  1.00  0.00     0.216 C 
HETATM    8  F1  UNL     1      -6.261  -0.228  -0.939  1.00  0.00    -0.246 F 
HETATM    9  C20 UNL     1      -3.834  -0.181  -1.347  1.00  0.00     0.159 C 
HETATM   10  C21 UNL     1      -4.004   1.068  -0.509  1.00  0.00     0.229 C 
HETATM   11  O7  UNL     1      -2.860   1.838  -0.344  1.00  0.00    -0.314 OA
HETATM   12  C23 UNL     1      -2.736   1.925   1.047  1.00  0.00     0.161 C 
HETATM   13  C24 UNL     1      -3.750   2.835   1.658  1.00  0.00     0.078 C 
HETATM   14  C25 UNL     1      -1.369   2.435   1.365  1.00  0.00     0.078 C 
HETATM   15  O8  UNL     1      -2.983   0.624   1.496  1.00  0.00    -0.344 OA
HETATM   16  C26 UNL     1      -4.042   0.168   0.674  1.00  0.00     0.204 C 
HETATM   17  C27 UNL     1      -3.568  -0.967  -0.223  1.00  0.00     0.051 C 
ENDROOT
BRANCH   1  18
HETATM   18  C13 UNL     1      -1.633  -2.669  -0.310  1.00  0.00     0.144 C 
HETATM   19 BR1  UNL     1      -0.244  -3.287   0.918  1.00  0.00    -0.049 Br
BRANCH  18  20
HETATM   20  C12 UNL     1      -0.987  -2.270  -1.563  1.00  0.00     0.022 C 
HETATM   21  C11 UNL     1       0.183  -1.769  -1.837  1.00  0.00     0.005 C 
BRANCH  21  22
HETATM   22  C10 UNL     1       1.335  -1.398  -1.020  1.00  0.00     0.144 C 
BRANCH  22  23
HETATM   23  C9  UNL     1       1.178  -0.036  -0.415  1.00  0.00     0.062 C 
BRANCH  23  24
HETATM   24  C8  UNL     1       2.379   0.377   0.314  1.00  0.00    -0.028 C 
HETATM   25  C7  UNL     1       3.443  -0.374   0.457  1.00  0.00    -0.031 C 
BRANCH  25  26
HETATM   26  C6  UNL     1       4.595   0.198   1.233  1.00  0.00     0.027 C 
BRANCH  26  27
HETATM   27  C5  UNL     1       5.822   0.250   0.322  1.00  0.00     0.004 C 
BRANCH  27  28
HETATM   28  C4  UNL     1       6.942   0.822   1.126  1.00  0.00     0.000 C 
BRANCH  28  29
HETATM   29  C3  UNL     1       8.234   0.941   0.366  1.00  0.00    -0.000 C 
BRANCH  29  30
HETATM   30  C2  UNL     1       8.075   1.842  -0.846  1.00  0.00    -0.005 C 
HETATM   31  C1  UNL     1       9.377   1.961  -1.606  1.00  0.00     0.005 C 
ENDBRANCH  29  30
ENDBRANCH  28  29
ENDBRANCH  27  28
ENDBRANCH  26  27
ENDBRANCH  25  26
ENDBRANCH  23  24
ENDBRANCH  22  23
BRANCH  22  32
HETATM   32  O1  UNL     1       2.434  -1.246  -1.937  1.00  0.00    -0.391 OA
ATOM     33  H1  UNL     1       2.534  -2.109  -2.321  1.00  0.00     0.210 HD
ENDBRANCH  22  32
ENDBRANCH  21  22
ENDBRANCH  18  20
BRANCH  18  34
HETATM   34  O2  UNL     1      -2.324  -3.866  -0.603  1.00  0.00    -0.374 OA
ATOM     35  H2  UNL     1      -2.743  -4.125   0.209  1.00  0.00     0.212 HD
ENDBRANCH  18  34
ENDBRANCH   1  18
BRANCH   4  36
HETATM   36  O4  UNL     1      -5.066  -2.236   2.936  1.00  0.00    -0.388 OA
ATOM     37  H4  UNL     1      -5.978  -2.494   3.001  1.00  0.00     0.210 HD
ENDBRANCH   4  36
BRANCH   9  38
HETATM   38  O5  UNL     1      -3.131  -0.045  -2.490  1.00  0.00    -0.380 OA
ATOM     39  H5  UNL     1      -2.284   0.377  -2.402  1.00  0.00     0.211 HD
ENDBRANCH   9  38
BRANCH  10  40
HETATM   40  O6  UNL     1      -5.104   1.845  -0.742  1.00  0.00    -0.355 OA
HETATM   41  C22 UNL     1      -5.020   2.627  -1.864  1.00  0.00     0.205 C 
ENDBRANCH  10  40
TORSDOF 15
