REMARK  13 active torsions:
REMARK  status: ('A' for Active; 'I' for Inactive)
REMARK    1  A    between atoms: C3_3  and  C4_4 
REMARK    2  A    between atoms: C4_4  and  O1_5 
REMARK    3  A    between atoms: O1_5  and  C5_6 
REMARK    4  A    between atoms: N1_10  and  C9_12 
REMARK    5  A    between atoms: C11_17  and  C12_18 
REMARK    6  A    between atoms: C12_18  and  C13_19 
REMARK    7  A    between atoms: C18_29  and  O2_30 
REMARK    8  A    between atoms: O2_30  and  C19_31 
REMARK    9  A    between atoms: C19_31  and  C20_32 
REMARK   10  A    between atoms: C20_32  and  O3_33 
REMARK   11  A    between atoms: O3_33  and  C21_34 
REMARK   12  A    between atoms: C21_34  and  C22_35 
REMARK   13  A    between atoms: C22_35  and  N5_36 
ROOT
HETATM    1  C1  UNL     1      -3.154  -4.741   1.739  1.00  0.00     0.112 C 
HETATM    2  C2  UNL     1      -2.431  -3.651   2.403  1.00  0.00    -0.109 C 
HETATM    3  C3  UNL     1      -1.834  -2.734   2.934  1.00  0.00    -0.080 C 
ENDROOT
BRANCH   3   4
HETATM    4  C4  UNL     1      -1.091  -1.625   3.554  1.00  0.00     0.269 C 
BRANCH   4   5
HETATM    5  O1  UNL     1      -0.047  -1.159   2.767  1.00  0.00    -0.337 OA
BRANCH   5   6
HETATM    6  C5  UNL     1      -0.204  -0.605   1.533  1.00  0.00     0.104 A 
HETATM    7  C6  UNL     1      -1.427  -0.409   0.944  1.00  0.00     0.057 A 
HETATM    8  C7  UNL     1      -1.499   0.150  -0.310  1.00  0.00     0.037 A 
HETATM    9  C8  UNL     1      -2.769   0.330  -0.885  1.00  0.00     0.115 A 
HETATM   10  C16 UNL     1      -0.354   0.515  -0.977  1.00  0.00     0.050 A 
HETATM   11  N1  UNL     1      -3.783  -0.022  -0.217  1.00  0.00    -0.369 N 
HETATM   12  N3  UNL     1      -2.815   0.873  -2.110  1.00  0.00    -0.338 N 
ATOM     13  H1  UNL     1      -3.588  -0.415   0.704  1.00  0.00     0.161 HD
HETATM   14  C15 UNL     1      -1.711   1.234  -2.773  1.00  0.00     0.182 A 
ATOM     15  H3  UNL     1      -3.723   1.016  -2.552  1.00  0.00     0.168 HD
HETATM   16  N4  UNL     1      -0.508   1.050  -2.199  1.00  0.00    -0.351 N 
ATOM     17  H4  UNL     1       0.326   1.330  -2.716  1.00  0.00     0.166 HD
HETATM   18  C17 UNL     1       0.876   0.312  -0.369  1.00  0.00     0.070 A 
HETATM   19  C18 UNL     1       1.005  -0.248   0.893  1.00  0.00     0.104 A 
BRANCH  11  20
HETATM   20  C9  UNL     1      -5.145   0.053  -0.568  1.00  0.00     0.111 C 
HETATM   21  C10 UNL     1      -5.967  -0.724   0.472  1.00  0.00     0.258 C 
HETATM   22  N2  UNL     1      -7.287  -0.241   0.213  1.00  0.00    -0.066 N 
HETATM   23  C11 UNL     1      -7.158   1.207   0.071  1.00  0.00     0.211 C 
ATOM     24  H22 UNL     1      -7.738  -0.691  -0.584  1.00  0.00     0.278 HD
ATOM     25  H21 UNL     1      -7.971  -0.523   0.915  1.00  0.00     0.278 HD
HETATM   26  C14 UNL     1      -5.772   1.432  -0.450  1.00  0.00     0.064 C 
BRANCH  23  27
HETATM   27  C12 UNL     1      -8.209   1.740  -0.833  1.00  0.00     0.013 C 
BRANCH  27  28
HETATM   28  C13 UNL     1      -8.562   1.117  -1.952  1.00  0.00     0.054 C 
HETATM   29 BR1  UNL     1      -9.902   1.767  -3.133  1.00  0.00    -0.064 Br
ENDBRANCH  27  28
ENDBRANCH  23  27
ENDBRANCH  11  20
BRANCH  19  30
HETATM   30  O2  UNL     1       2.140  -0.435   1.445  1.00  0.00    -0.346 OA
BRANCH  30  31
HETATM   31  C19 UNL     1       3.310  -0.616   1.983  1.00  0.00     0.202 C 
BRANCH  31  32
HETATM   32  C20 UNL     1       4.273  -1.577   1.334  1.00  0.00     0.194 C 
BRANCH  32  33
HETATM   33  O3  UNL     1       4.690  -1.375   0.090  1.00  0.00    -0.384 OA
BRANCH  33  34
HETATM   34  C21 UNL     1       5.429  -0.288  -0.262  1.00  0.00     0.212 C 
BRANCH  34  35
HETATM   35  C22 UNL     1       6.716  -0.174   0.538  1.00  0.00     0.089 C 
BRANCH  35  36
HETATM   36  N5  UNL     1       7.503   0.908   0.197  1.00  0.00    -0.349 N 
HETATM   37  C23 UNL     1       7.794   1.642  -0.742  1.00  0.00     0.139 C 
HETATM   38  N6  UNL     1       7.350   1.663  -2.083  1.00  0.00    -0.370 N 
HETATM   39  S1  UNL     1       8.986   2.992  -0.680  1.00  0.00    -0.093 SA
HETATM   40  C24 UNL     1       8.454   1.975  -2.972  1.00  0.00     0.132 C 
ATOM     41  H6  UNL     1       6.392   1.485  -2.383  1.00  0.00     0.161 HD
HETATM   42  C25 UNL     1       9.052   3.300  -2.495  1.00  0.00     0.102 C 
ATOM     43  H5  UNL     1       8.031   1.202   1.019  1.00  0.00     0.167 HD
ENDBRANCH  35  36
ENDBRANCH  34  35
ENDBRANCH  33  34
ENDBRANCH  32  33
ENDBRANCH  31  32
ENDBRANCH  30  31
ENDBRANCH  19  30
ENDBRANCH   5   6
ENDBRANCH   4   5
ENDBRANCH   3   4
TORSDOF 13
