REMARK  11 active torsions:
REMARK  status: ('A' for Active; 'I' for Inactive)
REMARK    1  A    between atoms: C1_2  and  C2_3 
REMARK       I    between atoms: C1_2  and  N3_15 
REMARK    2  A    between atoms: C2_3  and  N1_4 
REMARK    3  A    between atoms: N3_15  and  C9_17 
REMARK    4  A    between atoms: C9_17  and  C10_18 
REMARK    5  A    between atoms: C10_18  and  S1_19 
REMARK    6  A    between atoms: S1_19  and  S2_20 
REMARK    7  A    between atoms: S2_20  and  C11_21 
REMARK    8  A    between atoms: C11_21  and  C12_22 
REMARK    9  A    between atoms: C12_22  and  N4_23 
REMARK       I    between atoms: N4_23  and  C13_25 
REMARK   10  A    between atoms: C13_25  and  C14_27 
REMARK   11  A    between atoms: C16_29  and  N5_30 
ROOT
HETATM    1  S1  UNL     1       0.150   0.824  -0.531  1.00  0.00    -0.096 SA
ENDROOT
BRANCH   1   2
HETATM    2  C10 UNL     1      -0.248  -0.846   0.001  1.00  0.00     0.105 C 
BRANCH   2   3
HETATM    3  C9  UNL     1      -0.813  -1.694  -1.090  1.00  0.00     0.133 C 
BRANCH   3   4
HETATM    4  N3  UNL     1      -2.020  -1.226  -1.682  1.00  0.00    -0.359 N 
HETATM    5  C1  UNL     1      -3.204  -1.054  -0.913  1.00  0.00     0.235 C 
HETATM    6  O1  UNL     1      -3.182  -1.320   0.304  1.00  0.00    -0.272 OA
ATOM      7  H3  UNL     1      -2.036  -1.009  -2.679  1.00  0.00     0.162 HD
BRANCH   5   8
HETATM    8  C2  UNL     1      -4.449  -0.558  -1.586  1.00  0.00     0.228 C 
BRANCH   8   9
HETATM    9  N1  UNL     1      -5.545  -0.447  -0.670  1.00  0.00    -0.341 N 
HETATM   10  C3  UNL     1      -6.484  -1.551  -0.411  1.00  0.00     0.129 C 
HETATM   11  C4  UNL     1      -7.796  -0.754  -0.375  1.00  0.00     0.069 C 
HETATM   12  C5  UNL     1      -7.443   0.557   0.267  1.00  0.00     0.208 C 
HETATM   13  C6  UNL     1      -8.201   1.708  -0.350  1.00  0.00     0.076 C 
HETATM   14  N2  UNL     1      -8.033   0.844   1.529  1.00  0.00    -0.057 N 
HETATM   15  C8  UNL     1      -5.974   0.641   0.145  1.00  0.00     0.256 C 
HETATM   16  C7  UNL     1      -9.171   1.428   0.802  1.00  0.00     0.237 C 
ATOM     17  H22 UNL     1      -8.175   0.108   2.221  1.00  0.00     0.278 HD
ATOM     18  H21 UNL     1      -7.529   1.382   2.233  1.00  0.00     0.278 HD
HETATM   19  O2  UNL     1      -5.154   1.475   0.629  1.00  0.00    -0.271 OA
ENDBRANCH   8   9
ENDBRANCH   5   8
ENDBRANCH   3   4
ENDBRANCH   2   3
ENDBRANCH   1   2
BRANCH   1  20
HETATM   20  S2  UNL     1       1.705   0.893  -1.938  1.00  0.00    -0.096 SA
BRANCH  20  21
HETATM   21  C11 UNL     1       3.349   1.048  -1.189  1.00  0.00     0.105 C 
BRANCH  21  22
HETATM   22  C12 UNL     1       3.656  -0.214  -0.412  1.00  0.00     0.134 C 
BRANCH  22  23
HETATM   23  N4  UNL     1       4.942  -0.185   0.210  1.00  0.00    -0.356 N 
HETATM   24  C13 UNL     1       6.160  -0.062  -0.514  1.00  0.00     0.253 C 
HETATM   25  O3  UNL     1       6.162   0.027  -1.764  1.00  0.00    -0.268 OA
ATOM     26  H4  UNL     1       4.989  -0.256   1.226  1.00  0.00     0.162 HD
BRANCH  24  27
HETATM   27  C14 UNL     1       7.455  -0.036   0.174  1.00  0.00     0.056 A 
HETATM   28  C15 UNL     1       7.972   1.175   0.572  1.00  0.00     0.056 A 
HETATM   29  C16 UNL     1       9.189   1.278   1.227  1.00  0.00     0.121 A 
HETATM   30  C17 UNL     1       9.889   0.120   1.480  1.00  0.00     0.045 A 
HETATM   31 BR1  UNL     1      11.573   0.192   2.381  1.00  0.00    -0.048 Br
HETATM   32  C18 UNL     1       9.391  -1.121   1.089  1.00  0.00     0.046 A 
HETATM   33  C19 UNL     1       8.170  -1.181   0.436  1.00  0.00     0.051 A 
HETATM   34 CL1  UNL     1       7.486  -2.705  -0.082  1.00  0.00    -0.083 Cl
BRANCH  29  35
HETATM   35  N5  UNL     1       9.724   2.529   1.638  1.00  0.00    -0.114 N 
HETATM   36  O4  UNL     1       9.003   3.522   1.906  1.00  0.00    -0.532 OA
HETATM   37  O5  UNL     1      11.093   2.704   1.760  1.00  0.00    -0.532 OA
ENDBRANCH  29  35
ENDBRANCH  24  27
ENDBRANCH  22  23
ENDBRANCH  21  22
ENDBRANCH  20  21
ENDBRANCH   1  20
TORSDOF 11
