REMARK  11 active torsions:
REMARK  status: ('A' for Active; 'I' for Inactive)
REMARK    1  A    between atoms: C5_6  and  O1_7 
REMARK    2  A    between atoms: O1_7  and  C6_8 
REMARK    3  A    between atoms: C6_8  and  C7_9 
REMARK    4  A    between atoms: C7_9  and  N1_10 
REMARK    5  A    between atoms: N1_10  and  C8_13 
REMARK    6  A    between atoms: C8_13  and  C9_14 
REMARK    7  A    between atoms: C9_14  and  C10_15 
REMARK    8  A    between atoms: C10_15  and  N2_16 
REMARK    9  A    between atoms: N2_16  and  C11_19 
REMARK   10  A    between atoms: N4_24  and  C15_25 
REMARK   11  A    between atoms: C15_25  and  C16_26 
ROOT
HETATM    1  C11 UNL     1      -2.179  -0.710   0.682  1.00  0.00     0.231 C 
HETATM    2  C12 UNL     1      -2.022  -1.750   1.728  1.00  0.00     0.100 C 
HETATM    3  N3  UNL     1      -1.912  -2.566   2.544  1.00  0.00    -0.195 NA
HETATM    4  C13 UNL     1      -2.669   0.544   1.327  1.00  0.00     0.086 C 
HETATM    5  C14 UNL     1      -4.074   0.403   1.773  1.00  0.00     0.276 C 
HETATM    6  N4  UNL     1      -5.026  -0.134   0.835  1.00  0.00     0.097 N 
HETATM    7  C19 UNL     1      -4.468  -0.568  -0.392  1.00  0.00     0.295 C 
HETATM    8  C20 UNL     1      -3.143  -1.256  -0.325  1.00  0.00     0.171 C 
HETATM    9  C21 UNL     1      -3.314  -2.705  -0.181  1.00  0.00     0.069 C 
HETATM   10  N7  UNL     1      -3.466  -3.859  -0.084  1.00  0.00    -0.197 NA
ENDROOT
BRANCH   1  11
HETATM   11  N2  UNL     1      -0.862  -0.488   0.122  1.00  0.00    -0.052 N 
ATOM     12  H22 UNL     1      -0.882   0.125  -0.693  1.00  0.00     0.279 HD
ATOM     13  H21 UNL     1      -0.487  -1.319  -0.337  1.00  0.00     0.279 HD
BRANCH  11  14
HETATM   14  C10 UNL     1       0.003   0.005   1.162  1.00  0.00     0.236 C 
BRANCH  14  15
HETATM   15  C9  UNL     1       1.417   0.182   0.619  1.00  0.00     0.055 C 
BRANCH  15  16
HETATM   16  C8  UNL     1       1.428   1.177  -0.499  1.00  0.00     0.234 C 
BRANCH  16  17
HETATM   17  N1  UNL     1       2.734   1.416  -1.024  1.00  0.00    -0.073 N 
ATOM     18  H12 UNL     1       2.685   1.924  -1.907  1.00  0.00     0.277 HD
ATOM     19  H11 UNL     1       3.159   0.549  -1.354  1.00  0.00     0.277 HD
BRANCH  17  20
HETATM   20  C7  UNL     1       3.599   2.090  -0.089  1.00  0.00     0.258 C 
BRANCH  20  21
HETATM   21  C6  UNL     1       4.891   2.545  -0.587  1.00  0.00     0.203 C 
BRANCH  21  22
HETATM   22  O1  UNL     1       5.890   1.797  -1.084  1.00  0.00    -0.347 OA
BRANCH  22  23
HETATM   23  C5  UNL     1       6.741   0.838  -0.728  1.00  0.00     0.103 A 
HETATM   24  C4  UNL     1       6.603  -0.495  -0.938  1.00  0.00     0.046 A 
HETATM   25  C3  UNL     1       7.584  -1.413  -0.502  1.00  0.00     0.028 A 
HETATM   26 BR1  UNL     1       5.149  -1.287  -1.875  1.00  0.00    -0.048 Br
HETATM   27  C2  UNL     1       8.719  -0.980   0.152  1.00  0.00    -0.059 A 
HETATM   28  C1  UNL     1       9.767  -1.945   0.607  1.00  0.00     0.048 C 
HETATM   29  C23 UNL     1       8.839   0.371   0.352  1.00  0.00     0.028 A 
HETATM   30  C22 UNL     1       7.907   1.271  -0.059  1.00  0.00     0.046 A 
HETATM   31 BR2  UNL     1       8.174   3.148   0.276  1.00  0.00    -0.048 Br
ENDBRANCH  22  23
ENDBRANCH  21  22
ENDBRANCH  20  21
ENDBRANCH  17  20
ENDBRANCH  16  17
ENDBRANCH  15  16
ENDBRANCH  14  15
ENDBRANCH  11  14
ENDBRANCH   1  11
BRANCH   6  32
HETATM   32  C15 UNL     1      -6.162   0.709   0.683  1.00  0.00     0.347 C 
BRANCH  32  33
HETATM   33  C16 UNL     1      -7.212   0.133  -0.161  1.00  0.00     0.101 C 
HETATM   34  N5  UNL     1      -8.395  -0.161   0.352  1.00  0.00    -0.377 N 
HETATM   35  C17 UNL     1      -9.270  -0.705  -0.627  1.00  0.00     0.140 C 
ATOM     36  H5  UNL     1      -8.648  -0.015   1.329  1.00  0.00     0.160 HD
HETATM   37  C18 UNL     1      -8.392  -1.064  -1.787  1.00  0.00     0.140 C 
HETATM   38  N6  UNL     1      -7.243  -0.200  -1.538  1.00  0.00    -0.377 N 
ATOM     39  H6  UNL     1      -6.572   0.113  -2.240  1.00  0.00     0.160 HD
ENDBRANCH  32  33
ENDBRANCH   6  32
TORSDOF 11
