REMARK  9 active torsions:
REMARK  status: ('A' for Active; 'I' for Inactive)
REMARK    1  A    between atoms: C2_2  and  C3_3 
REMARK    2  A    between atoms: C3_3  and  C5_5 
REMARK    3  A    between atoms: C5_5  and  C6_6 
REMARK    4  A    between atoms: C6_6  and  C7_7 
REMARK    5  A    between atoms: C7_7  and  C8_8 
REMARK    6  A    between atoms: C10_11  and  O2_12 
REMARK    7  A    between atoms: C13_16  and  O3_17 
REMARK    8  A    between atoms: O3_17  and  C14_18 
REMARK    9  A    between atoms: C22_28  and  O6_29 
ROOT
HETATM    1  C8  UNL     1       0.544   0.539   0.489  1.00  0.00     0.088 C 
HETATM    2  C9  UNL     1       1.497  -0.182   1.381  1.00  0.00     0.049 C 
HETATM    3  O1  UNL     1      -0.291   1.294   1.293  1.00  0.00    -0.341 OA
HETATM    4  C10 UNL     1      -1.401   0.598   1.609  1.00  0.00     0.176 C 
HETATM    5  C11 UNL     1      -2.573   1.556   1.309  1.00  0.00     0.073 C 
HETATM    6  C12 UNL     1      -3.659   0.626   0.920  1.00  0.00     0.053 C 
HETATM    7  C13 UNL     1      -2.933  -0.479   0.066  1.00  0.00     0.146 C 
HETATM    8  C16 UNL     1      -3.830  -1.654   0.278  1.00  0.00     0.163 C 
HETATM    9  O5  UNL     1      -5.032  -1.446   0.131  1.00  0.00    -0.295 OA
HETATM   10  C17 UNL     1      -3.422  -3.008   0.639  1.00  0.00     0.082 C 
HETATM   11  C18 UNL     1      -1.933  -3.082   0.653  1.00  0.00     0.013 C 
HETATM   12  C19 UNL     1      -1.416  -1.902   1.460  1.00  0.00     0.002 C 
HETATM   13  C20 UNL     1      -2.025  -2.023   2.814  1.00  0.00     0.011 C 
HETATM   14  C21 UNL     1      -1.611  -0.595   0.731  1.00  0.00     0.087 C 
HETATM   15  C22 UNL     1      -0.433  -0.439  -0.199  1.00  0.00     0.170 C 
ENDROOT
BRANCH   1  16
HETATM   16  C7  UNL     1       1.116   1.481  -0.510  1.00  0.00     0.040 C 
BRANCH  16  17
HETATM   17  C6  UNL     1       2.033   0.990  -1.539  1.00  0.00     0.004 C 
BRANCH  17  18
HETATM   18  C5  UNL     1       3.355   0.431  -1.110  1.00  0.00     0.008 C 
BRANCH  18  19
HETATM   19  C3  UNL     1       4.242   1.449  -0.418  1.00  0.00     0.003 C 
HETATM   20  C4  UNL     1       5.533   0.800   0.012  1.00  0.00     0.014 C 
BRANCH  19  21
HETATM   21  C2  UNL     1       4.560   2.611  -1.287  1.00  0.00    -0.033 C 
HETATM   22  C1  UNL     1       5.814   2.936  -1.629  1.00  0.00     0.007 C 
ENDBRANCH  19  21
ENDBRANCH  18  19
ENDBRANCH  17  18
ENDBRANCH  16  17
ENDBRANCH   1  16
BRANCH  15  23
HETATM   23  O6  UNL     1       0.296  -1.577  -0.418  1.00  0.00    -0.391 OA
ATOM     24  H6  UNL     1      -0.305  -2.179  -0.841  1.00  0.00     0.210 HD
ENDBRANCH  15  23
BRANCH   4  25
HETATM   25  O2  UNL     1      -1.422   0.405   2.957  1.00  0.00    -0.364 OA
ATOM     26  H2  UNL     1      -2.204  -0.086   3.180  1.00  0.00     0.213 HD
ENDBRANCH   4  25
BRANCH   7  27
HETATM   27  O3  UNL     1      -3.042   0.036  -1.212  1.00  0.00    -0.301 OA
BRANCH  27  28
HETATM   28  C14 UNL     1      -2.766  -0.420  -2.441  1.00  0.00     0.256 C 
HETATM   29  C15 UNL     1      -2.959   0.373  -3.704  1.00  0.00     0.126 C 
HETATM   30  O4  UNL     1      -2.323  -1.567  -2.577  1.00  0.00    -0.266 OA
ENDBRANCH  27  28
ENDBRANCH   7  27
TORSDOF 9
