REMARK  8 active torsions:
REMARK  status: ('A' for Active; 'I' for Inactive)
REMARK    1  A    between atoms: C2_2  and  C3_3 
REMARK    2  A    between atoms: C3_3  and  N1_4 
REMARK    3  A    between atoms: N2_6  and  C5_7 
REMARK    4  A    between atoms: C5_7  and  C8_10 
REMARK    5  A    between atoms: C9_16  and  N5_17 
REMARK    6  A    between atoms: C10_20  and  C11_21 
REMARK    7  A    between atoms: C14_24  and  O2_25 
REMARK    8  A    between atoms: C18_29  and  O3_30 
ROOT
HETATM    1  N1  UNL     1      -1.902   1.786  -0.053  1.00  0.00     0.126 N 
HETATM    2  C4  UNL     1      -2.274   0.562   0.572  1.00  0.00     0.546 C 
HETATM    3  N2  UNL     1      -1.151  -0.383   0.505  1.00  0.00     0.143 N 
HETATM    4  C10 UNL     1      -0.201   0.161  -0.464  1.00  0.00     0.295 C 
HETATM    5  C20 UNL     1      -0.568   1.676  -0.458  1.00  0.00     0.259 C 
HETATM    6  C21 UNL     1      -0.482   2.125  -1.942  1.00  0.00     0.045 C 
ENDROOT
BRANCH   3   7
HETATM    7  C5  UNL     1      -1.684  -1.685   0.076  1.00  0.00     0.203 C 
HETATM    8  C6  UNL     1      -2.090  -1.553  -1.356  1.00  0.00     0.056 C 
HETATM    9  C7  UNL     1      -0.656  -2.729   0.385  1.00  0.00     0.056 C 
BRANCH   7  10
HETATM   10  C8  UNL     1      -2.873  -2.051   0.920  1.00  0.00     0.117 A 
HETATM   11  N3  UNL     1      -3.433  -1.407   1.936  1.00  0.00    -0.239 N 
HETATM   12  O1  UNL     1      -4.448  -2.064   2.382  1.00  0.00    -0.155 OA
ATOM     13  H3  UNL     1      -3.106  -0.517   2.311  1.00  0.00     0.196 HD
HETATM   14  N4  UNL     1      -4.634  -3.150   1.724  1.00  0.00    -0.224 N 
HETATM   15  C9  UNL     1      -3.645  -3.180   0.779  1.00  0.00     0.148 A 
ATOM     16  H4  UNL     1      -5.365  -3.845   1.874  1.00  0.00     0.198 HD
BRANCH  15  17
HETATM   17  N5  UNL     1      -3.563  -4.153  -0.031  1.00  0.00    -0.382 N 
ATOM     18  H52 UNL     1      -2.826  -4.175  -0.735  1.00  0.00     0.157 HD
ATOM     19  H51 UNL     1      -4.136  -4.991  -0.136  1.00  0.00     0.157 HD
ENDBRANCH  15  17
ENDBRANCH   7  10
ENDBRANCH   3   7
BRANCH   4  20
HETATM   20  C11 UNL     1       1.219   0.172   0.001  1.00  0.00     0.011 A 
HETATM   21  C12 UNL     1       1.589   0.856   1.148  1.00  0.00     0.015 A 
HETATM   22  C13 UNL     1       2.890   0.815   1.655  1.00  0.00     0.038 A 
HETATM   23  C14 UNL     1       3.863   0.082   1.014  1.00  0.00     0.076 A 
HETATM   24  C16 UNL     1       3.456  -0.590  -0.137  1.00  0.00     0.005 A 
HETATM   25  C17 UNL     1       4.534  -1.278  -0.891  1.00  0.00     0.054 C 
HETATM   26  C18 UNL     1       2.195  -0.583  -0.667  1.00  0.00     0.085 A 
BRANCH  23  27
HETATM   27  O2  UNL     1       5.143   0.001   1.459  1.00  0.00    -0.355 OA
HETATM   28  C15 UNL     1       5.851   0.483   2.509  1.00  0.00     0.210 C 
ENDBRANCH  23  27
BRANCH  26  29
HETATM   29  O3  UNL     1       1.824  -1.254  -1.791  1.00  0.00    -0.355 OA
HETATM   30  C19 UNL     1       1.783  -0.927  -3.122  1.00  0.00     0.210 C 
ENDBRANCH  26  29
ENDBRANCH   4  20
BRANCH   1  31
HETATM   31  C3  UNL     1      -2.171   2.950   0.800  1.00  0.00     0.302 C 
BRANCH  31  32
HETATM   32  C2  UNL     1      -1.745   4.218   0.215  1.00  0.00    -0.007 C 
HETATM   33  C1  UNL     1      -2.586   5.206  -0.035  1.00  0.00     0.008 C 
ENDBRANCH  31  32
ENDBRANCH   1  31
TORSDOF 8
