REMARK  9 active torsions:
REMARK  status: ('A' for Active; 'I' for Inactive)
REMARK    1  A    between atoms: C2_2  and  O1_3 
REMARK    2  A    between atoms: O1_3  and  C3_4 
REMARK    3  A    between atoms: C3_4  and  C4_6 
REMARK    4  A    between atoms: C4_6  and  C5_7 
REMARK    5  A    between atoms: C5_7  and  C6_8 
REMARK    6  A    between atoms: C7_9  and  C8_10 
REMARK    7  A    between atoms: C8_10  and  O3_11 
REMARK    8  A    between atoms: C16_21  and  C18_23 
REMARK    9  A    between atoms: C18_23  and  O5_24 
ROOT
HETATM    1  C8  UNL     1       0.740  -0.704  -0.098  1.00  0.00     0.080 C 
HETATM    2  C9  UNL     1       1.360  -2.023   0.242  1.00  0.00     0.050 C 
HETATM    3  C10 UNL     1       0.806  -3.068  -0.693  1.00  0.00     0.082 C 
HETATM    4  C11 UNL     1      -0.108  -2.513  -1.698  1.00  0.00     0.131 C 
HETATM    5  O4  UNL     1      -0.049  -2.829  -2.871  1.00  0.00    -0.298 OA
HETATM    6  C12 UNL     1      -1.187  -1.508  -1.346  1.00  0.00     0.062 C 
HETATM    7  C13 UNL     1      -2.447  -2.305  -1.327  1.00  0.00     0.013 C 
HETATM    8  C14 UNL     1      -3.714  -1.469  -1.202  1.00  0.00     0.011 C 
HETATM    9  C15 UNL     1      -3.504  -0.538  -0.079  1.00  0.00     0.056 C 
HETATM   10  C16 UNL     1      -4.535   0.315   0.496  1.00  0.00     0.086 C 
HETATM   11  C17 UNL     1      -4.825   0.053   1.990  1.00  0.00     0.049 C 
HETATM   12  O6  UNL     1      -3.634   1.382   0.462  1.00  0.00    -0.367 OA
HETATM   13  C19 UNL     1      -2.735   0.686  -0.382  1.00  0.00     0.065 C 
HETATM   14  C20 UNL     1      -2.749   1.322  -1.708  1.00  0.00     0.046 C 
HETATM   15  C21 UNL     1      -1.340   0.516   0.180  1.00  0.00     0.047 C 
HETATM   16  C22 UNL     1      -0.787  -0.865  -0.067  1.00  0.00     0.038 C 
ENDROOT
BRANCH   1  17
HETATM   17  C7  UNL     1       1.185   0.364   0.813  1.00  0.00     0.007 C 
HETATM   18  C6  UNL     1       2.484   0.573   0.957  1.00  0.00    -0.027 C 
BRANCH  18  19
HETATM   19  C5  UNL     1       2.999   1.635   1.861  1.00  0.00     0.037 C 
BRANCH  19  20
HETATM   20  C4  UNL     1       3.825   2.675   1.179  1.00  0.00     0.115 C 
BRANCH  20  21
HETATM   21  C3  UNL     1       5.016   2.102   0.558  1.00  0.00     0.259 C 
HETATM   22  O2  UNL     1       5.759   2.902  -0.108  1.00  0.00    -0.265 OA
BRANCH  21  23
HETATM   23  O1  UNL     1       5.436   0.792   0.605  1.00  0.00    -0.322 OA
BRANCH  23  24
HETATM   24  C2  UNL     1       6.617   0.341  -0.039  1.00  0.00     0.174 C 
HETATM   25  C1  UNL     1       7.785   1.107   0.540  1.00  0.00     0.034 C 
ENDBRANCH  23  24
ENDBRANCH  21  23
ENDBRANCH  20  21
ENDBRANCH  19  20
ENDBRANCH  18  19
ENDBRANCH   1  17
BRANCH   1  26
HETATM   26  O3  UNL     1       1.158  -0.320  -1.393  1.00  0.00    -0.385 OA
ATOM     27  H3  UNL     1       0.871  -1.009  -1.981  1.00  0.00     0.211 HD
ENDBRANCH   1  26
BRANCH  10  28
HETATM   28  C18 UNL     1      -5.825   0.550  -0.192  1.00  0.00     0.202 C 
BRANCH  28  29
HETATM   29  O5  UNL     1      -5.791   0.832  -1.526  1.00  0.00    -0.398 OA
ATOM     30  H5  UNL     1      -6.619   0.983  -1.967  1.00  0.00     0.209 HD
ENDBRANCH  28  29
ENDBRANCH  10  28
TORSDOF 9
