REMARK  6 active torsions:
REMARK  status: ('A' for Active; 'I' for Inactive)
REMARK    1  A    between atoms: C3_3  and  C4_4 
REMARK    2  A    between atoms: C12_15  and  C13_16 
REMARK    3  A    between atoms: C13_16  and  C14_17 
REMARK    4  A    between atoms: C14_17  and  C15_18 
REMARK    5  A    between atoms: C15_18  and  C16_19 
REMARK    6  A    between atoms: C16_19  and  C17_20 
ROOT
HETATM    1  C4  UNL     1      -3.712  -0.212   0.845  1.00  0.00     0.065 C 
HETATM    2  C5  UNL     1      -3.153  -1.218   1.493  1.00  0.00     0.010 C 
HETATM    3  C6  UNL     1      -1.848  -1.914   1.434  1.00  0.00     0.037 C 
HETATM    4  C7  UNL     1      -1.171  -1.370   0.152  1.00  0.00     0.031 C 
HETATM    5  C8  UNL     1      -2.115  -1.697  -0.957  1.00  0.00     0.184 A 
HETATM    6  O1  UNL     1      -1.451  -2.361  -2.138  1.00  0.00    -0.348 OA
HETATM    7  C9  UNL     1      -2.087  -1.083  -2.196  1.00  0.00     0.290 A 
HETATM    8  O2  UNL     1      -1.222  -0.088  -2.521  1.00  0.00    -0.350 OA
HETATM    9  C10 UNL     1      -1.515   1.079  -1.873  1.00  0.00     0.164 C 
HETATM   10  C11 UNL     1      -0.442   2.123  -2.064  1.00  0.00     0.109 C 
HETATM   11  S1  UNL     1       0.626   2.097  -0.631  1.00  0.00    -0.161 SA
HETATM   12  C12 UNL     1       0.566   0.491   0.266  1.00  0.00     0.054 C 
HETATM   13  C20 UNL     1      -0.846   0.070   0.347  1.00  0.00     0.038 C 
HETATM   14  C21 UNL     1      -1.820   0.971  -0.431  1.00  0.00     0.164 C 
HETATM   15  O3  UNL     1      -3.125   0.513  -0.168  1.00  0.00    -0.343 OA
ENDROOT
BRANCH  12  16
HETATM   16  C13 UNL     1       1.543  -0.400  -0.366  1.00  0.00     0.015 C 
BRANCH  16  17
HETATM   17  C14 UNL     1       2.955   0.135  -0.323  1.00  0.00     0.001 C 
BRANCH  17  18
HETATM   18  C15 UNL     1       3.506   0.361   1.038  1.00  0.00     0.005 C 
BRANCH  18  19
HETATM   19  C16 UNL     1       4.926   0.892   0.955  1.00  0.00     0.041 C 
BRANCH  19  20
HETATM   20  C17 UNL     1       5.851  -0.034   0.259  1.00  0.00    -0.024 A 
HETATM   21  C18 UNL     1       6.170  -0.099  -1.080  1.00  0.00     0.115 A 
HETATM   22  N1  UNL     1       7.059  -1.096  -1.287  1.00  0.00    -0.312 N 
HETATM   23  N2  UNL     1       7.303  -1.655  -0.113  1.00  0.00    -0.312 N 
ATOM     24  H1  UNL     1       7.466  -1.367  -2.182  1.00  0.00     0.186 HD
HETATM   25  C19 UNL     1       6.588  -1.038   0.856  1.00  0.00     0.115 A 
ATOM     26  H2  UNL     1       7.938  -2.438   0.040  1.00  0.00     0.186 HD
ENDBRANCH  19  20
ENDBRANCH  18  19
ENDBRANCH  17  18
ENDBRANCH  16  17
ENDBRANCH  12  16
BRANCH   1  27
HETATM   27  C3  UNL     1      -5.067   0.161   1.239  1.00  0.00     0.032 C 
HETATM   28  C2  UNL     1      -5.682   1.152   0.635  1.00  0.00    -0.028 C 
HETATM   29  C1  UNL     1      -7.061   1.556   1.012  1.00  0.00     0.036 C 
ENDBRANCH   1  27
TORSDOF 6
