REMARK  2 active torsions:
REMARK  status: ('A' for Active; 'I' for Inactive)
REMARK    1  A    between atoms: N2_3  and  C2_5 
REMARK    2  A    between atoms: C3_8  and  N4_9 
ROOT
HETATM    1  N1  UNL     1       2.777   2.378   1.542  1.00  0.00    -0.172 NA
HETATM    2  C1  UNL     1       2.325   1.339   1.302  1.00  0.00     0.183 C 
HETATM    3  N2  UNL     1       1.780   0.067   1.015  1.00  0.00    -0.277 N 
ATOM      4  H2  UNL     1       2.258  -0.787   1.303  1.00  0.00     0.179 HD
ENDROOT
BRANCH   3   5
HETATM    5  C2  UNL     1       0.658   0.019   0.377  1.00  0.00     0.155 A 
HETATM    6  N3  UNL     1      -0.015   1.111  -0.024  1.00  0.00    -0.174 N 
HETATM    7  C3  UNL     1      -1.182   1.049  -0.687  1.00  0.00     0.677 A 
ATOM      8  H3  UNL     1       0.378   2.029   0.185  1.00  0.00     0.186 HD
HETATM    9  N5  UNL     1      -1.692  -0.165  -0.956  1.00  0.00    -0.200 N 
HETATM   10  C4  UNL     1      -1.068  -1.300  -0.581  1.00  0.00     0.136 A 
ATOM     11  H5  UNL     1      -2.577  -0.230  -1.459  1.00  0.00     0.183 HD
HETATM   12  C5  UNL     1       0.138  -1.251   0.104  1.00  0.00     0.107 A 
HETATM   13  N6  UNL     1       0.838  -2.393   0.522  1.00  0.00    -0.097 NA
BRANCH   7  14
HETATM   14  N4  UNL     1      -1.768   2.145  -1.039  1.00  0.00    -0.234 N 
ATOM     15  H42 UNL     1      -1.381   3.066  -0.835  1.00  0.00     0.174 HD
ATOM     16  H41 UNL     1      -2.654   2.098  -1.542  1.00  0.00     0.174 HD
ENDBRANCH   7  14
ENDBRANCH   3   5
TORSDOF 2
