REMARK  1 active torsions:
REMARK  status: ('A' for Active; 'I' for Inactive)
REMARK    1  A    between atoms: N1_1  and  C1_4 
ROOT
HETATM    1  C1  UNL     1      -0.918   0.815  -0.087  1.00  0.00     0.716 A 
HETATM    2  N2  UNL     1      -1.786  -0.174   0.166  1.00  0.00    -0.117 N 
ATOM      3  H2  UNL     1      -2.800  -0.074   0.222  1.00  0.00     0.206 HD
HETATM    4  N3  UNL     1      -1.111  -1.305   0.332  1.00  0.00    -0.115 N 
ATOM      5  H3  UNL     1      -1.523  -2.215   0.537  1.00  0.00     0.206 HD
HETATM    6  C2  UNL     1       0.208  -1.058   0.186  1.00  0.00     0.737 A 
HETATM    7  N4  UNL     1       1.452  -1.578   0.193  1.00  0.00    -0.126 N 
ATOM      8  H4  UNL     1       1.680  -2.558   0.363  1.00  0.00     0.206 HD
HETATM    9  N5  UNL     1       2.338  -0.615  -0.057  1.00  0.00    -0.236 N 
ATOM     10  H5  UNL     1       3.352  -0.712  -0.114  1.00  0.00     0.192 HD
HETATM   11  C3  UNL     1       1.618   0.514  -0.219  1.00  0.00     0.377 A 
HETATM   12  O1  UNL     1       2.111   1.657  -0.474  1.00  0.00    -0.243 OA
HETATM   13  N6  UNL     1       0.308   0.268  -0.074  1.00  0.00     0.081 N 
ENDROOT
BRANCH   1  14
HETATM   14  N1  UNL     1      -1.156   2.076  -0.310  1.00  0.00    -0.232 N 
ATOM     15  H12 UNL     1      -2.087   2.492  -0.320  1.00  0.00     0.174 HD
ATOM     16  H11 UNL     1      -0.495   2.829  -0.503  1.00  0.00     0.174 HD
ENDBRANCH   1  14
TORSDOF 1
