REMARK  1 active torsions:
REMARK  status: ('A' for Active; 'I' for Inactive)
REMARK    1  A    between atoms: N1_1  and  C1_4 
ROOT
HETATM    1  C1  UNL     1      -0.757   0.881   0.043  1.00  0.00     0.713 A 
HETATM    2  N2  UNL     1      -1.956   0.301   0.179  1.00  0.00    -0.185 N 
ATOM      3  H2  UNL     1      -2.807   0.859   0.243  1.00  0.00     0.185 HD
HETATM    4  C2  UNL     1      -2.000  -1.042   0.229  1.00  0.00     0.215 A 
HETATM    5  N3  UNL     1      -0.920  -1.828   0.152  1.00  0.00    -0.185 N 
ATOM      6  H3  UNL     1      -1.009  -2.843   0.196  1.00  0.00     0.185 HD
HETATM    7  C3  UNL     1       0.300  -1.240   0.014  1.00  0.00     0.723 A 
HETATM    8  N4  UNL     1       1.547  -1.725  -0.090  1.00  0.00    -0.138 N 
ATOM      9  H4  UNL     1       1.808  -2.711  -0.081  1.00  0.00     0.189 HD
HETATM   10  C4  UNL     1       2.391  -0.687  -0.208  1.00  0.00     0.354 A 
HETATM   11  O1  UNL     1       3.651  -0.720  -0.329  1.00  0.00    -0.245 OA
HETATM   12  N5  UNL     1       1.640   0.421  -0.173  1.00  0.00    -0.215 N 
ATOM     13  H5  UNL     1       1.999   1.374  -0.240  1.00  0.00     0.193 HD
HETATM   14  N6  UNL     1       0.361   0.097  -0.038  1.00  0.00     0.094 N 
ENDROOT
BRANCH   1  15
HETATM   15  N1  UNL     1      -0.643   2.147  -0.012  1.00  0.00    -0.232 N 
ATOM     16  H12 UNL     1      -1.477   2.732   0.048  1.00  0.00     0.174 HD
ATOM     17  H11 UNL     1       0.270   2.589  -0.116  1.00  0.00     0.174 HD
ENDBRANCH   1  15
TORSDOF 1
