REMARK  1 active torsions:
REMARK  status: ('A' for Active; 'I' for Inactive)
REMARK       I    between atoms: C1_4  and  N2_5 
REMARK       I    between atoms: C1_4  and  N4_10 
REMARK    1  A    between atoms: N2_5  and  N3_7 
ROOT
HETATM    1  N1  UNL     1      -1.585   1.136   0.803  1.00  0.00    -0.230 N 
ATOM      2  H11 UNL     1      -1.096   1.875   1.308  1.00  0.00     0.174 HD
ATOM      3  H12 UNL     1      -2.603   1.079   0.803  1.00  0.00     0.174 HD
HETATM    4  C1  UNL     1      -0.943   0.240   0.141  1.00  0.00     0.726 C 
HETATM    5  N2  UNL     1      -1.623  -0.787  -0.561  1.00  0.00    -0.136 N 
ATOM      6  H2  UNL     1      -1.163  -1.298  -1.314  1.00  0.00     0.205 HD
HETATM    7  N4  UNL     1       0.481   0.320   0.141  1.00  0.00    -0.017 N 
HETATM    8  N5  UNL     1       1.152   1.413  -0.111  1.00  0.00    -0.270 N 
ATOM      9  H5  UNL     1       0.741   2.320  -0.333  1.00  0.00     0.189 HD
HETATM   10  C2  UNL     1       2.454   1.157  -0.032  1.00  0.00     0.185 A 
HETATM   11  C3  UNL     1       2.554  -0.173   0.287  1.00  0.00     0.278 A 
HETATM   12  O1  UNL     1       3.664  -0.763   0.443  1.00  0.00    -0.265 OA
HETATM   13  N6  UNL     1       1.315  -0.654   0.385  1.00  0.00    -0.229 N 
ATOM     14  H6  UNL     1       1.062  -1.616   0.611  1.00  0.00     0.193 HD
ENDROOT
BRANCH   5  15
HETATM   15  N3  UNL     1      -2.933  -1.081  -0.198  1.00  0.00    -0.331 N 
ATOM     16  H32 UNL     1      -3.379  -0.561   0.557  1.00  0.00     0.177 HD
ATOM     17  H31 UNL     1      -3.422  -1.820  -0.703  1.00  0.00     0.177 HD
ENDBRANCH   5  15
TORSDOF 1
