REMARK  12 active torsions:
REMARK  status: ('A' for Active; 'I' for Inactive)
REMARK       I    between atoms: C2_2  and  N1_4 
REMARK    1  A    between atoms: N1_4  and  C3_6 
REMARK    2  A    between atoms: C3_6  and  C4_7 
REMARK    3  A    between atoms: C6_15  and  S1_16 
REMARK    4  A    between atoms: S1_16  and  C7_17 
REMARK    5  A    between atoms: C10_21  and  O2_22 
REMARK    6  A    between atoms: C11_24  and  N7_25 
REMARK    7  A    between atoms: C13_27  and  N8_28 
REMARK       I    between atoms: N8_28  and  C14_30 
REMARK    8  A    between atoms: C14_30  and  C15_32 
REMARK    9  A    between atoms: C15_32  and  C16_33 
REMARK   10  A    between atoms: C16_33  and  C17_34 
REMARK   11  A    between atoms: C17_34  and  C18_36 
REMARK   12  A    between atoms: N9_38  and  C20_39 
ROOT
HETATM    1  C7  UNL     1      -4.743  -0.202  -0.658  1.00  0.00     0.001 C 
HETATM    2  C8  UNL     1      -4.080   0.820  -1.112  1.00  0.00     0.066 C 
HETATM    3  C9  UNL     1      -4.552   2.109  -1.551  1.00  0.00     0.099 C 
HETATM    4  N6  UNL     1      -4.894   3.157  -1.904  1.00  0.00    -0.192 NA
HETATM    5  C10 UNL     1      -2.591   0.510  -1.150  1.00  0.00     0.188 C 
HETATM    6  C11 UNL     1      -2.484  -0.492  -0.021  1.00  0.00     0.147 C 
HETATM    7  C25 UNL     1      -3.738  -1.304  -0.287  1.00  0.00     0.077 C 
ENDROOT
BRANCH   1   8
HETATM    8  S1  UNL     1      -6.482  -0.378  -0.420  1.00  0.00    -0.107 SA
BRANCH   8   9
HETATM    9  C6  UNL     1      -7.494   0.905  -1.117  1.00  0.00     0.189 C 
HETATM   10  C4  UNL     1      -8.993   0.630  -0.802  1.00  0.00     0.133 C 
HETATM   11  N2  UNL     1      -9.143  -0.805  -0.896  1.00  0.00    -0.355 N 
HETATM   12  C5  UNL     1      -8.565  -1.379  -1.920  1.00  0.00     0.200 C 
ATOM     13  H2  UNL     1      -9.669  -1.339  -0.204  1.00  0.00     0.162 HD
HETATM   14  N3  UNL     1      -8.656  -2.787  -2.100  1.00  0.00    -0.062 NA
HETATM   15  N4  UNL     1      -7.851  -0.576  -2.843  1.00  0.00    -0.277 N 
HETATM   16  N5  UNL     1      -7.452   0.741  -2.584  1.00  0.00    -0.121 NA
ATOM     17  H4  UNL     1      -7.614  -0.981  -3.749  1.00  0.00     0.185 HD
BRANCH  10  18
HETATM   18  C3  UNL     1      -9.340   1.151   0.561  1.00  0.00     0.150 C 
BRANCH  18  19
HETATM   19  N1  UNL     1     -10.710   0.840   0.906  1.00  0.00    -0.359 N 
HETATM   20  C2  UNL     1     -11.283   1.225   2.141  1.00  0.00     0.213 C 
HETATM   21  C1  UNL     1     -12.704   0.885   2.467  1.00  0.00     0.117 C 
HETATM   22  O1  UNL     1     -10.553   1.862   2.952  1.00  0.00    -0.274 OA
ATOM     23  H1  UNL     1     -11.282   0.326   0.236  1.00  0.00     0.162 HD
ENDBRANCH  18  19
ENDBRANCH  10  18
ENDBRANCH   8   9
ENDBRANCH   1   8
BRANCH   5  24
HETATM   24  O2  UNL     1      -1.834   1.632  -0.923  1.00  0.00    -0.388 OA
ATOM     25  H2  UNL     1      -0.904   1.438  -0.947  1.00  0.00     0.210 HD
ENDBRANCH   5  24
BRANCH   6  26
HETATM   26  N7  UNL     1      -1.299  -1.313  -0.174  1.00  0.00    -0.278 N 
HETATM   27  C12 UNL     1      -0.069  -0.961   0.251  1.00  0.00     0.162 A 
HETATM   28  C13 UNL     1       0.820  -1.954  -0.047  1.00  0.00     0.141 A 
HETATM   29  N13 UNL     1       0.053  -2.910  -0.670  1.00  0.00    -0.270 N 
HETATM   30  N14 UNL     1      -1.193  -2.492  -0.725  1.00  0.00    -0.239 N 
ATOM     31  H13 UNL     1       0.395  -3.800  -1.031  1.00  0.00     0.190 HD
ATOM     32  H14 UNL     1      -1.966  -3.014  -1.139  1.00  0.00     0.208 HD
BRANCH  28  33
HETATM   33  N8  UNL     1       2.208  -2.096   0.170  1.00  0.00    -0.311 N 
HETATM   34  C14 UNL     1       2.990  -1.121   0.803  1.00  0.00     0.223 C 
HETATM   35  O3  UNL     1       2.540  -0.032   1.238  1.00  0.00    -0.273 OA
ATOM     36  H8  UNL     1       2.664  -2.951  -0.150  1.00  0.00     0.170 HD
BRANCH  34  37
HETATM   37  C15 UNL     1       4.470  -1.320   1.013  1.00  0.00     0.111 C 
BRANCH  37  38
HETATM   38  C16 UNL     1       5.092  -0.127   1.722  1.00  0.00     0.093 C 
BRANCH  38  39
HETATM   39  C17 UNL     1       6.523  -0.293   1.937  1.00  0.00     0.166 C 
HETATM   40  O4  UNL     1       6.899  -0.917   3.001  1.00  0.00    -0.292 OA
BRANCH  39  41
HETATM   41  C18 UNL     1       7.584   0.163   1.087  1.00  0.00     0.093 A 
HETATM   42  C19 UNL     1       8.931  -0.063   1.414  1.00  0.00     0.120 A 
HETATM   43  N9  UNL     1       9.944   0.331   0.669  1.00  0.00    -0.265 N 
HETATM   44  C23 UNL     1       9.702   0.989  -0.473  1.00  0.00     0.332 A 
HETATM   45  O6  UNL     1      10.683   1.354  -1.164  1.00  0.00    -0.246 OA
HETATM   46  N12 UNL     1       8.437   1.237  -0.843  1.00  0.00    -0.274 N 
HETATM   47  C24 UNL     1       7.370   0.840  -0.089  1.00  0.00     0.264 A 
ATOM     48  H12 UNL     1       8.267   1.738  -1.715  1.00  0.00     0.173 HD
HETATM   49  O7  UNL     1       6.211   1.115  -0.513  1.00  0.00    -0.267 OA
BRANCH  43  50
HETATM   50  C20 UNL     1      11.305   0.058   1.073  1.00  0.00     0.357 C 
HETATM   51  N10 UNL     1      11.914   1.191   1.738  1.00  0.00    -0.085 NA
HETATM   52  N11 UNL     1      13.230   1.232   1.240  1.00  0.00    -0.284 N 
HETATM   53  C21 UNL     1      13.337   0.487   0.210  1.00  0.00     0.129 C 
ATOM     54  H11 UNL     1      13.990   1.779   1.645  1.00  0.00     0.184 HD
HETATM   55  C22 UNL     1      14.573   0.254  -0.615  1.00  0.00     0.098 C 
HETATM   56  O5  UNL     1      12.119  -0.108  -0.065  1.00  0.00    -0.296 OA
ENDBRANCH  43  50
ENDBRANCH  39  41
ENDBRANCH  38  39
ENDBRANCH  37  38
ENDBRANCH  34  37
ENDBRANCH  28  33
ENDBRANCH   6  26
TORSDOF 12
