REMARK  15 active torsions:
REMARK  status: ('A' for Active; 'I' for Inactive)
REMARK    1  A    between atoms: N1_2  and  C2_4 
REMARK    2  A    between atoms: C2_4  and  O1_5 
REMARK    3  A    between atoms: C2_4  and  C3_7 
REMARK    4  A    between atoms: C4_8  and  O2_9 
REMARK    5  A    between atoms: C5_11  and  C6_12 
REMARK    6  A    between atoms: C6_12  and  O3_13 
REMARK    7  A    between atoms: C6_12  and  N2_15 
REMARK    8  A    between atoms: N2_15  and  C7_17 
REMARK    9  A    between atoms: C9_21  and  C10_22 
REMARK   10  A    between atoms: C11_25  and  C12_26 
REMARK   11  A    between atoms: C12_26  and  N4_27 
REMARK   12  A    between atoms: C19_42  and  N9_43 
REMARK   13  A    between atoms: C20_49  and  S2_50 
REMARK   14  A    between atoms: S2_50  and  C21_51 
REMARK   15  A    between atoms: C21_51  and  C22_52 
ROOT
HETATM    1  C3  UNL     1      -4.162  -1.701   0.048  1.00  0.00     0.077 C 
HETATM    2  C4  UNL     1      -2.895  -1.912   0.239  1.00  0.00     0.100 C 
HETATM    3  C5  UNL     1      -1.891  -1.105   1.032  1.00  0.00     0.090 C 
HETATM    4  C18 UNL     1      -2.175  -0.236   1.974  1.00  0.00     0.135 C 
HETATM    5  N7  UNL     1      -1.125   0.429   2.619  1.00  0.00    -0.082 NA
HETATM    6  N8  UNL     1      -3.504   0.152   2.417  1.00  0.00    -0.327 N 
ATOM      7  H8  UNL     1      -3.595   0.392   3.404  1.00  0.00     0.168 HD
HETATM    8  C19 UNL     1      -4.690   0.237   1.644  1.00  0.00     0.157 C 
HETATM    9  C23 UNL     1      -4.957  -0.570   0.624  1.00  0.00     0.109 C 
HETATM   10  N13 UNL     1      -6.184  -0.294  -0.005  1.00  0.00    -0.097 NA
ENDROOT
BRANCH   3  11
HETATM   11  C6  UNL     1      -0.530  -1.357   0.658  1.00  0.00     0.153 C 
BRANCH  11  12
HETATM   12  O3  UNL     1      -0.385  -2.248  -0.321  1.00  0.00    -0.346 OA
ATOM     13  H3  UNL     1       0.517  -2.415  -0.569  1.00  0.00     0.219 HD
ENDBRANCH  11  12
BRANCH  11  14
HETATM   14  N2  UNL     1       0.687  -0.876   1.094  1.00  0.00    -0.354 N 
ATOM     15  H2  UNL     1       0.718  -0.185   1.844  1.00  0.00     0.162 HD
BRANCH  14  16
HETATM   16  C7  UNL     1       1.962  -1.358   0.477  1.00  0.00     0.210 C 
HETATM   17  C8  UNL     1       2.848  -1.872   1.547  1.00  0.00     0.251 C 
HETATM   18  O4  UNL     1       2.770  -2.546   2.605  1.00  0.00    -0.271 OA
HETATM   19  N3  UNL     1       3.938  -1.255   0.863  1.00  0.00    -0.293 N 
HETATM   20  C9  UNL     1       5.353  -1.205   0.554  1.00  0.00     0.120 C 
HETATM   21  C17 UNL     1       3.007  -0.309   0.319  1.00  0.00     0.187 C 
HETATM   22  C11 UNL     1       5.739  -1.056  -0.687  1.00  0.00    -0.017 C 
HETATM   23  C16 UNL     1       4.746  -0.974  -1.829  1.00  0.00     0.114 C 
HETATM   24  S1  UNL     1       3.394   0.152  -1.383  1.00  0.00    -0.136 SA
BRANCH  20  25
HETATM   25  C10 UNL     1       6.259  -1.318   1.664  1.00  0.00     0.227 C 
HETATM   26  O5  UNL     1       5.804  -1.484   2.850  1.00  0.00    -0.643 OA
HETATM   27  O6  UNL     1       7.616  -1.265   1.593  1.00  0.00    -0.643 OA
ENDBRANCH  20  25
BRANCH  22  28
HETATM   28  C12 UNL     1       7.117  -0.994  -1.106  1.00  0.00     0.187 C 
BRANCH  28  29
HETATM   29  N4  UNL     1       7.480   0.296  -1.721  1.00  0.00    -0.283 N 
HETATM   30  C13 UNL     1       7.945   1.372  -1.020  1.00  0.00     0.138 A 
HETATM   31  C14 UNL     1       8.200   2.410  -1.892  1.00  0.00     0.040 A 
HETATM   32  C15 UNL     1       8.722   3.778  -1.557  1.00  0.00     0.071 C 
HETATM   33  N5  UNL     1       7.878   1.924  -3.107  1.00  0.00    -0.289 N 
HETATM   34  N6  UNL     1       7.458   0.680  -2.975  1.00  0.00    -0.240 N 
ATOM     35  H5  UNL     1       7.948   2.435  -3.987  1.00  0.00     0.188 HD
ATOM     36  H6  UNL     1       7.154   0.091  -3.751  1.00  0.00     0.208 HD
ENDBRANCH  28  29
ENDBRANCH  22  28
ENDBRANCH  14  16
ENDBRANCH  11  14
ENDBRANCH   3  11
BRANCH   2  37
HETATM   37  O2  UNL     1      -2.303  -3.012  -0.330  1.00  0.00    -0.358 OA
ATOM     38  H2  UNL     1      -1.376  -3.166  -0.190  1.00  0.00     0.217 HD
ENDBRANCH   2  37
BRANCH   1  39
HETATM   39  C2  UNL     1      -4.923  -2.623  -0.764  1.00  0.00     0.150 C 
BRANCH  39  40
HETATM   40  N1  UNL     1      -4.579  -3.783  -1.457  1.00  0.00    -0.375 N 
HETATM   41  C1  UNL     1      -5.622  -4.534  -2.218  1.00  0.00     0.148 C 
ATOM     42  H1  UNL     1      -3.616  -4.118  -1.444  1.00  0.00     0.161 HD
ENDBRANCH  39  40
BRANCH  39  43
HETATM   43  O1  UNL     1      -6.196  -2.307  -0.869  1.00  0.00    -0.346 OA
ATOM     44  H1  UNL     1      -6.430  -1.517  -0.397  1.00  0.00     0.219 HD
ENDBRANCH  39  43
ENDBRANCH   1  39
BRANCH   8  45
HETATM   45  N9  UNL     1      -5.650   1.211   1.963  1.00  0.00    -0.201 N 
HETATM   46  N10 UNL     1      -6.506   1.161   2.957  1.00  0.00    -0.216 N 
HETATM   47  N11 UNL     1      -7.259   2.246   2.959  1.00  0.00    -0.004 NA
ATOM     48  H10 UNL     1      -6.579   0.397   3.629  1.00  0.00     0.206 HD
HETATM   49  N12 UNL     1      -6.891   3.017   1.950  1.00  0.00    -0.261 N 
HETATM   50  C20 UNL     1      -5.870   2.360   1.318  1.00  0.00     0.182 A 
ATOM     51  H12 UNL     1      -7.288   3.921   1.694  1.00  0.00     0.186 HD
BRANCH  50  52
HETATM   52  S2  UNL     1      -4.982   2.930  -0.116  1.00  0.00    -0.080 SA
BRANCH  52  53
HETATM   53  C21 UNL     1      -5.585   4.523  -0.680  1.00  0.00     0.195 C 
BRANCH  53  54
HETATM   54  C22 UNL     1      -6.993   4.382  -1.184  1.00  0.00     0.182 C 
HETATM   55  O7  UNL     1      -7.106   4.104  -2.410  1.00  0.00    -0.647 OA
HETATM   56  O8  UNL     1      -8.090   4.548  -0.350  1.00  0.00    -0.647 OA
ENDBRANCH  53  54
ENDBRANCH  52  53
ENDBRANCH  50  52
ENDBRANCH   8  45
TORSDOF 15
