REMARK  18 active torsions:
REMARK  status: ('A' for Active; 'I' for Inactive)
REMARK    1  A    between atoms: C5_7  and  C6_8 
REMARK    2  A    between atoms: C6_8  and  O3_9 
REMARK    3  A    between atoms: O3_9  and  S1_10 
REMARK    4  A    between atoms: S1_10  and  O6_13 
REMARK    5  A    between atoms: O6_13  and  C7_14 
REMARK    6  A    between atoms: C8_15  and  O7_16 
REMARK    7  A    between atoms: O7_16  and  S2_17 
REMARK    8  A    between atoms: C10_22  and  C11_23 
REMARK    9  A    between atoms: C11_23  and  O11_24 
REMARK   10  A    between atoms: C11_23  and  C12_26 
REMARK   11  A    between atoms: C12_26  and  O12_27 
REMARK   12  A    between atoms: O12_27  and  N1_28 
REMARK   13  A    between atoms: N1_28  and  C13_29 
REMARK   14  A    between atoms: C13_29  and  C14_30 
REMARK   15  A    between atoms: C16_32  and  O13_33 
REMARK   16  A    between atoms: C19_37  and  O14_38 
REMARK   17  A    between atoms: C20_40  and  N2_41 
REMARK   18  A    between atoms: C22_49  and  O17_50 
ROOT
HETATM    1  C7  UNL     1      -0.366   0.528  -1.836  1.00  0.00     0.194 C 
HETATM    2  C8  UNL     1      -1.702   0.549  -1.519  1.00  0.00     0.133 C 
HETATM    3  C9  UNL     1      -2.666  -0.388  -1.936  1.00  0.00     0.055 C 
HETATM    4  C10 UNL     1      -2.488  -1.563  -2.623  1.00  0.00     0.019 C 
HETATM    5  C20 UNL     1      -1.361  -1.948  -3.364  1.00  0.00     0.110 C 
HETATM    6  N3  UNL     1      -0.309  -1.161  -3.631  1.00  0.00    -0.307 N 
ATOM      7  H3  UNL     1       0.224  -1.440  -4.454  1.00  0.00     0.170 HD
HETATM    8  C21 UNL     1       0.177  -0.052  -2.998  1.00  0.00     0.284 C 
HETATM    9  O15 UNL     1       1.193   0.497  -3.493  1.00  0.00    -0.265 OA
ENDROOT
BRANCH   1  10
HETATM   10  O6  UNL     1       0.591   1.079  -1.038  1.00  0.00    -0.202 OA
BRANCH  10  11
HETATM   11  S1  UNL     1       1.481   0.326   0.170  1.00  0.00     0.407 S 
HETATM   12  O4  UNL     1       0.901  -1.055   0.416  1.00  0.00    -0.168 OA
HETATM   13  O5  UNL     1       1.470   1.041   1.486  1.00  0.00    -0.168 OA
BRANCH  11  14
HETATM   14  O3  UNL     1       3.089   0.103  -0.283  1.00  0.00    -0.249 OA
BRANCH  14  15
HETATM   15  C6  UNL     1       3.941   0.762   0.603  1.00  0.00     0.253 C 
BRANCH  15  16
HETATM   16  C5  UNL     1       5.366   0.563   0.179  1.00  0.00     0.294 C 
HETATM   17  O2  UNL     1       5.760  -0.771   0.141  1.00  0.00    -0.321 OA
HETATM   18  C4  UNL     1       7.109  -0.776   0.498  1.00  0.00     0.359 C 
HETATM   19  O1  UNL     1       7.923  -0.378  -0.557  1.00  0.00    -0.318 OA
HETATM   20  C22 UNL     1       7.190   0.380   1.443  1.00  0.00     0.338 C 
HETATM   21  C2  UNL     1       8.749   0.627  -0.094  1.00  0.00     0.166 C 
HETATM   22  C1  UNL     1      10.212   0.213  -0.261  1.00  0.00     0.078 C 
HETATM   23  C3  UNL     1       8.543   1.914  -0.842  1.00  0.00     0.078 C 
HETATM   24  O18 UNL     1       8.490   0.830   1.241  1.00  0.00    -0.292 OA
HETATM   25  O16 UNL     1       6.224   1.244   1.002  1.00  0.00    -0.296 OA
BRANCH  20  26
HETATM   26  O17 UNL     1       6.970  -0.080   2.738  1.00  0.00    -0.339 OA
ATOM     27  H17 UNL     1       7.021   0.654   3.338  1.00  0.00     0.215 HD
ENDBRANCH  20  26
ENDBRANCH  15  16
ENDBRANCH  14  15
ENDBRANCH  11  14
ENDBRANCH  10  11
ENDBRANCH   1  10
BRANCH   2  28
HETATM   28  O7  UNL     1      -2.115   1.587  -0.727  1.00  0.00    -0.211 OA
BRANCH  28  29
HETATM   29  S2  UNL     1      -2.233   1.673   0.932  1.00  0.00     0.257 S 
HETATM   30  O8  UNL     1      -1.863   0.442   1.672  1.00  0.00    -0.572 OA
HETATM   31  O9  UNL     1      -3.647   2.026   1.370  1.00  0.00    -0.572 OA
HETATM   32  O10 UNL     1      -1.273   2.961   1.494  1.00  0.00    -0.572 OA
ENDBRANCH  28  29
ENDBRANCH   2  28
BRANCH   4  33
HETATM   33  C11 UNL     1      -3.564  -2.541  -2.618  1.00  0.00     0.182 C 
BRANCH  33  34
HETATM   34  O11 UNL     1      -3.963  -2.839  -3.944  1.00  0.00    -0.389 OA
ATOM     35  H11 UNL     1      -4.666  -3.478  -3.941  1.00  0.00     0.210 HD
ENDBRANCH  33  34
BRANCH  33  36
HETATM   36  C12 UNL     1      -4.756  -2.265  -1.790  1.00  0.00     0.254 C 
BRANCH  36  37
HETATM   37  O12 UNL     1      -4.533  -1.974  -0.446  1.00  0.00    -0.207 OA
BRANCH  37  38
HETATM   38  N1  UNL     1      -5.271  -1.720   0.532  1.00  0.00    -0.293 NA
BRANCH  38  39
HETATM   39  C13 UNL     1      -5.977  -1.473   1.464  1.00  0.00     0.232 C 
BRANCH  39  40
HETATM   40  C14 UNL     1      -6.859  -0.307   1.715  1.00  0.00     0.031 A 
HETATM   41  C15 UNL     1      -7.586  -0.232   2.884  1.00  0.00     0.053 A 
HETATM   42  C16 UNL     1      -8.406   0.838   3.142  1.00  0.00     0.066 A 
HETATM   43  C17 UNL     1      -8.521   1.851   2.248  1.00  0.00     0.039 A 
HETATM   44  C18 UNL     1      -7.809   1.808   1.070  1.00  0.00     0.040 A 
HETATM   45  C19 UNL     1      -6.976   0.723   0.805  1.00  0.00     0.078 A 
BRANCH  42  46
HETATM   46  O13 UNL     1      -9.141   0.903   4.336  1.00  0.00    -0.361 OA
ATOM     47  H13 UNL     1      -9.709   1.644   4.515  1.00  0.00     0.217 HD
ENDBRANCH  42  46
BRANCH  45  48
HETATM   48  O14 UNL     1      -6.254   0.674  -0.383  1.00  0.00    -0.360 OA
ATOM     49  H14 UNL     1      -6.335   1.383  -1.010  1.00  0.00     0.217 HD
ENDBRANCH  45  48
ENDBRANCH  39  40
ENDBRANCH  38  39
ENDBRANCH  37  38
ENDBRANCH  36  37
ENDBRANCH  33  36
ENDBRANCH   4  33
BRANCH   5  50
HETATM   50  N2  UNL     1      -1.365  -3.168  -3.814  1.00  0.00    -0.385 N 
ATOM     51  H22 UNL     1      -2.165  -3.767  -3.611  1.00  0.00     0.157 HD
ATOM     52  H21 UNL     1      -0.545  -3.448  -4.353  1.00  0.00     0.157 HD
ENDBRANCH   5  50
TORSDOF 18
