REMARK  19 active torsions:
REMARK  status: ('A' for Active; 'I' for Inactive)
REMARK    1  A    between atoms: O1_2  and  C2_3 
REMARK    2  A    between atoms: C3_4  and  C4_5 
REMARK    3  A    between atoms: C4_5  and  C5_6 
REMARK    4  A    between atoms: N1_9  and  C8_10 
REMARK    5  A    between atoms: C13_25  and  O3_26 
REMARK    6  A    between atoms: O3_26  and  C14_27 
REMARK    7  A    between atoms: C14_27  and  C15_28 
REMARK    8  A    between atoms: C15_28  and  N7_29 
REMARK    9  A    between atoms: C16_30  and  O4_31 
REMARK   10  A    between atoms: C19_35  and  O5_36 
REMARK   11  A    between atoms: C21_40  and  O7_41 
REMARK   12  A    between atoms: C21_40  and  C22_43 
REMARK   13  A    between atoms: C23_44  and  C24_45 
REMARK   14  A    between atoms: C24_45  and  O8_46 
REMARK   15  A    between atoms: C24_45  and  C25_48 
REMARK   16  A    between atoms: C25_48  and  O9_49 
REMARK   17  A    between atoms: C26_52  and  C27_53 
REMARK   18  A    between atoms: C27_53  and  O11_54 
REMARK   19  A    between atoms: C28_56  and  O12_57 
ROOT
HETATM    1  O3  UNL     1      -0.454  -0.905   1.323  1.00  0.00    -0.347 OA
ENDROOT
BRANCH   1   2
HETATM    2  C13 UNL     1       0.800  -0.319   1.334  1.00  0.00     0.104 A 
HETATM    3  C12 UNL     1       1.016   0.942   0.825  1.00  0.00     0.040 A 
HETATM    4  C11 UNL     1       2.283   1.481   0.857  1.00  0.00     0.013 A 
HETATM    5  C3  UNL     1       3.371   0.770   1.402  1.00  0.00    -0.020 A 
HETATM    6  C2  UNL     1       3.130  -0.470   1.899  1.00  0.00     0.110 A 
HETATM    7  C28 UNL     1       1.846  -1.037   1.873  1.00  0.00     0.135 A 
BRANCH   5   8
HETATM    8  C4  UNL     1       4.663   1.407   1.313  1.00  0.00     0.067 C 
BRANCH   8   9
HETATM    9  C5  UNL     1       5.425   1.339   0.046  1.00  0.00     0.092 C 
HETATM   10  C6  UNL     1       6.757   2.074   0.272  1.00  0.00     0.046 C 
HETATM   11  C7  UNL     1       7.827   1.044   0.622  1.00  0.00     0.154 C 
HETATM   12  N1  UNL     1       7.994   0.236  -0.563  1.00  0.00    -0.130 N 
HETATM   13  C10 UNL     1       6.833  -0.333  -1.135  1.00  0.00     0.337 C 
HETATM   14  O2  UNL     1       6.922  -1.200  -2.044  1.00  0.00    -0.246 OA
HETATM   15  N6  UNL     1       5.584   0.122  -0.632  1.00  0.00    -0.337 N 
ATOM     16  H6  UNL     1       4.762  -0.466  -0.771  1.00  0.00     0.164 HD
BRANCH  12  17
HETATM   17  C8  UNL     1       9.282   0.041  -1.109  1.00  0.00     0.720 A 
HETATM   18  N2  UNL     1       9.736   0.367  -2.340  1.00  0.00    -0.115 N 
HETATM   19  N3  UNL     1      11.014   0.007  -2.447  1.00  0.00    -0.211 N 
ATOM     20  H2  UNL     1       9.186   0.818  -3.072  1.00  0.00     0.207 HD
HETATM   21  N4  UNL     1      11.381  -0.541  -1.308  1.00  0.00    -0.209 N 
ATOM     22  H3  UNL     1      11.605   0.134  -3.268  1.00  0.00     0.210 HD
HETATM   23  C9  UNL     1      12.685  -1.063  -1.016  1.00  0.00     0.202 C 
HETATM   24  N5  UNL     1      10.348  -0.527  -0.493  1.00  0.00    -0.113 N 
ATOM     25  H5  UNL     1      10.349  -0.890   0.460  1.00  0.00     0.207 HD
ENDBRANCH  12  17
ENDBRANCH   8   9
ENDBRANCH   5   8
BRANCH   6  26
HETATM   26  O1  UNL     1       4.091  -1.243   2.458  1.00  0.00    -0.352 OA
HETATM   27  C1  UNL     1       4.872  -2.226   1.905  1.00  0.00     0.210 C 
ENDBRANCH   6  26
BRANCH   7  28
HETATM   28  O12 UNL     1       1.652  -2.300   2.387  1.00  0.00    -0.351 OA
HETATM   29  C29 UNL     1       1.724  -3.508   1.688  1.00  0.00     0.210 C 
ENDBRANCH   7  28
ENDBRANCH   1   2
BRANCH   1  30
HETATM   30  C14 UNL     1      -1.557  -0.241   0.792  1.00  0.00     0.196 C 
BRANCH  30  31
HETATM   31  C15 UNL     1      -2.771  -1.137   0.931  1.00  0.00     0.161 C 
BRANCH  31  32
HETATM   32  N7  UNL     1      -3.962  -0.551   0.407  1.00  0.00    -0.290 N 
HETATM   33  C16 UNL     1      -4.311  -0.740  -0.884  1.00  0.00     0.155 A 
HETATM   34  C17 UNL     1      -5.454  -0.221  -1.457  1.00  0.00     0.040 A 
HETATM   35  C18 UNL     1      -6.279   0.535  -0.642  1.00  0.00     0.069 A 
HETATM   36  C26 UNL     1      -6.091  -0.248  -2.797  1.00  0.00     0.188 C 
HETATM   37  C19 UNL     1      -5.936   0.735   0.668  1.00  0.00     0.148 A 
HETATM   38  C21 UNL     1      -7.423   0.961  -1.456  1.00  0.00     0.264 C 
HETATM   39  C20 UNL     1      -4.781   0.195   1.199  1.00  0.00     0.283 A 
HETATM   40  O6  UNL     1      -4.431   0.355   2.396  1.00  0.00    -0.265 OA
HETATM   41  O10 UNL     1      -7.416   0.114  -2.565  1.00  0.00    -0.329 OA
BRANCH  33  42
HETATM   42  O4  UNL     1      -3.446  -1.514  -1.676  1.00  0.00    -0.345 OA
ATOM     43  H4  UNL     1      -3.691  -1.647  -2.584  1.00  0.00     0.219 HD
ENDBRANCH  33  42
BRANCH  37  44
HETATM   44  O5  UNL     1      -6.752   1.500   1.527  1.00  0.00    -0.355 OA
ATOM     45  H5  UNL     1      -6.514   1.639   2.436  1.00  0.00     0.218 HD
ENDBRANCH  37  44
BRANCH  38  46
HETATM   46  O7  UNL     1      -7.306   2.275  -1.831  1.00  0.00    -0.351 OA
ATOM     47  H7  UNL     1      -8.047   2.551  -2.358  1.00  0.00     0.214 HD
ENDBRANCH  38  46
BRANCH  38  48
HETATM   48  C22 UNL     1      -8.693   0.750  -0.715  1.00  0.00    -0.030 C 
HETATM   49  C23 UNL     1      -9.710   0.562  -0.100  1.00  0.00    -0.067 C 
BRANCH  49  50
HETATM   50  C24 UNL     1     -10.947   0.332   0.663  1.00  0.00     0.220 C 
BRANCH  50  51
HETATM   51  O8  UNL     1     -10.977  -0.910   1.252  1.00  0.00    -0.381 OA
ATOM     52  H8  UNL     1     -11.776  -1.058   1.745  1.00  0.00     0.211 HD
ENDBRANCH  50  51
BRANCH  50  53
HETATM   53  C25 UNL     1     -11.045   1.361   1.789  1.00  0.00     0.208 C 
BRANCH  53  54
HETATM   54  O9  UNL     1     -11.019   2.660   1.266  1.00  0.00    -0.397 OA
ATOM     55  H9  UNL     1     -11.080   3.300   1.966  1.00  0.00     0.209 HD
ENDBRANCH  53  54
ENDBRANCH  50  53
ENDBRANCH  49  50
ENDBRANCH  38  48
BRANCH  36  56
HETATM   56  C27 UNL     1      -5.429   0.752  -3.735  1.00  0.00     0.201 C 
BRANCH  56  57
HETATM   57  O11 UNL     1      -4.103   0.328  -3.920  1.00  0.00    -0.398 OA
ATOM     58  H11 UNL     1      -3.690   0.952  -4.505  1.00  0.00     0.209 HD
ENDBRANCH  56  57
ENDBRANCH  36  56
ENDBRANCH  31  32
ENDBRANCH  30  31
ENDBRANCH   1  30
TORSDOF 19
