REMARK  14 active torsions:
REMARK  status: ('A' for Active; 'I' for Inactive)
REMARK    1  A    between atoms: N1_2  and  C3_4 
REMARK    2  A    between atoms: C4_7  and  N3_8 
REMARK    3  A    between atoms: C6_14  and  C7_15 
REMARK    4  A    between atoms: C7_15  and  O1_16 
REMARK    5  A    between atoms: O1_16  and  C8_17 
REMARK    6  A    between atoms: C8_17  and  C9_19 
REMARK    7  A    between atoms: C9_19  and  C10_20 
REMARK    8  A    between atoms: C9_19  and  N12_42 
REMARK    9  A    between atoms: C13_26  and  S1_27 
REMARK   10  A    between atoms: S1_27  and  N7_28 
REMARK   11  A    between atoms: N7_28  and  C14_30 
REMARK   12  A    between atoms: N11_36  and  O3_37 
REMARK   13  A    between atoms: N12_42  and  N13_43 
REMARK   14  A    between atoms: N12_42  and  N15_48 
ROOT
HETATM    1  C9  UNL     1       1.245   0.631  -0.909  1.00  0.00     0.144 C 
ENDROOT
BRANCH   1   2
HETATM    2  C8  UNL     1       0.014   1.027  -0.152  1.00  0.00     0.309 C 
HETATM    3  O2  UNL     1      -0.776   1.930  -0.474  1.00  0.00    -0.258 OA
BRANCH   2   4
HETATM    4  O1  UNL     1      -0.263   0.329   1.003  1.00  0.00    -0.309 OA
BRANCH   4   5
HETATM    5  C7  UNL     1      -1.297   0.467   1.890  1.00  0.00     0.255 C 
BRANCH   5   6
HETATM    6  C6  UNL     1      -2.666   0.250   1.427  1.00  0.00     0.109 A 
HETATM    7  N4  UNL     1      -3.170  -1.017   1.291  1.00  0.00    -0.339 N 
HETATM    8  C5  UNL     1      -4.450  -1.181   0.914  1.00  0.00     0.111 A 
ATOM      9  H4  UNL     1      -2.579  -1.828   1.474  1.00  0.00     0.167 HD
HETATM   10  C4  UNL     1      -4.997  -2.439   0.789  1.00  0.00     0.144 A 
HETATM   11  C23 UNL     1      -5.266  -0.101   0.661  1.00  0.00     0.147 A 
HETATM   12  N2  UNL     1      -6.286  -2.563   0.432  1.00  0.00    -0.175 N 
HETATM   13  C3  UNL     1      -7.077  -1.503   0.187  1.00  0.00     0.681 A 
ATOM     14  H2  UNL     1      -6.681  -3.499   0.343  1.00  0.00     0.186 HD
HETATM   15  N18 UNL     1      -6.547  -0.272   0.306  1.00  0.00    -0.184 N 
ATOM     16  H18 UNL     1      -7.130   0.545   0.123  1.00  0.00     0.184 HD
HETATM   17  C22 UNL     1      -4.755   1.189   0.797  1.00  0.00     0.276 A 
HETATM   18  N17 UNL     1      -3.461   1.299   1.178  1.00  0.00    -0.309 N 
HETATM   19  O5  UNL     1      -5.483   2.183   0.568  1.00  0.00    -0.266 OA
ATOM     20  H17 UNL     1      -3.068   2.235   1.282  1.00  0.00     0.170 HD
BRANCH  10  21
HETATM   21  N3  UNL     1      -4.280  -3.514   1.015  1.00  0.00    -0.383 N 
ATOM     22  H32 UNL     1      -4.685  -4.446   0.922  1.00  0.00     0.157 HD
ATOM     23  H31 UNL     1      -3.301  -3.420   1.286  1.00  0.00     0.157 HD
ENDBRANCH  10  21
BRANCH  13  24
HETATM   24  N1  UNL     1      -8.439  -1.614  -0.160  1.00  0.00    -0.226 N 
HETATM   25  C1  UNL     1      -9.444  -1.540   0.869  1.00  0.00     0.168 C 
HETATM   26  C2  UNL     1      -8.819  -1.803  -1.534  1.00  0.00     0.168 C 
ENDBRANCH  13  24
ENDBRANCH   5   6
ENDBRANCH   4   5
ENDBRANCH   2   4
ENDBRANCH   1   2
BRANCH   1  27
HETATM   27  C10 UNL     1       2.260   0.022  -0.044  1.00  0.00     0.048 C 
HETATM   28  C11 UNL     1       2.467   0.577   1.182  1.00  0.00     0.062 C 
HETATM   29  C12 UNL     1       3.297   0.246   2.240  1.00  0.00     0.118 C 
HETATM   30  N5  UNL     1       3.116   0.941   3.460  1.00  0.00    -0.083 NA
HETATM   31  N6  UNL     1       4.286  -0.690   2.254  1.00  0.00    -0.338 N 
HETATM   32  C13 UNL     1       4.438  -1.721   1.397  1.00  0.00     0.096 C 
ATOM     33  H6  UNL     1       4.986  -0.602   2.991  1.00  0.00     0.167 HD
HETATM   34  C15 UNL     1       3.967  -1.808   0.090  1.00  0.00     0.094 C 
HETATM   35  C16 UNL     1       2.925  -1.094  -0.509  1.00  0.00     0.187 C 
HETATM   36  O4  UNL     1       2.596  -1.586  -1.617  1.00  0.00    -0.287 OA
BRANCH  32  37
HETATM   37  S1  UNL     1       5.339  -3.101   2.072  1.00  0.00     0.020 SA
BRANCH  37  38
HETATM   38  N7  UNL     1       7.048  -3.027   1.731  1.00  0.00    -0.154 N 
ATOM     39  H7  UNL     1       7.545  -2.138   1.675  1.00  0.00     0.193 HD
BRANCH  38  40
HETATM   40  C14 UNL     1       7.723  -4.283   1.532  1.00  0.00     0.744 A 
HETATM   41  N8  UNL     1       8.416  -5.035   2.379  1.00  0.00    -0.115 N 
HETATM   42  N9  UNL     1       8.848  -6.104   1.760  1.00  0.00    -0.209 N 
ATOM     43  H8  UNL     1       8.585  -4.814   3.360  1.00  0.00     0.207 HD
HETATM   44  N10 UNL     1       8.425  -6.041   0.490  1.00  0.00     0.039 NA
ATOM     45  H9  UNL     1       9.407  -6.852   2.171  1.00  0.00     0.206 HD
HETATM   46  N11 UNL     1       7.732  -4.928   0.334  1.00  0.00     0.034 N 
BRANCH  46  47
HETATM   47  O3  UNL     1       7.116  -4.478  -0.808  1.00  0.00    -0.256 OA
ATOM     48  H3  UNL     1       7.122  -4.928  -1.644  1.00  0.00     0.247 HD
ENDBRANCH  46  47
ENDBRANCH  38  40
ENDBRANCH  37  38
ENDBRANCH  32  37
ENDBRANCH   1  27
BRANCH   1  49
HETATM   49  N12 UNL     1       1.602   1.373  -2.011  1.00  0.00    -0.077 NA
BRANCH  49  50
HETATM   50  N13 UNL     1       0.520   1.270  -2.936  1.00  0.00    -0.245 N 
HETATM   51  N14 UNL     1       0.377   0.249  -3.620  1.00  0.00    -0.333 N 
ATOM     52 2H14 UNL     1       1.045  -0.514  -3.510  1.00  0.00     0.178 HD
ATOM     53 1H14 UNL     1      -0.396   0.175  -4.281  1.00  0.00     0.178 HD
ATOM     54  H13 UNL     1      -0.139   2.042  -3.034  1.00  0.00     0.204 HD
ENDBRANCH  49  50
BRANCH  49  55
HETATM   55  N15 UNL     1       1.980   2.668  -2.030  1.00  0.00    -0.273 N 
HETATM   56  C17 UNL     1       2.056   3.572  -1.053  1.00  0.00     0.114 A 
HETATM   57  C18 UNL     1       2.495   4.875  -1.197  1.00  0.00     0.045 A 
HETATM   58  C19 UNL     1       2.890   5.306  -2.419  1.00  0.00     0.049 A 
HETATM   59  N16 UNL     1       3.354   6.644  -2.616  1.00  0.00    -0.102 NA
HETATM   60  C20 UNL     1       2.830   4.405  -3.467  1.00  0.00     0.045 A 
HETATM   61  C21 UNL     1       2.385   3.122  -3.266  1.00  0.00     0.114 A 
ENDBRANCH  49  55
ENDBRANCH   1  49
TORSDOF 14
