REMARK  9 active torsions:
REMARK  status: ('A' for Active; 'I' for Inactive)
REMARK    1  A    between atoms: O1_1  and  C1_3 
REMARK    2  A    between atoms: C1_3  and  C2_4 
REMARK    3  A    between atoms: C2_4  and  C3_5 
REMARK    4  A    between atoms: C3_5  and  O2_6 
REMARK    5  A    between atoms: C3_5  and  C4_8 
REMARK    6  A    between atoms: C4_8  and  O3_9 
REMARK    7  A    between atoms: C4_8  and  C5_11 
REMARK    8  A    between atoms: C5_11  and  O4_12 
REMARK    9  A    between atoms: C5_11  and  C6_14 
ROOT
HETATM    1  C4  UNL     1      -0.954   0.781  -0.286  1.00  0.00     0.176 C 
ENDROOT
BRANCH   1   2
HETATM    2  C3  UNL     1      -2.418   0.598  -0.081  1.00  0.00     0.151 C 
BRANCH   2   3
HETATM    3  C2  UNL     1      -2.956  -0.743  -0.466  1.00  0.00     0.060 C 
BRANCH   3   4
HETATM    4  C1  UNL     1      -4.467  -0.730  -0.235  1.00  0.00     0.166 C 
BRANCH   4   5
HETATM    5  O1  UNL     1      -5.052   0.262  -1.018  1.00  0.00    -0.401 OA
ATOM      6  H1  UNL     1      -5.991   0.270  -0.874  1.00  0.00     0.209 HD
ENDBRANCH   4   5
ENDBRANCH   3   4
ENDBRANCH   2   3
BRANCH   2   7
HETATM    7  O2  UNL     1      -3.062   1.547  -0.910  1.00  0.00    -0.393 OA
ATOM      8  H2  UNL     1      -2.720   2.399  -0.665  1.00  0.00     0.210 HD
ENDBRANCH   2   7
ENDBRANCH   1   2
BRANCH   1   9
HETATM    9  O3  UNL     1      -0.648   2.094   0.081  1.00  0.00    -0.390 OA
ATOM     10  H3  UNL     1       0.286   2.211  -0.050  1.00  0.00     0.210 HD
ENDBRANCH   1   9
BRANCH   1  11
HETATM   11  C5  UNL     1      -0.082  -0.243   0.358  1.00  0.00     0.153 C 
BRANCH  11  12
HETATM   12  O4  UNL     1      -0.163  -0.216   1.751  1.00  0.00    -0.393 OA
ATOM     13  H4  UNL     1       0.393  -0.868   2.161  1.00  0.00     0.210 HD
ENDBRANCH  11  12
BRANCH  11  14
HETATM   14  C6  UNL     1       1.321  -0.198  -0.145  1.00  0.00     0.017 C 
HETATM   15  C7  UNL     1       2.151  -1.276   0.553  1.00  0.00     0.007 C 
HETATM   16  C8  UNL     1       3.381  -1.488  -0.282  1.00  0.00     0.000 C 
HETATM   17  C9  UNL     1       4.062  -0.193  -0.514  1.00  0.00     0.000 C 
HETATM   18  C10 UNL     1       3.492   0.997   0.184  1.00  0.00     0.000 C 
HETATM   19  C11 UNL     1       2.001   1.145  -0.013  1.00  0.00     0.007 C 
ENDBRANCH  11  14
ENDBRANCH   1  11
TORSDOF 9
