REMARK  8 active torsions:
REMARK  status: ('A' for Active; 'I' for Inactive)
REMARK    1  A    between atoms: N1_2  and  C2_5 
REMARK    2  A    between atoms: C2_5  and  C3_6 
REMARK    3  A    between atoms: C3_6  and  O1_7 
REMARK    4  A    between atoms: C3_6  and  C4_9 
REMARK    5  A    between atoms: C4_9  and  O2_10 
REMARK    6  A    between atoms: C4_9  and  C5_12 
REMARK    7  A    between atoms: C5_12  and  O3_13 
REMARK    8  A    between atoms: C5_12  and  C6_15 
ROOT
HETATM    1  C4  UNL     1       1.024  -0.411   0.678  1.00  0.00     0.177 C 
ENDROOT
BRANCH   1   2
HETATM    2  C3  UNL     1       1.592   0.126  -0.575  1.00  0.00     0.175 C 
BRANCH   2   3
HETATM    3  C2  UNL     1       2.945   0.738  -0.360  1.00  0.00     0.266 C 
BRANCH   3   4
HETATM    4  N1  UNL     1       4.010  -0.125   0.011  1.00  0.00    -0.076 N 
HETATM    5  C1  UNL     1       5.291   0.645   0.033  1.00  0.00     0.267 C 
ATOM      6  H12 UNL     1       4.065  -0.948  -0.588  1.00  0.00     0.276 HD
ATOM      7  H11 UNL     1       3.831  -0.600   0.896  1.00  0.00     0.276 HD
ENDBRANCH   3   4
ENDBRANCH   2   3
BRANCH   2   8
HETATM    8  O1  UNL     1       1.705  -0.824  -1.595  1.00  0.00    -0.391 OA
ATOM      9  H1  UNL     1       0.848  -1.211  -1.731  1.00  0.00     0.210 HD
ENDBRANCH   2   8
ENDBRANCH   1   2
BRANCH   1  10
HETATM   10  O2  UNL     1       1.930  -1.494   1.037  1.00  0.00    -0.390 OA
ATOM     11  H2  UNL     1       1.565  -1.839   1.843  1.00  0.00     0.210 HD
ENDBRANCH   1  10
BRANCH   1  12
HETATM   12  C5  UNL     1      -0.310  -1.057   0.649  1.00  0.00     0.153 C 
BRANCH  12  13
HETATM   13  O3  UNL     1      -0.413  -1.670   1.965  1.00  0.00    -0.393 OA
ATOM     14  H3  UNL     1      -1.268  -2.084   1.946  1.00  0.00     0.210 HD
ENDBRANCH  12  13
BRANCH  12  15
HETATM   15  C6  UNL     1      -1.526  -0.167   0.600  1.00  0.00     0.017 C 
HETATM   16  C7  UNL     1      -1.587   0.687  -0.593  1.00  0.00     0.007 C 
HETATM   17  C8  UNL     1      -3.001   1.136  -0.948  1.00  0.00     0.000 C 
HETATM   18  C9  UNL     1      -3.914   1.045   0.248  1.00  0.00     0.000 C 
HETATM   19  C10 UNL     1      -4.056  -0.395   0.593  1.00  0.00     0.000 C 
HETATM   20  C11 UNL     1      -2.749  -1.026   0.849  1.00  0.00     0.007 C 
ENDBRANCH  12  15
ENDBRANCH   1  12
TORSDOF 8
