REMARK  7 active torsions:
REMARK  status: ('A' for Active; 'I' for Inactive)
REMARK    1  A    between atoms: C2_2  and  C4_4 
REMARK    2  A    between atoms: C4_4  and  O1_5 
REMARK    3  A    between atoms: C4_4  and  C5_7 
REMARK    4  A    between atoms: C4_4  and  C6_10 
REMARK    5  A    between atoms: C5_7  and  O2_8 
REMARK    6  A    between atoms: C6_10  and  O3_11 
REMARK    7  A    between atoms: O3_11  and  C7_12 
ROOT
HETATM    1  C6  UNL     1      -0.683   0.371   0.278  1.00  0.00     0.208 C 
ENDROOT
BRANCH   1   2
HETATM    2  C4  UNL     1      -1.868  -0.344  -0.353  1.00  0.00     0.103 C 
BRANCH   2   3
HETATM    3  C2  UNL     1      -3.160   0.343  -0.060  1.00  0.00     0.016 C 
HETATM    4  C1  UNL     1      -3.475   0.480   1.395  1.00  0.00     0.012 C 
HETATM    5  C3  UNL     1      -3.146   1.683  -0.769  1.00  0.00     0.012 C 
ENDBRANCH   2   3
BRANCH   2   6
HETATM    6  O1  UNL     1      -1.713  -0.396  -1.738  1.00  0.00    -0.385 OA
ATOM      7  H1  UNL     1      -0.891  -0.833  -1.925  1.00  0.00     0.210 HD
ENDBRANCH   2   6
BRANCH   2   8
HETATM    8  C5  UNL     1      -1.880  -1.798   0.135  1.00  0.00     0.204 C 
BRANCH   8   9
HETATM    9  O2  UNL     1      -0.680  -2.419  -0.209  1.00  0.00    -0.398 OA
ATOM     10  H2  UNL     1      -0.687  -3.320   0.093  1.00  0.00     0.209 HD
ENDBRANCH   8   9
ENDBRANCH   2   8
ENDBRANCH   1   2
BRANCH   1  11
HETATM   11  O3  UNL     1       0.447  -0.331  -0.041  1.00  0.00    -0.383 OA
BRANCH  11  12
HETATM   12  C7  UNL     1       1.616   0.187   0.456  1.00  0.00     0.124 C 
HETATM   13  C8  UNL     1       2.503   0.506  -0.755  1.00  0.00     0.059 C 
HETATM   14  C9  UNL     1       3.813   1.115  -0.308  1.00  0.00     0.235 C 
HETATM   15  N1  UNL     1       4.401   0.403   0.797  1.00  0.00    -0.075 N 
HETATM   16  C10 UNL     1       3.822  -0.918   0.887  1.00  0.00     0.235 C 
ATOM     17  H12 UNL     1       5.419   0.373   0.737  1.00  0.00     0.277 HD
ATOM     18  H11 UNL     1       4.320   0.919   1.673  1.00  0.00     0.277 HD
HETATM   19  C11 UNL     1       2.346  -0.857   1.269  1.00  0.00     0.059 C 
ENDBRANCH  11  12
ENDBRANCH   1  11
TORSDOF 7
