REMARK  8 active torsions:
REMARK  status: ('A' for Active; 'I' for Inactive)
REMARK    1  A    between atoms: C2_2  and  C5_5 
REMARK    2  A    between atoms: C5_5  and  N1_6 
REMARK    3  A    between atoms: C5_5  and  C11_19 
REMARK       I    between atoms: N1_6  and  C6_8 
REMARK       I    between atoms: C6_8  and  N2_10 
REMARK    4  A    between atoms: N2_10  and  C7_12 
REMARK       I    between atoms: C11_19  and  N3_21 
REMARK    5  A    between atoms: C15_25  and  C16_26 
REMARK       I    between atoms: C16_26  and  N4_28 
REMARK    6  A    between atoms: N4_28  and  C17_30 
REMARK    7  A    between atoms: C17_30  and  C19_33 
REMARK    8  A    between atoms: C19_33  and  C20_34 
ROOT
HETATM    1  C17 UNL     1       5.529   0.653   0.646  1.00  0.00     0.193 C 
HETATM    2  C18 UNL     1       6.679  -0.220   0.605  1.00  0.00     0.084 C 
HETATM    3  N5  UNL     1       7.606  -0.944   0.580  1.00  0.00    -0.195 NA
ENDROOT
BRANCH   1   4
HETATM    4  N4  UNL     1       4.405  -0.106   1.129  1.00  0.00    -0.342 N 
HETATM    5  C16 UNL     1       3.179  -0.218   0.431  1.00  0.00     0.242 C 
HETATM    6  O5  UNL     1       3.108   0.393  -0.664  1.00  0.00    -0.271 OA
ATOM      7  H4  UNL     1       4.497  -0.589   2.023  1.00  0.00     0.163 HD
BRANCH   5   8
HETATM    8  C15 UNL     1       2.065  -0.995   0.950  1.00  0.00     0.184 C 
HETATM    9  N3  UNL     1       0.897  -0.922   0.045  1.00  0.00    -0.336 N 
HETATM   10  C11 UNL     1       0.109   0.217  -0.190  1.00  0.00     0.244 C 
HETATM   11  C12 UNL     1       0.702  -2.229  -0.537  1.00  0.00     0.132 C 
HETATM   12  O4  UNL     1       0.427   1.294   0.453  1.00  0.00    -0.271 OA
HETATM   13  C13 UNL     1       2.126  -2.696  -0.492  1.00  0.00     0.019 A 
HETATM   14  C14 UNL     1       2.218  -2.447   1.072  1.00  0.00     0.032 A 
HETATM   15  C21 UNL     1       2.895  -3.476   0.377  1.00  0.00    -0.036 A 
HETATM   16  C22 UNL     1       4.418  -3.402   0.341  1.00  0.00     0.016 C 
HETATM   17  C23 UNL     1       2.443  -4.937   0.545  1.00  0.00     0.016 C 
BRANCH  10  18
HETATM   18  C5  UNL     1      -1.035   0.270  -1.096  1.00  0.00     0.185 C 
BRANCH  18  19
HETATM   19  C2  UNL     1      -0.786   1.014  -2.393  1.00  0.00    -0.022 C 
HETATM   20  C1  UNL     1      -0.406   2.445  -2.225  1.00  0.00     0.017 C 
HETATM   21  C3  UNL     1       0.209   0.263  -3.226  1.00  0.00     0.017 C 
HETATM   22  C4  UNL     1      -2.115   0.946  -3.161  1.00  0.00     0.017 C 
ENDBRANCH  18  19
BRANCH  18  23
HETATM   23  N1  UNL     1      -2.148   1.018  -0.481  1.00  0.00    -0.329 N 
HETATM   24  C6  UNL     1      -3.422   0.481  -0.321  1.00  0.00     0.317 C 
HETATM   25  O1  UNL     1      -3.675  -0.686  -0.702  1.00  0.00    -0.247 OA
HETATM   26  N2  UNL     1      -4.453   1.243   0.273  1.00  0.00    -0.338 N 
ATOM     27  H2  UNL     1      -4.243   2.192   0.584  1.00  0.00     0.164 HD
ATOM     28  H1  UNL     1      -1.976   1.970  -0.159  1.00  0.00     0.165 HD
BRANCH  26  29
HETATM   29  C7  UNL     1      -5.808   0.727   0.460  1.00  0.00     0.101 C 
HETATM   30  C8  UNL     1      -6.139   0.731   1.872  1.00  0.00     0.041 C 
HETATM   31  C9  UNL     1      -7.432   1.395   2.177  1.00  0.00     0.142 C 
HETATM   32  S1  UNL     1      -7.543   2.587   0.836  1.00  0.00     0.146 S 
HETATM   33  O2  UNL     1      -6.717   3.800   1.115  1.00  0.00    -0.228 OA
HETATM   34  O3  UNL     1      -8.941   2.876   0.453  1.00  0.00    -0.228 OA
HETATM   35  C10 UNL     1      -6.707   1.559  -0.381  1.00  0.00     0.165 C 
ENDBRANCH  26  29
ENDBRANCH  18  23
ENDBRANCH  10  18
ENDBRANCH   5   8
ENDBRANCH   1   4
BRANCH   1  36
HETATM   36  C19 UNL     1       5.823   1.918   1.369  1.00  0.00     0.055 C 
BRANCH  36  37
HETATM   37  C20 UNL     1       6.138   1.843   2.809  1.00  0.00     0.117 C 
HETATM   38 CL1  UNL     1       4.895   1.201   3.859  1.00  0.00    -0.130 Cl
ENDBRANCH  36  37
ENDBRANCH   1  36
TORSDOF 8
