REMARK  12 active torsions:
REMARK  status: ('A' for Active; 'I' for Inactive)
REMARK    1  A    between atoms: C2_2  and  C3_3 
REMARK    2  A    between atoms: C3_3  and  C4_4 
REMARK    3  A    between atoms: C4_4  and  N1_5 
REMARK    4  A    between atoms: C4_4  and  C11_18 
REMARK       I    between atoms: N1_5  and  C5_7 
REMARK    5  A    between atoms: C5_7  and  C6_9 
REMARK    6  A    between atoms: C10_13  and  N2_14 
REMARK    7  A    between atoms: C11_18  and  C12_20 
REMARK       I    between atoms: C12_20  and  N3_22 
REMARK    8  A    between atoms: C13_23  and  C14_24 
REMARK    9  A    between atoms: C14_24  and  O4_25 
REMARK   10  A    between atoms: C14_24  and  N4_27 
REMARK   11  A    between atoms: C18_31  and  C19_32 
REMARK   12  A    between atoms: C21_36  and  C22_37 
REMARK       I    between atoms: C22_37  and  N5_39 
ROOT
HETATM    1  C12 UNL     1      -0.360   1.161  -0.914  1.00  0.00     0.292 C 
HETATM    2  O3  UNL     1      -0.312   1.658  -2.081  1.00  0.00    -0.264 OA
HETATM    3  N3  UNL     1      -1.659   1.008  -0.320  1.00  0.00    -0.327 N 
HETATM    4  C13 UNL     1      -2.175   0.529   0.886  1.00  0.00     0.169 C 
HETATM    5  C20 UNL     1      -3.484   1.301   0.731  1.00  0.00     0.055 A 
HETATM    6  C21 UNL     1      -3.558   2.543  -0.036  1.00  0.00     0.110 A 
HETATM    7  C26 UNL     1      -3.008   1.345  -0.735  1.00  0.00     0.109 A 
ENDROOT
BRANCH   1   8
HETATM    8  C11 UNL     1       0.803   0.750  -0.169  1.00  0.00     0.239 C 
HETATM    9  O2  UNL     1       0.660   0.325   0.993  1.00  0.00    -0.285 OA
BRANCH   8  10
HETATM   10  C4  UNL     1       2.157   0.853  -0.818  1.00  0.00     0.164 C 
BRANCH  10  11
HETATM   11  C3  UNL     1       2.181  -0.031  -2.005  1.00  0.00     0.033 C 
BRANCH  11  12
HETATM   12  C2  UNL     1       3.378   0.026  -2.884  1.00  0.00    -0.002 C 
HETATM   13  C1  UNL     1       4.688  -0.316  -2.290  1.00  0.00     0.005 C 
ENDBRANCH  11  12
ENDBRANCH  10  11
BRANCH  10  14
HETATM   14  N1  UNL     1       3.198   0.628   0.150  1.00  0.00    -0.349 N 
HETATM   15  C5  UNL     1       3.455  -0.560   0.857  1.00  0.00     0.224 C 
HETATM   16  O1  UNL     1       2.747  -1.573   0.648  1.00  0.00    -0.273 OA
ATOM     17  H1  UNL     1       3.816   1.416   0.344  1.00  0.00     0.163 HD
BRANCH  15  18
HETATM   18  C6  UNL     1       4.532  -0.662   1.849  1.00  0.00     0.108 C 
HETATM   19  C7  UNL     1       4.679  -2.110   2.344  1.00  0.00     0.016 C 
HETATM   20  C8  UNL     1       5.414  -2.740   1.183  1.00  0.00     0.003 C 
HETATM   21  C9  UNL     1       6.486  -1.711   0.892  1.00  0.00     0.034 C 
HETATM   22  C10 UNL     1       5.902  -0.373   1.342  1.00  0.00     0.196 C 
BRANCH  22  23
HETATM   23  N2  UNL     1       6.728   0.047   2.484  1.00  0.00    -0.074 N 
ATOM     24  H23 UNL     1       6.323   0.830   2.997  1.00  0.00     0.274 HD
ATOM     25  H22 UNL     1       6.724  -0.632   3.245  1.00  0.00     0.274 HD
ATOM     26  H21 UNL     1       7.666   0.245   2.137  1.00  0.00     0.274 HD
ENDBRANCH  22  23
ENDBRANCH  15  18
ENDBRANCH  10  14
ENDBRANCH   8  10
ENDBRANCH   1   8
BRANCH   4  27
HETATM   27  C14 UNL     1      -2.378  -0.890   1.060  1.00  0.00     0.138 C 
BRANCH  27  28
HETATM   28  O4  UNL     1      -2.620  -1.243   2.322  1.00  0.00    -0.348 OA
ATOM     29  H4  UNL     1      -2.754  -2.177   2.436  1.00  0.00     0.219 HD
ENDBRANCH  27  28
BRANCH  27  30
HETATM   30  N4  UNL     1      -2.379  -1.984   0.204  1.00  0.00    -0.349 N 
HETATM   31  C15 UNL     1      -2.598  -3.380   0.670  1.00  0.00     0.126 C 
HETATM   32  C16 UNL     1      -1.892  -4.249  -0.339  1.00  0.00     0.022 C 
HETATM   33  C17 UNL     1      -1.221  -3.278  -1.283  1.00  0.00     0.038 C 
HETATM   34  C18 UNL     1      -2.225  -2.106  -1.187  1.00  0.00     0.187 C 
BRANCH  34  35
HETATM   35  C19 UNL     1      -3.462  -2.569  -1.887  1.00  0.00     0.196 C 
HETATM   36  O5  UNL     1      -3.371  -2.707  -3.131  1.00  0.00    -0.646 OA
HETATM   37  O6  UNL     1      -4.651  -2.844  -1.280  1.00  0.00    -0.646 OA
ENDBRANCH  34  35
ENDBRANCH  27  30
ENDBRANCH   4  27
BRANCH   6  38
HETATM   38  C22 UNL     1      -4.840   3.026  -0.566  1.00  0.00     0.228 C 
HETATM   39  O7  UNL     1      -5.740   2.144  -0.784  1.00  0.00    -0.273 OA
HETATM   40  N5  UNL     1      -5.152   4.366  -0.851  1.00  0.00    -0.335 N 
HETATM   41  C23 UNL     1      -5.967   5.022  -0.071  1.00  0.00    -0.018 C 
ATOM     42  H5  UNL     1      -4.743   4.825  -1.665  1.00  0.00     0.168 HD
HETATM   43  C24 UNL     1      -6.308   6.454  -0.364  1.00  0.00     0.062 C 
HETATM   44  C25 UNL     1      -6.558   4.349   1.107  1.00  0.00     0.062 C 
ENDBRANCH   6  38
TORSDOF 12
