REMARK  14 active torsions:
REMARK  status: ('A' for Active; 'I' for Inactive)
REMARK    1  A    between atoms: O1_2  and  C2_3 
REMARK    2  A    between atoms: C5_8  and  C6_9 
REMARK    3  A    between atoms: N2_11  and  C8_12 
REMARK    4  A    between atoms: C8_12  and  C9_13 
REMARK    5  A    between atoms: C9_13  and  O2_14 
REMARK    6  A    between atoms: O2_14  and  C10_15 
REMARK    7  A    between atoms: C18_26  and  N4_27 
REMARK    8  A    between atoms: N4_27  and  C19_29 
REMARK    9  A    between atoms: C19_29  and  C20_30 
REMARK   10  A    between atoms: C20_30  and  C21_31 
REMARK   11  A    between atoms: C21_31  and  N5_32 
REMARK   12  A    between atoms: C29_41  and  O3_42 
REMARK   13  A    between atoms: O3_42  and  C30_43 
REMARK   14  A    between atoms: C30_43  and  C31_44 
ROOT
HETATM    1  C2  UNL     1      -1.890  -3.360  -1.442  1.00  0.00     0.103 A 
HETATM    2  C3  UNL     1      -0.771  -2.653  -1.664  1.00  0.00     0.070 A 
HETATM    3  C4  UNL     1      -0.483  -1.609  -0.768  1.00  0.00     0.050 A 
HETATM    4  N1  UNL     1       0.571  -0.886  -1.028  1.00  0.00    -0.340 N 
ATOM      5  H1  UNL     1       1.181  -1.157  -1.800  1.00  0.00     0.167 HD
HETATM    6  C5  UNL     1       0.874   0.203  -0.308  1.00  0.00     0.126 A 
HETATM    7  N3  UNL     1       0.072   0.530   0.655  1.00  0.00    -0.326 N 
ATOM      8  H3  UNL     1       0.300   1.368   1.190  1.00  0.00     0.169 HD
HETATM    9  C18 UNL     1      -1.001  -0.122   0.997  1.00  0.00     0.126 A 
HETATM   10  C27 UNL     1      -1.338  -1.325   0.272  1.00  0.00     0.038 A 
HETATM   11  C28 UNL     1      -2.442  -2.038   0.507  1.00  0.00     0.057 A 
HETATM   12  C29 UNL     1      -2.787  -3.118  -0.338  1.00  0.00     0.103 A 
ENDROOT
BRANCH   6  13
HETATM   13  C6  UNL     1       2.232   0.799  -0.489  1.00  0.00     0.065 A 
HETATM   14  C7  UNL     1       3.280   0.150  -1.077  1.00  0.00     0.113 A 
HETATM   15  N2  UNL     1       4.435   0.800  -1.255  1.00  0.00    -0.357 N 
HETATM   16  C17 UNL     1       4.468   2.068  -0.827  1.00  0.00     0.141 A 
HETATM   17  S1  UNL     1       2.892   2.326  -0.190  1.00  0.00    -0.080 SA
BRANCH  15  18
HETATM   18  C8  UNL     1       5.578   0.108  -1.844  1.00  0.00     0.155 C 
BRANCH  18  19
HETATM   19  C9  UNL     1       6.695  -0.161  -0.855  1.00  0.00     0.196 C 
BRANCH  19  20
HETATM   20  O2  UNL     1       7.330   1.063  -0.735  1.00  0.00    -0.350 OA
BRANCH  20  21
HETATM   21  C10 UNL     1       8.435   1.491  -0.086  1.00  0.00     0.069 A 
HETATM   22  C11 UNL     1       8.820   2.841  -0.214  1.00  0.00     0.037 A 
HETATM   23  C12 UNL     1       9.935   3.294   0.393  1.00  0.00     0.003 A 
HETATM   24  C13 UNL     1      10.750   2.464   1.167  1.00  0.00     0.007 A 
HETATM   25  C14 UNL     1      10.357   1.127   1.290  1.00  0.00    -0.059 A 
HETATM   26  C15 UNL     1      11.202   0.192   2.111  1.00  0.00     0.048 C 
HETATM   27  C16 UNL     1       9.228   0.678   0.671  1.00  0.00     0.043 A 
ENDBRANCH  20  21
ENDBRANCH  19  20
ENDBRANCH  18  19
ENDBRANCH  15  18
ENDBRANCH   6  13
BRANCH   9  28
HETATM   28  N4  UNL     1      -2.273   0.428   1.174  1.00  0.00    -0.311 N 
ATOM     29  H4  UNL     1      -3.046  -0.153   1.498  1.00  0.00     0.177 HD
BRANCH  28  30
HETATM   30  C19 UNL     1      -2.468   1.746   0.910  1.00  0.00    -0.068 C 
BRANCH  30  31
HETATM   31  C20 UNL     1      -2.780   3.119   1.080  1.00  0.00     0.134 C 
BRANCH  31  32
HETATM   32  C21 UNL     1      -2.528   3.880  -0.248  1.00  0.00     0.285 C 
BRANCH  32  33
HETATM   33  N5  UNL     1      -3.093   5.156  -0.368  1.00  0.00     0.092 N 
HETATM   34  C22 UNL     1      -4.435   4.985  -0.967  1.00  0.00     0.302 C 
HETATM   35  C23 UNL     1      -5.309   6.175  -0.912  1.00  0.00     0.302 C 
HETATM   36  N6  UNL     1      -5.445   6.719   0.425  1.00  0.00     0.087 N 
HETATM   37  C24 UNL     1      -6.851   6.641   0.851  1.00  0.00     0.310 C 
HETATM   38  C25 UNL     1      -4.696   5.907   1.374  1.00  0.00     0.302 C 
HETATM   39  C26 UNL     1      -3.271   5.813   0.936  1.00  0.00     0.302 C 
ENDBRANCH  32  33
ENDBRANCH  31  32
ENDBRANCH  30  31
ENDBRANCH  28  30
ENDBRANCH   9  28
BRANCH   1  40
HETATM   40  O1  UNL     1      -2.234  -4.363  -2.369  1.00  0.00    -0.353 OA
HETATM   41  C1  UNL     1      -1.531  -4.545  -3.556  1.00  0.00     0.210 C 
ENDBRANCH   1  40
BRANCH  12  42
HETATM   42  O3  UNL     1      -3.757  -3.932  -0.215  1.00  0.00    -0.344 OA
BRANCH  42  43
HETATM   43  C30 UNL     1      -4.782  -4.718   0.070  1.00  0.00     0.217 C 
BRANCH  43  44
HETATM   44  C31 UNL     1      -4.164  -5.935   0.754  1.00  0.00    -0.005 A 
HETATM   45  C32 UNL     1      -4.004  -7.087  -0.062  1.00  0.00    -0.036 A 
HETATM   46  C33 UNL     1      -4.410  -7.194  -1.468  1.00  0.00     0.050 C 
HETATM   47  C34 UNL     1      -3.388  -8.022   0.719  1.00  0.00     0.095 A 
HETATM   48  N7  UNL     1      -3.185  -7.494   1.935  1.00  0.00    -0.368 N 
HETATM   49  C35 UNL     1      -3.683  -6.192   1.940  1.00  0.00     0.014 A 
ATOM     50  H7  UNL     1      -2.741  -7.965   2.723  1.00  0.00     0.165 HD
HETATM   51  C36 UNL     1      -3.687  -5.415   3.223  1.00  0.00     0.068 C 
ENDBRANCH  43  44
ENDBRANCH  42  43
ENDBRANCH  12  42
TORSDOF 14
