REMARK  17 active torsions:
REMARK  status: ('A' for Active; 'I' for Inactive)
REMARK    1  A    between atoms: C2_2  and  N1_3 
REMARK    2  A    between atoms: N2_6  and  C5_7 
REMARK    3  A    between atoms: C6_10  and  C7_11 
REMARK    4  A    between atoms: C7_11  and  O1_12 
REMARK    5  A    between atoms: C7_11  and  N4_14 
REMARK    6  A    between atoms: N4_14  and  C8_15 
REMARK    7  A    between atoms: C9_18  and  C10_19 
REMARK    8  A    between atoms: C10_19  and  O2_20 
REMARK    9  A    between atoms: C10_19  and  N6_22 
REMARK   10  A    between atoms: N6_22  and  C11_24 
REMARK   11  A    between atoms: C13_34  and  C14_35 
REMARK   12  A    between atoms: C14_35  and  O4_37 
REMARK   13  A    between atoms: C16_39  and  N11_40 
REMARK   14  A    between atoms: C17_45  and  N13_46 
REMARK   15  A    between atoms: N13_46  and  N14_48 
REMARK   16  A    between atoms: N14_48  and  S1_50 
REMARK   17  A    between atoms: S1_50  and  N15_51 
ROOT
HETATM    1  C7  UNL     1       0.519  -0.940   1.300  1.00  0.00     0.261 C 
ENDROOT
BRANCH   1   2
HETATM    2  C6  UNL     1      -0.616  -0.171   0.794  1.00  0.00     0.175 A 
HETATM    3  N3  UNL     1      -1.788  -0.861   0.642  1.00  0.00    -0.323 N 
HETATM    4  C5  UNL     1      -2.957  -0.280   0.296  1.00  0.00     0.134 A 
ATOM      5  H3  UNL     1      -1.778  -1.869   0.799  1.00  0.00     0.169 HD
HETATM    6  C19 UNL     1      -2.944   1.074   0.090  1.00  0.00     0.135 A 
HETATM    7  C17 UNL     1      -1.789   1.824   0.232  1.00  0.00     0.152 A 
HETATM    8  N16 UNL     1      -4.138   1.732  -0.295  1.00  0.00    -0.094 NA
HETATM    9  N12 UNL     1      -0.654   1.151   0.582  1.00  0.00    -0.321 N 
ATOM     10  H12 UNL     1       0.210   1.683   0.688  1.00  0.00     0.169 HD
BRANCH   4  11
HETATM   11  N2  UNL     1      -4.153  -1.046   0.153  1.00  0.00    -0.356 N 
HETATM   12  C4  UNL     1      -4.699  -1.263  -1.132  1.00  0.00     0.169 C 
HETATM   13  C3  UNL     1      -5.961  -2.050  -1.188  1.00  0.00     0.083 C 
HETATM   14  N1  UNL     1      -6.410  -2.582   0.022  1.00  0.00    -0.371 N 
HETATM   15  C21 UNL     1      -6.202  -1.864   1.209  1.00  0.00     0.083 C 
HETATM   16  C20 UNL     1      -4.726  -1.533   1.375  1.00  0.00     0.169 C 
BRANCH  14  17
HETATM   17  C2  UNL     1      -7.524  -3.426   0.026  1.00  0.00     0.122 C 
HETATM   18  C1  UNL     1      -7.209  -4.775  -0.633  1.00  0.00     0.027 C 
ENDBRANCH  14  17
ENDBRANCH   4  11
BRANCH   7  19
HETATM   19  N13 UNL     1      -1.816   3.262   0.108  1.00  0.00    -0.269 N 
HETATM   20  C18 UNL     1      -0.582   3.948  -0.095  1.00  0.00     0.180 C 
BRANCH  19  21
HETATM   21  N14 UNL     1      -3.030   3.886   0.228  1.00  0.00    -0.207 N 
ATOM     22  H14 UNL     1      -3.890   3.356   0.373  1.00  0.00     0.202 HD
BRANCH  21  23
HETATM   23  S1  UNL     1      -3.039   5.592   0.124  1.00  0.00     0.330 S 
HETATM   24  O7  UNL     1      -4.479   6.053   0.459  1.00  0.00    -0.181 OA
HETATM   25  O8  UNL     1      -2.199   6.277   1.154  1.00  0.00    -0.181 OA
BRANCH  23  26
HETATM   26  N15 UNL     1      -2.750   6.188  -1.462  1.00  0.00    -0.310 N 
ATOM     27 2H15 UNL     1      -2.590   5.568  -2.256  1.00  0.00     0.170 HD
ATOM     28 1H15 UNL     1      -2.755   7.206  -1.524  1.00  0.00     0.170 HD
ENDBRANCH  23  26
ENDBRANCH  21  23
ENDBRANCH  19  21
ENDBRANCH   7  19
ENDBRANCH   1   2
BRANCH   1  29
HETATM   29  O1  UNL     1       0.073  -1.979   1.999  1.00  0.00    -0.333 OA
ATOM     30  H1  UNL     1       0.811  -2.479   2.328  1.00  0.00     0.220 HD
ENDBRANCH   1  29
BRANCH   1  31
HETATM   31  N4  UNL     1       1.806  -0.714   1.149  1.00  0.00    -0.356 NA
BRANCH  31  32
HETATM   32  C8  UNL     1       3.144  -0.480   0.993  1.00  0.00     0.216 A 
HETATM   33  N5  UNL     1       4.131  -0.989   1.795  1.00  0.00    -0.329 N 
HETATM   34  C9  UNL     1       5.437  -0.766   1.645  1.00  0.00     0.062 A 
ATOM     35  H5  UNL     1       3.844  -1.587   2.570  1.00  0.00     0.168 HD
HETATM   36  C12 UNL     1       5.865   0.029   0.619  1.00  0.00     0.050 A 
HETATM   37  C13 UNL     1       4.946   0.609  -0.272  1.00  0.00     0.079 A 
HETATM   38  C16 UNL     1       3.634   0.334  -0.050  1.00  0.00     0.177 A 
BRANCH  34  39
HETATM   39  C10 UNL     1       6.425  -1.389   2.596  1.00  0.00     0.285 C 
BRANCH  39  40
HETATM   40  O2  UNL     1       6.045  -2.722   2.858  1.00  0.00    -0.370 OA
ATOM     41  H2  UNL     1       6.668  -3.115   3.458  1.00  0.00     0.212 HD
ENDBRANCH  39  40
BRANCH  39  42
HETATM   42  N6  UNL     1       7.694  -1.436   1.937  1.00  0.00    -0.191 N 
ATOM     43  H6  UNL     1       8.402  -0.776   2.258  1.00  0.00     0.180 HD
BRANCH  42  44
HETATM   44  C11 UNL     1       8.029  -2.221   0.988  1.00  0.00     0.712 A 
HETATM   45  N7  UNL     1       9.253  -2.228   0.394  1.00  0.00    -0.115 N 
HETATM   46  N8  UNL     1       9.264  -3.149  -0.531  1.00  0.00    -0.213 N 
ATOM     47  H7  UNL     1      10.033  -1.615   0.632  1.00  0.00     0.207 HD
HETATM   48  N9  UNL     1       8.093  -3.727  -0.545  1.00  0.00    -0.213 N 
ATOM     49  H8  UNL     1      10.051  -3.378  -1.138  1.00  0.00     0.210 HD
HETATM   50  N10 UNL     1       7.324  -3.179   0.372  1.00  0.00    -0.115 N 
ATOM     51  H9  UNL     1       7.817  -4.485  -1.169  1.00  0.00     0.210 HD
ATOM     52  H10 UNL     1       6.359  -3.439   0.578  1.00  0.00     0.207 HD
ENDBRANCH  42  44
ENDBRANCH  39  42
ENDBRANCH  34  39
BRANCH  37  53
HETATM   53  C14 UNL     1       5.422   1.428  -1.364  1.00  0.00     0.295 C 
HETATM   54  O3  UNL     1       4.723   1.956  -2.233  1.00  0.00    -0.259 OA
BRANCH  53  55
HETATM   55  O4  UNL     1       6.810   1.660  -1.472  1.00  0.00    -0.322 OA
HETATM   56  C15 UNL     1       7.376   2.450  -2.493  1.00  0.00     0.213 C 
ENDBRANCH  53  55
ENDBRANCH  37  53
BRANCH  38  57
HETATM   57  N11 UNL     1       2.668   0.871  -0.917  1.00  0.00    -0.110 N 
HETATM   58  O5  UNL     1       2.080   0.099  -1.736  1.00  0.00    -0.532 OA
HETATM   59  O6  UNL     1       2.304   2.170  -0.963  1.00  0.00    -0.532 OA
ENDBRANCH  38  57
ENDBRANCH  31  32
ENDBRANCH   1  31
TORSDOF 17
