REMARK  13 active torsions:
REMARK  status: ('A' for Active; 'I' for Inactive)
REMARK    1  A    between atoms: C2_2  and  C3_3 
REMARK    2  A    between atoms: C2_2  and  N11_46 
REMARK    3  A    between atoms: C3_3  and  N4_14 
REMARK    4  A    between atoms: C4_4  and  C5_5 
REMARK    5  A    between atoms: N7_19  and  C7_20 
REMARK    6  A    between atoms: C7_20  and  C8_21 
REMARK    7  A    between atoms: C7_20  and  C9_24 
REMARK       I    between atoms: C9_24  and  N8_26 
REMARK    8  A    between atoms: N8_26  and  C10_28 
REMARK    9  A    between atoms: C10_28  and  C11_29 
REMARK   10  A    between atoms: C11_29  and  N9_30 
REMARK   11  A    between atoms: C11_29  and  C12_34 
REMARK   12  A    between atoms: C14_38  and  S1_39 
REMARK   13  A    between atoms: C20_53  and  O10_54 
ROOT
HETATM    1  N4  UNL     1      -1.536  -0.622  -1.853  1.00  0.00    -0.190 N 
HETATM    2  N5  UNL     1      -1.460   0.692  -2.118  1.00  0.00    -0.217 N 
ATOM      3  H5  UNL     1      -2.170   1.380  -1.866  1.00  0.00     0.210 HD
HETATM    4  N6  UNL     1      -0.339   0.965  -2.750  1.00  0.00    -0.220 N 
ATOM      5  H6  UNL     1      -0.048   1.892  -3.061  1.00  0.00     0.210 HD
HETATM    6  N7  UNL     1       0.349  -0.144  -2.919  1.00  0.00    -0.201 N 
HETATM    7  C15 UNL     1      -0.414  -1.128  -2.352  1.00  0.00     0.366 A 
HETATM    8  O8  UNL     1      -0.021  -2.327  -2.351  1.00  0.00    -0.243 OA
ENDROOT
BRANCH   6   9
HETATM    9  C7  UNL     1       1.654  -0.301  -3.571  1.00  0.00     0.306 C 
BRANCH   9  10
HETATM   10  C8  UNL     1       1.577   0.448  -4.832  1.00  0.00     0.208 C 
HETATM   11  O2  UNL     1       2.351   1.393  -5.061  1.00  0.00    -0.646 OA
HETATM   12  O3  UNL     1       0.635   0.104  -5.781  1.00  0.00    -0.646 OA
ENDBRANCH   9  10
BRANCH   9  13
HETATM   13  C9  UNL     1       2.701   0.226  -2.676  1.00  0.00     0.253 C 
HETATM   14  O4  UNL     1       3.429   1.217  -3.007  1.00  0.00    -0.271 OA
HETATM   15  N8  UNL     1       2.928  -0.362  -1.405  1.00  0.00    -0.356 N 
ATOM     16  H8  UNL     1       2.367  -1.158  -1.102  1.00  0.00     0.162 HD
BRANCH  15  17
HETATM   17  C10 UNL     1       3.957   0.171  -0.540  1.00  0.00     0.162 C 
BRANCH  17  18
HETATM   18  C11 UNL     1       4.042  -0.596   0.761  1.00  0.00     0.257 C 
BRANCH  18  19
HETATM   19  N9  UNL     1       4.349  -1.976   0.532  1.00  0.00    -0.068 N 
ATOM     20  H93 UNL     1       3.686  -2.405  -0.113  1.00  0.00     0.275 HD
ATOM     21  H92 UNL     1       5.198  -2.084  -0.022  1.00  0.00     0.275 HD
ATOM     22  H91 UNL     1       4.406  -2.493   1.409  1.00  0.00     0.275 HD
ENDBRANCH  18  19
BRANCH  18  23
HETATM   23  C12 UNL     1       5.113   0.080   1.580  1.00  0.00     0.084 A 
HETATM   24  N10 UNL     1       6.429   0.015   1.436  1.00  0.00    -0.360 N 
HETATM   25  C13 UNL     1       7.197   0.668   2.243  1.00  0.00     0.122 A 
ATOM     26  H10 UNL     1       6.834  -0.550   0.689  1.00  0.00     0.165 HD
HETATM   27  C14 UNL     1       6.606   1.412   3.230  1.00  0.00     0.138 A 
HETATM   28  S2  UNL     1       4.948   1.122   2.931  1.00  0.00    -0.059 SA
BRANCH  27  29
HETATM   29  S1  UNL     1       7.389   2.400   4.469  1.00  0.00     0.146 S 
HETATM   30  O5  UNL     1       8.849   2.346   4.230  1.00  0.00    -0.591 OA
HETATM   31  O6  UNL     1       7.027   1.855   5.829  1.00  0.00    -0.591 OA
HETATM   32  O7  UNL     1       6.898   3.998   4.322  1.00  0.00    -0.591 OA
ENDBRANCH  27  29
ENDBRANCH  18  23
ENDBRANCH  17  18
ENDBRANCH  15  17
ENDBRANCH   9  13
ENDBRANCH   6   9
BRANCH   1  33
HETATM   33  C3  UNL     1      -2.643  -1.248  -1.154  1.00  0.00     0.067 C 
HETATM   34  C4  UNL     1      -2.670  -2.546  -1.020  1.00  0.00     0.079 C 
BRANCH  33  35
HETATM   35  C2  UNL     1      -3.722  -0.408  -0.602  1.00  0.00     0.138 C 
HETATM   36  C1  UNL     1      -4.241   0.567  -1.666  1.00  0.00     0.039 C 
BRANCH  35  37
HETATM   37  N11 UNL     1      -3.363   0.380   0.538  1.00  0.00    -0.312 N 
HETATM   38  C16 UNL     1      -3.913   0.485   1.842  1.00  0.00     0.245 C 
HETATM   39  O9  UNL     1      -4.616  -0.245   2.565  1.00  0.00    -0.271 OA
HETATM   40  C17 UNL     1      -3.324   1.789   1.989  1.00  0.00     0.133 C 
HETATM   41  C18 UNL     1      -4.161   2.994   1.733  1.00  0.00     0.045 C 
HETATM   42  S3  UNL     1      -2.723   2.345   3.545  1.00  0.00    -0.145 SA
HETATM   43  C20 UNL     1      -2.366   1.382   0.916  1.00  0.00     0.251 C 
HETATM   44  C19 UNL     1      -4.310   3.161   3.245  1.00  0.00     0.077 C 
BRANCH  43  45
HETATM   45  O10 UNL     1      -1.175   0.912   1.399  1.00  0.00    -0.374 OA
ATOM     46  H10 UNL     1      -0.528   1.563   1.644  1.00  0.00     0.212 HD
ENDBRANCH  43  45
ENDBRANCH  35  37
ENDBRANCH  33  35
BRANCH  34  47
HETATM   47  C5  UNL     1      -3.704  -3.288  -0.349  1.00  0.00     0.125 A 
HETATM   48  N1  UNL     1      -4.330  -3.180   0.812  1.00  0.00    -0.281 N 
HETATM   49  N2  UNL     1      -5.233  -4.102   0.995  1.00  0.00    -0.250 N 
ATOM     50  H1  UNL     1      -4.127  -2.450   1.494  1.00  0.00     0.188 HD
HETATM   51  C6  UNL     1      -5.198  -4.862  -0.111  1.00  0.00     0.340 A 
ATOM     52  H2  UNL     1      -5.838  -4.221   1.807  1.00  0.00     0.192 HD
HETATM   53  O1  UNL     1      -5.916  -5.883  -0.362  1.00  0.00    -0.245 OA
HETATM   54  N3  UNL     1      -4.278  -4.389  -0.942  1.00  0.00    -0.292 N 
ATOM     55  H3  UNL     1      -4.039  -4.773  -1.856  1.00  0.00     0.172 HD
ENDBRANCH  34  47
ENDBRANCH   1  33
TORSDOF 13
