REMARK  17 active torsions:
REMARK  status: ('A' for Active; 'I' for Inactive)
REMARK    1  A    between atoms: O1_2  and  C2_3 
REMARK    2  A    between atoms: C3_6  and  N2_7 
REMARK    3  A    between atoms: N2_7  and  S1_9 
REMARK    4  A    between atoms: S1_9  and  O4_12 
REMARK    5  A    between atoms: O4_12  and  C4_13 
REMARK    6  A    between atoms: C4_13  and  C5_14 
REMARK    7  A    between atoms: C5_14  and  C6_15 
REMARK    8  A    between atoms: C6_15  and  N3_16 
REMARK    9  A    between atoms: N3_16  and  N4_18 
REMARK   10  A    between atoms: N4_18  and  N5_19 
REMARK   11  A    between atoms: C7_23  and  N6_24 
REMARK   12  A    between atoms: C11_32  and  N9_33 
REMARK   13  A    between atoms: C14_41  and  O8_42 
REMARK   14  A    between atoms: C15_44  and  O9_45 
REMARK   15  A    between atoms: C17_48  and  S2_49 
REMARK   16  A    between atoms: S2_49  and  C18_50 
REMARK   17  A    between atoms: C18_50  and  C19_51 
ROOT
HETATM    1  C5  UNL     1      -1.928   0.544  -0.360  1.00  0.00     0.133 C 
HETATM    2  O5  UNL     1      -3.040  -0.108  -0.758  1.00  0.00    -0.346 OA
HETATM    3  C7  UNL     1      -3.734  -0.695   0.160  1.00  0.00     0.265 C 
HETATM    4  C14 UNL     1      -3.165  -0.153   1.470  1.00  0.00     0.199 C 
HETATM    5  C15 UNL     1      -2.286   0.999   1.023  1.00  0.00     0.189 C 
ENDROOT
BRANCH   1   6
HETATM    6  C4  UNL     1      -0.667  -0.287  -0.284  1.00  0.00     0.234 C 
BRANCH   6   7
HETATM    7  O4  UNL     1       0.417   0.479   0.136  1.00  0.00    -0.256 OA
BRANCH   7   8
HETATM    8  S1  UNL     1       1.824  -0.378   0.238  1.00  0.00     0.363 S 
HETATM    9  O2  UNL     1       1.825  -1.336   1.398  1.00  0.00    -0.175 OA
HETATM   10  O3  UNL     1       2.106  -1.119  -1.061  1.00  0.00    -0.175 OA
BRANCH   8  11
HETATM   11  N2  UNL     1       3.131   0.726   0.461  1.00  0.00    -0.247 N 
ATOM     12  H2  UNL     1       2.957   1.707   0.681  1.00  0.00     0.182 HD
BRANCH  11  13
HETATM   13  C3  UNL     1       4.331   0.278   0.342  1.00  0.00     0.122 A 
HETATM   14  N1  UNL     1       4.576  -1.009   0.054  1.00  0.00    -0.307 N 
HETATM   15  C2  UNL     1       5.812  -1.512  -0.078  1.00  0.00     0.225 A 
ATOM     16  H1  UNL     1       3.782  -1.637  -0.071  1.00  0.00     0.171 HD
HETATM   17  N15 UNL     1       6.843  -0.695   0.086  1.00  0.00    -0.316 N 
HETATM   18  C17 UNL     1       6.731   0.621   0.378  1.00  0.00     0.076 A 
ATOM     19  H15 UNL     1       7.781  -1.084  -0.014  1.00  0.00     0.170 HD
HETATM   20  C16 UNL     1       5.431   1.099   0.505  1.00  0.00     0.086 A 
BRANCH  15  21
HETATM   21  O1  UNL     1       5.982  -2.840  -0.374  1.00  0.00    -0.327 OA
HETATM   22  C1  UNL     1       4.846  -3.665  -0.537  1.00  0.00     0.213 C 
ENDBRANCH  15  21
BRANCH  18  23
HETATM   23  S2  UNL     1       8.150   1.683   0.590  1.00  0.00    -0.104 SA
BRANCH  23  24
HETATM   24  C18 UNL     1       9.635   0.699   0.348  1.00  0.00     0.160 C 
BRANCH  24  25
HETATM   25  C19 UNL     1      10.871   1.508   0.507  1.00  0.00     0.122 A 
HETATM   26  N11 UNL     1      11.464   2.154  -0.508  1.00  0.00    -0.272 N 
HETATM   27  N12 UNL     1      12.529   2.777  -0.062  1.00  0.00    -0.227 N 
ATOM     28  H11 UNL     1      11.138   2.160  -1.475  1.00  0.00     0.190 HD
HETATM   29  N13 UNL     1      12.606   2.524   1.231  1.00  0.00    -0.227 N 
ATOM     30  H12 UNL     1      13.174   3.347  -0.609  1.00  0.00     0.210 HD
HETATM   31  N14 UNL     1      11.600   1.749   1.595  1.00  0.00    -0.272 N 
ATOM     32  H13 UNL     1      13.333   2.874   1.855  1.00  0.00     0.210 HD
ATOM     33  H14 UNL     1      11.416   1.400   2.535  1.00  0.00     0.190 HD
ENDBRANCH  24  25
ENDBRANCH  23  24
ENDBRANCH  18  23
ENDBRANCH  11  13
ENDBRANCH   8  11
ENDBRANCH   7   8
ENDBRANCH   6   7
ENDBRANCH   1   6
BRANCH   1  34
HETATM   34  C6  UNL     1      -1.621   1.685  -1.296  1.00  0.00     0.198 C 
BRANCH  34  35
HETATM   35  N3  UNL     1      -2.622   2.688  -1.395  1.00  0.00    -0.250 N 
ATOM     36  H3  UNL     1      -3.136   2.926  -0.547  1.00  0.00     0.197 HD
BRANCH  35  37
HETATM   37  N4  UNL     1      -2.917   3.293  -2.429  1.00  0.00    -0.248 NA
BRANCH  37  38
HETATM   38  N5  UNL     1      -3.314   3.500  -3.580  1.00  0.00    -0.261 N 
ATOM     39  H52 UNL     1      -3.540   2.531  -3.805  1.00  0.00     0.193 HD
ATOM     40  H51 UNL     1      -3.558   4.000  -4.435  1.00  0.00     0.193 HD
ENDBRANCH  37  38
ENDBRANCH  35  37
ENDBRANCH  34  35
ENDBRANCH   1  34
BRANCH   5  41
HETATM   41  O9  UNL     1      -3.080   2.143   1.022  1.00  0.00    -0.390 OA
ATOM     42  H9  UNL     1      -3.307   2.431   1.898  1.00  0.00     0.210 HD
ENDBRANCH   5  41
BRANCH   3  43
HETATM   43  N6  UNL     1      -5.133  -0.740   0.284  1.00  0.00    -0.261 N 
HETATM   44  C8  UNL     1      -5.729  -1.238   1.389  1.00  0.00     0.333 A 
HETATM   45  O6  UNL     1      -5.214  -1.730   2.450  1.00  0.00    -0.246 OA
HETATM   46  N7  UNL     1      -7.056  -1.169   1.268  1.00  0.00    -0.287 N 
HETATM   47  C9  UNL     1      -8.050  -1.611   2.260  1.00  0.00     0.163 C 
HETATM   48  C10 UNL     1      -7.372  -0.633   0.099  1.00  0.00     0.159 A 
HETATM   49  N8  UNL     1      -8.535  -0.364  -0.474  1.00  0.00    -0.174 N 
HETATM   50  C13 UNL     1      -6.147  -0.366  -0.514  1.00  0.00     0.155 A 
HETATM   51  C11 UNL     1      -8.510   0.192  -1.706  1.00  0.00     0.680 A 
ATOM     52  H8  UNL     1      -9.417  -0.569  -0.004  1.00  0.00     0.186 HD
HETATM   53  N10 UNL     1      -7.349   0.466  -2.334  1.00  0.00    -0.154 N 
HETATM   54  C12 UNL     1      -6.168   0.188  -1.742  1.00  0.00     0.290 A 
ATOM     55  H10 UNL     1      -7.363   0.886  -3.263  1.00  0.00     0.187 HD
HETATM   56  O7  UNL     1      -5.148   0.452  -2.350  1.00  0.00    -0.265 OA
BRANCH  51  57
HETATM   57  N9  UNL     1      -9.656   0.451  -2.256  1.00  0.00    -0.234 N 
ATOM     58  H92 UNL     1     -10.534   0.244  -1.781  1.00  0.00     0.174 HD
ATOM     59  H91 UNL     1      -9.637   0.871  -3.186  1.00  0.00     0.174 HD
ENDBRANCH  51  57
ENDBRANCH   3  43
BRANCH   4  60
HETATM   60  O8  UNL     1      -2.449  -1.105   2.172  1.00  0.00    -0.388 OA
ATOM     61  H8  UNL     1      -2.095  -0.768   2.987  1.00  0.00     0.210 HD
ENDBRANCH   4  60
TORSDOF 17
