REMARK  16 active torsions:
REMARK  status: ('A' for Active; 'I' for Inactive)
REMARK    1  A    between atoms: C2_2  and  C5_5 
REMARK    2  A    between atoms: C8_8  and  N1_9 
REMARK       I    between atoms: N2_12  and  C11_13 
REMARK    3  A    between atoms: C11_13  and  C12_15 
REMARK    4  A    between atoms: C12_15  and  C13_16 
REMARK    5  A    between atoms: C13_16  and  C14_17 
REMARK    6  A    between atoms: C14_17  and  O3_19 
REMARK    7  A    between atoms: O3_19  and  C15_20 
REMARK    8  A    between atoms: C15_20  and  C16_21 
REMARK    9  A    between atoms: C16_21  and  C17_23 
REMARK   10  A    between atoms: C17_23  and  C18_24 
REMARK   11  A    between atoms: C17_23  and  N3_29 
REMARK   12  A    between atoms: C18_24  and  C19_25 
REMARK   13  A    between atoms: C19_25  and  C20_26 
REMARK   14  A    between atoms: N3_29  and  C21_31 
REMARK   15  A    between atoms: C21_31  and  C22_36 
REMARK   16  A    between atoms: N4_32  and  O7_34 
ROOT
HETATM    1  C14 UNL     1      -2.399   1.730  -0.893  1.00  0.00     0.259 C 
HETATM    2  O2  UNL     1      -2.428   1.484  -2.119  1.00  0.00    -0.265 OA
ENDROOT
BRANCH   1   3
HETATM    3  C13 UNL     1      -1.414   2.600  -0.257  1.00  0.00     0.120 C 
BRANCH   3   4
HETATM    4  C12 UNL     1      -0.194   1.911   0.273  1.00  0.00     0.112 C 
BRANCH   4   5
HETATM    5  C11 UNL     1       0.610   1.231  -0.735  1.00  0.00     0.220 C 
HETATM    6  N2  UNL     1       1.751   0.511  -0.306  1.00  0.00    -0.349 N 
HETATM    7  C10 UNL     1       2.170   0.418   1.090  1.00  0.00     0.145 C 
HETATM    8  C27 UNL     1       2.548  -0.166  -1.341  1.00  0.00     0.145 C 
HETATM    9  C9  UNL     1       3.656   0.445   1.268  1.00  0.00     0.142 C 
HETATM   10  N1  UNL     1       4.431   0.239   0.078  1.00  0.00    -0.381 N 
HETATM   11  C28 UNL     1       3.922   0.462  -1.220  1.00  0.00     0.142 C 
HETATM   12  O1  UNL     1       0.330   1.263  -1.940  1.00  0.00    -0.273 OA
BRANCH  10  13
HETATM   13  C8  UNL     1       5.786  -0.206   0.215  1.00  0.00     0.003 C 
HETATM   14  C7  UNL     1       6.263  -1.249  -0.443  1.00  0.00    -0.002 C 
HETATM   15  C6  UNL     1       7.714  -1.568  -0.172  1.00  0.00     0.034 C 
HETATM   16  C5  UNL     1       8.446  -0.274  -0.550  1.00  0.00    -0.003 C 
HETATM   17  C30 UNL     1       7.979   0.846   0.327  1.00  0.00     0.011 C 
HETATM   18  C29 UNL     1       6.740   0.501   1.125  1.00  0.00     0.057 C 
BRANCH  16  19
HETATM   19  C2  UNL     1       9.938  -0.456  -0.565  1.00  0.00    -0.048 C 
HETATM   20  C1  UNL     1      10.431  -0.878   0.779  1.00  0.00     0.015 C 
HETATM   21  C3  UNL     1      10.261  -1.498  -1.605  1.00  0.00     0.015 C 
HETATM   22  C4  UNL     1      10.547   0.855  -1.024  1.00  0.00     0.015 C 
ENDBRANCH  16  19
ENDBRANCH  10  13
ENDBRANCH   4   5
ENDBRANCH   3   4
ENDBRANCH   1   3
BRANCH   1  23
HETATM   23  O3  UNL     1      -3.400   1.105  -0.126  1.00  0.00    -0.314 OA
BRANCH  23  24
HETATM   24  C15 UNL     1      -4.343   0.268  -0.763  1.00  0.00     0.259 C 
BRANCH  24  25
HETATM   25  C16 UNL     1      -5.337  -0.291   0.213  1.00  0.00     0.173 C 
HETATM   26  O4  UNL     1      -5.278  -0.005   1.398  1.00  0.00    -0.293 OA
BRANCH  25  27
HETATM   27  C17 UNL     1      -6.378  -1.173  -0.300  1.00  0.00     0.155 C 
BRANCH  27  28
HETATM   28  C18 UNL     1      -6.068  -2.579  -0.655  1.00  0.00     0.043 C 
BRANCH  28  29
HETATM   29  C19 UNL     1      -5.618  -3.549   0.333  1.00  0.00     0.116 C 
BRANCH  29  30
HETATM   30  C20 UNL     1      -4.341  -3.398   0.994  1.00  0.00     0.172 C 
HETATM   31  O5  UNL     1      -3.397  -2.642   0.709  1.00  0.00    -0.648 OA
HETATM   32  O6  UNL     1      -4.116  -4.235   2.149  1.00  0.00    -0.648 OA
ENDBRANCH  29  30
ENDBRANCH  28  29
ENDBRANCH  27  28
BRANCH  27  33
HETATM   33  N3  UNL     1      -7.417  -1.192   0.782  1.00  0.00    -0.366 N 
ATOM     34  H3  UNL     1      -7.668  -2.077   1.222  1.00  0.00     0.161 HD
BRANCH  33  35
HETATM   35  C21 UNL     1      -8.054  -0.001   1.201  1.00  0.00     0.102 C 
HETATM   36  N4  UNL     1      -8.461   0.100   2.444  1.00  0.00    -0.257 N 
ATOM     37  H4  UNL     1      -8.922   0.953   2.762  1.00  0.00     0.195 HD
BRANCH  36  38
HETATM   38  O7  UNL     1      -8.267  -0.941   3.315  1.00  0.00    -0.288 OA
ATOM     39  H7  UNL     1      -8.562  -0.868   4.215  1.00  0.00     0.244 HD
ENDBRANCH  36  38
BRANCH  35  40
HETATM   40  C22 UNL     1      -8.259   1.119   0.248  1.00  0.00     0.055 C 
HETATM   41  C23 UNL     1      -8.960   2.266   0.949  1.00  0.00     0.012 C 
HETATM   42  C24 UNL     1      -9.788   2.861  -0.164  1.00  0.00     0.001 C 
HETATM   43  C25 UNL     1     -10.384   1.625  -0.800  1.00  0.00     0.001 C 
HETATM   44  C26 UNL     1      -9.183   0.698  -0.861  1.00  0.00     0.012 C 
ENDBRANCH  35  40
ENDBRANCH  33  35
ENDBRANCH  27  33
ENDBRANCH  25  27
ENDBRANCH  24  25
ENDBRANCH  23  24
ENDBRANCH   1  23
TORSDOF 16
