REMARK  13 active torsions:
REMARK  status: ('A' for Active; 'I' for Inactive)
REMARK    1  A    between atoms: C3_3  and  C4_4 
REMARK    2  A    between atoms: N4_11  and  C5_12 
REMARK    3  A    between atoms: C5_12  and  C6_13 
REMARK    4  A    between atoms: C6_13  and  C7_14 
REMARK    5  A    between atoms: C7_14  and  C8_15 
REMARK    6  A    between atoms: C8_15  and  C9_16 
REMARK    7  A    between atoms: C9_16  and  C10_17 
REMARK    8  A    between atoms: C10_17  and  C11_18 
REMARK    9  A    between atoms: C11_18  and  C12_19 
REMARK   10  A    between atoms: C12_19  and  C13_20 
REMARK       I    between atoms: N7_26  and  C15_28 
REMARK   11  A    between atoms: C15_28  and  C16_30 
REMARK   12  A    between atoms: C24_38  and  C25_39 
REMARK       I    between atoms: C25_39  and  N8_41 
REMARK   13  A    between atoms: N8_41  and  C26_43 
ROOT
HETATM    1  C13 UNL     1       1.072   1.590   1.376  1.00  0.00     0.069 A 
HETATM    2  N5  UNL     1       0.206   1.929   0.414  1.00  0.00    -0.296 N 
ATOM      3  H5  UNL     1       0.181   2.888   0.066  1.00  0.00     0.187 HD
HETATM    4  N6  UNL     1      -0.577   1.068  -0.062  1.00  0.00    -0.279 N 
ATOM      5  H6  UNL     1      -1.238   1.326  -0.795  1.00  0.00     0.189 HD
HETATM    6  C14 UNL     1      -0.540  -0.186   0.396  1.00  0.00     0.168 A 
HETATM    7  N7  UNL     1      -1.282  -1.204   0.018  1.00  0.00    -0.302 N 
ATOM      8  H7  UNL     1      -1.153  -2.119   0.449  1.00  0.00     0.171 HD
HETATM    9  C15 UNL     1      -2.257  -1.025  -0.986  1.00  0.00     0.257 C 
HETATM   10  O2  UNL     1      -1.911  -0.840  -2.198  1.00  0.00    -0.267 OA
HETATM   11  S1  UNL     1       0.694  -0.069   1.564  1.00  0.00    -0.038 SA
ENDROOT
BRANCH   9  12
HETATM   12  C16 UNL     1      -3.666  -1.055  -0.618  1.00  0.00     0.033 A 
HETATM   13  C17 UNL     1      -4.671  -0.876  -1.545  1.00  0.00     0.017 A 
HETATM   14  C18 UNL     1      -6.004  -0.910  -1.168  1.00  0.00     0.009 A 
HETATM   15  C19 UNL     1      -6.312  -1.127   0.158  1.00  0.00    -0.039 A 
HETATM   16  C20 UNL     1      -5.309  -1.304   1.079  1.00  0.00    -0.050 A 
HETATM   17  C24 UNL     1      -7.600  -1.224   0.893  1.00  0.00     0.111 C 
HETATM   18  C21 UNL     1      -3.993  -1.270   0.697  1.00  0.00     0.024 A 
HETATM   19  C22 UNL     1      -5.907  -1.516   2.452  1.00  0.00     0.040 C 
HETATM   20  C23 UNL     1      -7.198  -0.699   2.271  1.00  0.00     0.023 C 
BRANCH  17  21
HETATM   21  C25 UNL     1      -8.710  -0.485   0.318  1.00  0.00     0.226 C 
HETATM   22  O3  UNL     1      -9.178   0.486   0.980  1.00  0.00    -0.273 OA
HETATM   23  N8  UNL     1      -9.311  -0.766  -0.921  1.00  0.00    -0.352 N 
ATOM     24  H8  UNL     1      -8.953  -1.547  -1.470  1.00  0.00     0.163 HD
BRANCH  23  25
HETATM   25  C26 UNL     1     -10.421   0.007  -1.455  1.00  0.00     0.022 C 
HETATM   26  C27 UNL     1     -11.549  -0.109  -0.454  1.00  0.00     0.037 C 
HETATM   27  C28 UNL     1     -10.074   1.472  -1.600  1.00  0.00     0.037 C 
HETATM   28  C29 UNL     1     -10.921  -0.573  -2.759  1.00  0.00     0.037 C 
ENDBRANCH  23  25
ENDBRANCH  17  21
ENDBRANCH   9  12
BRANCH   1  29
HETATM   29  C12 UNL     1       1.979   2.531   2.066  1.00  0.00     0.066 C 
BRANCH  29  30
HETATM   30  C11 UNL     1       3.139   1.998   2.775  1.00  0.00     0.006 C 
BRANCH  30  31
HETATM   31  C10 UNL     1       4.285   1.416   2.060  1.00  0.00     0.000 C 
BRANCH  31  32
HETATM   32  C9  UNL     1       4.052   0.262   1.189  1.00  0.00     0.000 C 
BRANCH  32  33
HETATM   33  C8  UNL     1       5.357  -0.245   0.540  1.00  0.00     0.000 C 
BRANCH  33  34
HETATM   34  C7  UNL     1       6.026   0.769  -0.308  1.00  0.00     0.002 C 
BRANCH  34  35
HETATM   35  C6  UNL     1       7.274   0.183  -0.915  1.00  0.00     0.022 C 
BRANCH  35  36
HETATM   36  C5  UNL     1       8.225  -0.237   0.174  1.00  0.00     0.150 C 
BRANCH  36  37
HETATM   37  N4  UNL     1       9.424  -0.779  -0.450  1.00  0.00    -0.280 N 
HETATM   38  C2  UNL     1      10.523  -0.089  -0.794  1.00  0.00     0.059 A 
HETATM   39  C1  UNL     1      10.721   1.369  -0.600  1.00  0.00     0.072 C 
HETATM   40  C3  UNL     1      11.389  -0.986  -1.343  1.00  0.00     0.138 A 
HETATM   41  N2  UNL     1      10.785  -2.187  -1.312  1.00  0.00    -0.280 N 
HETATM   42  N3  UNL     1       9.588  -2.048  -0.765  1.00  0.00    -0.240 N 
ATOM     43  H2  UNL     1      11.184  -3.061  -1.654  1.00  0.00     0.189 HD
ATOM     44  H3  UNL     1       8.909  -2.794  -0.613  1.00  0.00     0.208 HD
BRANCH  40  45
HETATM   45  C4  UNL     1      12.704  -0.717  -1.862  1.00  0.00     0.284 C 
HETATM   46  N1  UNL     1      13.500  -1.759  -2.407  1.00  0.00    -0.056 NA
HETATM   47  O1  UNL     1      13.189   0.454  -1.847  1.00  0.00    -0.269 OA
ENDBRANCH  40  45
ENDBRANCH  36  37
ENDBRANCH  35  36
ENDBRANCH  34  35
ENDBRANCH  33  34
ENDBRANCH  32  33
ENDBRANCH  31  32
ENDBRANCH  30  31
ENDBRANCH  29  30
ENDBRANCH   1  29
TORSDOF 13
