REMARK  13 active torsions:
REMARK  status: ('A' for Active; 'I' for Inactive)
REMARK    1  A    between atoms: N2_9  and  C6_10 
REMARK    2  A    between atoms: C6_10  and  C7_11 
REMARK    3  A    between atoms: C7_11  and  O1_12 
REMARK    4  A    between atoms: O1_12  and  N3_13 
REMARK    5  A    between atoms: N5_18  and  S1_19 
REMARK    6  A    between atoms: S1_19  and  C9_21 
REMARK    7  A    between atoms: C9_21  and  C10_22 
REMARK    8  A    between atoms: C20_32  and  C21_33 
REMARK    9  A    between atoms: C22_34  and  C23_35 
REMARK   10  A    between atoms: C22_34  and  C26_40 
REMARK   11  A    between atoms: C23_35  and  C24_36 
REMARK   12  A    between atoms: C24_36  and  C25_37 
REMARK   13  A    between atoms: C25_37  and  O3_38 
ROOT
HETATM    1  N3  UNL     1       1.217  -0.166  -0.176  1.00  0.00    -0.077 N 
HETATM    2  C8  UNL     1       0.183  -1.120   0.002  1.00  0.00     0.708 C 
HETATM    3  N4  UNL     1       0.397  -2.350   0.243  1.00  0.00    -0.232 N 
ATOM      4  H41 UNL     1      -0.347  -3.036   0.371  1.00  0.00     0.174 HD
ATOM      5  H42 UNL     1       1.304  -2.808   0.336  1.00  0.00     0.174 HD
HETATM    6  N5  UNL     1      -1.080  -0.482  -0.127  1.00  0.00    -0.126 N 
HETATM    7  C19 UNL     1      -0.782   0.920   0.172  1.00  0.00     0.190 C 
HETATM    8  C20 UNL     1       0.504   1.084  -0.591  1.00  0.00     0.176 C 
ENDROOT
BRANCH   8   9
HETATM    9  C21 UNL     1       1.281   2.250  -0.199  1.00  0.00     0.011 C 
HETATM   10  C22 UNL     1       1.490   3.423  -0.678  1.00  0.00    -0.048 C 
BRANCH  10  11
HETATM   11  C23 UNL     1       2.427   4.295   0.144  1.00  0.00     0.041 C 
BRANCH  11  12
HETATM   12  C24 UNL     1       1.753   5.495   0.708  1.00  0.00     0.030 C 
BRANCH  12  13
HETATM   13  C25 UNL     1       2.791   6.297   1.508  1.00  0.00     0.164 C 
BRANCH  13  14
HETATM   14  O3  UNL     1       3.271   5.465   2.527  1.00  0.00    -0.401 OA
ATOM     15  H3  UNL     1       3.913   5.961   3.022  1.00  0.00     0.209 HD
ENDBRANCH  13  14
ENDBRANCH  12  13
ENDBRANCH  11  12
ENDBRANCH  10  11
BRANCH  10  16
HETATM   16  C26 UNL     1       0.899   4.018  -1.841  1.00  0.00    -0.015 A 
HETATM   17  C27 UNL     1      -0.184   3.580  -2.544  1.00  0.00     0.014 A 
HETATM   18  C28 UNL     1      -0.593   4.226  -3.691  1.00  0.00     0.018 A 
HETATM   19  C29 UNL     1       0.053   5.334  -4.191  1.00  0.00     0.087 A 
HETATM   20  N6  UNL     1       1.112   5.764  -3.503  1.00  0.00    -0.374 N 
HETATM   21  C30 UNL     1       1.528   5.163  -2.397  1.00  0.00     0.099 A 
ATOM     22  H6  UNL     1       1.619   6.583  -3.839  1.00  0.00     0.164 HD
ENDBRANCH  10  16
ENDBRANCH   8   9
BRANCH   1  23
HETATM   23  O1  UNL     1       2.528  -0.177  -0.058  1.00  0.00    -0.262 OA
BRANCH  23  24
HETATM   24  C7  UNL     1       3.132  -1.324   0.368  1.00  0.00     0.232 C 
BRANCH  24  25
HETATM   25  C6  UNL     1       4.645  -1.169   0.456  1.00  0.00     0.301 C 
BRANCH  25  26
HETATM   26  N2  UNL     1       5.187  -2.420   0.913  1.00  0.00     0.098 N 
HETATM   27  C2  UNL     1       5.065  -3.494  -0.022  1.00  0.00     0.244 C 
HETATM   28  C1  UNL     1       4.072  -4.493   0.571  1.00  0.00     0.045 C 
HETATM   29  C3  UNL     1       6.377  -4.211  -0.133  1.00  0.00     0.267 C 
HETATM   30  N1  UNL     1       7.446  -3.331  -0.569  1.00  0.00    -0.071 N 
HETATM   31  C4  UNL     1       7.532  -2.151   0.271  1.00  0.00     0.262 C 
ATOM     32  H12 UNL     1       8.339  -3.822  -0.618  1.00  0.00     0.277 HD
ATOM     33  H11 UNL     1       7.349  -3.084  -1.554  1.00  0.00     0.277 HD
HETATM   34  C5  UNL     1       6.544  -2.248   1.410  1.00  0.00     0.300 C 
ENDBRANCH  25  26
ENDBRANCH  24  25
ENDBRANCH  23  24
ENDBRANCH   1  23
BRANCH   6  35
HETATM   35  S1  UNL     1      -2.653  -1.176  -0.553  1.00  0.00     0.131 S 
HETATM   36  O2  UNL     1      -2.497  -2.676  -0.226  1.00  0.00    -0.235 OA
BRANCH  35  37
HETATM   37  C9  UNL     1      -3.928  -0.491   0.443  1.00  0.00     0.143 C 
BRANCH  37  38
HETATM   38  C10 UNL     1      -5.309  -0.884   0.264  1.00  0.00    -0.021 C 
HETATM   39  C11 UNL     1      -5.903  -0.617  -1.105  1.00  0.00     0.011 C 
HETATM   40  C12 UNL     1      -7.252  -1.350  -1.052  1.00  0.00     0.006 C 
HETATM   41  C13 UNL     1      -7.307  -1.954   0.326  1.00  0.00    -0.006 C 
HETATM   42  C14 UNL     1      -7.493  -0.869   1.317  1.00  0.00     0.006 C 
HETATM   43  C16 UNL     1      -5.793  -2.250   0.535  1.00  0.00    -0.036 C 
HETATM   44  C15 UNL     1      -6.228  -0.058   1.218  1.00  0.00     0.011 C 
HETATM   45  C17 UNL     1      -5.472  -3.307  -0.482  1.00  0.00     0.016 C 
HETATM   46  C18 UNL     1      -5.545  -2.763   1.924  1.00  0.00     0.016 C 
ENDBRANCH  37  38
ENDBRANCH  35  37
ENDBRANCH   6  35
TORSDOF 13
