REMARK  12 active torsions:
REMARK  status: ('A' for Active; 'I' for Inactive)
REMARK    1  A    between atoms: C3_3  and  N1_4 
REMARK    2  A    between atoms: C4_5  and  C5_6 
REMARK    3  A    between atoms: C5_6  and  C6_7 
REMARK    4  A    between atoms: C6_7  and  S1_8 
REMARK    5  A    between atoms: S1_8  and  C7_9 
REMARK    6  A    between atoms: C7_9  and  C8_10 
REMARK    7  A    between atoms: C8_10  and  C9_11 
REMARK       I    between atoms: N4_17  and  C11_19 
REMARK    8  A    between atoms: C11_19  and  C12_21 
REMARK    9  A    between atoms: C20_31  and  C21_32 
REMARK       I    between atoms: C21_32  and  N5_34 
REMARK   10  A    between atoms: N5_34  and  C22_36 
REMARK   11  A    between atoms: C22_36  and  C23_37 
REMARK   12  A    between atoms: C23_37  and  N6_38 
ROOT
HETATM    1  C1  UNL     1       3.228   2.569   2.769  1.00  0.00     0.014 C 
HETATM    2  C2  UNL     1       2.777   1.713   2.061  1.00  0.00    -0.096 C 
HETATM    3  C3  UNL     1       2.200   0.667   1.205  1.00  0.00     0.242 C 
ENDROOT
BRANCH   3   4
HETATM    4  N1  UNL     1       2.770  -0.668   1.572  1.00  0.00    -0.271 N 
HETATM    5  C4  UNL     1       2.137  -1.378   2.500  1.00  0.00     0.073 A 
HETATM    6  S3  UNL     1       3.104  -2.778   2.612  1.00  0.00    -0.055 SA
HETATM    7  C18 UNL     1       4.266  -2.353   1.448  1.00  0.00     0.099 A 
HETATM    8  C19 UNL     1       5.435  -2.751   0.784  1.00  0.00     0.057 A 
HETATM    9  N7  UNL     1       3.850  -1.159   1.037  1.00  0.00    -0.256 N 
HETATM   10  C20 UNL     1       5.739  -1.737  -0.077  1.00  0.00     0.052 A 
HETATM   11  C26 UNL     1       4.770  -0.769   0.081  1.00  0.00     0.134 A 
BRANCH   5  12
HETATM   12  C5  UNL     1       0.867  -1.032   3.241  1.00  0.00     0.077 C 
BRANCH  12  13
HETATM   13  C6  UNL     1      -0.242  -1.669   2.423  1.00  0.00     0.080 C 
BRANCH  13  14
HETATM   14  S1  UNL     1      -1.817  -1.305   3.200  1.00  0.00    -0.168 SA
BRANCH  14  15
HETATM   15  C7  UNL     1      -2.124   0.486   3.062  1.00  0.00     0.080 C 
BRANCH  15  16
HETATM   16  C8  UNL     1      -2.287   0.762   1.564  1.00  0.00     0.076 C 
BRANCH  16  17
HETATM   17  C9  UNL     1      -3.456  -0.093   1.131  1.00  0.00     0.070 A 
HETATM   18  N2  UNL     1      -3.422  -1.342   0.686  1.00  0.00    -0.296 N 
HETATM   19  N3  UNL     1      -4.490  -1.934   0.356  1.00  0.00    -0.279 N 
ATOM     20  H2  UNL     1      -2.529  -1.828   0.609  1.00  0.00     0.187 HD
HETATM   21  C10 UNL     1      -5.650  -1.274   0.465  1.00  0.00     0.167 A 
ATOM     22  H3  UNL     1      -4.468  -2.895   0.014  1.00  0.00     0.189 HD
HETATM   23  N4  UNL     1      -6.846  -1.732   0.169  1.00  0.00    -0.306 N 
HETATM   24  S2  UNL     1      -5.129   0.240   1.066  1.00  0.00    -0.038 SA
HETATM   25  C11 UNL     1      -7.984  -0.934   0.329  1.00  0.00     0.227 C 
ATOM     26  H4  UNL     1      -6.946  -2.684  -0.183  1.00  0.00     0.171 HD
HETATM   27  O1  UNL     1      -8.105  -0.239   1.369  1.00  0.00    -0.273 OA
BRANCH  25  28
HETATM   28  C12 UNL     1      -9.055  -0.879  -0.685  1.00  0.00     0.078 C 
HETATM   29  C13 UNL     1     -10.172   0.040  -0.312  1.00  0.00     0.014 C 
HETATM   30  C14 UNL     1     -10.020   1.417  -0.933  1.00  0.00     0.001 C 
HETATM   31  C15 UNL     1     -10.096   1.320  -2.439  1.00  0.00     0.000 C 
HETATM   32  C16 UNL     1      -9.480   0.063  -2.959  1.00  0.00     0.001 C 
HETATM   33  C17 UNL     1      -8.438  -0.413  -1.986  1.00  0.00     0.014 C 
ENDBRANCH  25  28
ENDBRANCH  16  17
ENDBRANCH  15  16
ENDBRANCH  14  15
ENDBRANCH  13  14
ENDBRANCH  12  13
ENDBRANCH   5  12
BRANCH  10  34
HETATM   34  C21 UNL     1       6.871  -1.721  -0.982  1.00  0.00     0.253 C 
HETATM   35  O2  UNL     1       7.481  -2.781  -1.230  1.00  0.00    -0.268 OA
HETATM   36  N5  UNL     1       7.332  -0.523  -1.619  1.00  0.00    -0.355 N 
ATOM     37  H5  UNL     1       6.850   0.356  -1.430  1.00  0.00     0.162 HD
BRANCH  36  38
HETATM   38  C22 UNL     1       8.458  -0.524  -2.520  1.00  0.00     0.153 C 
BRANCH  38  39
HETATM   39  C23 UNL     1       8.688   0.891  -2.999  1.00  0.00     0.291 C 
BRANCH  39  40
HETATM   40  N6  UNL     1       8.965   1.688  -1.803  1.00  0.00     0.081 N 
HETATM   41  C24 UNL     1      10.239   1.304  -1.217  1.00  0.00     0.309 C 
HETATM   42  C25 UNL     1       8.956   3.111  -2.103  1.00  0.00     0.309 C 
ENDBRANCH  39  40
ENDBRANCH  38  39
ENDBRANCH  36  38
ENDBRANCH  10  34
ENDBRANCH   3   4
TORSDOF 12
