REMARK  8 active torsions:
REMARK  status: ('A' for Active; 'I' for Inactive)
REMARK    1  A    between atoms: N1_1  and  C1_5 
REMARK    2  A    between atoms: N2_8  and  C4_9 
REMARK    3  A    between atoms: C6_12  and  O1_13 
REMARK    4  A    between atoms: C7_15  and  C8_16 
REMARK    5  A    between atoms: C11_19  and  C12_20 
REMARK    6  A    between atoms: C12_20  and  N3_21 
REMARK    7  A    between atoms: C12_20  and  C13_25 
REMARK    8  A    between atoms: C16_31  and  O2_32 
ROOT
HETATM    1  C4  UNL     1       0.393  -0.177  -0.693  1.00  0.00     0.077 A 
HETATM    2  C5  UNL     1       0.064  -1.520  -0.746  1.00  0.00     0.096 A 
HETATM    3 CL1  UNL     1       1.239  -2.729  -1.242  1.00  0.00    -0.079 Cl
HETATM    4  C6  UNL     1      -1.217  -1.891  -0.433  1.00  0.00     0.097 A 
HETATM    5  C7  UNL     1      -2.191  -0.939  -0.063  1.00  0.00    -0.009 A 
HETATM    6  C11 UNL     1      -1.888   0.407  -0.018  1.00  0.00     0.008 A 
HETATM    7  C14 UNL     1      -0.593   0.756  -0.337  1.00  0.00     0.071 A 
HETATM    8 CL4  UNL     1      -0.147   2.436  -0.311  1.00  0.00    -0.081 Cl
ENDROOT
BRANCH   1   9
HETATM    9  N2  UNL     1       1.760   0.192  -0.678  1.00  0.00    -0.376 N 
HETATM   10  C3  UNL     1       2.607   0.218  -1.811  1.00  0.00     0.125 C 
HETATM   11  C2  UNL     1       4.006  -0.324  -1.493  1.00  0.00     0.055 C 
HETATM   12  C1  UNL     1       4.512   0.067  -0.127  1.00  0.00     0.215 C 
HETATM   13  C16 UNL     1       3.631   1.248   0.333  1.00  0.00     0.166 C 
HETATM   14  C15 UNL     1       2.302   0.619   0.638  1.00  0.00     0.157 C 
BRANCH  12  15
HETATM   15  N1  UNL     1       4.312  -0.953   0.862  1.00  0.00    -0.072 N 
ATOM     16  H13 UNL     1       3.332  -1.231   0.904  1.00  0.00     0.274 HD
ATOM     17  H12 UNL     1       4.724  -1.836   0.561  1.00  0.00     0.274 HD
ATOM     18  H11 UNL     1       4.654  -0.689   1.786  1.00  0.00     0.274 HD
ENDBRANCH  12  15
BRANCH  13  19
HETATM   19  O2  UNL     1       4.127   1.777   1.509  1.00  0.00    -0.392 OA
ATOM     20  H2  UNL     1       3.585   2.504   1.792  1.00  0.00     0.210 HD
ENDBRANCH  13  19
ENDBRANCH   1   9
BRANCH   4  21
HETATM   21  O1  UNL     1      -1.549  -3.248  -0.486  1.00  0.00    -0.358 OA
ATOM     22  H1  UNL     1      -2.437  -3.505  -0.269  1.00  0.00     0.217 HD
ENDBRANCH   4  21
BRANCH   6  23
HETATM   23  C12 UNL     1      -2.857   1.396   0.432  1.00  0.00     0.251 C 
BRANCH  23  24
HETATM   24  N3  UNL     1      -2.091   2.709   0.517  1.00  0.00    -0.068 N 
ATOM     25  H33 UNL     1      -1.256   2.659   1.100  1.00  0.00     0.275 HD
ATOM     26  H32 UNL     1      -1.618   2.964  -0.350  1.00  0.00     0.275 HD
ATOM     27  H31 UNL     1      -2.770   3.402   0.832  1.00  0.00     0.275 HD
ENDBRANCH  23  24
BRANCH  23  28
HETATM   28  C13 UNL     1      -3.908   1.769  -0.623  1.00  0.00     0.213 C 
HETATM   29 CL2  UNL     1      -3.125   2.388  -2.065  1.00  0.00    -0.106 Cl
HETATM   30 CL3  UNL     1      -4.914   3.120   0.078  1.00  0.00    -0.106 Cl
ENDBRANCH  23  28
ENDBRANCH   6  23
BRANCH   5  31
HETATM   31  C8  UNL     1      -3.509  -1.527   0.198  1.00  0.00     0.022 A 
HETATM   32  C9  UNL     1      -4.170  -1.185   1.480  1.00  0.00     0.010 A 
HETATM   33  C10 UNL     1      -3.717  -2.623   1.228  1.00  0.00     0.010 A 
ENDBRANCH   5  31
TORSDOF 8
