REMARK  5 active torsions:
REMARK  status: ('A' for Active; 'I' for Inactive)
REMARK    1  A    between atoms: N5_16  and  C6_17 
REMARK    2  A    between atoms: N6_19  and  C8_20 
REMARK    3  A    between atoms: C8_20  and  C9_21 
REMARK    4  A    between atoms: C9_21  and  C10_23 
REMARK    5  A    between atoms: C12_28  and  O1_29 
ROOT
HETATM    1  N1  UNL     1       5.887  -0.648   0.292  1.00  0.00    -0.383 N 
ATOM      2  H11 UNL     1       5.887  -1.574   0.719  1.00  0.00     0.157 HD
ATOM      3  H12 UNL     1       6.758  -0.169   0.064  1.00  0.00     0.157 HD
HETATM    4  C1  UNL     1       4.792  -0.032   0.016  1.00  0.00     0.132 A 
HETATM    5  N2  UNL     1       4.792   1.195  -0.550  1.00  0.00    -0.317 N 
ATOM      6  H2  UNL     1       5.667   1.669  -0.775  1.00  0.00     0.170 HD
HETATM    7  C2  UNL     1       3.606   1.774  -0.809  1.00  0.00     0.182 A 
HETATM    8 CL1  UNL     1       3.659   3.374  -1.548  1.00  0.00    -0.045 Cl
HETATM    9  N3  UNL     1       2.433   1.180  -0.527  1.00  0.00    -0.317 N 
ATOM     10  H3  UNL     1       1.556   1.654  -0.740  1.00  0.00     0.170 HD
HETATM   11  C3  UNL     1       2.419  -0.039   0.036  1.00  0.00     0.142 A 
HETATM   12  C4  UNL     1       3.616  -0.678   0.323  1.00  0.00     0.122 A 
HETATM   13  N4  UNL     1       3.274  -1.857   0.870  1.00  0.00    -0.346 N 
ATOM     14  H4  UNL     1       3.928  -2.569   1.195  1.00  0.00     0.167 HD
HETATM   15  C5  UNL     1       1.931  -1.950   0.922  1.00  0.00     0.185 A 
HETATM   16  N5  UNL     1       1.408  -0.829   0.408  1.00  0.00    -0.318 N 
ENDROOT
BRANCH  16  17
HETATM   17  C6  UNL     1      -0.011  -0.546   0.286  1.00  0.00     0.151 C 
HETATM   18  C7  UNL     1      -0.317   0.382  -0.835  1.00  0.00     0.300 C 
HETATM   19  N6  UNL     1      -1.821   0.263  -0.901  1.00  0.00     0.094 N 
HETATM   20  C11 UNL     1      -1.997  -1.173  -0.797  1.00  0.00     0.306 C 
HETATM   21  C12 UNL     1      -0.758  -1.779  -0.168  1.00  0.00     0.171 C 
BRANCH  19  22
HETATM   22  C8  UNL     1      -2.366   1.040   0.156  1.00  0.00     0.297 C 
BRANCH  22  23
HETATM   23  C9  UNL     1      -3.679   1.654  -0.109  1.00  0.00     0.164 C 
HETATM   24 CL2  UNL     1      -4.164   2.632   1.378  1.00  0.00    -0.119 Cl
BRANCH  23  25
HETATM   25  C10 UNL     1      -4.859   0.884  -0.528  1.00  0.00     0.206 C 
HETATM   26 CL3  UNL     1      -5.428  -0.358   0.584  1.00  0.00    -0.082 Cl
HETATM   27 CL4  UNL     1      -6.184   2.131  -0.710  1.00  0.00    -0.082 Cl
HETATM   28 CL5  UNL     1      -4.653   0.190  -2.143  1.00  0.00    -0.082 Cl
ENDBRANCH  23  25
ENDBRANCH  22  23
ENDBRANCH  19  22
BRANCH  21  29
HETATM   29  O1  UNL     1      -1.074  -2.586   0.920  1.00  0.00    -0.392 OA
ATOM     30  H1  UNL     1      -1.544  -3.361   0.635  1.00  0.00     0.210 HD
ENDBRANCH  21  29
ENDBRANCH  16  17
TORSDOF 5
