REMARK  4 active torsions:
REMARK  status: ('A' for Active; 'I' for Inactive)
REMARK    1  A    between atoms: C2_2  and  C3_5 
REMARK    2  A    between atoms: C5_8  and  C6_9 
REMARK    3  A    between atoms: C5_8  and  C17_28 
REMARK    4  A    between atoms: C8_13  and  N2_14 
ROOT
HETATM    1  C6  UNL     1      -1.650  -1.307  -0.141  1.00  0.00     0.076 A 
HETATM    2  C7  UNL     1      -1.178  -1.885  -1.314  1.00  0.00     0.134 A 
HETATM    3  N1  UNL     1       0.044  -1.429  -1.477  1.00  0.00    -0.200 N 
ATOM      4  H1  UNL     1       0.652  -1.675  -2.258  1.00  0.00     0.183 HD
HETATM    5  C8  UNL     1       0.397  -0.570  -0.448  1.00  0.00     0.680 A 
HETATM    6  N4  UNL     1      -0.680  -0.541   0.335  1.00  0.00    -0.191 N 
ATOM      7  H4  UNL     1      -0.749   0.004   1.195  1.00  0.00     0.184 HD
ENDROOT
BRANCH   1   8
HETATM    8  C5  UNL     1      -3.062  -1.572   0.274  1.00  0.00     0.142 C 
HETATM    9  C4  UNL     1      -3.899  -0.766  -0.704  1.00  0.00     0.124 C 
HETATM   10  C3  UNL     1      -5.196  -0.268  -0.204  1.00  0.00     0.280 C 
HETATM   11  F3  UNL     1      -6.118  -0.441  -1.255  1.00  0.00    -0.204 F 
HETATM   12  O1  UNL     1      -5.695  -0.943   0.929  1.00  0.00    -0.273 OA
HETATM   13  C18 UNL     1      -4.775  -1.210   1.939  1.00  0.00     0.216 C 
HETATM   14  N5  UNL     1      -3.390  -1.181   1.607  1.00  0.00    -0.336 N 
HETATM   15  N6  UNL     1      -5.197  -1.477   3.123  1.00  0.00    -0.365 N 
ATOM     16  H5  UNL     1      -2.677  -0.898   2.280  1.00  0.00     0.164 HD
ATOM     17  H62 UNL     1      -4.523  -1.673   3.863  1.00  0.00     0.159 HD
ATOM     18  H61 UNL     1      -6.189  -1.498   3.361  1.00  0.00     0.159 HD
BRANCH  10  19
HETATM   19  C2  UNL     1      -5.258   1.205   0.107  1.00  0.00     0.300 C 
HETATM   20  C1  UNL     1      -4.881   2.097  -1.050  1.00  0.00     0.097 C 
HETATM   21  F1  UNL     1      -6.606   1.496   0.359  1.00  0.00    -0.200 F 
HETATM   22  F2  UNL     1      -4.555   1.585   1.204  1.00  0.00    -0.200 F 
ENDBRANCH  10  19
BRANCH   8  23
HETATM   23  C17 UNL     1      -3.303  -3.062   0.133  1.00  0.00     0.387 C 
HETATM   24  F4  UNL     1      -2.519  -3.748   1.048  1.00  0.00    -0.211 F 
HETATM   25  F5  UNL     1      -4.612  -3.432   0.156  1.00  0.00    -0.211 F 
ENDBRANCH   8  23
ENDBRANCH   1   8
BRANCH   5  26
HETATM   26  N2  UNL     1       1.639   0.098  -0.453  1.00  0.00    -0.217 N 
HETATM   27  C9  UNL     1       2.208   0.680  -1.704  1.00  0.00     0.142 C 
HETATM   28  C10 UNL     1       3.591   0.033  -1.582  1.00  0.00     0.032 C 
HETATM   29  C11 UNL     1       3.951   0.491  -0.173  1.00  0.00    -0.019 C 
HETATM   30  C12 UNL     1       5.033  -0.336   0.428  1.00  0.00     0.039 C 
HETATM   31  C15 UNL     1       4.378   1.943  -0.321  1.00  0.00     0.039 C 
HETATM   32  C16 UNL     1       2.606   0.361   0.549  1.00  0.00     0.151 C 
HETATM   33  C13 UNL     1       6.360   0.232  -0.098  1.00  0.00     0.233 C 
HETATM   34  N3  UNL     1       6.626   1.532   0.470  1.00  0.00    -0.075 N 
HETATM   35  C14 UNL     1       5.396   2.200   0.761  1.00  0.00     0.233 C 
ATOM     36  H32 UNL     1       7.233   1.475   1.288  1.00  0.00     0.277 HD
ATOM     37  H31 UNL     1       7.234   2.093  -0.127  1.00  0.00     0.277 HD
ENDBRANCH   5  26
TORSDOF 4
