REMARK  7 active torsions:
REMARK  status: ('A' for Active; 'I' for Inactive)
REMARK    1  A    between atoms: N1_1  and  C1_5 
REMARK    2  A    between atoms: C1_5  and  N2_6 
REMARK    3  A    between atoms: C4_12  and  N3_13 
REMARK    4  A    between atoms: C4_12  and  C5_17 
REMARK    5  A    between atoms: C7_21  and  N5_22 
REMARK    6  A    between atoms: C10_25  and  C11_26 
REMARK    7  A    between atoms: C14_34  and  C15_35 
ROOT
HETATM    1  C5  UNL     1      -1.219  -1.381   0.070  1.00  0.00     0.024 A 
HETATM    2  C6  UNL     1      -0.155  -2.230   0.146  1.00  0.00     0.118 A 
HETATM    3  N4  UNL     1       1.148  -1.843   0.015  1.00  0.00    -0.201 N 
ATOM      4  H4  UNL     1       1.908  -2.520   0.082  1.00  0.00     0.183 HD
HETATM    5  C7  UNL     1       1.392  -0.553  -0.203  1.00  0.00     0.684 A 
HETATM    6  N6  UNL     1       0.371   0.302  -0.284  1.00  0.00    -0.192 N 
ATOM      7  H6  UNL     1       0.595   1.283  -0.452  1.00  0.00     0.184 HD
HETATM    8  C14 UNL     1      -0.942  -0.025  -0.161  1.00  0.00     0.065 A 
ENDROOT
BRANCH   1   9
HETATM    9  C4  UNL     1      -2.615  -1.721   0.156  1.00  0.00     0.212 C 
HETATM   10  C1  UNL     1      -3.090  -3.082   0.493  1.00  0.00     0.319 C 
HETATM   11  C2  UNL     1      -3.675  -2.635   1.850  1.00  0.00     0.075 C 
HETATM   12  C3  UNL     1      -3.352  -1.246   1.398  1.00  0.00     0.053 C 
BRANCH  10  13
HETATM   13  N1  UNL     1      -2.260  -4.190   0.722  1.00  0.00    -0.042 N 
ATOM     14  H13 UNL     1      -2.764  -4.962   1.159  1.00  0.00     0.277 HD
ATOM     15  H12 UNL     1      -1.997  -4.656  -0.146  1.00  0.00     0.277 HD
ATOM     16  H11 UNL     1      -1.445  -3.909   1.267  1.00  0.00     0.277 HD
ENDBRANCH  10  13
BRANCH  10  17
HETATM   17  N2  UNL     1      -4.286  -3.494  -0.307  1.00  0.00    -0.042 N 
ATOM     18  H23 UNL     1      -4.023  -3.960  -1.175  1.00  0.00     0.277 HD
ATOM     19  H22 UNL     1      -4.790  -4.266   0.130  1.00  0.00     0.277 HD
ATOM     20  H21 UNL     1      -4.889  -2.689  -0.473  1.00  0.00     0.277 HD
ENDBRANCH  10  17
BRANCH   9  21
HETATM   21  N3  UNL     1      -3.280  -1.350  -1.112  1.00  0.00    -0.062 N 
ATOM     22  H33 UNL     1      -3.132  -2.027  -1.860  1.00  0.00     0.275 HD
ATOM     23  H32 UNL     1      -4.296  -1.426  -1.073  1.00  0.00     0.275 HD
ATOM     24  H31 UNL     1      -2.953  -0.412  -1.344  1.00  0.00     0.275 HD
ENDBRANCH   9  21
ENDBRANCH   1   9
BRANCH   8  25
HETATM   25  C15 UNL     1      -1.860   1.090  -0.211  1.00  0.00     0.172 C 
HETATM   26  C16 UNL     1      -1.197   2.189  -1.076  1.00  0.00     0.044 C 
HETATM   27  C17 UNL     1      -2.032   3.421  -1.124  1.00  0.00     0.084 C 
HETATM   28  C18 UNL     1      -2.593   3.811   0.220  1.00  0.00     0.264 C 
HETATM   29  F4  UNL     1      -3.793   4.467   0.030  1.00  0.00    -0.204 F 
HETATM   30  F5  UNL     1      -1.748   4.671   0.893  1.00  0.00    -0.204 F 
HETATM   31  C19 UNL     1      -2.854   2.617   1.102  1.00  0.00     0.247 C 
HETATM   32  O1  UNL     1      -1.875   1.664   1.104  1.00  0.00    -0.374 OA
ENDBRANCH   8  25
BRANCH   5  33
HETATM   33  N5  UNL     1       2.758  -0.050  -0.344  1.00  0.00    -0.197 N 
HETATM   34  C8  UNL     1       3.452  -0.178  -1.560  1.00  0.00     0.082 C 
HETATM   35  C9  UNL     1       4.804   0.470  -1.629  1.00  0.00     0.058 C 
HETATM   36  C10 UNL     1       5.411   0.450  -0.235  1.00  0.00     0.100 C 
HETATM   37  C12 UNL     1       4.493   1.368   0.575  1.00  0.00     0.034 C 
HETATM   38  C13 UNL     1       3.270   0.548   0.855  1.00  0.00     0.147 C 
BRANCH  36  39
HETATM   39  C11 UNL     1       6.834   0.896  -0.187  1.00  0.00     0.391 C 
HETATM   40  F1  UNL     1       7.318   0.849   1.123  1.00  0.00    -0.171 F 
HETATM   41  F2  UNL     1       6.980   2.195  -0.645  1.00  0.00    -0.171 F 
HETATM   42  F3  UNL     1       7.593  -0.004  -0.902  1.00  0.00    -0.171 F 
ENDBRANCH  36  39
ENDBRANCH   5  33
TORSDOF 7
