REMARK  8 active torsions:
REMARK  status: ('A' for Active; 'I' for Inactive)
REMARK    1  A    between atoms: C2_2  and  C3_3 
REMARK    2  A    between atoms: C3_3  and  N1_4 
REMARK    3  A    between atoms: N1_4  and  C4_6 
REMARK    4  A    between atoms: C4_6  and  C6_8 
REMARK    5  A    between atoms: C6_8  and  N2_9 
REMARK    6  A    between atoms: N2_9  and  C7_11 
REMARK    7  A    between atoms: C8_14  and  C9_15 
REMARK    8  A    between atoms: C12_18  and  C13_19 
ROOT
HETATM    1  C7  UNL     1      -0.624  -1.357   0.287  1.00  0.00     0.117 A 
HETATM    2  N3  UNL     1       0.360  -0.555  -0.213  1.00  0.00    -0.331 N 
ATOM      3  H3  UNL     1       0.091   0.355  -0.587  1.00  0.00     0.168 HD
HETATM    4  C8  UNL     1       1.655  -0.887  -0.243  1.00  0.00     0.092 A 
HETATM    5  N4  UNL     1       1.971  -2.108   0.262  1.00  0.00    -0.331 N 
ATOM      6  H4  UNL     1       2.950  -2.394   0.252  1.00  0.00     0.168 HD
HETATM    7  C18 UNL     1       1.076  -2.951   0.768  1.00  0.00     0.121 A 
HETATM    8  N5  UNL     1       1.141  -4.184   1.309  1.00  0.00    -0.351 N 
ATOM      9  H5  UNL     1       2.001  -4.720   1.426  1.00  0.00     0.166 HD
HETATM   10  C19 UNL     1      -0.073  -4.609   1.671  1.00  0.00     0.097 A 
HETATM   11  C20 UNL     1      -0.994  -3.609   1.356  1.00  0.00    -0.029 A 
HETATM   12  C21 UNL     1      -2.414  -3.735   1.638  1.00  0.00     0.050 C 
HETATM   13  C22 UNL     1      -0.266  -2.597   0.799  1.00  0.00     0.059 A 
ENDROOT
BRANCH   4  14
HETATM   14  C9  UNL     1       2.773  -0.097  -0.762  1.00  0.00     0.016 C 
HETATM   15  C10 UNL     1       3.102  -0.600  -2.150  1.00  0.00     0.023 C 
HETATM   16  C11 UNL     1       2.671   1.374  -0.649  1.00  0.00     0.031 C 
HETATM   17  C12 UNL     1       4.138   1.815  -0.743  1.00  0.00     0.102 C 
HETATM   18  C14 UNL     1       4.826   0.875   0.155  1.00  0.00    -0.035 C 
HETATM   19  C15 UNL     1       5.115   1.312   1.550  1.00  0.00     0.015 C 
HETATM   20  C16 UNL     1       6.179   0.427  -0.443  1.00  0.00     0.015 C 
HETATM   21  C17 UNL     1       3.961  -0.380   0.184  1.00  0.00     0.026 C 
BRANCH  17  22
HETATM   22  C13 UNL     1       4.341   3.272  -0.549  1.00  0.00     0.392 C 
HETATM   23  F1  UNL     1       3.606   3.908  -1.582  1.00  0.00    -0.171 F 
HETATM   24  F2  UNL     1       5.627   3.688  -0.693  1.00  0.00    -0.171 F 
HETATM   25  F3  UNL     1       3.733   3.751   0.615  1.00  0.00    -0.171 F 
ENDBRANCH  17  22
ENDBRANCH   4  14
BRANCH   1  26
HETATM   26  N2  UNL     1      -1.858  -1.066   0.214  1.00  0.00    -0.373 N 
ATOM     27  H2  UNL     1      -2.503  -1.739   0.629  1.00  0.00     0.161 HD
BRANCH  26  28
HETATM   28  C6  UNL     1      -2.452   0.091  -0.380  1.00  0.00     0.146 C 
BRANCH  28  29
HETATM   29  C4  UNL     1      -3.977   0.106  -0.295  1.00  0.00     0.094 C 
HETATM   30  C5  UNL     1      -4.493  -1.182  -0.865  1.00  0.00     0.034 C 
BRANCH  29  31
HETATM   31  N1  UNL     1      -4.462   1.259  -1.032  1.00  0.00    -0.396 N 
ATOM     32  H1  UNL     1      -3.821   1.899  -1.501  1.00  0.00     0.159 HD
BRANCH  31  33
HETATM   33  C3  UNL     1      -5.848   1.455  -1.071  1.00  0.00     0.055 C 
BRANCH  33  34
HETATM   34  C2  UNL     1      -6.542   2.054   0.114  1.00  0.00     0.039 C 
HETATM   35  C1  UNL     1      -6.088   3.489   0.334  1.00  0.00     0.010 C 
ENDBRANCH  33  34
ENDBRANCH  31  33
ENDBRANCH  29  31
ENDBRANCH  28  29
ENDBRANCH  26  28
ENDBRANCH   1  26
TORSDOF 8
