REMARK  8 active torsions:
REMARK  status: ('A' for Active; 'I' for Inactive)
REMARK    1  A    between atoms: C2_2  and  C4_4 
REMARK    2  A    between atoms: C4_4  and  C5_6 
REMARK    3  A    between atoms: C5_6  and  N1_7 
REMARK    4  A    between atoms: C5_6  and  C10_20 
REMARK       I    between atoms: N1_7  and  C6_9 
REMARK       I    between atoms: C6_9  and  N2_11 
REMARK    5  A    between atoms: N2_11  and  C7_13 
REMARK    6  A    between atoms: C10_20  and  C13_23 
REMARK    7  A    between atoms: C13_23  and  N4_24 
REMARK    8  A    between atoms: N4_24  and  C14_26 
ROOT
HETATM    1  C5  UNL     1       0.276   0.682   0.530  1.00  0.00     0.114 C 
ENDROOT
BRANCH   1   2
HETATM    2  C4  UNL     1      -0.250   1.810  -0.254  1.00  0.00     0.109 C 
HETATM    3 CL1  UNL     1      -1.743   2.574   0.217  1.00  0.00    -0.122 Cl
BRANCH   2   4
HETATM    4  C2  UNL     1       0.804   2.937  -0.225  1.00  0.00    -0.002 C 
HETATM    5  C1  UNL     1       0.924   3.599   1.116  1.00  0.00     0.011 C 
HETATM    6  C3  UNL     1       0.615   3.931  -1.331  1.00  0.00     0.011 C 
ENDBRANCH   2   4
ENDBRANCH   1   2
BRANCH   1   7
HETATM    7  N1  UNL     1       1.555   0.375  -0.193  1.00  0.00    -0.336 N 
HETATM    8  C6  UNL     1       2.825   0.268   0.413  1.00  0.00     0.322 C 
HETATM    9  O1  UNL     1       2.905   0.424   1.665  1.00  0.00    -0.247 OA
HETATM   10  N2  UNL     1       3.892   0.002  -0.427  1.00  0.00    -0.289 N 
ATOM     11  H2  UNL     1       3.984   0.621  -1.232  1.00  0.00     0.172 HD
ATOM     12  H1  UNL     1       1.502   0.233  -1.202  1.00  0.00     0.164 HD
BRANCH  10  13
HETATM   13  C7  UNL     1       4.788  -0.925  -0.329  1.00  0.00     0.153 A 
HETATM   14  N3  UNL     1       5.805  -1.142  -1.177  1.00  0.00    -0.344 N 
HETATM   15  C8  UNL     1       6.622  -2.115  -0.943  1.00  0.00     0.121 A 
ATOM     16  H3  UNL     1       5.931  -0.547  -1.996  1.00  0.00     0.167 HD
HETATM   17  C9  UNL     1       6.411  -2.885   0.173  1.00  0.00     0.093 A 
HETATM   18 CL2  UNL     1       7.354  -4.275   0.742  1.00  0.00    -0.075 Cl
HETATM   19  S1  UNL     1       5.015  -2.155   0.842  1.00  0.00    -0.040 SA
ENDBRANCH  10  13
ENDBRANCH   1   7
BRANCH   1  20
HETATM   20  C10 UNL     1      -0.372  -0.627   0.556  1.00  0.00    -0.010 C 
HETATM   21  C11 UNL     1       0.439  -1.533   1.499  1.00  0.00     0.018 C 
HETATM   22  C12 UNL     1      -0.093  -1.315  -0.844  1.00  0.00     0.018 C 
BRANCH  20  23
HETATM   23  C13 UNL     1      -1.785  -0.880   0.792  1.00  0.00     0.125 C 
BRANCH  23  24
HETATM   24  N4  UNL     1      -2.650  -0.343  -0.195  1.00  0.00    -0.413 N 
ATOM     25  H4  UNL     1      -2.310   0.252  -0.951  1.00  0.00     0.154 HD
BRANCH  24  26
HETATM   26  C14 UNL     1      -4.025  -0.689  -0.061  1.00  0.00     0.014 C 
HETATM   27  C15 UNL     1      -4.994   0.439  -0.107  1.00  0.00     0.037 C 
HETATM   28  C16 UNL     1      -4.344  -1.657  -1.205  1.00  0.00     0.037 C 
HETATM   29  C17 UNL     1      -4.328  -1.474   1.210  1.00  0.00     0.037 C 
ENDBRANCH  24  26
ENDBRANCH  23  24
ENDBRANCH  20  23
ENDBRANCH   1  20
TORSDOF 8
