REMARK  9 active torsions:
REMARK  status: ('A' for Active; 'I' for Inactive)
REMARK    1  A    between atoms: C6_6  and  C7_7 
REMARK    2  A    between atoms: C7_7  and  O1_8 
REMARK    3  A    between atoms: C8_10  and  C9_11 
REMARK    4  A    between atoms: C9_11  and  C10_12 
REMARK    5  A    between atoms: C10_12  and  C11_13 
REMARK    6  A    between atoms: C11_13  and  N1_14 
REMARK    7  A    between atoms: N1_14  and  S1_16 
REMARK    8  A    between atoms: S1_16  and  N2_17 
REMARK    9  A    between atoms: S1_16  and  C12_21 
ROOT
HETATM    1  N1  UNL     1       2.173  -0.249  -0.363  1.00  0.00    -0.332 N 
ATOM      2  H1  UNL     1       2.130  -0.799   0.495  1.00  0.00     0.170 HD
ENDROOT
BRANCH   1   3
HETATM    3  C11 UNL     1       1.012   0.317  -1.024  1.00  0.00     0.131 C 
BRANCH   3   4
HETATM    4  C10 UNL     1      -0.245  -0.051  -0.224  1.00  0.00     0.021 C 
BRANCH   4   5
HETATM    5  C9  UNL     1      -1.468   0.510  -0.864  1.00  0.00     0.012 C 
BRANCH   5   6
HETATM    6  C8  UNL     1      -2.742   0.249  -0.216  1.00  0.00    -0.027 C 
HETATM    7  C2  UNL     1      -3.187  -1.215  -0.029  1.00  0.00    -0.036 C 
HETATM    8  C1  UNL     1      -3.065  -2.067  -1.259  1.00  0.00     0.016 C 
HETATM    9  C3  UNL     1      -2.717  -1.883   1.209  1.00  0.00     0.016 C 
HETATM   10  C4  UNL     1      -4.568  -0.597   0.026  1.00  0.00    -0.005 C 
HETATM   11  C5  UNL     1      -4.529   0.314   1.215  1.00  0.00     0.013 C 
HETATM   12  C18 UNL     1      -4.001   0.337  -1.049  1.00  0.00     0.016 C 
HETATM   13  C6  UNL     1      -3.091   0.827   1.093  1.00  0.00     0.019 C 
BRANCH  13  14
HETATM   14  C7  UNL     1      -3.092   2.295   1.242  1.00  0.00     0.169 C 
BRANCH  14  15
HETATM   15  O1  UNL     1      -3.810   3.035   0.357  1.00  0.00    -0.400 OA
ATOM     16  H1  UNL     1      -3.811   3.980   0.453  1.00  0.00     0.209 HD
ENDBRANCH  14  15
ENDBRANCH  13  14
ENDBRANCH   5   6
ENDBRANCH   4   5
ENDBRANCH   3   4
ENDBRANCH   1   3
BRANCH   1  17
HETATM   17  S1  UNL     1       3.622   0.117  -1.195  1.00  0.00     0.134 S 
HETATM   18  O2  UNL     1       3.472   1.527  -1.749  1.00  0.00    -0.224 OA
BRANCH  17  19
HETATM   19  N2  UNL     1       3.900  -0.825  -2.385  1.00  0.00    -0.341 N 
ATOM     20  H22 UNL     1       3.271  -1.587  -2.638  1.00  0.00     0.167 HD
ATOM     21  H21 UNL     1       4.764  -0.607  -2.881  1.00  0.00     0.167 HD
ENDBRANCH  17  19
BRANCH  17  22
HETATM   22  C12 UNL     1       5.016   0.054  -0.119  1.00  0.00     0.079 A 
HETATM   23  C13 UNL     1       4.865  -0.261   1.215  1.00  0.00     0.027 A 
HETATM   24  C14 UNL     1       5.977  -0.308   2.055  1.00  0.00     0.025 A 
HETATM   25  C15 UNL     1       7.248  -0.046   1.596  1.00  0.00     0.035 A 
HETATM   26 CL1  UNL     1       8.636  -0.113   2.683  1.00  0.00    -0.084 Cl
HETATM   27  C16 UNL     1       7.395   0.268   0.263  1.00  0.00     0.049 A 
HETATM   28  C17 UNL     1       6.288   0.314  -0.574  1.00  0.00     0.057 A 
HETATM   29 CL2  UNL     1       6.473   0.713  -2.268  1.00  0.00    -0.083 Cl
ENDBRANCH  17  22
ENDBRANCH   1  17
TORSDOF 9
