REMARK  8 active torsions:
REMARK  status: ('A' for Active; 'I' for Inactive)
REMARK    1  A    between atoms: O1_1  and  C1_3 
REMARK    2  A    between atoms: C1_3  and  C2_4 
REMARK    3  A    between atoms: C3_6  and  O3_7 
REMARK    4  A    between atoms: O3_7  and  C4_8 
REMARK    5  A    between atoms: C7_11  and  C8_12 
REMARK    6  A    between atoms: C17_22  and  O4_23 
REMARK    7  A    between atoms: C18_25  and  O5_26 
REMARK    8  A    between atoms: C19_28  and  O6_29 
ROOT
HETATM    1  C2  UNL     1       4.612   1.357   0.152  1.00  0.00     0.179 C 
HETATM    2  O2  UNL     1       3.713   0.475   0.754  1.00  0.00    -0.348 OA
HETATM    3  C3  UNL     1       2.873  -0.083  -0.228  1.00  0.00     0.298 C 
HETATM    4  C17 UNL     1       3.683  -1.022  -1.131  1.00  0.00     0.205 C 
HETATM    5  C18 UNL     1       5.142  -0.822  -0.811  1.00  0.00     0.183 C 
HETATM    6  C19 UNL     1       5.450   0.644  -0.864  1.00  0.00     0.180 C 
ENDROOT
BRANCH   3   7
HETATM    7  O3  UNL     1       1.948  -0.870   0.466  1.00  0.00    -0.318 OA
BRANCH   7   8
HETATM    8  C4  UNL     1       0.581  -0.691   0.520  1.00  0.00     0.073 A 
HETATM    9  C5  UNL     1      -0.090   0.323  -0.121  1.00  0.00     0.037 A 
HETATM   10  C6  UNL     1      -1.486   0.424  -0.007  1.00  0.00     0.012 A 
HETATM   11  C7  UNL     1      -2.232  -0.458   0.732  1.00  0.00    -0.032 A 
HETATM   12  C15 UNL     1      -1.540  -1.474   1.371  1.00  0.00     0.043 A 
HETATM   13 CL1  UNL     1      -2.390  -2.638   2.336  1.00  0.00    -0.084 Cl
HETATM   14  C16 UNL     1      -0.177  -1.588   1.270  1.00  0.00     0.061 A 
BRANCH  11  15
HETATM   15  C8  UNL     1      -3.701  -0.339   0.830  1.00  0.00     0.020 C 
HETATM   16  C9  UNL     1      -4.122   0.973   0.273  1.00  0.00     0.009 C 
HETATM   17  C10 UNL     1      -4.423   1.049  -1.176  1.00  0.00     0.001 C 
HETATM   18  C11 UNL     1      -5.896   0.919  -1.397  1.00  0.00     0.000 C 
HETATM   19  C12 UNL     1      -6.400  -0.234  -0.580  1.00  0.00     0.000 C 
HETATM   20  C13 UNL     1      -5.408  -1.349  -0.768  1.00  0.00     0.001 C 
HETATM   21  C14 UNL     1      -4.458  -1.521   0.394  1.00  0.00     0.009 C 
ENDBRANCH  11  15
ENDBRANCH   7   8
ENDBRANCH   3   7
BRANCH   4  22
HETATM   22  O4  UNL     1       3.347  -2.356  -0.875  1.00  0.00    -0.388 OA
ATOM     23  H4  UNL     1       3.849  -2.938  -1.434  1.00  0.00     0.210 HD
ENDBRANCH   4  22
BRANCH   1  24
HETATM   24  C1  UNL     1       5.417   1.984   1.267  1.00  0.00     0.198 C 
BRANCH  24  25
HETATM   25  O1  UNL     1       6.354   2.888   0.784  1.00  0.00    -0.398 OA
ATOM     26  H1  UNL     1       6.860   3.282   1.485  1.00  0.00     0.209 HD
ENDBRANCH  24  25
ENDBRANCH   1  24
BRANCH   5  27
HETATM   27  O5  UNL     1       5.923  -1.536  -1.728  1.00  0.00    -0.390 OA
ATOM     28  H5  UNL     1       6.843  -1.410  -1.526  1.00  0.00     0.210 HD
ENDBRANCH   5  27
BRANCH   6  29
HETATM   29  O6  UNL     1       6.812   0.896  -0.678  1.00  0.00    -0.390 OA
ATOM     30  H6  UNL     1       7.344   0.444  -1.322  1.00  0.00     0.210 HD
ENDBRANCH   6  29
TORSDOF 8
