REMARK  7 active torsions:
REMARK  status: ('A' for Active; 'I' for Inactive)
REMARK    1  A    between atoms: C2_2  and  O1_5 
REMARK    2  A    between atoms: O1_5  and  C5_6 
REMARK    3  A    between atoms: C5_6  and  C6_8 
REMARK    4  A    between atoms: C8_10  and  C9_11 
REMARK    5  A    between atoms: C10_12  and  C11_13 
REMARK    6  A    between atoms: C11_13  and  O3_14 
REMARK    7  A    between atoms: N1_16  and  O4_18 
ROOT
HETATM    1  C6  UNL     1      -0.280  -0.454   0.317  1.00  0.00     0.082 A 
HETATM    2  C7  UNL     1       0.988  -0.173  -0.124  1.00  0.00     0.032 A 
HETATM    3  C8  UNL     1       2.036  -1.063   0.048  1.00  0.00    -0.032 A 
HETATM    4  C12 UNL     1       1.781  -2.244   0.673  1.00  0.00     0.057 A 
HETATM    5  C13 UNL     1       0.523  -2.574   1.134  1.00  0.00     0.156 A 
HETATM    6  F1  UNL     1       0.331  -3.760   1.746  1.00  0.00    -0.203 F 
HETATM    7  C14 UNL     1      -0.495  -1.656   0.942  1.00  0.00     0.171 A 
HETATM    8  F2  UNL     1      -1.735  -2.002   1.407  1.00  0.00    -0.202 F 
ENDROOT
BRANCH   3   9
HETATM    9  C9  UNL     1       3.369  -0.683  -0.455  1.00  0.00     0.016 C 
HETATM   10  C10 UNL     1       4.422  -1.451  -0.344  1.00  0.00     0.058 C 
BRANCH  10  11
HETATM   11  C11 UNL     1       5.731  -1.117  -0.819  1.00  0.00     0.159 C 
HETATM   12  N1  UNL     1       6.061  -0.069  -1.399  1.00  0.00    -0.248 N 
ATOM     13  H1  UNL     1       7.051  -0.054  -1.646  1.00  0.00     0.196 HD
BRANCH  11  14
HETATM   14  O3  UNL     1       6.755  -2.098  -0.599  1.00  0.00    -0.345 OA
ATOM     15  H3  UNL     1       7.623  -1.876  -0.914  1.00  0.00     0.219 HD
ENDBRANCH  11  14
BRANCH  12  16
HETATM   16  O4  UNL     1       5.430   1.030  -1.771  1.00  0.00    -0.288 OA
ATOM     17  H4  UNL     1       5.682   1.831  -2.214  1.00  0.00     0.244 HD
ENDBRANCH  12  16
ENDBRANCH  10  11
ENDBRANCH   3   9
BRANCH   1  18
HETATM   18  C5  UNL     1      -1.339   0.504   0.116  1.00  0.00     0.297 C 
HETATM   19  O2  UNL     1      -1.111   1.606  -0.465  1.00  0.00    -0.259 OA
BRANCH  18  20
HETATM   20  O1  UNL     1      -2.649   0.303   0.528  1.00  0.00    -0.307 OA
BRANCH  20  21
HETATM   21  C2  UNL     1      -3.685   1.240   0.331  1.00  0.00     0.060 C 
HETATM   22  C1  UNL     1      -3.919   1.548  -1.132  1.00  0.00     0.046 C 
HETATM   23  C3  UNL     1      -3.504   2.508   1.098  1.00  0.00     0.046 C 
HETATM   24  C4  UNL     1      -4.960   0.573   0.865  1.00  0.00     0.046 C 
ENDBRANCH  20  21
ENDBRANCH  18  20
ENDBRANCH   1  18
TORSDOF 7
