REMARK  8 active torsions:
REMARK  status: ('A' for Active; 'I' for Inactive)
REMARK    1  A    between atoms: C2_2  and  C3_5 
REMARK    2  A    between atoms: C3_5  and  C4_6 
REMARK    3  A    between atoms: C4_6  and  C5_7 
REMARK    4  A    between atoms: C5_7  and  N1_8 
REMARK    5  A    between atoms: N1_8  and  C6_10 
REMARK    6  A    between atoms: C6_10  and  S2_12 
REMARK    7  A    between atoms: S2_12  and  S3_13 
REMARK    8  A    between atoms: S3_13  and  C7_14 
ROOT
HETATM    1  N1  UNL     1       0.307   0.302  -0.763  1.00  0.00    -0.375 N 
ATOM      2  H1  UNL     1      -0.387   1.032  -0.924  1.00  0.00     0.161 HD
ENDROOT
BRANCH   1   3
HETATM    3  C5  UNL     1      -0.038  -0.890  -0.015  1.00  0.00     0.121 C 
BRANCH   3   4
HETATM    4  C4  UNL     1      -1.527  -0.956   0.245  1.00  0.00     0.023 C 
BRANCH   4   5
HETATM    5  C3  UNL     1      -2.053   0.206   1.002  1.00  0.00     0.043 C 
BRANCH   5   6
HETATM    6  C2  UNL     1      -3.532   0.089   1.173  1.00  0.00     0.109 C 
HETATM    7  C1  UNL     1      -4.200   0.063  -0.173  1.00  0.00     0.050 C 
HETATM    8 CL1  UNL     1      -4.139   1.493   2.101  1.00  0.00    -0.102 Cl
HETATM    9 CL2  UNL     1      -3.950  -1.406   2.062  1.00  0.00    -0.102 Cl
ENDBRANCH   5   6
ENDBRANCH   4   5
ENDBRANCH   3   4
ENDBRANCH   1   3
BRANCH   1  10
HETATM   10  C6  UNL     1       1.619   0.438  -1.266  1.00  0.00     0.145 C 
HETATM   11  S1  UNL     1       2.065   1.780  -2.106  1.00  0.00    -0.052 SA
BRANCH  10  12
HETATM   12  S2  UNL     1       2.834  -0.858  -0.994  1.00  0.00    -0.019 SA
BRANCH  12  13
HETATM   13  S3  UNL     1       4.633  -0.353  -2.005  1.00  0.00     0.008 SA
BRANCH  13  14
HETATM   14  C7  UNL     1       5.634   0.563  -0.879  1.00  0.00     0.303 C 
HETATM   15  N2  UNL     1       5.206   0.792   0.439  1.00  0.00    -0.050 NA
HETATM   16  O1  UNL     1       6.733   1.011  -1.267  1.00  0.00    -0.263 OA
ENDBRANCH  13  14
ENDBRANCH  12  13
ENDBRANCH  10  12
ENDBRANCH   1  10
TORSDOF 8
