REMARK  6 active torsions:
REMARK  status: ('A' for Active; 'I' for Inactive)
REMARK    1  A    between atoms: C2_2  and  C4_5 
REMARK    2  A    between atoms: C6_7  and  O1_8 
REMARK    3  A    between atoms: C7_10  and  N1_11 
REMARK    4  A    between atoms: N1_11  and  C8_12 
REMARK    5  A    between atoms: C8_12  and  C9_14 
REMARK    6  A    between atoms: C9_14  and  C10_15 
ROOT
HETATM    1  C4  UNL     1      -2.003  -0.069   0.303  1.00  0.00     0.011 A 
HETATM    2  C5  UNL     1      -1.225   1.034   0.205  1.00  0.00     0.057 A 
HETATM    3  C6  UNL     1       0.091   0.868  -0.052  1.00  0.00     0.114 A 
HETATM    4  C7  UNL     1       0.556  -0.418  -0.195  1.00  0.00     0.182 A 
HETATM    5  S1  UNL     1      -0.920  -1.342   0.043  1.00  0.00    -0.058 SA
ENDROOT
BRANCH   4   6
HETATM    6  N1  UNL     1       1.807  -0.937  -0.441  1.00  0.00    -0.387 NA
BRANCH   6   7
HETATM    7  C8  UNL     1       2.931  -1.127  -0.622  1.00  0.00     0.164 C 
HETATM    8 CL2  UNL     1       3.460  -2.816  -0.934  1.00  0.00    -0.053 Cl
BRANCH   7   9
HETATM    9  C9  UNL     1       4.045  -0.162  -0.618  1.00  0.00     0.199 C 
BRANCH   9  10
HETATM   10  C10 UNL     1       5.072  -0.427   0.419  1.00  0.00     0.180 C 
HETATM   11  O2  UNL     1       5.014  -1.420   1.153  1.00  0.00    -0.648 OA
HETATM   12  O3  UNL     1       6.129   0.470   0.579  1.00  0.00    -0.648 OA
ENDBRANCH   9  10
ENDBRANCH   7   9
ENDBRANCH   6   7
ENDBRANCH   4   6
BRANCH   3  13
HETATM   13  O1  UNL     1       0.933   2.015  -0.164  1.00  0.00    -0.357 OA
ATOM     14  H1  UNL     1       1.858   1.898  -0.345  1.00  0.00     0.218 HD
ENDBRANCH   3  13
BRANCH   1  15
HETATM   15  C2  UNL     1      -3.497  -0.092   0.585  1.00  0.00     0.063 C 
HETATM   16  C1  UNL     1      -4.119   1.007  -0.225  1.00  0.00     0.038 C 
HETATM   17  C3  UNL     1      -3.983  -1.466   0.211  1.00  0.00     0.038 C 
HETATM   18 CL1  UNL     1      -3.660   0.191   2.313  1.00  0.00    -0.114 Cl
ENDBRANCH   1  15
TORSDOF 6
