REMARK  9 active torsions:
REMARK  status: ('A' for Active; 'I' for Inactive)
REMARK    1  A    between atoms: C3_3  and  C4_4 
REMARK    2  A    between atoms: C4_4  and  O1_5 
REMARK    3  A    between atoms: O1_5  and  N1_6 
REMARK    4  A    between atoms: N1_6  and  C5_8 
REMARK    5  A    between atoms: C6_9  and  C7_10 
REMARK    6  A    between atoms: C7_10  and  C8_11 
REMARK    7  A    between atoms: C19_22  and  C20_23 
REMARK    8  A    between atoms: C20_23  and  O2_26 
REMARK    9  A    between atoms: C23_28  and  O3_29 
ROOT
HETATM    1  C1  UNL     1       9.900   0.510  -0.736  1.00  0.00     0.112 C 
HETATM    2  C2  UNL     1       8.678  -0.228  -0.502  1.00  0.00    -0.109 C 
HETATM    3  C3  UNL     1       7.735  -0.903  -0.359  1.00  0.00    -0.078 C 
ENDROOT
BRANCH   3   4
HETATM    4  C4  UNL     1       6.475  -1.777  -0.200  1.00  0.00     0.294 C 
BRANCH   4   5
HETATM    5  O1  UNL     1       6.064  -1.269   1.027  1.00  0.00    -0.269 OA
BRANCH   5   6
HETATM    6  N1  UNL     1       4.987  -0.519   1.324  1.00  0.00    -0.277 N 
ATOM      7  H1  UNL     1       4.699  -0.350   2.288  1.00  0.00     0.193 HD
BRANCH   6   8
HETATM    8  C5  UNL     1       4.331  -0.020   0.314  1.00  0.00     0.114 C 
HETATM    9  C6  UNL     1       3.366   0.104  -0.587  1.00  0.00     0.019 C 
BRANCH   9  10
HETATM   10  C7  UNL     1       1.984  -0.424  -0.292  1.00  0.00     0.007 C 
BRANCH  10  11
HETATM   11  C8  UNL     1       1.193   0.279   0.343  1.00  0.00    -0.041 C 
HETATM   12  C9  UNL     1       1.487   1.586   0.874  1.00  0.00     0.038 C 
HETATM   13  C10 UNL     1       0.293   2.417   0.458  1.00  0.00     0.017 C 
HETATM   14  C11 UNL     1      -0.544   1.394  -0.337  1.00  0.00     0.059 C 
HETATM   15  C12 UNL     1      -1.867   1.679  -0.663  1.00  0.00    -0.064 C 
HETATM   16  C23 UNL     1      -0.249   0.132   0.545  1.00  0.00     0.115 C 
HETATM   17  C13 UNL     1      -2.471   2.753   0.092  1.00  0.00     0.000 C 
HETATM   18  C17 UNL     1      -2.775   0.481  -0.914  1.00  0.00     0.043 C 
HETATM   19  C14 UNL     1      -3.753   2.981   0.246  1.00  0.00    -0.021 C 
HETATM   20  C15 UNL     1      -4.571   1.945  -0.361  1.00  0.00     0.022 A 
HETATM   21  C16 UNL     1      -3.863   0.678   0.177  1.00  0.00     0.014 A 
HETATM   22  C24 UNL     1      -5.289   0.865   0.075  1.00  0.00    -0.035 A 
HETATM   23  C25 UNL     1      -6.125   0.985   1.314  1.00  0.00     0.016 C 
HETATM   24  C26 UNL     1      -5.951  -0.035  -0.979  1.00  0.00     0.016 C 
HETATM   25  C18 UNL     1      -2.094  -0.763  -0.639  1.00  0.00    -0.008 C 
HETATM   26  C19 UNL     1      -1.002  -1.039   0.037  1.00  0.00    -0.011 C 
BRANCH  26  27
HETATM   27  C20 UNL     1      -0.544  -2.408   0.208  1.00  0.00     0.077 C 
HETATM   28  C21 UNL     1      -0.464  -3.318  -0.923  1.00  0.00     0.050 C 
HETATM   29  C22 UNL     1      -1.815  -3.001   1.119  1.00  0.00     0.050 C 
BRANCH  27  30
HETATM   30  O2  UNL     1       0.491  -2.600   1.071  1.00  0.00    -0.386 OA
ATOM     31  H2  UNL     1       0.790  -3.495   1.183  1.00  0.00     0.211 HD
ENDBRANCH  27  30
ENDBRANCH  26  27
BRANCH  16  32
HETATM   32  O3  UNL     1      -0.644   0.305   1.887  1.00  0.00    -0.380 OA
ATOM     33  H3  UNL     1      -1.580   0.210   2.018  1.00  0.00     0.211 HD
ENDBRANCH  16  32
ENDBRANCH  10  11
ENDBRANCH   9  10
ENDBRANCH   6   8
ENDBRANCH   5   6
ENDBRANCH   4   5
ENDBRANCH   3   4
TORSDOF 9
