REMARK  7 active torsions:
REMARK  status: ('A' for Active; 'I' for Inactive)
REMARK    1  A    between atoms: O1_2  and  C2_3 
REMARK    2  A    between atoms: C2_3  and  C3_5 
REMARK    3  A    between atoms: C5_7  and  O3_8 
REMARK    4  A    between atoms: C9_13  and  C10_14 
REMARK    5  A    between atoms: C10_14  and  C12_16 
REMARK    6  A    between atoms: C12_16  and  N1_17 
REMARK    7  A    between atoms: C19_24  and  O4_25 
ROOT
HETATM    1  C3  UNL     1       3.696   0.197   0.872  1.00  0.00     0.074 C 
HETATM    2  C4  UNL     1       4.651  -0.341   1.953  1.00  0.00     0.029 C 
HETATM    3  C5  UNL     1       2.724   1.078   1.612  1.00  0.00     0.137 C 
HETATM    4  C6  UNL     1       1.330   0.634   1.217  1.00  0.00     0.042 C 
HETATM    5  C7  UNL     1       1.443  -0.329   0.074  1.00  0.00    -0.032 C 
HETATM    6  C8  UNL     1       1.432   0.489  -1.186  1.00  0.00     0.016 C 
HETATM    7  C9  UNL     1       0.515  -1.478   0.083  1.00  0.00     0.003 C 
HETATM    8  C20 UNL     1       0.973  -2.670  -0.728  1.00  0.00    -0.013 C 
HETATM    9  C21 UNL     1       0.818  -2.509  -2.212  1.00  0.00     0.010 C 
HETATM   10  C22 UNL     1       2.422  -3.029  -0.496  1.00  0.00     0.005 C 
HETATM   11  C23 UNL     1       3.322  -1.806  -0.628  1.00  0.00     0.007 C 
HETATM   12  C24 UNL     1       2.835  -0.883   0.409  1.00  0.00     0.014 C 
ENDROOT
BRANCH   7  13
HETATM   13  C10 UNL     1      -0.923  -1.211  -0.216  1.00  0.00     0.015 C 
HETATM   14  C11 UNL     1      -1.768  -2.479  -0.197  1.00  0.00     0.012 C 
BRANCH  13  15
HETATM   15  C12 UNL     1      -1.656  -0.320   0.728  1.00  0.00     0.280 C 
BRANCH  15  16
HETATM   16  N1  UNL     1      -3.020  -0.197   0.245  1.00  0.00     0.118 N 
HETATM   17  C13 UNL     1      -3.049   0.565  -0.964  1.00  0.00     0.277 C 
HETATM   18  C14 UNL     1      -3.943   1.780  -0.678  1.00  0.00     0.044 C 
HETATM   19  C15 UNL     1      -4.793   1.239   0.444  1.00  0.00     0.016 C 
HETATM   20  C16 UNL     1      -6.035   0.512  -0.021  1.00  0.00     0.014 C 
HETATM   21  C18 UNL     1      -5.637   2.231   1.190  1.00  0.00     0.014 C 
HETATM   22  C19 UNL     1      -3.809   0.448   1.247  1.00  0.00     0.365 C 
HETATM   23  C17 UNL     1      -6.822   1.771   0.357  1.00  0.00     0.002 C 
BRANCH  22  24
HETATM   24  O4  UNL     1      -3.013   1.314   1.973  1.00  0.00    -0.367 OA
ATOM     25  H4  UNL     1      -3.537   1.743   2.639  1.00  0.00     0.212 HD
ENDBRANCH  22  24
ENDBRANCH  15  16
ENDBRANCH  13  15
ENDBRANCH   7  13
BRANCH   3  26
HETATM   26  O3  UNL     1       2.985   2.415   1.351  1.00  0.00    -0.394 OA
ATOM     27  H3  UNL     1       2.372   2.971   1.818  1.00  0.00     0.210 HD
ENDBRANCH   3  26
BRANCH   1  28
HETATM   28  C2  UNL     1       4.544   0.903  -0.071  1.00  0.00     0.269 C 
HETATM   29  O2  UNL     1       4.657   0.539  -1.259  1.00  0.00    -0.264 OA
BRANCH  28  30
HETATM   30  O1  UNL     1       5.296   2.038   0.267  1.00  0.00    -0.326 OA
HETATM   31  C1  UNL     1       6.109   2.697  -0.680  1.00  0.00     0.213 C 
ENDBRANCH  28  30
ENDBRANCH   1  28
TORSDOF 7
