REMARK  7 active torsions:
REMARK  status: ('A' for Active; 'I' for Inactive)
REMARK    1  A    between atoms: C2_2  and  C4_4 
REMARK    2  A    between atoms: C4_4  and  C5_5 
REMARK    3  A    between atoms: C13_14  and  O2_15 
REMARK    4  A    between atoms: O2_15  and  C14_16 
REMARK    5  A    between atoms: C16_19  and  O4_20 
REMARK    6  A    between atoms: C17_22  and  O5_23 
REMARK    7  A    between atoms: C21_28  and  C22_29 
ROOT
HETATM    1  C5  UNL     1       2.024  -1.008  -0.182  1.00  0.00     0.198 C 
HETATM    2  O1  UNL     1       1.881   0.113  -1.073  1.00  0.00    -0.358 OA
HETATM    3  C6  UNL     1       1.213   1.291  -0.503  1.00  0.00     0.091 C 
HETATM    4  C7  UNL     1       1.173   2.271  -1.696  1.00  0.00     0.044 C 
HETATM    5  C8  UNL     1      -0.264   2.561  -1.263  1.00  0.00     0.012 C 
HETATM    6  C9  UNL     1      -0.168   1.120  -0.812  1.00  0.00     0.036 C 
HETATM    7  C10 UNL     1      -1.228   0.537  -0.009  1.00  0.00    -0.001 C 
HETATM    8  C11 UNL     1      -1.837   1.327   1.071  1.00  0.00     0.019 C 
HETATM    9  C12 UNL     1      -2.437   0.207  -0.922  1.00  0.00     0.048 C 
HETATM   10  C13 UNL     1      -3.246  -0.736  -0.066  1.00  0.00     0.164 C 
HETATM   11  C16 UNL     1      -2.204  -1.516   0.668  1.00  0.00     0.182 C 
HETATM   12  C17 UNL     1      -0.870  -0.892   0.307  1.00  0.00     0.094 C 
HETATM   13  C18 UNL     1       0.072  -1.100   1.407  1.00  0.00     0.049 C 
HETATM   14  C19 UNL     1       1.506  -0.781   1.159  1.00  0.00     0.033 C 
HETATM   15  C20 UNL     1       1.791   0.573   1.717  1.00  0.00     0.045 C 
HETATM   16  C21 UNL     1       2.006   1.633   0.600  1.00  0.00    -0.043 C 
ENDROOT
BRANCH   1  17
HETATM   17  C4  UNL     1       2.577  -1.992  -0.716  1.00  0.00    -0.118 C 
BRANCH  17  18
HETATM   18  C2  UNL     1       3.194  -3.091  -1.312  1.00  0.00    -0.028 C 
HETATM   19  C1  UNL     1       3.567  -2.956  -2.609  1.00  0.00     0.027 C 
HETATM   20  C3  UNL     1       3.505  -4.395  -0.721  1.00  0.00     0.056 C 
ENDBRANCH  17  18
ENDBRANCH   1  17
BRANCH  16  21
HETATM   21  C22 UNL     1       2.265   2.854   1.339  1.00  0.00    -0.082 C 
HETATM   22  C23 UNL     1       1.208   3.600   2.055  1.00  0.00     0.043 C 
HETATM   23  C24 UNL     1       3.170   3.875   0.662  1.00  0.00     0.043 C 
ENDBRANCH  16  21
BRANCH  12  24
HETATM   24  O5  UNL     1      -0.499  -1.523  -0.887  1.00  0.00    -0.386 OA
ATOM     25  H5  UNL     1      -0.273  -2.424  -0.688  1.00  0.00     0.210 HD
ENDBRANCH  12  24
BRANCH  11  26
HETATM   26  O4  UNL     1      -2.380  -1.600   2.033  1.00  0.00    -0.390 OA
ATOM     27  H4  UNL     1      -1.718  -2.096   2.500  1.00  0.00     0.210 HD
ENDBRANCH  11  26
BRANCH  10  28
HETATM   28  O2  UNL     1      -4.014  -1.537  -0.958  1.00  0.00    -0.314 OA
BRANCH  28  29
HETATM   29  C14 UNL     1      -5.372  -1.525  -0.838  1.00  0.00     0.255 C 
HETATM   30  C15 UNL     1      -6.319  -2.295  -1.679  1.00  0.00     0.126 C 
HETATM   31  O3  UNL     1      -5.883  -0.804   0.057  1.00  0.00    -0.266 OA
ENDBRANCH  28  29
ENDBRANCH  10  28
TORSDOF 7
