REMARK  5 active torsions:
REMARK  status: ('A' for Active; 'I' for Inactive)
REMARK    1  A    between atoms: O1_2  and  C2_3 
REMARK    2  A    between atoms: C7_8  and  O2_10 
REMARK    3  A    between atoms: C12_15  and  C13_16 
REMARK    4  A    between atoms: C13_16  and  O3_17 
REMARK    5  A    between atoms: C17_22  and  C19_24 
ROOT
HETATM    1  C2  UNL     1       1.087   0.640  -0.826  1.00  0.00     0.072 C 
HETATM    2  C3  UNL     1       0.111   0.666  -1.934  1.00  0.00     0.040 C 
HETATM    3  C4  UNL     1      -1.266   0.887  -1.470  1.00  0.00     0.016 C 
HETATM    4  C5  UNL     1      -1.729  -0.042  -0.363  1.00  0.00    -0.003 C 
HETATM    5  C6  UNL     1      -2.008  -1.371  -1.091  1.00  0.00     0.019 C 
HETATM    6  C7  UNL     1      -3.051   0.552   0.040  1.00  0.00     0.062 C 
HETATM    7  C8  UNL     1      -4.185  -0.012  -0.838  1.00  0.00     0.046 C 
HETATM    8  C9  UNL     1      -3.507   0.391   1.434  1.00  0.00     0.038 C 
HETATM    9  C10 UNL     1      -2.437   0.413   2.467  1.00  0.00     0.004 C 
HETATM   10  C11 UNL     1      -1.085   0.541   1.886  1.00  0.00     0.013 C 
HETATM   11  C12 UNL     1      -0.757  -0.337   0.700  1.00  0.00    -0.002 C 
HETATM   12  C14 UNL     1       0.700  -0.090   0.396  1.00  0.00     0.036 C 
HETATM   13  C15 UNL     1       1.543  -1.348   0.322  1.00  0.00     0.044 C 
HETATM   14  C16 UNL     1       2.831  -0.739  -0.277  1.00  0.00    -0.064 C 
HETATM   15  C17 UNL     1       3.937  -0.841   0.365  1.00  0.00    -0.021 C 
HETATM   16  C18 UNL     1       3.904  -1.583   1.727  1.00  0.00     0.052 C 
HETATM   17  C20 UNL     1       2.261  -0.222  -1.465  1.00  0.00     0.046 C 
HETATM   18  C21 UNL     1       2.974   0.594  -2.453  1.00  0.00     0.018 C 
ENDROOT
BRANCH  15  19
HETATM   19  C19 UNL     1       5.261  -0.376   0.024  1.00  0.00     0.265 C 
HETATM   20  O4  UNL     1       5.610   0.231  -0.986  1.00  0.00    -0.302 OA
ENDBRANCH  15  19
BRANCH   1  21
HETATM   21  O1  UNL     1       1.791   1.781  -0.592  1.00  0.00    -0.384 OA
HETATM   22  C1  UNL     1       1.206   2.938  -0.284  1.00  0.00     0.202 C 
ENDBRANCH   1  21
BRANCH  11  23
HETATM   23  C13 UNL     1      -0.779  -1.763   1.212  1.00  0.00     0.175 C 
BRANCH  23  24
HETATM   24  O3  UNL     1      -1.940  -2.230   1.746  1.00  0.00    -0.400 OA
ATOM     25  H3  UNL     1      -1.954  -3.124   2.067  1.00  0.00     0.209 HD
ENDBRANCH  23  24
ENDBRANCH  11  23
BRANCH   6  26
HETATM   26  O2  UNL     1      -3.121   1.946  -0.243  1.00  0.00    -0.389 OA
ATOM     27  H2  UNL     1      -3.956   2.321   0.012  1.00  0.00     0.210 HD
ENDBRANCH   6  26
TORSDOF 5
