REMARK  8 active torsions:
REMARK  status: ('A' for Active; 'I' for Inactive)
REMARK    1  A    between atoms: O1_2  and  C2_3 
REMARK    2  A    between atoms: C2_3  and  C3_5 
REMARK    3  A    between atoms: C3_5  and  C4_6 
REMARK    4  A    between atoms: C4_6  and  O3_7 
REMARK    5  A    between atoms: C4_6  and  C5_9 
REMARK    6  A    between atoms: C7_11  and  C8_12 
REMARK    7  A    between atoms: C9_13  and  C10_14 
REMARK    8  A    between atoms: C10_14  and  O4_15 
ROOT
HETATM    1  C10 UNL     1      -1.823  -0.068  -1.246  1.00  0.00     0.128 C 
HETATM    2  C11 UNL     1      -1.957   1.407  -1.420  1.00  0.00     0.053 C 
HETATM    3  C12 UNL     1      -3.420   1.906  -1.448  1.00  0.00     0.013 C 
HETATM    4  C13 UNL     1      -4.002   1.195  -0.308  1.00  0.00    -0.039 C 
HETATM    5  C14 UNL     1      -5.121   1.494   0.553  1.00  0.00     0.014 C 
HETATM    6  C15 UNL     1      -4.223   1.040   1.712  1.00  0.00    -0.013 C 
HETATM    7  C16 UNL     1      -3.921  -0.389   1.820  1.00  0.00     0.005 C 
HETATM    8  C17 UNL     1      -2.642  -0.863   1.078  1.00  0.00     0.013 C 
HETATM    9  C18 UNL     1      -2.731  -0.814  -0.383  1.00  0.00    -0.001 C 
HETATM   10  C19 UNL     1      -2.848  -2.252  -0.956  1.00  0.00     0.019 C 
HETATM   11  C20 UNL     1      -4.112  -0.221  -0.680  1.00  0.00     0.022 C 
HETATM   12  C21 UNL     1      -3.156   1.626   0.847  1.00  0.00     0.014 C 
ENDROOT
BRANCH   1  13
HETATM   13  C9  UNL     1      -0.400  -0.350  -1.013  1.00  0.00    -0.067 C 
HETATM   14  C8  UNL     1       0.774  -0.594  -0.846  1.00  0.00    -0.098 C 
BRANCH  14  15
HETATM   15  C7  UNL     1       2.217  -0.896  -0.674  1.00  0.00     0.072 A 
HETATM   16  C5  UNL     1       2.707  -0.758   0.691  1.00  0.00     0.032 A 
HETATM   17  C6  UNL     1       2.477  -2.150   0.178  1.00  0.00     0.026 A 
BRANCH  16  18
HETATM   18  C4  UNL     1       4.154  -0.409   0.940  1.00  0.00     0.132 C 
BRANCH  18  19
HETATM   19  C3  UNL     1       5.028  -0.497  -0.279  1.00  0.00     0.143 C 
BRANCH  19  20
HETATM   20  C2  UNL     1       6.430  -0.101   0.135  1.00  0.00     0.260 C 
HETATM   21  O2  UNL     1       6.986  -0.615   1.133  1.00  0.00    -0.265 OA
BRANCH  20  22
HETATM   22  O1  UNL     1       7.106   0.857  -0.611  1.00  0.00    -0.326 OA
HETATM   23  C1  UNL     1       8.408   1.233  -0.207  1.00  0.00     0.213 C 
ENDBRANCH  20  22
ENDBRANCH  19  20
ENDBRANCH  18  19
BRANCH  18  24
HETATM   24  O3  UNL     1       4.216   0.936   1.356  1.00  0.00    -0.395 OA
ATOM     25  H3  UNL     1       3.663   0.992   2.127  1.00  0.00     0.210 HD
ENDBRANCH  18  24
ENDBRANCH  16  18
ENDBRANCH  14  15
ENDBRANCH   1  13
BRANCH   1  26
HETATM   26  O4  UNL     1      -2.068  -0.570  -2.568  1.00  0.00    -0.377 OA
ATOM     27  H4  UNL     1      -2.988  -0.388  -2.719  1.00  0.00     0.211 HD
ENDBRANCH   1  26
TORSDOF 8
