REMARK  8 active torsions:
REMARK  status: ('A' for Active; 'I' for Inactive)
REMARK    1  A    between atoms: N1_2  and  C2_4 
REMARK    2  A    between atoms: C2_4  and  N2_6 
REMARK    3  A    between atoms: C3_7  and  C4_8 
REMARK    4  A    between atoms: C7_14  and  C8_15 
REMARK    5  A    between atoms: C12_20  and  C13_21 
REMARK    6  A    between atoms: C16_24  and  N3_25 
REMARK       I    between atoms: N3_25  and  C17_27 
REMARK    7  A    between atoms: C17_27  and  C18_29 
REMARK    8  A    between atoms: C18_29  and  N4_31 
ROOT
HETATM    1  N2  UNL     1      -4.076   0.123   0.863  1.00  0.00    -0.309 N 
HETATM    2  C3  UNL     1      -3.229   0.010   2.098  1.00  0.00     0.193 C 
HETATM    3  C5  UNL     1      -1.785  -0.168   1.807  1.00  0.00     0.071 C 
HETATM    4  C6  UNL     1      -1.257   0.777   0.763  1.00  0.00     0.156 C 
HETATM    5  O3  UNL     1      -2.351   1.378   0.156  1.00  0.00    -0.350 OA
HETATM    6  C7  UNL     1      -3.270   0.373  -0.292  1.00  0.00     0.164 C 
HETATM    7  C11 UNL     1      -2.601  -0.897  -0.720  1.00  0.00     0.230 C 
HETATM    8  O4  UNL     1      -1.275  -1.072  -0.592  1.00  0.00    -0.378 OA
HETATM    9  C12 UNL     1      -0.549   0.055  -0.360  1.00  0.00     0.154 C 
ENDROOT
BRANCH   9  10
HETATM   10  C13 UNL     1       0.909  -0.135  -0.183  1.00  0.00     0.017 C 
HETATM   11  C14 UNL     1       1.402  -0.875  -1.437  1.00  0.00     0.009 C 
HETATM   12  C15 UNL     1       2.742  -1.475  -1.162  1.00  0.00     0.026 C 
HETATM   13  C16 UNL     1       3.468  -0.550  -0.184  1.00  0.00     0.084 C 
HETATM   14  C21 UNL     1       2.854  -0.714   1.198  1.00  0.00     0.026 C 
HETATM   15  C22 UNL     1       1.349  -0.873   1.030  1.00  0.00     0.009 C 
BRANCH  13  16
HETATM   16  N3  UNL     1       4.845  -0.960  -0.154  1.00  0.00    -0.355 N 
HETATM   17  C17 UNL     1       5.865  -0.041  -0.457  1.00  0.00     0.248 C 
HETATM   18  O5  UNL     1       5.564   1.140  -0.756  1.00  0.00    -0.271 OA
ATOM     19  H3  UNL     1       5.083  -1.922   0.088  1.00  0.00     0.162 HD
BRANCH  17  20
HETATM   20  C18 UNL     1       7.298  -0.455  -0.428  1.00  0.00     0.272 C 
HETATM   21  C19 UNL     1       7.451  -1.644  -1.352  1.00  0.00     0.050 C 
BRANCH  20  22
HETATM   22  N4  UNL     1       8.178   0.631  -0.766  1.00  0.00    -0.067 N 
HETATM   23  C20 UNL     1       8.060   1.689   0.203  1.00  0.00     0.267 C 
ATOM     24  H42 UNL     1       9.143   0.319  -0.874  1.00  0.00     0.277 HD
ATOM     25  H41 UNL     1       8.021   0.966  -1.716  1.00  0.00     0.277 HD
ENDBRANCH  20  22
ENDBRANCH  17  20
ENDBRANCH  13  16
ENDBRANCH   9  10
BRANCH   2  26
HETATM   26  C4  UNL     1      -3.423   1.237   2.932  1.00  0.00     0.197 C 
HETATM   27  O1  UNL     1      -4.117   2.184   2.502  1.00  0.00    -0.646 OA
HETATM   28  O2  UNL     1      -2.856   1.373   4.187  1.00  0.00    -0.646 OA
ENDBRANCH   2  26
BRANCH   6  29
HETATM   29  C8  UNL     1      -3.873   0.980  -1.512  1.00  0.00     0.036 C 
HETATM   30  C9  UNL     1      -4.533   2.320  -1.312  1.00  0.00     0.014 C 
HETATM   31  C10 UNL     1      -4.495   0.084  -2.516  1.00  0.00     0.014 C 
ENDBRANCH   6  29
BRANCH   1  32
HETATM   32  C2  UNL     1      -5.428  -0.044   1.102  1.00  0.00     0.172 C 
HETATM   33  S1  UNL     1      -5.818  -0.382   2.717  1.00  0.00    -0.041 SA
BRANCH  32  34
HETATM   34  N1  UNL     1      -6.566  -0.012   0.287  1.00  0.00    -0.371 N 
HETATM   35  C1  UNL     1      -7.880  -0.252   0.961  1.00  0.00     0.148 C 
ATOM     36  H1  UNL     1      -6.502   0.166  -0.715  1.00  0.00     0.161 HD
ENDBRANCH  32  34
ENDBRANCH   1  32
TORSDOF 8
