REMARK  8 active torsions:
REMARK  status: ('A' for Active; 'I' for Inactive)
REMARK    1  A    between atoms: C2_2  and  N2_4 
REMARK    2  A    between atoms: N2_4  and  C3_5 
REMARK    3  A    between atoms: C3_5  and  C4_6 
REMARK    4  A    between atoms: C10_15  and  C11_16 
REMARK       I    between atoms: N3_19  and  C12_20 
REMARK    5  A    between atoms: C12_20  and  C13_22 
REMARK    6  A    between atoms: C13_22  and  C15_24 
REMARK    7  A    between atoms: C13_22  and  C19_32 
REMARK    8  A    between atoms: C15_24  and  C16_25 
ROOT
HETATM    1  C3  UNL     1      -2.278   0.100   0.482  1.00  0.00     0.219 C 
HETATM    2  C5  UNL     1      -1.387   1.233   0.696  1.00  0.00     0.159 A 
HETATM    3  C6  UNL     1      -1.907   2.190   1.744  1.00  0.00     0.108 A 
HETATM    4  S1  UNL     1      -3.399   1.388   2.333  1.00  0.00    -0.146 SA
HETATM    5  C7  UNL     1      -3.752   0.609   0.701  1.00  0.00     0.051 C 
HETATM    6  C8  UNL     1      -4.696  -0.522   0.806  1.00  0.00     0.031 C 
HETATM    7  C9  UNL     1      -4.054   1.613  -0.329  1.00  0.00     0.031 C 
HETATM    8  C10 UNL     1      -0.651   2.112   2.444  1.00  0.00     0.204 A 
HETATM    9  N3  UNL     1      -0.120   1.250   1.338  1.00  0.00    -0.325 N 
HETATM   10  C12 UNL     1       1.228   0.889   1.198  1.00  0.00     0.230 C 
HETATM   11  O5  UNL     1       2.006   1.077   2.205  1.00  0.00    -0.272 OA
ENDROOT
BRANCH   8  12
HETATM   12  C11 UNL     1      -0.464   1.676   3.795  1.00  0.00     0.198 C 
HETATM   13  O3  UNL     1      -0.960   2.435   4.717  1.00  0.00    -0.646 OA
HETATM   14  O4  UNL     1       0.172   0.560   4.287  1.00  0.00    -0.646 OA
ENDBRANCH   8  12
BRANCH  10  15
HETATM   15  C13 UNL     1       1.945   0.305   0.023  1.00  0.00     0.045 C 
HETATM   16  C14 UNL     1       1.416   1.000  -1.226  1.00  0.00     0.026 C 
BRANCH  15  17
HETATM   17  C15 UNL     1       3.412   0.644   0.203  1.00  0.00     0.077 C 
BRANCH  17  18
HETATM   18  C16 UNL     1       4.366   0.191  -0.791  1.00  0.00     0.026 A 
HETATM   19  C17 UNL     1       5.133  -0.961  -0.772  1.00  0.00     0.114 A 
HETATM   20  N4  UNL     1       5.885  -0.992  -1.872  1.00  0.00    -0.360 N 
HETATM   21  C18 UNL     1       5.609   0.111  -2.582  1.00  0.00     0.180 A 
ATOM     22  H4  UNL     1       6.550  -1.722  -2.127  1.00  0.00     0.166 HD
HETATM   23  N5  UNL     1       4.695   0.817  -1.926  1.00  0.00    -0.355 N 
ATOM     24  H5  UNL     1       4.303   1.704  -2.241  1.00  0.00     0.166 HD
ENDBRANCH  17  18
ENDBRANCH  15  17
BRANCH  15  25
HETATM   25  C19 UNL     1       1.632  -1.146  -0.046  1.00  0.00    -0.005 C 
HETATM   26  C20 UNL     1       2.083  -1.930   1.169  1.00  0.00     0.011 C 
HETATM   27  C21 UNL     1       2.024  -1.874  -1.280  1.00  0.00     0.011 C 
ENDBRANCH  15  25
ENDBRANCH  10  15
BRANCH   1  28
HETATM   28  N2  UNL     1      -2.249  -0.317  -0.835  1.00  0.00    -0.411 NA
BRANCH  28  29
HETATM   29  C2  UNL     1      -2.219  -0.687  -1.936  1.00  0.00     0.157 C 
HETATM   30  C1  UNL     1      -2.515   0.187  -3.142  1.00  0.00     0.101 C 
HETATM   31  N1  UNL     1      -1.894  -2.051  -2.342  1.00  0.00    -0.073 NA
ENDBRANCH  28  29
ENDBRANCH   1  28
BRANCH   1  32
HETATM   32  C4  UNL     1      -2.198  -1.055   1.445  1.00  0.00     0.220 C 
HETATM   33  O1  UNL     1      -1.903  -2.202   1.016  1.00  0.00    -0.645 OA
HETATM   34  O2  UNL     1      -2.432  -0.977   2.796  1.00  0.00    -0.645 OA
ENDBRANCH   1  32
TORSDOF 8
