REMARK  9 active torsions:
REMARK  status: ('A' for Active; 'I' for Inactive)
REMARK    1  A    between atoms: C2_2  and  C4_4 
REMARK    2  A    between atoms: C4_4  and  C5_5 
REMARK    3  A    between atoms: C6_8  and  O1_9 
REMARK    4  A    between atoms: C9_13  and  O2_14 
REMARK    5  A    between atoms: C13_21  and  O3_22 
REMARK    6  A    between atoms: O3_22  and  C14_23 
REMARK    7  A    between atoms: C14_23  and  C15_24 
REMARK    8  A    between atoms: C15_24  and  N3_25 
REMARK    9  A    between atoms: C21_34  and  C22_35 
ROOT
HETATM    1  C5  UNL     1      -3.502  -0.009   0.192  1.00  0.00     0.155 C 
HETATM    2  N1  UNL     1      -3.255  -1.180   0.938  1.00  0.00    -0.362 N 
ATOM      3  H1  UNL     1      -3.819  -1.966   0.615  1.00  0.00     0.162 HD
HETATM    4  C6  UNL     1      -2.432  -1.530   2.006  1.00  0.00     0.123 C 
HETATM    5  C7  UNL     1      -1.219  -0.921   2.563  1.00  0.00     0.130 C 
HETATM    6  C8  UNL     1      -1.349  -1.085   4.110  1.00  0.00     0.027 C 
HETATM    7  C9  UNL     1      -0.988   0.502   2.276  1.00  0.00     0.127 C 
HETATM    8  N2  UNL     1      -0.148   1.185   1.439  1.00  0.00    -0.339 N 
ATOM      9  H2  UNL     1      -0.479   2.129   1.240  1.00  0.00     0.168 HD
HETATM   10  C10 UNL     1       1.101   0.882   0.769  1.00  0.00     0.049 A 
HETATM   11  C11 UNL     1       2.182   1.753   1.045  1.00  0.00     0.033 A 
HETATM   12  C12 UNL     1       3.442   1.633   0.534  1.00  0.00     0.039 A 
HETATM   13  C13 UNL     1       3.700   0.585  -0.321  1.00  0.00     0.070 A 
HETATM   14  C18 UNL     1       2.663  -0.270  -0.602  1.00  0.00     0.056 A 
HETATM   15  C19 UNL     1       1.363  -0.146  -0.077  1.00  0.00     0.061 A 
HETATM   16  C20 UNL     1       0.424  -1.172  -0.572  1.00  0.00     0.254 C 
HETATM   17  O4  UNL     1       0.921  -2.365  -0.508  1.00  0.00    -0.268 OA
HETATM   18  N4  UNL     1      -0.857  -1.092  -1.079  1.00  0.00    -0.345 N 
ATOM     19  H4  UNL     1      -1.372  -1.972  -1.070  1.00  0.00     0.163 HD
HETATM   20  C21 UNL     1      -1.593   0.031  -1.622  1.00  0.00     0.160 C 
HETATM   21  C25 UNL     1      -3.020  -0.092  -1.226  1.00  0.00     0.172 C 
HETATM   22  O5  UNL     1      -3.861  -0.271  -2.079  1.00  0.00    -0.293 OA
ENDROOT
BRANCH  13  23
HETATM   23  O3  UNL     1       4.964   0.394  -0.882  1.00  0.00    -0.349 OA
BRANCH  23  24
HETATM   24  C14 UNL     1       5.998   1.303  -0.559  1.00  0.00     0.206 C 
BRANCH  24  25
HETATM   25  C15 UNL     1       7.288   0.932  -1.261  1.00  0.00     0.297 C 
BRANCH  25  26
HETATM   26  N3  UNL     1       7.765  -0.374  -0.916  1.00  0.00     0.082 N 
HETATM   27  C16 UNL     1       8.218  -0.513   0.435  1.00  0.00     0.309 C 
HETATM   28  C17 UNL     1       6.894  -1.440  -1.349  1.00  0.00     0.309 C 
ENDBRANCH  25  26
ENDBRANCH  24  25
ENDBRANCH  23  24
ENDBRANCH  13  23
BRANCH   7  29
HETATM   29  O2  UNL     1      -1.797   1.227   3.022  1.00  0.00    -0.349 OA
ATOM     30  H2  UNL     1      -1.648   2.147   2.837  1.00  0.00     0.219 HD
ENDBRANCH   7  29
BRANCH  20  31
HETATM   31  C22 UNL     1      -1.432  -0.044  -3.145  1.00  0.00     0.007 C 
HETATM   32  C23 UNL     1      -2.170   1.113  -3.825  1.00  0.00     0.012 C 
HETATM   33  C24 UNL     1      -1.855  -1.347  -3.725  1.00  0.00     0.012 C 
ENDBRANCH  20  31
BRANCH   4  34
HETATM   34  O1  UNL     1      -2.751  -2.609   2.686  1.00  0.00    -0.349 OA
ATOM     35  H1  UNL     1      -2.190  -2.848   3.414  1.00  0.00     0.219 HD
ENDBRANCH   4  34
BRANCH   1  36
HETATM   36  C4  UNL     1      -4.966   0.351   0.168  1.00  0.00     0.037 C 
BRANCH  36  37
HETATM   37  C2  UNL     1      -5.618   0.658   1.473  1.00  0.00    -0.020 C 
HETATM   38  C1  UNL     1      -5.627  -0.425   2.474  1.00  0.00     0.009 C 
HETATM   39  C3  UNL     1      -7.085   0.983   1.139  1.00  0.00     0.009 C 
ENDBRANCH  36  37
ENDBRANCH   1  36
TORSDOF 9
