REMARK  12 active torsions:
REMARK  status: ('A' for Active; 'I' for Inactive)
REMARK    1  A    between atoms: C2_2  and  C4_4 
REMARK    2  A    between atoms: C4_4  and  C5_5 
REMARK    3  A    between atoms: C4_4  and  N3_19 
REMARK    4  A    between atoms: C5_5  and  O1_6 
REMARK    5  A    between atoms: C5_5  and  N1_8 
REMARK    6  A    between atoms: C8_11  and  C9_12 
REMARK    7  A    between atoms: C9_12  and  N2_13 
REMARK       I    between atoms: N3_19  and  C13_21 
REMARK       I    between atoms: C13_21  and  N4_23 
REMARK    8  A    between atoms: N4_23  and  C14_25 
REMARK    9  A    between atoms: C14_25  and  C15_26 
REMARK   10  A    between atoms: C17_30  and  N5_31 
REMARK       I    between atoms: N5_31  and  C18_33 
REMARK   11  A    between atoms: C18_33  and  O6_35 
REMARK   12  A    between atoms: O6_35  and  C19_36 
ROOT
HETATM    1  N3  UNL     1       0.823  -0.924  -1.416  1.00  0.00    -0.303 N 
HETATM    2  C12 UNL     1       1.176  -0.618  -2.798  1.00  0.00     0.161 C 
HETATM    3  C13 UNL     1      -0.545  -1.315  -1.191  1.00  0.00     0.323 C 
HETATM    4  O2  UNL     1      -0.877  -1.577  -0.018  1.00  0.00    -0.247 OA
HETATM    5  N4  UNL     1      -1.496  -1.411  -2.222  1.00  0.00    -0.321 N 
ATOM      6  H4  UNL     1      -1.235  -1.197  -3.185  1.00  0.00     0.165 HD
ENDROOT
BRANCH   1   7
HETATM    7  C4  UNL     1       1.716  -0.869  -0.304  1.00  0.00     0.070 C 
BRANCH   7   8
HETATM    8  C2  UNL     1       2.765  -1.960  -0.287  1.00  0.00     0.032 C 
HETATM    9  C1  UNL     1       2.175  -3.289  -0.733  1.00  0.00     0.016 C 
HETATM   10  C3  UNL     1       3.245  -2.222   1.149  1.00  0.00     0.016 C 
ENDBRANCH   7   8
BRANCH   7  11
HETATM   11  C5  UNL     1       2.206   0.432   0.113  1.00  0.00     0.162 C 
BRANCH  11  12
HETATM   12  O1  UNL     1       1.426   1.041   0.976  1.00  0.00    -0.345 OA
ATOM     13  H1  UNL     1       1.747   1.893   1.249  1.00  0.00     0.219 HD
ENDBRANCH  11  12
BRANCH  11  14
HETATM   14  N1  UNL     1       3.334   1.176  -0.208  1.00  0.00    -0.360 N 
HETATM   15  C6  UNL     1       4.406   0.906  -1.115  1.00  0.00     0.125 C 
HETATM   16  C7  UNL     1       5.654   0.646  -0.298  1.00  0.00     0.026 C 
HETATM   17  C8  UNL     1       5.968   1.904   0.470  1.00  0.00     0.014 C 
HETATM   18  C10 UNL     1       4.825   2.468   1.243  1.00  0.00     0.026 C 
HETATM   19  C11 UNL     1       3.515   2.467   0.498  1.00  0.00     0.125 C 
BRANCH  17  20
HETATM   20  C9  UNL     1       7.130   1.598   1.388  1.00  0.00     0.234 C 
BRANCH  20  21
HETATM   21  N2  UNL     1       6.855   0.549   2.325  1.00  0.00    -0.079 N 
ATOM     22  H23 UNL     1       6.014   0.756   2.863  1.00  0.00     0.274 HD
ATOM     23  H22 UNL     1       6.544  -0.294   1.843  1.00  0.00     0.274 HD
ATOM     24  H21 UNL     1       7.639   0.343   2.944  1.00  0.00     0.274 HD
ENDBRANCH  20  21
ENDBRANCH  17  20
ENDBRANCH  11  14
ENDBRANCH   7  11
ENDBRANCH   1   7
BRANCH   5  25
HETATM   25  C14 UNL     1      -2.856  -1.818  -1.903  1.00  0.00     0.145 A 
HETATM   26  C16 UNL     1      -3.913  -1.451  -2.960  1.00  0.00     0.073 A 
HETATM   27  C17 UNL     1      -3.783  -0.709  -1.662  1.00  0.00     0.128 A 
BRANCH  25  28
HETATM   28  C15 UNL     1      -3.072  -3.159  -1.336  1.00  0.00     0.204 C 
HETATM   29  O3  UNL     1      -4.192  -3.632  -1.016  1.00  0.00    -0.646 OA
HETATM   30  O4  UNL     1      -1.910  -3.956  -1.148  1.00  0.00    -0.646 OA
ENDBRANCH  25  28
BRANCH  27  31
HETATM   31  N5  UNL     1      -4.853  -0.795  -0.716  1.00  0.00    -0.329 N 
HETATM   32  C18 UNL     1      -5.249   0.410  -0.024  1.00  0.00     0.361 C 
HETATM   33  O5  UNL     1      -4.657   1.463  -0.269  1.00  0.00    -0.238 OA
ATOM     34  H5  UNL     1      -5.323  -1.682  -0.535  1.00  0.00     0.165 HD
BRANCH  32  35
HETATM   35  O6  UNL     1      -6.276   0.417   0.908  1.00  0.00    -0.294 OA
BRANCH  35  36
HETATM   36  C19 UNL     1      -6.700   1.563   1.607  1.00  0.00     0.061 C 
HETATM   37  C20 UNL     1      -7.189   2.655   0.681  1.00  0.00     0.046 C 
HETATM   38  C21 UNL     1      -7.866   1.166   2.486  1.00  0.00     0.046 C 
HETATM   39  C22 UNL     1      -5.605   2.154   2.476  1.00  0.00     0.046 C 
ENDBRANCH  35  36
ENDBRANCH  32  35
ENDBRANCH  27  31
ENDBRANCH   5  25
TORSDOF 12
