REMARK  7 active torsions:
REMARK  status: ('A' for Active; 'I' for Inactive)
REMARK    1  A    between atoms: C2_2  and  C3_3 
REMARK    2  A    between atoms: C3_3  and  N1_4 
REMARK    3  A    between atoms: C3_3  and  C18_27 
REMARK       I    between atoms: N1_4  and  C4_6 
REMARK    4  A    between atoms: C4_6  and  C5_8 
REMARK       I    between atoms: N2_12  and  C9_13 
REMARK    5  A    between atoms: C9_13  and  C10_15 
REMARK    6  A    between atoms: C10_15  and  N3_16 
REMARK    7  A    between atoms: C10_15  and  C12_21 
ROOT
HETATM    1  C5  UNL     1       0.032  -0.282   0.854  1.00  0.00     0.179 C 
HETATM    2  C6  UNL     1      -0.049   0.523   2.109  1.00  0.00     0.037 C 
HETATM    3  C7  UNL     1       0.809   1.765   1.852  1.00  0.00     0.022 C 
HETATM    4  C8  UNL     1       1.042   1.702   0.349  1.00  0.00     0.127 C 
HETATM    5  N2  UNL     1       1.183   0.291   0.147  1.00  0.00    -0.337 N 
HETATM    6  C9  UNL     1       2.132  -0.496  -0.553  1.00  0.00     0.243 C 
HETATM    7  O2  UNL     1       1.962  -1.738  -0.595  1.00  0.00    -0.271 OA
ENDROOT
BRANCH   1   8
HETATM    8  C4  UNL     1      -1.205  -0.209   0.040  1.00  0.00     0.241 C 
HETATM    9  N1  UNL     1      -2.453  -0.665   0.543  1.00  0.00    -0.352 N 
ATOM     10  H1  UNL     1      -2.481  -1.049   1.488  1.00  0.00     0.163 HD
HETATM   11  O1  UNL     1      -1.143   0.269  -1.121  1.00  0.00    -0.271 OA
BRANCH   9  12
HETATM   12  C3  UNL     1      -3.684  -0.615  -0.210  1.00  0.00     0.116 C 
BRANCH  12  13
HETATM   13  C2  UNL     1      -4.689   0.329   0.407  1.00  0.00     0.051 C 
HETATM   14  C1  UNL     1      -3.994   1.704   0.404  1.00  0.00     0.041 C 
HETATM   15  C21 UNL     1      -4.886  -0.015   1.865  1.00  0.00     0.106 C 
HETATM   16  S1  UNL     1      -6.067   1.207   2.563  1.00  0.00    -0.165 SA
HETATM   17  C22 UNL     1      -7.487   1.182   1.426  1.00  0.00     0.093 C 
HETATM   18  C23 UNL     1      -7.106   0.157   0.350  1.00  0.00     0.124 C 
HETATM   19  N6  UNL     1      -5.893   0.494  -0.317  1.00  0.00    -0.410 N 
ATOM     20  H6  UNL     1      -5.893   0.840  -1.277  1.00  0.00     0.154 HD
ENDBRANCH  12  13
BRANCH  12  21
HETATM   21  C18 UNL     1      -4.222  -1.981  -0.507  1.00  0.00     0.011 A 
HETATM   22  C19 UNL     1      -5.371  -2.172  -1.471  1.00  0.00     0.007 A 
HETATM   23  C20 UNL     1      -4.009  -2.674  -1.794  1.00  0.00     0.007 A 
ENDBRANCH  12  21
ENDBRANCH   9  12
ENDBRANCH   1   8
BRANCH   6  24
HETATM   24  C10 UNL     1       3.311   0.072  -1.237  1.00  0.00     0.180 C 
BRANCH  24  25
HETATM   25  N3  UNL     1       3.997  -0.714  -2.112  1.00  0.00    -0.353 N 
HETATM   26  C11 UNL     1       4.383  -1.737  -2.588  1.00  0.00     0.197 C 
HETATM   27  N4  UNL     1       5.266  -1.703  -3.741  1.00  0.00    -0.067 NA
HETATM   28  N5  UNL     1       4.073  -3.043  -2.150  1.00  0.00    -0.067 NA
ATOM     29  H3  UNL     1       4.442  -0.021  -2.713  1.00  0.00     0.162 HD
ENDBRANCH  24  25
BRANCH  24  30
HETATM   30  C12 UNL     1       4.319   0.613  -0.199  1.00  0.00     0.017 C 
HETATM   31  C13 UNL     1       5.471   1.162  -1.020  1.00  0.00     0.007 C 
HETATM   32  C14 UNL     1       6.309   2.031  -0.132  1.00  0.00     0.000 C 
HETATM   33  C15 UNL     1       6.103   1.589   1.299  1.00  0.00     0.000 C 
HETATM   34  C16 UNL     1       6.006   0.104   1.469  1.00  0.00     0.000 C 
HETATM   35  C17 UNL     1       4.860  -0.490   0.678  1.00  0.00     0.007 C 
ENDBRANCH  24  30
ENDBRANCH   6  24
TORSDOF 7
