REMARK  11 active torsions:
REMARK  status: ('A' for Active; 'I' for Inactive)
REMARK       I    between atoms: C1_2  and  N2_4 
REMARK    1  A    between atoms: N2_4  and  C2_6 
REMARK    2  A    between atoms: C2_6  and  O2_7 
REMARK    3  A    between atoms: C2_6  and  C3_9 
REMARK    4  A    between atoms: C3_9  and  O3_10 
REMARK    5  A    between atoms: C3_9  and  C4_12 
REMARK    6  A    between atoms: C4_12  and  C5_13 
REMARK    7  A    between atoms: C16_25  and  O5_26 
REMARK    8  A    between atoms: O5_26  and  C17_27 
REMARK    9  A    between atoms: C17_27  and  C18_29 
REMARK   10  A    between atoms: C18_29  and  C19_30 
REMARK   11  A    between atoms: C19_30  and  N3_31 
ROOT
HETATM    1  C5  UNL     1       0.362   0.072   0.967  1.00  0.00     0.025 C 
HETATM    2  C6  UNL     1      -0.541  -1.081   0.774  1.00  0.00     0.007 C 
HETATM    3  C7  UNL     1      -0.625  -2.132   1.831  1.00  0.00     0.000 C 
HETATM    4  C8  UNL     1      -2.098  -2.241   2.260  1.00  0.00     0.000 C 
HETATM    5  C9  UNL     1      -2.951  -3.044   1.387  1.00  0.00     0.000 C 
HETATM    6  C10 UNL     1      -3.403  -2.542   0.082  1.00  0.00     0.000 C 
HETATM    7  C11 UNL     1      -4.452  -1.487   0.062  1.00  0.00     0.000 C 
HETATM    8  C12 UNL     1      -4.539  -0.656  -1.154  1.00  0.00     0.000 C 
HETATM    9  C13 UNL     1      -3.322  -0.041  -1.702  1.00  0.00     0.007 C 
HETATM   10  C14 UNL     1      -2.714   1.074  -0.916  1.00  0.00     0.081 C 
HETATM   11  C15 UNL     1      -1.243   0.862  -0.794  1.00  0.00     0.156 C 
HETATM   12  O4  UNL     1      -0.712   0.297  -1.739  1.00  0.00    -0.295 OA
HETATM   13  C16 UNL     1      -0.410   1.269   0.343  1.00  0.00     0.205 C 
ENDROOT
BRANCH   1  14
HETATM   14  C4  UNL     1       1.679   0.083   0.304  1.00  0.00     0.047 C 
BRANCH  14  15
HETATM   15  C3  UNL     1       2.639  -1.032   0.654  1.00  0.00     0.193 C 
BRANCH  15  16
HETATM   16  C2  UNL     1       3.908  -0.889  -0.040  1.00  0.00     0.148 C 
BRANCH  16  17
HETATM   17  N2  UNL     1       4.765  -1.829  -0.555  1.00  0.00    -0.293 N 
HETATM   18  C1  UNL     1       4.781  -3.237  -0.503  1.00  0.00     0.334 C 
HETATM   19  N1  UNL     1       5.863  -3.957  -1.160  1.00  0.00    -0.040 NA
HETATM   20  O1  UNL     1       3.966  -3.971   0.047  1.00  0.00    -0.251 OA
ATOM     21  H2  UNL     1       5.544  -1.430  -1.079  1.00  0.00     0.172 HD
ENDBRANCH  16  17
BRANCH  16  22
HETATM   22  O2  UNL     1       4.280   0.354  -0.186  1.00  0.00    -0.347 OA
ATOM     23  H2  UNL     1       3.687   1.005   0.171  1.00  0.00     0.219 HD
ENDBRANCH  16  22
ENDBRANCH  15  16
BRANCH  15  24
HETATM   24  O3  UNL     1       2.034  -2.222   0.303  1.00  0.00    -0.387 OA
ATOM     25  H3  UNL     1       1.205  -2.315   0.757  1.00  0.00     0.210 HD
ENDBRANCH  15  24
ENDBRANCH  14  15
ENDBRANCH   1  14
BRANCH  13  26
HETATM   26  O5  UNL     1       0.522   2.254  -0.063  1.00  0.00    -0.308 OA
BRANCH  26  27
HETATM   27  C17 UNL     1       0.610   3.510   0.509  1.00  0.00     0.261 C 
HETATM   28  O6  UNL     1      -0.176   3.794   1.436  1.00  0.00    -0.265 OA
BRANCH  27  29
HETATM   29  C18 UNL     1       1.624   4.516   0.033  1.00  0.00     0.137 C 
BRANCH  29  30
HETATM   30  C19 UNL     1       1.473   5.781   0.847  1.00  0.00     0.211 C 
BRANCH  30  31
HETATM   31  N3  UNL     1       2.473   6.726   0.353  1.00  0.00    -0.155 N 
HETATM   32  O7  UNL     1       3.361   7.187   1.098  1.00  0.00    -0.537 OA
HETATM   33  O8  UNL     1       2.472   7.142  -0.953  1.00  0.00    -0.537 OA
ENDBRANCH  30  31
ENDBRANCH  29  30
ENDBRANCH  27  29
ENDBRANCH  26  27
ENDBRANCH  13  26
TORSDOF 11
