REMARK  14 active torsions:
REMARK  status: ('A' for Active; 'I' for Inactive)
REMARK    1  A    between atoms: C2_2  and  C3_3 
REMARK    2  A    between atoms: C3_3  and  C4_4 
REMARK    3  A    between atoms: C4_4  and  C5_5 
REMARK    4  A    between atoms: C6_6  and  C7_7 
REMARK    5  A    between atoms: C8_8  and  C9_9 
REMARK    6  A    between atoms: C9_9  and  C10_10 
REMARK    7  A    between atoms: C10_10  and  C11_11 
REMARK    8  A    between atoms: C11_11  and  C12_12 
REMARK    9  A    between atoms: C13_13  and  C14_14 
REMARK   10  A    between atoms: N1_16  and  C16_17 
REMARK   11  A    between atoms: C17_19  and  C18_20 
REMARK   12  A    between atoms: C18_20  and  O2_21 
REMARK   13  A    between atoms: C19_23  and  O3_24 
REMARK   14  A    between atoms: C20_26  and  O4_27 
ROOT
HETATM    1  C14 UNL     1      -1.493   0.142  -0.928  1.00  0.00     0.062 A 
HETATM    2  C15 UNL     1      -2.600  -0.659  -1.085  1.00  0.00     0.117 A 
HETATM    3  N1  UNL     1      -3.588  -0.097  -0.369  1.00  0.00    -0.323 N 
HETATM    4  C21 UNL     1      -3.157   1.024   0.237  1.00  0.00     0.080 A 
HETATM    5  C22 UNL     1      -3.760   1.959   1.072  1.00  0.00     0.121 A 
HETATM    6  N2  UNL     1      -3.000   2.982   1.497  1.00  0.00    -0.360 N 
ATOM      7  H2  UNL     1      -3.434   3.673   2.109  1.00  0.00     0.166 HD
HETATM    8  C23 UNL     1      -1.726   3.155   1.176  1.00  0.00     0.180 A 
HETATM    9  N3  UNL     1      -1.136   2.259   0.371  1.00  0.00    -0.349 N 
ATOM     10  H3  UNL     1      -0.157   2.371   0.109  1.00  0.00     0.166 HD
HETATM   11  C24 UNL     1      -1.855   1.195  -0.096  1.00  0.00     0.082 A 
ENDROOT
BRANCH   1  12
HETATM   12  C13 UNL     1      -0.181  -0.066  -1.518  1.00  0.00    -0.063 C 
HETATM   13  C12 UNL     1       0.900  -0.243  -2.026  1.00  0.00    -0.101 C 
BRANCH  13  14
HETATM   14  C11 UNL     1       2.198  -0.466  -2.664  1.00  0.00     0.095 C 
BRANCH  14  15
HETATM   15  C10 UNL     1       2.696   0.830  -3.319  1.00  0.00     0.024 C 
BRANCH  15  16
HETATM   16  C9  UNL     1       2.831   1.900  -2.227  1.00  0.00     0.096 C 
BRANCH  16  17
HETATM   17  C8  UNL     1       3.786   1.466  -1.205  1.00  0.00    -0.092 C 
HETATM   18  C7  UNL     1       4.589   1.101  -0.376  1.00  0.00    -0.015 C 
BRANCH  18  19
HETATM   19  C6  UNL     1       5.551   0.669   0.582  1.00  0.00    -0.015 C 
HETATM   20  C5  UNL     1       6.380   0.292   1.382  1.00  0.00    -0.092 C 
BRANCH  20  21
HETATM   21  C4  UNL     1       7.384  -0.184   2.334  1.00  0.00     0.095 C 
BRANCH  21  22
HETATM   22  C3  UNL     1       8.755  -0.264   1.700  1.00  0.00     0.012 C 
BRANCH  22  23
HETATM   23  C2  UNL     1       8.791  -1.198   0.527  1.00  0.00    -0.004 C 
HETATM   24  C1  UNL     1       8.416  -2.611   0.891  1.00  0.00     0.005 C 
ENDBRANCH  22  23
ENDBRANCH  21  22
ENDBRANCH  20  21
ENDBRANCH  18  19
ENDBRANCH  16  17
ENDBRANCH  15  16
ENDBRANCH  14  15
ENDBRANCH  13  14
ENDBRANCH   1  12
BRANCH   3  25
HETATM   25  C16 UNL     1      -4.922  -0.620  -0.261  1.00  0.00     0.259 C 
HETATM   26  O1  UNL     1      -5.451  -0.518   1.023  1.00  0.00    -0.353 OA
HETATM   27  C17 UNL     1      -6.784  -0.843   0.809  1.00  0.00     0.179 C 
HETATM   28  C19 UNL     1      -7.167   0.060  -0.331  1.00  0.00     0.182 C 
HETATM   29  C20 UNL     1      -5.905   0.046  -1.184  1.00  0.00     0.198 C 
BRANCH  27  30
HETATM   30  C18 UNL     1      -7.626  -0.588   2.041  1.00  0.00     0.198 C 
BRANCH  30  31
HETATM   31  O2  UNL     1      -7.095  -1.397   3.068  1.00  0.00    -0.398 OA
ATOM     32  H2  UNL     1      -7.623  -1.237   3.841  1.00  0.00     0.209 HD
ENDBRANCH  30  31
ENDBRANCH  27  30
BRANCH  28  33
HETATM   33  O3  UNL     1      -8.256  -0.479  -1.014  1.00  0.00    -0.390 OA
ATOM     34  H3  UNL     1      -8.498   0.091  -1.734  1.00  0.00     0.210 HD
ENDBRANCH  28  33
BRANCH  29  35
HETATM   35  O4  UNL     1      -6.185  -0.728  -2.305  1.00  0.00    -0.388 OA
ATOM     36  H4  UNL     1      -6.806  -0.307  -2.888  1.00  0.00     0.210 HD
ENDBRANCH  29  35
ENDBRANCH   3  25
TORSDOF 14
