REMARK  10 active torsions:
REMARK  status: ('A' for Active; 'I' for Inactive)
REMARK    1  A    between atoms: C2_2  and  O2_4 
REMARK    2  A    between atoms: O2_4  and  C3_5 
REMARK    3  A    between atoms: C3_5  and  C4_6 
REMARK    4  A    between atoms: C3_5  and  C20_35 
REMARK    5  A    between atoms: C5_7  and  C6_8 
REMARK    6  A    between atoms: C10_12  and  C11_13 
REMARK    7  A    between atoms: N1_14  and  N2_16 
REMARK       I    between atoms: C12_18  and  N4_20 
REMARK    8  A    between atoms: N4_20  and  O3_22 
REMARK    9  A    between atoms: C14_25  and  O4_26 
REMARK   10  A    between atoms: C16_29  and  O5_30 
ROOT
HETATM    1  C6  UNL     1      -0.040   0.335  -0.028  1.00  0.00     0.024 C 
HETATM    2  C7  UNL     1       0.394   0.088   1.402  1.00  0.00     0.044 C 
HETATM    3  C8  UNL     1       1.697   0.929   1.499  1.00  0.00    -0.071 C 
HETATM    4  C9  UNL     1       1.764   1.983   2.493  1.00  0.00     0.044 C 
HETATM    5  C10 UNL     1       2.617   0.609   0.636  1.00  0.00    -0.012 C 
HETATM    6  C13 UNL     1       2.238  -0.508  -0.276  1.00  0.00    -0.030 C 
HETATM    7  C14 UNL     1       3.298  -0.965  -1.225  1.00  0.00     0.151 C 
HETATM    8  C15 UNL     1       2.887  -2.272  -1.800  1.00  0.00     0.068 C 
HETATM    9  C16 UNL     1       1.537  -2.786  -1.519  1.00  0.00     0.122 C 
HETATM   10  C17 UNL     1       0.464  -1.871  -1.099  1.00  0.00     0.046 C 
HETATM   11  C18 UNL     1       0.921  -0.435  -0.934  1.00  0.00    -0.008 C 
HETATM   12  C19 UNL     1       0.809   0.214  -2.268  1.00  0.00     0.021 C 
ENDROOT
BRANCH   5  13
HETATM   13  C11 UNL     1       3.883   1.276   0.558  1.00  0.00     0.119 C 
HETATM   14  N1  UNL     1       4.528   2.170   1.061  1.00  0.00    -0.309 N 
ATOM     15  H1  UNL     1       5.417   2.185   0.561  1.00  0.00     0.186 HD
BRANCH  14  16
HETATM   16  N2  UNL     1       4.607   3.133   1.960  1.00  0.00    -0.272 N 
HETATM   17  C12 UNL     1       4.892   4.354   1.502  1.00  0.00     0.227 C 
HETATM   18  N3  UNL     1       4.951   5.324   2.564  1.00  0.00    -0.060 NA
HETATM   19  N4  UNL     1       5.076   4.580   0.166  1.00  0.00    -0.240 N 
ATOM     20  H4  UNL     1       4.488   4.073  -0.496  1.00  0.00     0.197 HD
ATOM     21  H2  UNL     1       4.458   2.954   2.953  1.00  0.00     0.189 HD
BRANCH  19  22
HETATM   22  O3  UNL     1       5.918   5.367  -0.282  1.00  0.00    -0.287 OA
ATOM     23  H3  UNL     1       6.046   5.524  -1.210  1.00  0.00     0.244 HD
ENDBRANCH  19  22
ENDBRANCH  14  16
ENDBRANCH   5  13
BRANCH   7  24
HETATM   24  O4  UNL     1       3.602  -0.074  -2.248  1.00  0.00    -0.391 OA
ATOM     25  H4  UNL     1       4.276  -0.365  -2.851  1.00  0.00     0.210 HD
ENDBRANCH   7  24
BRANCH   1  26
HETATM   26  C5  UNL     1      -1.427  -0.024  -0.279  1.00  0.00    -0.022 C 
HETATM   27  C4  UNL     1      -2.270  -0.485   0.640  1.00  0.00     0.002 C 
BRANCH  27  28
HETATM   28  C3  UNL     1      -3.661  -0.818   0.223  1.00  0.00     0.157 C 
BRANCH  28  29
HETATM   29  O2  UNL     1      -4.454   0.286  -0.004  1.00  0.00    -0.312 OA
BRANCH  29  30
HETATM   30  C2  UNL     1      -5.022   0.654  -1.258  1.00  0.00     0.255 C 
HETATM   31  C1  UNL     1      -5.821   1.876  -1.358  1.00  0.00     0.126 C 
HETATM   32  O1  UNL     1      -4.796  -0.082  -2.212  1.00  0.00    -0.266 OA
ENDBRANCH  29  30
ENDBRANCH  28  29
BRANCH  28  33
HETATM   33  C20 UNL     1      -4.346  -1.847   1.080  1.00  0.00     0.011 C 
HETATM   34  C21 UNL     1      -5.618  -2.281   0.349  1.00  0.00     0.012 C 
HETATM   35  C22 UNL     1      -3.430  -3.039   1.326  1.00  0.00     0.012 C 
ENDBRANCH  28  33
ENDBRANCH  27  28
ENDBRANCH   1  26
BRANCH   9  36
HETATM   36  O5  UNL     1       1.685  -3.783  -0.518  1.00  0.00    -0.395 OA
ATOM     37  H5  UNL     1       0.814  -4.115  -0.337  1.00  0.00     0.210 HD
ENDBRANCH   9  36
TORSDOF 10
