REMARK  9 active torsions:
REMARK  status: ('A' for Active; 'I' for Inactive)
REMARK    1  A    between atoms: S1_3  and  C2_4 
REMARK    2  A    between atoms: C2_4  and  C3_5 
REMARK    3  A    between atoms: C3_5  and  O1_6 
REMARK    4  A    between atoms: C3_5  and  C4_8 
REMARK    5  A    between atoms: C4_8  and  N2_9 
REMARK    6  A    between atoms: C7_12  and  O2_13 
REMARK    7  A    between atoms: O2_13  and  C8_14 
REMARK       I    between atoms: C8_14  and  N3_16 
REMARK    8  A    between atoms: N3_16  and  C9_18 
REMARK    9  A    between atoms: C17_26  and  O4_27 
ROOT
HETATM    1  N1  UNL     1      10.151   0.897   3.816  1.00  0.00    -0.184 NA
HETATM    2  C1  UNL     1       9.486   0.600   2.912  1.00  0.00     0.133 C 
HETATM    3  S1  UNL     1       8.464   0.125   1.541  1.00  0.00    -0.048 SA
ENDROOT
BRANCH   3   4
HETATM    4  C2  UNL     1       7.330   1.475   1.203  1.00  0.00     0.123 C 
BRANCH   4   5
HETATM    5  C3  UNL     1       6.402   1.202   0.057  1.00  0.00     0.156 C 
BRANCH   5   6
HETATM    6  O1  UNL     1       5.576   2.294  -0.122  1.00  0.00    -0.393 OA
ATOM      7  H1  UNL     1       4.988   2.121  -0.848  1.00  0.00     0.210 HD
ENDBRANCH   5   6
BRANCH   5   8
HETATM    8  C4  UNL     1       5.588  -0.035   0.276  1.00  0.00     0.304 C 
BRANCH   8   9
HETATM    9  N2  UNL     1       4.734   0.035   1.427  1.00  0.00     0.091 N 
HETATM   10  C5  UNL     1       3.655   0.991   1.277  1.00  0.00     0.275 C 
HETATM   11  C6  UNL     1       2.431   0.535   2.085  1.00  0.00     0.063 C 
HETATM   12  C7  UNL     1       1.847  -0.723   1.460  1.00  0.00     0.137 C 
HETATM   13  C20 UNL     1       2.981  -1.491   0.843  1.00  0.00     0.063 C 
HETATM   14  C21 UNL     1       4.198  -1.291   1.722  1.00  0.00     0.275 C 
BRANCH  12  15
HETATM   15  O2  UNL     1       0.806  -0.428   0.584  1.00  0.00    -0.299 OA
BRANCH  15  16
HETATM   16  C8  UNL     1      -0.503  -0.802   0.670  1.00  0.00     0.361 C 
HETATM   17  O3  UNL     1      -0.801  -1.512   1.686  1.00  0.00    -0.238 OA
HETATM   18  N3  UNL     1      -1.508  -0.469  -0.255  1.00  0.00    -0.332 N 
ATOM     19  H3  UNL     1      -1.250   0.100  -1.061  1.00  0.00     0.165 HD
BRANCH  18  20
HETATM   20  C9  UNL     1      -2.893  -0.888  -0.129  1.00  0.00     0.091 C 
HETATM   21  C10 UNL     1      -3.252  -1.721  -1.285  1.00  0.00     0.030 C 
HETATM   22  C11 UNL     1      -4.534  -1.446  -1.984  1.00  0.00    -0.009 C 
HETATM   23  C12 UNL     1      -5.752  -1.603  -1.121  1.00  0.00     0.009 C 
HETATM   24  C19 UNL     1      -4.471  -0.158  -2.736  1.00  0.00     0.042 C 
HETATM   25  C13 UNL     1      -6.131  -0.330  -0.410  1.00  0.00    -0.011 C 
HETATM   26  C14 UNL     1      -5.131  -0.061   0.663  1.00  0.00     0.011 C 
HETATM   27  C18 UNL     1      -6.206   0.842  -1.340  1.00  0.00     0.042 C 
HETATM   28  C15 UNL     1      -3.760   0.309   0.149  1.00  0.00     0.012 C 
HETATM   29  C16 UNL     1      -3.786   1.327  -0.949  1.00  0.00     0.044 C 
HETATM   30  C17 UNL     1      -4.864   1.058  -1.969  1.00  0.00     0.059 C 
BRANCH  30  31
HETATM   31  O4  UNL     1      -4.947   2.133  -2.834  1.00  0.00    -0.390 OA
ATOM     32  H4  UNL     1      -5.626   1.964  -3.476  1.00  0.00     0.210 HD
ENDBRANCH  30  31
ENDBRANCH  18  20
ENDBRANCH  15  16
ENDBRANCH  12  15
ENDBRANCH   8   9
ENDBRANCH   5   8
ENDBRANCH   4   5
ENDBRANCH   3   4
TORSDOF 9
