REMARK  13 active torsions:
REMARK  status: ('A' for Active; 'I' for Inactive)
REMARK    1  A    between atoms: O1_2  and  C2_3 
REMARK    2  A    between atoms: C2_3  and  C3_5 
REMARK    3  A    between atoms: C8_10  and  O3_11 
REMARK    4  A    between atoms: C8_10  and  C9_13 
REMARK    5  A    between atoms: C10_14  and  C11_15 
REMARK    6  A    between atoms: C12_16  and  C13_17 
REMARK    7  A    between atoms: C13_17  and  C14_18 
REMARK    8  A    between atoms: C14_18  and  O5_20 
REMARK    9  A    between atoms: C21_27  and  O6_28 
REMARK   10  A    between atoms: C21_27  and  C22_30 
REMARK   11  A    between atoms: C22_30  and  O7_32 
REMARK   12  A    between atoms: C24_34  and  C25_35 
REMARK   13  A    between atoms: C25_35  and  C26_36 
ROOT
HETATM    1  C11 UNL     1      -1.790  -1.222   0.340  1.00  0.00     0.075 C 
HETATM    2  C12 UNL     1      -2.719  -0.350   1.080  1.00  0.00    -0.053 C 
HETATM    3  C19 UNL     1      -3.720  -1.256   1.770  1.00  0.00     0.039 C 
HETATM    4  C20 UNL     1      -3.431  -2.639   1.349  1.00  0.00     0.046 C 
HETATM    5  C21 UNL     1      -1.944  -2.599   0.967  1.00  0.00     0.094 C 
ENDROOT
BRANCH   1   6
HETATM    6  C10 UNL     1      -0.424  -0.650   0.432  1.00  0.00    -0.016 C 
HETATM    7  C9  UNL     1       0.671  -1.053   0.942  1.00  0.00     0.008 C 
BRANCH   7   8
HETATM    8  C8  UNL     1       1.915  -0.229   0.870  1.00  0.00     0.084 C 
HETATM    9  C7  UNL     1       1.737   1.165   1.418  1.00  0.00     0.051 C 
HETATM   10  C5  UNL     1       2.642   2.040   0.587  1.00  0.00     0.014 C 
HETATM   11  C4  UNL     1       3.396   0.995  -0.321  1.00  0.00    -0.062 C 
HETATM   12  C6  UNL     1       3.600   2.733   1.481  1.00  0.00     0.015 C 
HETATM   13  C3  UNL     1       4.626   1.168  -0.541  1.00  0.00     0.086 C 
HETATM   14  C24 UNL     1       2.281   0.126  -0.583  1.00  0.00     0.063 C 
BRANCH  13  15
HETATM   15  C2  UNL     1       5.673   0.511  -1.259  1.00  0.00     0.282 C 
HETATM   16  O2  UNL     1       5.542  -0.543  -1.886  1.00  0.00    -0.260 OA
BRANCH  15  17
HETATM   17  O1  UNL     1       6.987   1.048  -1.301  1.00  0.00    -0.323 OA
HETATM   18  C1  UNL     1       7.965   0.341  -2.032  1.00  0.00     0.213 C 
ENDBRANCH  15  17
ENDBRANCH  13  15
BRANCH  14  19
HETATM   19  C25 UNL     1       2.229  -0.971  -1.521  1.00  0.00     0.125 C 
BRANCH  19  20
HETATM   20  C26 UNL     1       2.395  -0.559  -2.939  1.00  0.00     0.173 C 
HETATM   21  O8  UNL     1       2.360  -1.463  -3.815  1.00  0.00    -0.648 OA
HETATM   22  O9  UNL     1       2.583   0.739  -3.333  1.00  0.00    -0.648 OA
ENDBRANCH  19  20
ENDBRANCH  14  19
BRANCH   8  23
HETATM   23  O3  UNL     1       3.019  -0.872   1.397  1.00  0.00    -0.385 OA
ATOM     24  H3  UNL     1       3.131  -1.750   1.052  1.00  0.00     0.211 HD
ENDBRANCH   8  23
ENDBRANCH   7   8
ENDBRANCH   1   6
BRANCH   2  25
HETATM   25  C13 UNL     1      -3.307   0.886   0.603  1.00  0.00     0.044 C 
HETATM   26  C16 UNL     1      -3.450   1.375  -0.577  1.00  0.00    -0.071 C 
HETATM   27  C17 UNL     1      -4.108   2.715  -0.805  1.00  0.00     0.044 C 
HETATM   28  C18 UNL     1      -3.041   0.698  -1.824  1.00  0.00     0.044 C 
BRANCH  25  29
HETATM   29  C14 UNL     1      -3.844   1.731   1.746  1.00  0.00     0.293 C 
HETATM   30  O4  UNL     1      -3.720   1.271   2.942  1.00  0.00    -0.259 OA
BRANCH  29  31
HETATM   31  O5  UNL     1      -4.443   2.923   1.640  1.00  0.00    -0.323 OA
HETATM   32  C15 UNL     1      -4.934   3.690   2.720  1.00  0.00     0.213 C 
ENDBRANCH  29  31
ENDBRANCH  25  29
ENDBRANCH   2  25
BRANCH   5  33
HETATM   33  O6  UNL     1      -1.263  -2.837   2.107  1.00  0.00    -0.386 OA
ATOM     34  H6  UNL     1      -1.359  -3.697   2.499  1.00  0.00     0.210 HD
ENDBRANCH   5  33
BRANCH   5  35
HETATM   35  C22 UNL     1      -1.658  -3.649  -0.070  1.00  0.00     0.149 C 
HETATM   36  C23 UNL     1      -2.396  -3.409  -1.373  1.00  0.00     0.042 C 
BRANCH  35  37
HETATM   37  O7  UNL     1      -0.319  -3.740  -0.393  1.00  0.00    -0.393 OA
ATOM     38  H7  UNL     1      -0.138  -4.404  -1.048  1.00  0.00     0.210 HD
ENDBRANCH  35  37
ENDBRANCH   5  35
TORSDOF 13
