REMARK  10 active torsions:
REMARK  status: ('A' for Active; 'I' for Inactive)
REMARK    1  A    between atoms: O1_2  and  C2_3 
REMARK    2  A    between atoms: C4_5  and  C5_6 
REMARK    3  A    between atoms: C5_6  and  O2_7 
REMARK    4  A    between atoms: C13_19  and  C15_21 
REMARK    5  A    between atoms: C15_21  and  C16_22 
REMARK    6  A    between atoms: C17_23  and  C19_25 
REMARK    7  A    between atoms: C19_25  and  C20_26 
REMARK    8  A    between atoms: C20_26  and  C21_27 
REMARK    9  A    between atoms: C25_31  and  O6_33 
REMARK   10  A    between atoms: C28_37  and  O8_38 
ROOT
HETATM    1  C2  UNL     1      -6.063   1.446  -0.542  1.00  0.00     0.115 C 
HETATM    2  C3  UNL     1      -5.967   1.222  -2.032  1.00  0.00     0.052 C 
HETATM    3  C4  UNL     1      -4.825   2.159  -0.034  1.00  0.00     0.189 C 
HETATM    4  O3  UNL     1      -3.661   1.387  -0.244  1.00  0.00    -0.337 OA
HETATM    5  C6  UNL     1      -3.679   0.054   0.107  1.00  0.00     0.113 A 
HETATM    6  C7  UNL     1      -4.870  -0.583   0.295  1.00  0.00     0.010 A 
HETATM    7  C8  UNL     1      -4.888  -1.929   0.648  1.00  0.00     0.014 A 
HETATM    8  C9  UNL     1      -3.717  -2.636   0.814  1.00  0.00     0.019 A 
HETATM    9  C10 UNL     1      -2.493  -2.011   0.629  1.00  0.00     0.052 A 
HETATM   10  C11 UNL     1      -2.500  -0.678   0.279  1.00  0.00     0.121 A 
HETATM   11  O4  UNL     1      -1.188  -0.246   0.143  1.00  0.00    -0.300 OA
HETATM   12  C12 UNL     1      -0.285  -1.260   0.431  1.00  0.00     0.272 A 
HETATM   13  O5  UNL     1       0.716  -0.964   1.345  1.00  0.00    -0.331 OA
HETATM   14  C13 UNL     1       1.789  -0.939   0.443  1.00  0.00     0.101 C 
HETATM   15  C14 UNL     1       2.258   0.416   0.049  1.00  0.00     0.050 C 
HETATM   16  C25 UNL     1       0.799  -1.499  -0.592  1.00  0.00     0.150 C 
HETATM   17  C26 UNL     1       0.695  -0.715  -1.850  1.00  0.00     0.055 C 
HETATM   18  C27 UNL     1      -1.103  -2.436   0.716  1.00  0.00     0.228 A 
HETATM   19  O7  UNL     1      -0.731  -3.630   0.993  1.00  0.00    -0.286 OA
HETATM   20  C28 UNL     1      -6.144   0.116   0.135  1.00  0.00     0.191 C 
ENDROOT
BRANCH  16  21
HETATM   21  O6  UNL     1       0.934  -2.847  -0.840  1.00  0.00    -0.381 OA
ATOM     22  H6  UNL     1       1.616  -2.997  -1.484  1.00  0.00     0.211 HD
ENDBRANCH  16  21
BRANCH  14  23
HETATM   23  C15 UNL     1       2.789  -1.988   0.773  1.00  0.00     0.068 C 
BRANCH  23  24
HETATM   24  C16 UNL     1       3.961  -2.079  -0.080  1.00  0.00    -0.021 C 
HETATM   25  C17 UNL     1       5.227  -2.002   0.159  1.00  0.00    -0.087 C 
HETATM   26  C18 UNL     1       6.216  -2.137  -0.946  1.00  0.00     0.043 C 
BRANCH  25  27
HETATM   27  C19 UNL     1       5.764  -1.800   1.514  1.00  0.00     0.037 C 
BRANCH  27  28
HETATM   28  C20 UNL     1       6.587  -0.553   1.702  1.00  0.00     0.031 C 
BRANCH  28  29
HETATM   29  C21 UNL     1       5.864   0.704   1.437  1.00  0.00    -0.024 C 
HETATM   30  C22 UNL     1       6.315   1.559   0.556  1.00  0.00    -0.091 C 
HETATM   31  C23 UNL     1       5.532   2.834   0.322  1.00  0.00     0.042 C 
HETATM   32  C24 UNL     1       7.545   1.419  -0.250  1.00  0.00     0.042 C 
ENDBRANCH  28  29
ENDBRANCH  27  28
ENDBRANCH  25  27
ENDBRANCH  23  24
ENDBRANCH  14  23
BRANCH   3  33
HETATM   33  C5  UNL     1      -4.694   3.551  -0.599  1.00  0.00     0.199 C 
BRANCH  33  34
HETATM   34  O2  UNL     1      -5.874   4.251  -0.356  1.00  0.00    -0.398 OA
ATOM     35  H2  UNL     1      -5.791   5.128  -0.712  1.00  0.00     0.209 HD
ENDBRANCH  33  34
ENDBRANCH   3  33
BRANCH  20  36
HETATM   36  O8  UNL     1      -6.708   0.221   1.426  1.00  0.00    -0.388 OA
ATOM     37  H8  UNL     1      -6.759  -0.624   1.856  1.00  0.00     0.210 HD
ENDBRANCH  20  36
BRANCH   1  38
HETATM   38  O1  UNL     1      -7.159   2.201  -0.173  1.00  0.00    -0.380 OA
HETATM   39  C1  UNL     1      -8.372   1.666  -0.523  1.00  0.00     0.202 C 
ENDBRANCH   1  38
TORSDOF 10
