REMARK  12 active torsions:
REMARK  status: ('A' for Active; 'I' for Inactive)
REMARK    1  A    between atoms: C2_2  and  C3_3 
REMARK    2  A    between atoms: C3_3  and  O1_4 
REMARK    3  A    between atoms: O1_4  and  C4_5 
REMARK    4  A    between atoms: C6_7  and  N1_8 
REMARK    5  A    between atoms: C9_13  and  N3_14 
REMARK    6  A    between atoms: N3_14  and  C10_16 
REMARK    7  A    between atoms: C17_25  and  N5_26 
REMARK    8  A    between atoms: N5_26  and  C18_28 
REMARK    9  A    between atoms: C18_28  and  C19_29 
REMARK   10  A    between atoms: C19_29  and  O2_31 
REMARK   11  A    between atoms: C24_39  and  C25_40 
REMARK   12  A    between atoms: C25_40  and  O4_42 
ROOT
HETATM    1  N1  UNL     1      -0.340  -0.428  -0.730  1.00  0.00    -0.320 N 
HETATM    2  C7  UNL     1       0.052  -1.710  -0.728  1.00  0.00     0.185 A 
HETATM    3  N2  UNL     1       1.261  -1.815  -0.124  1.00  0.00    -0.346 N 
ATOM      4  H2  UNL     1       1.776  -2.686   0.004  1.00  0.00     0.167 HD
HETATM    5  C8  UNL     1       1.677  -0.624   0.275  1.00  0.00     0.123 A 
HETATM    6  C9  UNL     1       2.789  -0.147   0.919  1.00  0.00     0.148 A 
HETATM    7  N4  UNL     1       2.862   1.195   1.164  1.00  0.00    -0.175 N 
ATOM      8  H4  UNL     1       3.685   1.561   1.642  1.00  0.00     0.186 HD
HETATM    9  C17 UNL     1       1.896   2.049   0.801  1.00  0.00     0.681 A 
HETATM   10  N6  UNL     1       0.815   1.561   0.171  1.00  0.00    -0.174 N 
ATOM     11  H6  UNL     1       0.081   2.213  -0.104  1.00  0.00     0.186 HD
HETATM   12  C21 UNL     1       0.648   0.248  -0.118  1.00  0.00     0.155 A 
ENDROOT
BRANCH   1  13
HETATM   13  C6  UNL     1      -1.549   0.197  -1.254  1.00  0.00     0.123 C 
HETATM   14  C5  UNL     1      -2.474   0.676  -0.188  1.00  0.00     0.063 C 
HETATM   15  C4  UNL     1      -3.830   0.053  -0.167  1.00  0.00     0.154 C 
HETATM   16  C24 UNL     1      -4.291  -0.489  -1.502  1.00  0.00     0.179 C 
HETATM   17  O3  UNL     1      -3.457  -0.189  -2.553  1.00  0.00    -0.374 OA
HETATM   18  C22 UNL     1      -2.207  -0.731  -2.247  1.00  0.00     0.141 C 
HETATM   19  C23 UNL     1      -1.392  -0.800  -3.503  1.00  0.00     0.041 C 
BRANCH  15  20
HETATM   20  O1  UNL     1      -3.941  -0.901   0.840  1.00  0.00    -0.383 OA
BRANCH  20  21
HETATM   21  C3  UNL     1      -4.898  -0.486   1.748  1.00  0.00     0.168 C 
BRANCH  21  22
HETATM   22  C2  UNL     1      -5.078  -1.478   2.877  1.00  0.00     0.022 C 
HETATM   23  C1  UNL     1      -6.120  -1.003   3.845  1.00  0.00     0.007 C 
ENDBRANCH  21  22
ENDBRANCH  20  21
ENDBRANCH  15  20
BRANCH  16  24
HETATM   24  C25 UNL     1      -5.689  -0.032  -1.861  1.00  0.00     0.145 C 
HETATM   25  C26 UNL     1      -6.027  -0.689  -3.192  1.00  0.00     0.042 C 
BRANCH  24  26
HETATM   26  O4  UNL     1      -5.651   1.342  -2.086  1.00  0.00    -0.393 OA
ATOM     27  H4  UNL     1      -6.528   1.629  -2.311  1.00  0.00     0.210 HD
ENDBRANCH  24  26
ENDBRANCH  16  24
ENDBRANCH   1  13
BRANCH   6  28
HETATM   28  N3  UNL     1       3.739  -0.877   1.294  1.00  0.00    -0.369 N 
ATOM     29  H3  UNL     1       4.490  -0.367   1.758  1.00  0.00     0.161 HD
BRANCH  28  30
HETATM   30  C10 UNL     1       3.972  -2.273   1.198  1.00  0.00     0.083 C 
HETATM   31  C11 UNL     1       4.354  -2.658  -0.202  1.00  0.00     0.025 C 
HETATM   32  C12 UNL     1       5.797  -3.074  -0.328  1.00  0.00     0.002 C 
HETATM   33  C13 UNL     1       6.652  -1.862  -0.187  1.00  0.00     0.000 C 
HETATM   34  C14 UNL     1       6.719  -1.322   1.205  1.00  0.00     0.000 C 
HETATM   35  C15 UNL     1       6.285  -2.274   2.260  1.00  0.00     0.002 C 
HETATM   36  C16 UNL     1       4.928  -2.796   2.236  1.00  0.00     0.025 C 
ENDBRANCH  28  30
ENDBRANCH   6  28
BRANCH   9  37
HETATM   37  N5  UNL     1       2.056   3.302   1.077  1.00  0.00    -0.224 N 
ATOM     38  H5  UNL     1       2.911   3.580   1.559  1.00  0.00     0.177 HD
BRANCH  37  39
HETATM   39  C18 UNL     1       1.111   4.321   0.750  1.00  0.00     0.169 C 
BRANCH  39  40
HETATM   40  C19 UNL     1       1.474   4.940  -0.597  1.00  0.00     0.132 C 
HETATM   41  C20 UNL     1       0.494   6.070  -0.846  1.00  0.00     0.041 C 
BRANCH  40  42
HETATM   42  O2  UNL     1       2.770   5.476  -0.437  1.00  0.00    -0.394 OA
ATOM     43  H2  UNL     1       2.996   5.861  -1.275  1.00  0.00     0.210 HD
ENDBRANCH  40  42
ENDBRANCH  39  40
ENDBRANCH  37  39
ENDBRANCH   9  37
TORSDOF 12
