REMARK  4 active torsions:
REMARK  status: ('A' for Active; 'I' for Inactive)
REMARK    1  A    between atoms: C2_2  and  C4_4 
REMARK    2  A    between atoms: C6_9  and  N1_10 
REMARK       I    between atoms: N1_10  and  C7_12 
REMARK    3  A    between atoms: C7_12  and  O4_14 
REMARK    4  A    between atoms: O4_14  and  C8_15 
ROOT
HETATM    1  N1  UNL     1       1.119  -1.214  -0.195  1.00  0.00    -0.323 N 
ATOM      2  H1  UNL     1       1.160  -2.230  -0.271  1.00  0.00     0.165 HD
HETATM    3  C7  UNL     1       2.327  -0.458  -0.082  1.00  0.00     0.366 C 
HETATM    4  O3  UNL     1       2.303   0.796   0.014  1.00  0.00    -0.238 OA
ENDROOT
BRANCH   1   5
HETATM    5  C6  UNL     1      -0.162  -0.541  -0.202  1.00  0.00     0.187 C 
HETATM    6  C5  UNL     1      -0.967  -0.908  -1.404  1.00  0.00     0.283 C 
HETATM    7  O1  UNL     1      -2.293  -0.476  -1.425  1.00  0.00    -0.291 OA
HETATM    8  O2  UNL     1      -0.478  -1.578  -2.361  1.00  0.00    -0.263 OA
HETATM    9  C4  UNL     1      -3.116  -0.585  -0.257  1.00  0.00     0.152 C 
HETATM   10 CL1  UNL     1      -3.667  -2.274  -0.152  1.00  0.00    -0.087 Cl
HETATM   11  C15 UNL     1      -2.322  -0.281   0.970  1.00  0.00     0.035 C 
HETATM   12  C14 UNL     1      -0.991  -0.989   1.004  1.00  0.00     0.044 C 
HETATM   13  C16 UNL     1      -2.070   1.196   1.135  1.00  0.00     0.014 C 
BRANCH   9  14
HETATM   14  C2  UNL     1      -4.307   0.321  -0.354  1.00  0.00     0.029 C 
HETATM   15  C1  UNL     1      -5.152   0.124   0.887  1.00  0.00     0.014 C 
HETATM   16  C3  UNL     1      -5.155   0.042  -1.567  1.00  0.00     0.014 C 
ENDBRANCH   9  14
ENDBRANCH   1   5
BRANCH   3  17
HETATM   17  O4  UNL     1       3.581  -1.051  -0.070  1.00  0.00    -0.258 OA
BRANCH  17  18
HETATM   18  C8  UNL     1       4.751  -0.276   0.043  1.00  0.00     0.124 A 
HETATM   19  C9  UNL     1       5.348   0.175  -1.115  1.00  0.00     0.071 A 
HETATM   20 CL2  UNL     1       4.628  -0.234  -2.655  1.00  0.00    -0.081 Cl
HETATM   21  C10 UNL     1       6.485   0.932  -1.103  1.00  0.00     0.050 A 
HETATM   22  C11 UNL     1       7.062   1.262   0.083  1.00  0.00     0.037 A 
HETATM   23 CL3  UNL     1       8.520   2.233   0.094  1.00  0.00    -0.084 Cl
HETATM   24  C12 UNL     1       6.472   0.814   1.258  1.00  0.00     0.050 A 
HETATM   25  C13 UNL     1       5.322   0.049   1.232  1.00  0.00     0.071 A 
HETATM   26 CL4  UNL     1       4.606  -0.497   2.714  1.00  0.00    -0.081 Cl
ENDBRANCH  17  18
ENDBRANCH   3  17
TORSDOF 4
