REMARK  3 active torsions:
REMARK  status: ('A' for Active; 'I' for Inactive)
REMARK    1  A    between atoms: C3_4  and  O2_5 
REMARK    2  A    between atoms: C6_10  and  O3_11 
REMARK    3  A    between atoms: O3_11  and  C7_12 
ROOT
HETATM    1  O1  UNL     1       5.439   1.758   0.084  1.00  0.00    -0.289 OA
HETATM    2  C1  UNL     1       4.745   0.720   0.239  1.00  0.00     0.199 C 
HETATM    3  C2  UNL     1       3.320   0.986   0.504  1.00  0.00     0.084 A 
HETATM    4  C3  UNL     1       3.139   2.069   1.342  1.00  0.00     0.104 A 
HETATM    5  C4  UNL     1       1.804   2.437   1.629  1.00  0.00     0.070 A 
HETATM    6 CL1  UNL     1       1.534   3.823   2.696  1.00  0.00    -0.081 Cl
HETATM    7  C5  UNL     1       0.761   1.735   1.090  1.00  0.00     0.066 A 
HETATM    8  C6  UNL     1       0.914   0.657   0.260  1.00  0.00     0.106 A 
HETATM    9  C17 UNL     1       2.244   0.299  -0.020  1.00  0.00     0.118 A 
HETATM   10  O4  UNL     1       2.306  -0.805  -0.869  1.00  0.00    -0.347 OA
HETATM   11  C18 UNL     1       3.466  -1.470  -1.274  1.00  0.00     0.179 C 
HETATM   12  C19 UNL     1       4.490  -1.714  -0.249  1.00  0.00     0.072 C 
HETATM   13  C20 UNL     1       5.377  -0.591   0.146  1.00  0.00     0.246 C 
HETATM   14  F1  UNL     1       6.406  -0.502  -0.790  1.00  0.00    -0.241 F 
ENDROOT
BRANCH   8  15
HETATM   15  O3  UNL     1      -0.058  -0.072  -0.296  1.00  0.00    -0.337 OA
BRANCH  15  16
HETATM   16  C7  UNL     1      -1.418  -0.102  -0.279  1.00  0.00     0.070 C 
HETATM   17  C8  UNL     1      -1.940  -0.369   1.102  1.00  0.00     0.043 C 
HETATM   18  C9  UNL     1      -3.437  -0.609   1.130  1.00  0.00    -0.010 C 
HETATM   19  C10 UNL     1      -3.799  -1.770   0.265  1.00  0.00     0.009 C 
HETATM   20  C14 UNL     1      -4.087   0.652   0.592  1.00  0.00     0.030 C 
HETATM   21  C11 UNL     1      -3.332  -1.497  -1.152  1.00  0.00    -0.010 C 
HETATM   22  C12 UNL     1      -3.995  -0.264  -1.701  1.00  0.00     0.030 C 
HETATM   23  C16 UNL     1      -1.851  -1.291  -1.155  1.00  0.00     0.043 C 
HETATM   24  C13 UNL     1      -3.597   0.889  -0.801  1.00  0.00     0.040 C 
HETATM   25 CL2  UNL     1      -4.449   2.336  -1.429  1.00  0.00    -0.119 Cl
HETATM   26  C15 UNL     1      -2.102   1.103  -0.875  1.00  0.00     0.064 C 
ENDBRANCH  15  16
ENDBRANCH   8  15
BRANCH   4  27
HETATM   27  O2  UNL     1       4.152   2.761   1.882  1.00  0.00    -0.358 OA
ATOM     28  H2  UNL     1       4.028   3.506   2.458  1.00  0.00     0.217 HD
ENDBRANCH   4  27
TORSDOF 3
