REMARK  4 active torsions:
REMARK  status: ('A' for Active; 'I' for Inactive)
REMARK    1  A    between atoms: C4_9  and  C5_10 
REMARK    2  A    between atoms: C11_20  and  C12_21 
REMARK    3  A    between atoms: C12_21  and  O3_23 
REMARK    4  A    between atoms: O3_23  and  C13_24 
ROOT
HETATM    1  C1  UNL     1      -0.432  -2.146  -2.321  1.00  0.00     0.064 C 
HETATM    2  C2  UNL     1       0.188  -1.808  -0.997  1.00  0.00     0.007 C 
HETATM    3  N1  UNL     1       0.448  -2.768  -0.229  1.00  0.00    -0.315 N 
ATOM      4  H1  UNL     1       0.238  -3.725  -0.512  1.00  0.00     0.170 HD
HETATM    5  C3  UNL     1       1.045  -2.504   1.056  1.00  0.00     0.324 C 
HETATM    6  O1  UNL     1       1.318  -3.438   1.852  1.00  0.00    -0.247 OA
HETATM    7  N2  UNL     1       1.302  -1.140   1.376  1.00  0.00    -0.310 N 
ATOM      8  H2  UNL     1       1.497  -0.902   2.349  1.00  0.00     0.170 HD
HETATM    9  C4  UNL     1       1.302  -0.105   0.428  1.00  0.00     0.045 C 
HETATM   10  C11 UNL     1       0.448  -0.361  -0.774  1.00  0.00     0.181 C 
ENDROOT
BRANCH   9  11
HETATM   11  C5  UNL     1       2.564   0.538   0.031  1.00  0.00     0.013 A 
HETATM   12  C6  UNL     1       2.475   1.453  -1.035  1.00  0.00     0.041 A 
HETATM   13  C7  UNL     1       3.579   2.189  -1.407  1.00  0.00     0.058 A 
HETATM   14 CL1  UNL     1       3.419   3.328  -2.743  1.00  0.00    -0.082 Cl
HETATM   15  C8  UNL     1       4.760   2.048  -0.759  1.00  0.00     0.079 A 
HETATM   16 CL2  UNL     1       6.148   2.978  -1.229  1.00  0.00    -0.081 Cl
HETATM   17  C9  UNL     1       4.850   1.152   0.287  1.00  0.00     0.080 A 
HETATM   18 CL3  UNL     1       6.378   0.924   1.148  1.00  0.00    -0.081 Cl
HETATM   19  C10 UNL     1       3.763   0.403   0.681  1.00  0.00     0.069 A 
HETATM   20 CL4  UNL     1       3.949  -0.726   1.960  1.00  0.00    -0.082 Cl
ENDBRANCH   9  11
BRANCH  10  21
HETATM   21  C12 UNL     1      -0.904   0.291  -0.655  1.00  0.00     0.275 C 
HETATM   22  O2  UNL     1      -1.294   1.275  -1.290  1.00  0.00    -0.264 OA
BRANCH  21  23
HETATM   23  O3  UNL     1      -1.761  -0.271   0.246  1.00  0.00    -0.310 OA
BRANCH  23  24
HETATM   24  C13 UNL     1      -3.042   0.178   0.531  1.00  0.00     0.060 C 
HETATM   25  C14 UNL     1      -3.069   1.570   1.109  1.00  0.00     0.045 C 
HETATM   26  C15 UNL     1      -3.977   0.060  -0.648  1.00  0.00     0.045 C 
HETATM   27  C16 UNL     1      -3.570  -0.740   1.620  1.00  0.00     0.045 C 
ENDBRANCH  23  24
ENDBRANCH  21  23
ENDBRANCH  10  21
TORSDOF 4
