REMARK  3 active torsions:
REMARK  status: ('A' for Active; 'I' for Inactive)
REMARK    1  A    between atoms: C5_7  and  N1_8 
REMARK    2  A    between atoms: N1_8  and  S1_10 
REMARK    3  A    between atoms: C7_14  and  C8_15 
ROOT
HETATM    1  C1  UNL     1      -1.881   4.070  -0.035  1.00  0.00     0.052 C 
HETATM    2  C2  UNL     1      -1.515   2.638   0.130  1.00  0.00    -0.016 A 
HETATM    3  C3  UNL     1      -2.230   1.811   0.948  1.00  0.00     0.065 A 
HETATM    4 CL1  UNL     1      -3.608   2.462   1.817  1.00  0.00    -0.082 Cl
HETATM    5  C4  UNL     1      -1.890   0.485   1.098  1.00  0.00     0.084 A 
HETATM    6 CL2  UNL     1      -2.838  -0.526   2.156  1.00  0.00    -0.080 Cl
HETATM    7  C5  UNL     1      -0.804  -0.014   0.408  1.00  0.00     0.077 A 
HETATM    8  C7  UNL     1      -0.074   0.802  -0.415  1.00  0.00     0.017 A 
HETATM    9  C12 UNL     1      -0.434   2.158  -0.560  1.00  0.00     0.054 A 
HETATM   10 CL3  UNL     1       0.509   3.195  -1.624  1.00  0.00    -0.083 Cl
ENDROOT
BRANCH   8  11
HETATM   11  C8  UNL     1       1.103   0.370  -1.122  1.00  0.00     0.040 C 
HETATM   12  C9  UNL     1       2.157  -0.165  -0.555  1.00  0.00     0.079 C 
HETATM   13  S2  UNL     1       2.408  -0.488   1.198  1.00  0.00    -0.024 SA
HETATM   14  C11 UNL     1       3.395  -0.630  -1.163  1.00  0.00     0.266 C 
HETATM   15  C10 UNL     1       4.173  -0.720   1.083  1.00  0.00     0.291 C 
HETATM   16  O3  UNL     1       4.953  -0.706   2.035  1.00  0.00    -0.260 OA
HETATM   17  N2  UNL     1       4.431  -0.912  -0.282  1.00  0.00    -0.283 N 
ATOM     18  H2  UNL     1       5.337  -1.243  -0.612  1.00  0.00     0.172 HD
HETATM   19  O4  UNL     1       3.474  -0.755  -2.437  1.00  0.00    -0.267 OA
ENDBRANCH   8  11
BRANCH   7  20
HETATM   20  N1  UNL     1      -0.517  -1.390   0.552  1.00  0.00    -0.282 N 
ATOM     21  H1  UNL     1       0.139  -1.686   1.275  1.00  0.00     0.178 HD
BRANCH  20  22
HETATM   22  S1  UNL     1      -1.249  -2.591  -0.466  1.00  0.00     0.227 S 
HETATM   23  C6  UNL     1      -1.757  -3.925   0.569  1.00  0.00     0.186 C 
HETATM   24  O1  UNL     1      -0.272  -3.113  -1.473  1.00  0.00    -0.206 OA
HETATM   25  O2  UNL     1      -2.409  -1.936  -1.175  1.00  0.00    -0.206 OA
ENDBRANCH  20  22
ENDBRANCH   7  20
TORSDOF 3
