REMARK  8 active torsions:
REMARK  status: ('A' for Active; 'I' for Inactive)
REMARK    1  A    between atoms: N1_1  and  C1_5 
REMARK    2  A    between atoms: C1_5  and  C2_6 
REMARK    3  A    between atoms: C5_9  and  C6_10 
REMARK    4  A    between atoms: C6_10  and  C7_11 
REMARK    5  A    between atoms: C7_11  and  C8_12 
REMARK    6  A    between atoms: C8_12  and  C9_13 
REMARK    7  A    between atoms: C9_13  and  C10_14 
REMARK    8  A    between atoms: C10_14  and  C11_15 
ROOT
HETATM    1  C2  UNL     1       4.286  -0.674  -0.573  1.00  0.00    -0.033 A 
HETATM    2  C3  UNL     1       3.985  -0.017   0.603  1.00  0.00     0.009 A 
HETATM    3  C4  UNL     1       2.834   0.737   0.756  1.00  0.00     0.007 A 
HETATM    4  C5  UNL     1       1.932   0.860  -0.278  1.00  0.00    -0.058 A 
HETATM    5  C14 UNL     1       2.234   0.203  -1.453  1.00  0.00     0.007 A 
HETATM    6  C15 UNL     1       3.388  -0.554  -1.611  1.00  0.00     0.009 A 
ENDROOT
BRANCH   4   7
HETATM    7  C6  UNL     1       0.680   1.659  -0.162  1.00  0.00     0.038 C 
BRANCH   7   8
HETATM    8  C7  UNL     1      -0.476   0.820   0.344  1.00  0.00     0.005 C 
BRANCH   8   9
HETATM    9  C8  UNL     1      -1.678   1.710   0.425  1.00  0.00     0.000 C 
BRANCH   9  10
HETATM   10  C9  UNL     1      -2.919   1.017   0.916  1.00  0.00     0.000 C 
BRANCH  10  11
HETATM   11  C10 UNL     1      -3.321  -0.148   0.003  1.00  0.00     0.004 C 
BRANCH  11  12
HETATM   12  C11 UNL     1      -4.562  -0.750   0.595  1.00  0.00    -0.014 A 
HETATM   13  C12 UNL     1      -5.242  -1.905  -0.022  1.00  0.00     0.005 A 
HETATM   14  C13 UNL     1      -5.842  -0.564  -0.206  1.00  0.00     0.005 A 
ENDBRANCH  11  12
ENDBRANCH  10  11
ENDBRANCH   9  10
ENDBRANCH   8   9
ENDBRANCH   7   8
ENDBRANCH   4   7
BRANCH   1  15
HETATM   15  C1  UNL     1       5.527  -1.489  -0.747  1.00  0.00     0.268 C 
BRANCH  15  16
HETATM   16  N1  UNL     1       6.327  -1.480   0.463  1.00  0.00    -0.075 N 
ATOM     17  H13 UNL     1       6.540  -0.530   0.767  1.00  0.00     0.274 HD
ATOM     18  H12 UNL     1       5.787  -1.784   1.273  1.00  0.00     0.274 HD
ATOM     19  H11 UNL     1       7.174  -2.036   0.344  1.00  0.00     0.274 HD
ENDBRANCH  15  16
ENDBRANCH   1  15
TORSDOF 8
