REMARK  6 active torsions:
REMARK  status: ('A' for Active; 'I' for Inactive)
REMARK    1  A    between atoms: C4_4  and  C5_5 
REMARK    2  A    between atoms: C5_5  and  C6_6 
REMARK    3  A    between atoms: C6_6  and  C7_7 
REMARK    4  A    between atoms: C7_7  and  C8_8 
REMARK    5  A    between atoms: C8_8  and  C9_9 
REMARK    6  A    between atoms: C9_9  and  C10_10 
ROOT
HETATM    1  C7  UNL     1       0.019  -1.498  -0.999  1.00  0.00     0.001 C 
ENDROOT
BRANCH   1   2
HETATM    2  C6  UNL     1      -1.001  -0.743  -0.184  1.00  0.00     0.005 C 
BRANCH   2   3
HETATM    3  C5  UNL     1      -2.385  -1.134  -0.710  1.00  0.00     0.038 C 
BRANCH   3   4
HETATM    4  C4  UNL     1      -3.448  -0.419   0.055  1.00  0.00    -0.058 A 
HETATM    5  C3  UNL     1      -3.906   0.815  -0.364  1.00  0.00     0.007 A 
HETATM    6  C2  UNL     1      -4.892   1.485   0.341  1.00  0.00     0.001 A 
HETATM    7  C1  UNL     1      -5.456   0.954   1.482  1.00  0.00     0.000 A 
HETATM    8  C17 UNL     1      -4.999  -0.278   1.901  1.00  0.00     0.001 A 
HETATM    9  C16 UNL     1      -4.012  -0.949   1.196  1.00  0.00     0.007 A 
ENDBRANCH   3   4
ENDBRANCH   2   3
ENDBRANCH   1   2
BRANCH   1  10
HETATM   10  C8  UNL     1       1.435  -1.219  -0.596  1.00  0.00     0.005 C 
BRANCH  10  11
HETATM   11  C9  UNL     1       1.763   0.237  -0.750  1.00  0.00     0.038 C 
BRANCH  11  12
HETATM   12  C10 UNL     1       3.164   0.542  -0.359  1.00  0.00    -0.058 A 
HETATM   13  C11 UNL     1       4.212   0.500  -1.256  1.00  0.00     0.007 A 
HETATM   14  C12 UNL     1       5.508   0.785  -0.880  1.00  0.00     0.001 A 
HETATM   15  C13 UNL     1       5.823   1.127   0.418  1.00  0.00     0.000 A 
HETATM   16  C14 UNL     1       4.782   1.172   1.321  1.00  0.00     0.001 A 
HETATM   17  C15 UNL     1       3.484   0.887   0.948  1.00  0.00     0.007 A 
ENDBRANCH  11  12
ENDBRANCH  10  11
ENDBRANCH   1  10
TORSDOF 6
