REMARK  7 active torsions:
REMARK  status: ('A' for Active; 'I' for Inactive)
REMARK    1  A    between atoms: C4_5  and  C5_6 
REMARK    2  A    between atoms: C5_6  and  C6_7 
REMARK    3  A    between atoms: C6_7  and  C7_8 
REMARK    4  A    between atoms: C7_8  and  C8_9 
REMARK    5  A    between atoms: C8_9  and  C9_10 
REMARK    6  A    between atoms: C9_10  and  C10_11 
REMARK    7  A    between atoms: C10_11  and  C11_12 
ROOT
HETATM    1  C6  UNL     1       1.292   0.179  -0.230  1.00  0.00     0.005 C 
ENDROOT
BRANCH   1   2
HETATM    2  C5  UNL     1       2.306  -0.303  -1.227  1.00  0.00     0.038 C 
BRANCH   2   3
HETATM    3  C4  UNL     1       3.701  -0.088  -0.776  1.00  0.00    -0.058 A 
HETATM    4  C3  UNL     1       4.359   1.089  -1.082  1.00  0.00     0.009 A 
HETATM    5  C2  UNL     1       5.668   1.297  -0.661  1.00  0.00     0.027 A 
HETATM    6  C1  UNL     1       6.354   0.348   0.069  1.00  0.00     0.046 A 
HETATM    7  N1  UNL     1       7.700   0.566   0.500  1.00  0.00    -0.102 NA
HETATM    8  C16 UNL     1       5.683  -0.823   0.367  1.00  0.00     0.027 A 
HETATM    9  C15 UNL     1       4.381  -1.046  -0.044  1.00  0.00     0.009 A 
ENDBRANCH   2   3
ENDBRANCH   1   2
BRANCH   1  10
HETATM   10  C7  UNL     1      -0.081  -0.079  -0.768  1.00  0.00     0.000 C 
BRANCH  10  11
HETATM   11  C8  UNL     1      -1.170   0.378   0.178  1.00  0.00     0.000 C 
BRANCH  11  12
HETATM   12  C9  UNL     1      -2.508   0.058  -0.492  1.00  0.00     0.000 C 
BRANCH  12  13
HETATM   13  C10 UNL     1      -3.585   0.518   0.461  1.00  0.00     0.004 C 
BRANCH  13  14
HETATM   14  C11 UNL     1      -4.971   0.262  -0.075  1.00  0.00    -0.014 C 
HETATM   15  C12 UNL     1      -6.000   0.747   0.929  1.00  0.00     0.004 C 
HETATM   16  C13 UNL     1      -5.894  -0.616   1.596  1.00  0.00     0.001 C 
HETATM   17  C14 UNL     1      -5.441  -1.161   0.251  1.00  0.00     0.004 C 
ENDBRANCH  13  14
ENDBRANCH  12  13
ENDBRANCH  11  12
ENDBRANCH  10  11
ENDBRANCH   1  10
TORSDOF 7
