REMARK  3 active torsions:
REMARK  status: ('A' for Active; 'I' for Inactive)
REMARK       I    between atoms: N2_5  and  C4_6 
REMARK    1  A    between atoms: C4_6  and  C5_8 
REMARK    2  A    between atoms: C5_8  and  N3_9 
REMARK       I    between atoms: N3_9  and  C6_11 
REMARK    3  A    between atoms: C6_11  and  C7_13 
ROOT
HETATM    1  N1  UNL     1       6.393   2.881  -1.292  1.00  0.00    -0.197 NA
HETATM    2  C1  UNL     1       6.113   2.518  -0.229  1.00  0.00     0.067 C 
HETATM    3  C2  UNL     1       5.757   2.066   1.100  1.00  0.00     0.129 C 
HETATM    4  C3  UNL     1       4.388   2.566   1.577  1.00  0.00     0.146 C 
HETATM    5  N2  UNL     1       3.744   1.400   1.018  1.00  0.00    -0.347 N 
HETATM    6  C4  UNL     1       2.459   1.077   0.589  1.00  0.00     0.248 C 
HETATM    7  O1  UNL     1       1.567   1.994   0.668  1.00  0.00    -0.271 OA
HETATM    8  C20 UNL     1       5.023   0.740   1.098  1.00  0.00     0.146 C 
ENDROOT
BRANCH   6   9
HETATM    9  C5  UNL     1       2.021  -0.223   0.048  1.00  0.00     0.117 C 
HETATM   10  C16 UNL     1       2.772  -0.397  -1.272  1.00  0.00     0.068 C 
HETATM   11  C17 UNL     1       3.377  -1.762  -1.427  1.00  0.00     0.235 C 
HETATM   12  N4  UNL     1       2.348  -2.722  -1.078  1.00  0.00    -0.075 N 
HETATM   13  C18 UNL     1       2.293  -2.719   0.380  1.00  0.00     0.235 C 
ATOM     14  H42 UNL     1       1.449  -2.540  -1.523  1.00  0.00     0.277 HD
ATOM     15  H41 UNL     1       2.496  -3.647  -1.481  1.00  0.00     0.277 HD
HETATM   16  C19 UNL     1       2.314  -1.367   0.990  1.00  0.00     0.068 C 
BRANCH   9  17
HETATM   17  N3  UNL     1       0.622  -0.137  -0.275  1.00  0.00    -0.341 N 
HETATM   18  C6  UNL     1      -0.452   0.099   0.602  1.00  0.00     0.247 C 
HETATM   19  O2  UNL     1      -0.315   0.267   1.836  1.00  0.00    -0.271 OA
ATOM     20  H3  UNL     1       0.380  -0.262  -1.258  1.00  0.00     0.163 HD
BRANCH  18  21
HETATM   21  C7  UNL     1      -1.875   0.173   0.145  1.00  0.00     0.214 C 
HETATM   22  C8  UNL     1      -2.648  -0.807   0.971  1.00  0.00     0.046 C 
HETATM   23  C9  UNL     1      -3.975  -1.196   0.379  1.00  0.00    -0.009 C 
HETATM   24  C10 UNL     1      -5.130  -0.425   0.929  1.00  0.00     0.005 C 
HETATM   25  C15 UNL     1      -3.932  -1.229  -1.121  1.00  0.00     0.036 C 
HETATM   26  C11 UNL     1      -5.249   0.973   0.452  1.00  0.00     0.000 C 
HETATM   27  C12 UNL     1      -5.286   1.138  -1.031  1.00  0.00     0.002 C 
HETATM   28  C13 UNL     1      -3.924   1.230  -1.670  1.00  0.00     0.032 C 
HETATM   29  C14 UNL     1      -3.190  -0.068  -1.728  1.00  0.00     0.122 C 
HETATM   30  O3  UNL     1      -1.919  -0.033  -1.216  1.00  0.00    -0.371 OA
ENDBRANCH  18  21
ENDBRANCH   9  17
ENDBRANCH   6   9
TORSDOF 3
