REMARK  4 active torsions:
REMARK  status: ('A' for Active; 'I' for Inactive)
REMARK    1  A    between atoms: C4_4  and  N1_5 
REMARK    2  A    between atoms: N1_5  and  C5_7 
REMARK    3  A    between atoms: C6_10  and  N3_11 
REMARK    4  A    between atoms: N3_11  and  C7_13 
ROOT
HETATM    1  C1  UNL     1       4.794  -0.034  -2.259  1.00  0.00     0.049 C 
HETATM    2  C2  UNL     1       3.979  -0.082  -1.016  1.00  0.00    -0.052 A 
HETATM    3  C3  UNL     1       2.825   0.646  -0.836  1.00  0.00     0.037 A 
HETATM    4  C4  UNL     1       2.064   0.609   0.309  1.00  0.00     0.035 A 
HETATM    5  C14 UNL     1       2.474  -0.203   1.342  1.00  0.00     0.052 A 
HETATM    6  C15 UNL     1       3.627  -0.940   1.183  1.00  0.00     0.053 A 
HETATM    7  C16 UNL     1       4.032  -1.785   2.289  1.00  0.00     0.100 C 
HETATM    8  N6  UNL     1       4.360  -2.474   3.162  1.00  0.00    -0.191 NA
HETATM    9  C17 UNL     1       4.376  -0.891   0.030  1.00  0.00    -0.035 A 
HETATM   10  C18 UNL     1       5.628  -1.717  -0.092  1.00  0.00     0.050 C 
ENDROOT
BRANCH   4  11
HETATM   11  N1  UNL     1       0.911   1.385   0.393  1.00  0.00    -0.340 N 
ATOM     12  H1  UNL     1       1.036   2.384   0.554  1.00  0.00     0.167 HD
BRANCH  11  13
HETATM   13  C5  UNL     1      -0.300   0.957   0.286  1.00  0.00     0.151 A 
HETATM   14  N2  UNL     1      -0.526  -0.352   0.075  1.00  0.00    -0.174 N 
HETATM   15  C6  UNL     1      -1.774  -0.861  -0.045  1.00  0.00     0.680 A 
ATOM     16  H2  UNL     1       0.272  -0.983   0.003  1.00  0.00     0.186 HD
HETATM   17  N4  UNL     1      -2.815  -0.028   0.052  1.00  0.00    -0.192 N 
HETATM   18  C10 UNL     1      -2.611   1.318   0.268  1.00  0.00     0.073 A 
ATOM     19  H4  UNL     1      -3.765  -0.390  -0.034  1.00  0.00     0.184 HD
HETATM   20  C11 UNL     1      -1.371   1.830   0.388  1.00  0.00     0.113 A 
HETATM   21  C13 UNL     1      -3.731   2.281   0.391  1.00  0.00     0.223 C 
HETATM   22  N5  UNL     1      -1.313   3.230   0.601  1.00  0.00    -0.274 N 
HETATM   23  C12 UNL     1      -0.214   4.040   1.052  1.00  0.00     0.170 C 
HETATM   24  S1  UNL     1      -2.886   3.827   0.202  1.00  0.00     0.238 S 
HETATM   25  O1  UNL     1      -2.909   4.293  -1.227  1.00  0.00    -0.205 OA
HETATM   26  O2  UNL     1      -3.371   4.852   1.161  1.00  0.00    -0.205 OA
BRANCH  15  27
HETATM   27  N3  UNL     1      -1.909  -2.099  -0.243  1.00  0.00    -0.222 N 
ATOM     28  H3  UNL     1      -1.030  -2.613  -0.296  1.00  0.00     0.178 HD
BRANCH  27  29
HETATM   29  C7  UNL     1      -3.062  -2.901  -0.405  1.00  0.00     0.091 C 
HETATM   30  C8  UNL     1      -3.870  -2.557  -1.656  1.00  0.00     0.032 C 
HETATM   31  C9  UNL     1      -3.930  -3.002   0.813  1.00  0.00     0.032 C 
ENDBRANCH  27  29
ENDBRANCH  15  27
ENDBRANCH  11  13
ENDBRANCH   4  11
TORSDOF 4
