REMARK  2 active torsions:
REMARK  status: ('A' for Active; 'I' for Inactive)
REMARK    1  A    between atoms: C5_6  and  N1_7 
REMARK       I    between atoms: N1_7  and  C6_9 
REMARK    2  A    between atoms: C6_9  and  C7_11 
ROOT
HETATM    1  O1  UNL     1      -3.146   2.519  -1.778  1.00  0.00    -0.291 OA
HETATM    2  C1  UNL     1      -3.081   2.789  -0.598  1.00  0.00     0.171 C 
HETATM    3  C2  UNL     1      -1.862   3.559  -0.156  1.00  0.00     0.089 C 
HETATM    4  C3  UNL     1      -0.532   2.868  -0.323  1.00  0.00     0.037 C 
HETATM    5  C4  UNL     1      -0.796   1.439   0.000  1.00  0.00    -0.001 C 
HETATM    6  C5  UNL     1       0.212   0.390  -0.119  1.00  0.00     0.009 C 
HETATM    7  C12 UNL     1      -0.392  -0.870   0.561  1.00  0.00     0.069 C 
HETATM    8  C13 UNL     1      -1.696  -1.204  -0.167  1.00  0.00     0.064 C 
HETATM    9  C14 UNL     1      -1.960  -2.687  -0.318  1.00  0.00     0.013 C 
HETATM   10  C15 UNL     1      -3.361  -2.683  -0.953  1.00  0.00     0.001 C 
HETATM   11  C16 UNL     1      -4.473  -2.521   0.013  1.00  0.00     0.003 C 
HETATM   12  C17 UNL     1      -5.127  -1.124   0.011  1.00  0.00     0.040 C 
HETATM   13  C18 UNL     1      -4.116  -0.033  -0.023  1.00  0.00     0.197 C 
HETATM   14  O4  UNL     1      -4.266   1.086   0.704  1.00  0.00    -0.347 OA
HETATM   15  C19 UNL     1      -4.186   2.321   0.235  1.00  0.00     0.185 C 
HETATM   16  C20 UNL     1      -2.876  -0.710   0.556  1.00  0.00     0.160 C 
HETATM   17  O5  UNL     1      -2.823  -0.875   1.751  1.00  0.00    -0.295 OA
ENDROOT
BRANCH   6  18
HETATM   18  N1  UNL     1       1.578   0.455  -0.041  1.00  0.00    -0.329 N 
HETATM   19  C6  UNL     1       2.378  -0.197   0.960  1.00  0.00     0.244 C 
HETATM   20  O2  UNL     1       1.870  -0.768   1.948  1.00  0.00    -0.271 OA
ATOM     21  H1  UNL     1       2.065   1.008  -0.747  1.00  0.00     0.168 HD
BRANCH  19  22
HETATM   22  C7  UNL     1       3.859  -0.202   0.786  1.00  0.00     0.171 C 
HETATM   23  C8  UNL     1       4.156  -0.981  -0.500  1.00  0.00     0.060 C 
HETATM   24  C9  UNL     1       5.444  -1.739  -0.401  1.00  0.00     0.170 C 
HETATM   25  O3  UNL     1       6.526  -0.944  -0.772  1.00  0.00    -0.389 OA
HETATM   26  C10 UNL     1       6.690   0.046   0.189  1.00  0.00     0.186 C 
HETATM   27  C11 UNL     1       5.631   1.114  -0.022  1.00  0.00     0.141 C 
HETATM   28  N2  UNL     1       4.569   0.937   0.965  1.00  0.00    -0.407 N 
ATOM     29  H2  UNL     1       4.381   1.604   1.713  1.00  0.00     0.154 HD
ENDBRANCH  19  22
ENDBRANCH   6  18
TORSDOF 2
