REMARK  7 active torsions:
REMARK  status: ('A' for Active; 'I' for Inactive)
REMARK    1  A    between atoms: C2_2  and  O1_3 
REMARK    2  A    between atoms: O1_3  and  C3_4 
REMARK       I    between atoms: C3_4  and  N1_6 
REMARK    3  A    between atoms: N1_6  and  C5_8 
REMARK    4  A    between atoms: C5_8  and  O3_9 
REMARK    5  A    between atoms: C5_8  and  N2_11 
REMARK    6  A    between atoms: N3_16  and  O4_17 
REMARK    7  A    between atoms: C14_26  and  C15_27 
ROOT
HETATM    1  N2  UNL     1       0.356  -0.280  -0.674  1.00  0.00    -0.335 N 
HETATM    2  C6  UNL     1       0.205  -1.343  -1.838  1.00  0.00     0.163 C 
HETATM    3  C7  UNL     1      -1.033  -1.878  -1.287  1.00  0.00    -0.042 C 
HETATM    4  C8  UNL     1      -0.967  -2.886  -0.470  1.00  0.00    -0.004 C 
HETATM    5  C9  UNL     1      -2.177  -3.511   0.205  1.00  0.00     0.149 C 
HETATM    6  N3  UNL     1      -2.788  -2.439   0.942  1.00  0.00    -0.182 NA
HETATM    7  C10 UNL     1      -2.925  -1.150   0.529  1.00  0.00     0.186 C 
HETATM    8  C11 UNL     1      -4.165  -1.254  -0.416  1.00  0.00     0.238 C 
HETATM    9  O5  UNL     1      -5.332  -1.019  -0.173  1.00  0.00    -0.272 OA
HETATM   10  N4  UNL     1      -3.494  -1.699  -1.607  1.00  0.00    -0.351 N 
ATOM     11  H4  UNL     1      -3.866  -2.351  -2.298  1.00  0.00     0.163 HD
HETATM   12  C12 UNL     1      -2.233  -1.075  -1.650  1.00  0.00     0.123 C 
HETATM   13  C13 UNL     1      -2.180  -0.239  -0.287  1.00  0.00     0.068 C 
HETATM   14  C14 UNL     1      -0.833   0.294  -0.115  1.00  0.00     0.119 C 
ENDROOT
BRANCH   1  15
HETATM   15  C5  UNL     1       1.683  -0.051  -0.361  1.00  0.00     0.226 C 
BRANCH  15  16
HETATM   16  N1  UNL     1       2.341   0.706   0.616  1.00  0.00    -0.264 N 
HETATM   17  C3  UNL     1       3.798   0.740   0.604  1.00  0.00     0.369 C 
HETATM   18  O2  UNL     1       4.402   1.408   1.462  1.00  0.00    -0.238 OA
HETATM   19  C4  UNL     1       1.737   1.478   1.657  1.00  0.00     0.165 C 
BRANCH  17  20
HETATM   20  O1  UNL     1       4.509   0.045  -0.341  1.00  0.00    -0.304 OA
BRANCH  20  21
HETATM   21  C2  UNL     1       5.922   0.110  -0.311  1.00  0.00     0.176 C 
HETATM   22  C1  UNL     1       6.413  -0.420   1.009  1.00  0.00     0.034 C 
ENDBRANCH  20  21
ENDBRANCH  17  20
ENDBRANCH  15  16
BRANCH  15  23
HETATM   23  O3  UNL     1       2.513  -0.701  -1.173  1.00  0.00    -0.332 OA
ATOM     24  H3  UNL     1       2.067  -1.215  -1.836  1.00  0.00     0.221 HD
ENDBRANCH  15  23
ENDBRANCH   1  15
BRANCH  14  25
HETATM   25  C15 UNL     1      -0.882   1.705  -0.746  1.00  0.00     0.001 C 
HETATM   26  C16 UNL     1      -1.536   2.682  -0.153  1.00  0.00    -0.089 C 
HETATM   27  C17 UNL     1      -1.531   4.012  -0.832  1.00  0.00     0.042 C 
HETATM   28  C18 UNL     1      -2.263   2.569   1.113  1.00  0.00     0.042 C 
ENDBRANCH  14  25
BRANCH   6  29
HETATM   29  O4  UNL     1      -3.999  -2.896   1.407  1.00  0.00    -0.312 OA
ATOM     30  H4  UNL     1      -4.403  -2.187   1.894  1.00  0.00     0.237 HD
ENDBRANCH   6  29
TORSDOF 7
