REMARK  5 active torsions:
REMARK  status: ('A' for Active; 'I' for Inactive)
REMARK    1  A    between atoms: N1_2  and  C2_4 
REMARK    2  A    between atoms: C2_4  and  C3_6 
REMARK    3  A    between atoms: C5_10  and  N3_11 
REMARK    4  A    between atoms: N3_11  and  C6_13 
REMARK    5  A    between atoms: C6_13  and  N4_15 
ROOT
HETATM    1  C3  UNL     1      -2.397  -0.712  -0.814  1.00  0.00     0.089 A 
HETATM    2  S2  UNL     1      -3.812   0.148  -1.354  1.00  0.00    -0.058 SA
HETATM    3  C4  UNL     1      -3.152   1.688  -1.367  1.00  0.00     0.116 A 
HETATM    4  N2  UNL     1      -1.906   1.532  -0.977  1.00  0.00    -0.321 N 
HETATM    5  C5  UNL     1      -1.474   0.267  -0.679  1.00  0.00     0.131 A 
HETATM    6  C11 UNL     1      -1.140   2.813  -0.929  1.00  0.00     0.133 C 
HETATM    7  C12 UNL     1      -1.871   3.747   0.046  1.00  0.00     0.031 C 
HETATM    8  C13 UNL     1      -2.973   4.506  -0.650  1.00  0.00     0.083 C 
HETATM    9  S4  UNL     1      -3.786   3.357  -1.783  1.00  0.00    -0.104 SA
ENDROOT
BRANCH   5  10
HETATM   10  N3  UNL     1      -0.073   0.065  -0.414  1.00  0.00    -0.318 N 
ATOM     11  H3  UNL     1       0.341   0.822   0.130  1.00  0.00     0.170 HD
BRANCH  10  12
HETATM   12  C6  UNL     1       0.834  -0.927  -0.733  1.00  0.00     0.175 C 
HETATM   13  S3  UNL     1       0.578  -2.138  -1.772  1.00  0.00    -0.041 SA
BRANCH  12  14
HETATM   14  N4  UNL     1       2.199  -0.836  -0.218  1.00  0.00    -0.354 N 
HETATM   15  C7  UNL     1       3.114  -1.880  -0.565  1.00  0.00     0.151 C 
HETATM   16  C8  UNL     1       4.301  -1.922   0.378  1.00  0.00     0.187 C 
HETATM   17  O1  UNL     1       4.049  -1.208   1.549  1.00  0.00    -0.388 OA
HETATM   18  C9  UNL     1       3.899   0.134   1.239  1.00  0.00     0.187 C 
HETATM   19  C10 UNL     1       2.517   0.296   0.604  1.00  0.00     0.151 C 
ENDBRANCH  12  14
ENDBRANCH  10  12
ENDBRANCH   5  10
BRANCH   1  20
HETATM   20  C2  UNL     1      -2.417  -2.159  -0.496  1.00  0.00     0.117 C 
HETATM   21  S1  UNL     1      -3.062  -3.166  -1.591  1.00  0.00    -0.059 SA
BRANCH  20  22
HETATM   22  N1  UNL     1      -1.967  -2.653   0.728  1.00  0.00    -0.384 N 
HETATM   23  C1  UNL     1      -1.952  -4.036   1.115  1.00  0.00     0.147 C 
ATOM     24  H1  UNL     1      -1.619  -1.975   1.406  1.00  0.00     0.160 HD
ENDBRANCH  20  22
ENDBRANCH   1  20
TORSDOF 5
