REMARK  4 active torsions:
REMARK  status: ('A' for Active; 'I' for Inactive)
REMARK       I    between atoms: C2_2  and  N1_4 
REMARK    1  A    between atoms: C5_7  and  C6_8 
REMARK    2  A    between atoms: C6_8  and  N2_9 
REMARK       I    between atoms: N2_9  and  C7_10 
REMARK    3  A    between atoms: C7_10  and  C8_12 
REMARK       I    between atoms: C8_12  and  N3_14 
REMARK    4  A    between atoms: N3_14  and  N4_16 
ROOT
HETATM    1  C8  UNL     1      -0.681  -0.115   0.725  1.00  0.00     0.342 C 
HETATM    2  O3  UNL     1      -0.820   0.863   0.015  1.00  0.00    -0.259 OA
HETATM    3  N3  UNL     1      -1.598  -0.473   1.724  1.00  0.00    -0.261 N 
ATOM      4  H3  UNL     1      -1.426  -1.307   2.286  1.00  0.00     0.190 HD
ENDROOT
BRANCH   1   5
HETATM    5  C7  UNL     1       0.503  -1.013   0.550  1.00  0.00     0.385 C 
HETATM    6  N2  UNL     1       1.428  -0.833  -0.445  1.00  0.00    -0.379 NA
HETATM    7  O2  UNL     1       0.600  -1.977   1.396  1.00  0.00    -0.246 OA
BRANCH   6   8
HETATM    8  C6  UNL     1       2.356  -0.652  -1.442  1.00  0.00     0.164 C 
BRANCH   8   9
HETATM    9  C5  UNL     1       3.785  -0.471  -0.955  1.00  0.00     0.041 C 
HETATM   10  C4  UNL     1       4.276  -1.604  -0.116  1.00  0.00     0.031 C 
HETATM   11  C3  UNL     1       5.704  -1.398   0.273  1.00  0.00     0.126 C 
HETATM   12  N1  UNL     1       6.263  -0.136  -0.125  1.00  0.00    -0.352 N 
HETATM   13  C2  UNL     1       7.686  -0.092  -0.315  1.00  0.00     0.215 C 
HETATM   14  C20 UNL     1       5.536   1.089  -0.346  1.00  0.00     0.126 C 
HETATM   15  C1  UNL     1       8.361   1.154  -0.744  1.00  0.00     0.117 C 
HETATM   16  O1  UNL     1       8.372  -1.117  -0.116  1.00  0.00    -0.274 OA
HETATM   17  C19 UNL     1       4.046   0.812  -0.227  1.00  0.00     0.031 C 
ENDBRANCH   8   9
ENDBRANCH   6   8
ENDBRANCH   1   5
BRANCH   3  18
HETATM   18  N4  UNL     1      -2.729   0.281   1.961  1.00  0.00    -0.305 N 
HETATM   19  C9  UNL     1      -3.728   0.328   1.209  1.00  0.00     0.012 C 
HETATM   20  C10 UNL     1      -4.899   1.191   1.590  1.00  0.00     0.034 C 
HETATM   21  C17 UNL     1      -3.873  -0.425  -0.053  1.00  0.00     0.034 C 
HETATM   22  C11 UNL     1      -5.188   2.082   0.418  1.00  0.00     0.015 C 
HETATM   23  C15 UNL     1      -6.007   0.160   1.845  1.00  0.00     0.015 C 
HETATM   24  C12 UNL     1      -5.492   1.292  -0.825  1.00  0.00    -0.013 C 
HETATM   25  C13 UNL     1      -6.654   0.378  -0.540  1.00  0.00     0.009 C 
HETATM   26  C18 UNL     1      -4.242   0.512  -1.199  1.00  0.00     0.015 C 
HETATM   27  C14 UNL     1      -6.282  -0.579   0.556  1.00  0.00    -0.013 C 
HETATM   28  C16 UNL     1      -5.084  -1.368   0.103  1.00  0.00     0.015 C 
ATOM     29  H4  UNL     1      -2.752   0.842   2.813  1.00  0.00     0.186 HD
ENDBRANCH   3  18
TORSDOF 4
