REMARK  5 active torsions:
REMARK  status: ('A' for Active; 'I' for Inactive)
REMARK    1  A    between atoms: C3_3  and  N1_4 
REMARK       I    between atoms: N1_4  and  C4_6 
REMARK       I    between atoms: C4_6  and  N2_8 
REMARK    2  A    between atoms: N2_8  and  C5_10 
REMARK    3  A    between atoms: N4_21  and  C14_22 
REMARK    4  A    between atoms: C14_22  and  O3_23 
REMARK    5  A    between atoms: C14_22  and  C15_25 
ROOT
HETATM    1  C1  UNL     1       0.019  -2.126  -0.430  1.00  0.00     0.035 C 
HETATM    2  C2  UNL     1       0.546  -0.796  -0.690  1.00  0.00     0.117 C 
HETATM    3  C3  UNL     1      -0.283   0.373  -0.135  1.00  0.00     0.201 C 
HETATM    4  C9  UNL     1       0.201   1.564  -0.962  1.00  0.00     0.246 C 
HETATM    5  O2  UNL     1      -0.392   2.653  -0.938  1.00  0.00    -0.271 OA
HETATM    6  N3  UNL     1       1.363   1.299  -1.736  1.00  0.00    -0.328 N 
HETATM    7  C10 UNL     1       1.454   1.796  -3.073  1.00  0.00     0.155 C 
HETATM    8  C11 UNL     1       2.516   0.525  -1.190  1.00  0.00     0.105 C 
HETATM    9  C12 UNL     1       3.274   1.577  -0.404  1.00  0.00     0.063 C 
HETATM   10  C13 UNL     1       3.376   0.064  -2.326  1.00  0.00     0.063 C 
HETATM   11  N4  UNL     1       1.964  -0.529  -0.379  1.00  0.00    -0.328 N 
ENDROOT
BRANCH   3  12
HETATM   12  N1  UNL     1      -1.675   0.214  -0.472  1.00  0.00    -0.328 N 
HETATM   13  C4  UNL     1      -2.654   0.293   0.552  1.00  0.00     0.317 C 
HETATM   14  O1  UNL     1      -2.324   0.501   1.769  1.00  0.00    -0.247 OA
HETATM   15  N2  UNL     1      -4.039   0.144   0.262  1.00  0.00    -0.335 N 
ATOM     16  H2  UNL     1      -4.334  -0.023  -0.700  1.00  0.00     0.165 HD
ATOM     17  H1  UNL     1      -1.954   0.046  -1.439  1.00  0.00     0.165 HD
BRANCH  15  18
HETATM   18  C5  UNL     1      -5.039   0.225   1.310  1.00  0.00     0.023 C 
HETATM   19  C6  UNL     1      -5.016   1.554   2.012  1.00  0.00     0.037 C 
HETATM   20  C7  UNL     1      -4.856  -0.929   2.258  1.00  0.00     0.037 C 
HETATM   21  C8  UNL     1      -6.412   0.065   0.658  1.00  0.00     0.037 C 
ENDBRANCH  15  18
ENDBRANCH   3  12
BRANCH  11  22
HETATM   22  C14 UNL     1       2.522  -1.245   0.679  1.00  0.00     0.158 C 
BRANCH  22  23
HETATM   23  O3  UNL     1       1.682  -2.007   1.380  1.00  0.00    -0.345 OA
ATOM     24  H3  UNL     1       2.062  -2.495   2.101  1.00  0.00     0.219 HD
ENDBRANCH  22  23
BRANCH  22  25
HETATM   25  C15 UNL     1       3.869  -1.361   1.216  1.00  0.00     0.055 A 
HETATM   26  C16 UNL     1       5.101  -0.945   0.865  1.00  0.00     0.024 A 
HETATM   27  C17 UNL     1       6.151  -1.211   1.686  1.00  0.00     0.009 A 
HETATM   28  C18 UNL     1       5.891  -1.896   2.832  1.00  0.00     0.050 A 
HETATM   29  S1  UNL     1       4.220  -2.148   2.741  1.00  0.00    -0.098 SA
ENDBRANCH  22  25
ENDBRANCH  11  22
TORSDOF 5
