REMARK  4 active torsions:
REMARK  status: ('A' for Active; 'I' for Inactive)
REMARK    1  A    between atoms: N1_7  and  N2_9 
REMARK    2  A    between atoms: N2_9  and  C6_11 
REMARK    3  A    between atoms: C6_11  and  N3_13 
REMARK       I    between atoms: N4_16  and  C9_17 
REMARK       I    between atoms: C9_17  and  N5_19 
REMARK    4  A    between atoms: N5_19  and  C10_21 
ROOT
HETATM    1  N3  UNL     1       1.566   1.751  -0.143  1.00  0.00    -0.354 N 
HETATM    2  C7  UNL     1       0.328   2.577  -0.241  1.00  0.00     0.145 C 
HETATM    3  C8  UNL     1      -0.560   2.084  -1.356  1.00  0.00     0.147 C 
HETATM    4  N4  UNL     1      -0.637   0.643  -1.272  1.00  0.00    -0.331 N 
HETATM    5  C9  UNL     1      -1.866  -0.032  -1.176  1.00  0.00     0.318 C 
HETATM    6  O2  UNL     1      -1.843  -1.311  -1.106  1.00  0.00    -0.247 OA
HETATM    7  N5  UNL     1      -3.128   0.561  -1.150  1.00  0.00    -0.338 N 
ATOM      8  H5  UNL     1      -3.182   1.578  -1.204  1.00  0.00     0.164 HD
HETATM    9  C16 UNL     1       0.625  -0.101  -1.294  1.00  0.00     0.147 C 
HETATM   10  C17 UNL     1       1.786   0.884  -1.252  1.00  0.00     0.145 C 
ENDROOT
BRANCH   1  11
HETATM   11  C6  UNL     1       2.363   1.904   0.988  1.00  0.00     0.188 C 
HETATM   12  S1  UNL     1       1.830   3.020   2.122  1.00  0.00    -0.039 SA
BRANCH  11  13
HETATM   13  N2  UNL     1       3.557   1.259   1.325  1.00  0.00    -0.276 N 
ATOM     14  H2  UNL     1       3.984   1.525   2.212  1.00  0.00     0.189 HD
BRANCH  13  15
HETATM   15  N1  UNL     1       4.217   0.303   0.586  1.00  0.00    -0.306 N 
HETATM   16  C5  UNL     1       4.708  -0.790   1.004  1.00  0.00     0.010 C 
HETATM   17  C4  UNL     1       4.625  -1.196   2.420  1.00  0.00     0.055 C 
HETATM   18  C18 UNL     1       5.393  -1.712   0.052  1.00  0.00     0.132 C 
HETATM   19  C3  UNL     1       5.972  -1.627   2.927  1.00  0.00     0.013 C 
HETATM   20  C2  UNL     1       7.054  -1.321   1.927  1.00  0.00     0.079 C 
HETATM   21  C1  UNL     1       6.758  -1.926   0.617  1.00  0.00     0.132 C 
HETATM   22  O1  UNL     1       7.567  -2.573   0.003  1.00  0.00    -0.298 OA
ATOM     23  H1  UNL     1       4.323   0.495  -0.410  1.00  0.00     0.186 HD
ENDBRANCH  13  15
ENDBRANCH  11  13
ENDBRANCH   1  11
BRANCH   7  24
HETATM   24  C10 UNL     1      -4.371  -0.186  -1.051  1.00  0.00     0.086 C 
HETATM   25  C11 UNL     1      -5.131   0.289   0.138  1.00  0.00     0.025 C 
HETATM   26  C12 UNL     1      -6.527  -0.200   0.254  1.00  0.00     0.002 C 
HETATM   27  C13 UNL     1      -7.245  -0.461  -1.020  1.00  0.00     0.000 C 
HETATM   28  C14 UNL     1      -6.398  -0.966  -2.139  1.00  0.00     0.002 C 
HETATM   29  C15 UNL     1      -5.230   0.010  -2.286  1.00  0.00     0.025 C 
ENDBRANCH   7  24
TORSDOF 4
