REMARK  6 active torsions:
REMARK  status: ('A' for Active; 'I' for Inactive)
REMARK       I    between atoms: C1_2  and  N1_3 
REMARK    1  A    between atoms: C1_2  and  C15_27 
REMARK    2  A    between atoms: N1_3  and  C2_5 
REMARK    3  A    between atoms: N4_14  and  C7_15 
REMARK    4  A    between atoms: C7_15  and  O2_16 
REMARK    5  A    between atoms: C7_15  and  N5_18 
REMARK    6  A    between atoms: C12_23  and  C13_24 
ROOT
HETATM    1  C2  UNL     1       3.586  -0.028  -0.400  1.00  0.00     0.131 A 
HETATM    2  N2  UNL     1       3.613  -0.767   0.750  1.00  0.00    -0.285 N 
ATOM      3  H2  UNL     1       4.447  -1.090   1.241  1.00  0.00     0.188 HD
HETATM    4  N3  UNL     1       2.363  -0.986   1.108  1.00  0.00    -0.301 N 
ATOM      5  H3  UNL     1       2.084  -1.516   1.934  1.00  0.00     0.186 HD
HETATM    6  C3  UNL     1       1.504  -0.420   0.242  1.00  0.00     0.053 A 
HETATM    7  C4  UNL     1       2.277   0.194  -0.724  1.00  0.00     0.015 A 
HETATM    8  C5  UNL     1       1.588   0.941  -1.842  1.00  0.00     0.064 C 
HETATM    9  C6  UNL     1       0.454   1.658  -1.090  1.00  0.00     0.131 C 
HETATM   10  N4  UNL     1      -0.513   0.667  -0.586  1.00  0.00    -0.342 N 
HETATM   11  C14 UNL     1       0.018  -0.399   0.200  1.00  0.00     0.185 C 
ENDROOT
BRANCH  10  12
HETATM   12  C7  UNL     1      -1.854   0.875  -0.933  1.00  0.00     0.217 C 
BRANCH  12  13
HETATM   13  O2  UNL     1      -2.084   1.911  -1.686  1.00  0.00    -0.332 OA
ATOM     14  H2  UNL     1      -2.994   2.052  -1.921  1.00  0.00     0.220 HD
ENDBRANCH  12  13
BRANCH  12  15
HETATM   15  N5  UNL     1      -3.004   0.152  -0.604  1.00  0.00    -0.342 N 
HETATM   16  C8  UNL     1      -4.321   0.601  -1.136  1.00  0.00     0.127 C 
HETATM   17  C9  UNL     1      -5.125   1.211   0.004  1.00  0.00     0.020 C 
HETATM   18  C10 UNL     1      -4.845   0.487   1.304  1.00  0.00     0.004 C 
HETATM   19  C11 UNL     1      -4.469  -0.952   1.017  1.00  0.00     0.026 C 
HETATM   20  C12 UNL     1      -3.147  -1.018   0.218  1.00  0.00     0.097 C 
BRANCH  20  21
HETATM   21  C13 UNL     1      -3.274  -2.281  -0.655  1.00  0.00     0.111 C 
HETATM   22  S1  UNL     1      -3.453  -3.750   0.369  1.00  0.00    -0.096 SA
ENDBRANCH  20  21
ENDBRANCH  12  15
ENDBRANCH  10  12
BRANCH   1  23
HETATM   23  N1  UNL     1       4.648   0.368  -1.031  1.00  0.00    -0.311 N 
HETATM   24  C1  UNL     1       5.923   0.030  -0.526  1.00  0.00     0.237 C 
HETATM   25  O1  UNL     1       6.627  -0.815  -1.110  1.00  0.00    -0.272 OA
ATOM     26  H1  UNL     1       4.563   0.919  -1.885  1.00  0.00     0.170 HD
BRANCH  24  27
HETATM   27  C15 UNL     1       6.410   0.695   0.705  1.00  0.00     0.149 A 
HETATM   28  C16 UNL     1       7.822   1.309   0.518  1.00  0.00     0.099 A 
HETATM   29  S2  UNL     1       7.613   0.026   1.746  1.00  0.00    -0.152 SA
ENDBRANCH  24  27
ENDBRANCH   1  23
TORSDOF 6
