REMARK  17 active torsions:
REMARK  status: ('A' for Active; 'I' for Inactive)
REMARK    1  A    between atoms: C2_2  and  O1_4 
REMARK    2  A    between atoms: C2_2  and  C4_6 
REMARK    3  A    between atoms: C4_6  and  N1_7 
REMARK       I    between atoms: N1_7  and  C5_9 
REMARK    4  A    between atoms: C5_9  and  C6_11 
REMARK    5  A    between atoms: C6_11  and  O3_12 
REMARK    6  A    between atoms: C6_11  and  N2_14 
REMARK    7  A    between atoms: N2_14  and  O4_15 
REMARK    8  A    between atoms: O4_15  and  C7_16 
REMARK    9  A    between atoms: C7_16  and  C8_18 
REMARK   10  A    between atoms: C8_18  and  C9_19 
REMARK   11  A    between atoms: C8_18  and  N6_36 
REMARK   12  A    between atoms: C9_19  and  C10_20 
REMARK   13  A    between atoms: C9_19  and  C11_23 
REMARK   14  A    between atoms: C13_26  and  N4_27 
REMARK   15  A    between atoms: C16_30  and  O8_31 
REMARK   16  A    between atoms: N7_41  and  O10_42 
REMARK   17  A    between atoms: C23_47  and  O12_48 
ROOT
HETATM    1  C8  UNL     1      -0.982  -1.124   1.723  1.00  0.00     0.138 C 
ENDROOT
BRANCH   1   2
HETATM    2  C7  UNL     1      -0.153  -0.041   1.156  1.00  0.00     0.330 C 
HETATM    3  O5  UNL     1      -0.489   1.143   1.222  1.00  0.00    -0.256 OA
BRANCH   2   4
HETATM    4  O4  UNL     1       1.035  -0.348   0.539  1.00  0.00    -0.199 OA
BRANCH   4   5
HETATM    5  N2  UNL     1       1.866   0.626   0.007  1.00  0.00    -0.049 NA
BRANCH   5   6
HETATM    6  C6  UNL     1       3.215   0.478   0.441  1.00  0.00     0.331 C 
BRANCH   6   7
HETATM    7  C5  UNL     1       4.027   1.636   0.013  1.00  0.00     0.264 C 
HETATM    8  N1  UNL     1       5.334   1.513  -0.528  1.00  0.00    -0.355 N 
ATOM      9  H1  UNL     1       5.748   0.587  -0.636  1.00  0.00     0.162 HD
HETATM   10  O2  UNL     1       3.556   2.794   0.127  1.00  0.00    -0.269 OA
BRANCH   8  11
HETATM   11  C4  UNL     1       6.082   2.673  -0.925  1.00  0.00     0.159 C 
BRANCH  11  12
HETATM   12  C2  UNL     1       7.427   2.280  -1.438  1.00  0.00     0.066 C 
HETATM   13  C1  UNL     1       8.260   3.501  -1.810  1.00  0.00     0.047 C 
HETATM   14  C3  UNL     1       8.160   1.571  -0.307  1.00  0.00     0.047 C 
BRANCH  12  15
HETATM   15  O1  UNL     1       7.409   1.448  -2.533  1.00  0.00    -0.389 OA
ATOM     16  H1  UNL     1       6.890   0.687  -2.301  1.00  0.00     0.210 HD
ENDBRANCH  12  15
ENDBRANCH  11  12
ENDBRANCH   8  11
ENDBRANCH   6   7
BRANCH   6  17
HETATM   17  O3  UNL     1       3.837  -0.705   0.044  1.00  0.00    -0.369 OA
ATOM     18  H3  UNL     1       3.315  -1.449   0.319  1.00  0.00     0.212 HD
ENDBRANCH   6  17
ENDBRANCH   5   6
ENDBRANCH   4   5
ENDBRANCH   2   4
ENDBRANCH   1   2
BRANCH   1  19
HETATM   19  C9  UNL     1      -2.291  -0.795   2.247  1.00  0.00     0.091 C 
BRANCH  19  20
HETATM   20  C10 UNL     1      -2.994  -2.009   2.746  1.00  0.00     0.269 C 
HETATM   21  N3  UNL     1      -2.254  -3.007   3.408  1.00  0.00    -0.057 NA
HETATM   22  O6  UNL     1      -4.225  -2.219   2.622  1.00  0.00    -0.271 OA
ENDBRANCH  19  20
BRANCH  19  23
HETATM   23  C11 UNL     1      -3.226   0.103   1.582  1.00  0.00     0.075 A 
HETATM   24  C12 UNL     1      -4.432   0.444   2.231  1.00  0.00     0.176 A 
HETATM   25  O7  UNL     1      -5.075   1.250   1.453  1.00  0.00    -0.289 OA
HETATM   26  C13 UNL     1      -4.410   1.476   0.348  1.00  0.00     0.226 A 
HETATM   27  N5  UNL     1      -3.279   0.774   0.431  1.00  0.00    -0.319 N 
ATOM     28  H5  UNL     1      -2.555   0.753  -0.287  1.00  0.00     0.169 HD
BRANCH  26  29
HETATM   29  N4  UNL     1      -4.819   2.309  -0.723  1.00  0.00    -0.344 N 
HETATM   30  C14 UNL     1      -5.926   2.125  -1.624  1.00  0.00     0.129 C 
HETATM   31  C15 UNL     1      -6.532   3.538  -1.620  1.00  0.00     0.053 C 
HETATM   32  C16 UNL     1      -5.386   4.464  -1.251  1.00  0.00     0.137 C 
HETATM   33  C17 UNL     1      -4.180   3.537  -1.144  1.00  0.00     0.158 C 
BRANCH  32  34
HETATM   34  O8  UNL     1      -5.566   5.027   0.015  1.00  0.00    -0.394 OA
ATOM     35  H8  UNL     1      -4.849   5.606   0.246  1.00  0.00     0.210 HD
ENDBRANCH  32  34
ENDBRANCH  26  29
ENDBRANCH  19  23
ENDBRANCH   1  19
BRANCH   1  36
HETATM   36  N6  UNL     1      -0.671  -2.445   1.219  1.00  0.00    -0.258 N 
HETATM   37  C18 UNL     1      -1.402  -3.096   0.276  1.00  0.00     0.036 A 
HETATM   38  C19 UNL     1      -1.027  -4.370  -0.115  1.00  0.00     0.038 A 
HETATM   39  C24 UNL     1      -2.581  -2.728  -0.534  1.00  0.00     0.090 C 
HETATM   40  C20 UNL     1       0.074  -4.983   0.432  1.00  0.00     0.284 A 
HETATM   41  C22 UNL     1      -1.980  -4.894  -1.126  1.00  0.00     0.078 C 
HETATM   42  O9  UNL     1       0.451  -6.155   0.098  1.00  0.00    -0.265 OA
HETATM   43  N7  UNL     1       0.804  -4.346   1.364  1.00  0.00    -0.133 N 
HETATM   44  C21 UNL     1       0.415  -3.136   1.712  1.00  0.00     0.361 A 
HETATM   45  O11 UNL     1       1.144  -2.563   2.602  1.00  0.00    -0.243 OA
HETATM   46  C23 UNL     1      -2.380  -3.603  -1.790  1.00  0.00     0.128 C 
BRANCH  43  47
HETATM   47  O10 UNL     1       1.919  -4.935   1.942  1.00  0.00    -0.276 OA
ATOM     48  H10 UNL     1       2.435  -4.485   2.601  1.00  0.00     0.245 HD
ENDBRANCH  43  47
BRANCH  46  49
HETATM   49  O12 UNL     1      -3.626  -3.751  -2.404  1.00  0.00    -0.395 OA
ATOM     50  H12 UNL     1      -3.878  -2.937  -2.823  1.00  0.00     0.210 HD
ENDBRANCH  46  49
ENDBRANCH   1  36
TORSDOF 17
