REMARK  17 active torsions:
REMARK  status: ('A' for Active; 'I' for Inactive)
REMARK    1  A    between atoms: C2_2  and  O1_3 
REMARK    2  A    between atoms: O1_3  and  C3_4 
REMARK    3  A    between atoms: C3_4  and  C4_6 
REMARK    4  A    between atoms: C9_13  and  C10_14 
REMARK    5  A    between atoms: C10_14  and  N2_15 
REMARK    6  A    between atoms: C10_14  and  C19_44 
REMARK    7  A    between atoms: N2_15  and  C11_17 
REMARK    8  A    between atoms: C11_17  and  C12_18 
REMARK    9  A    between atoms: C12_18  and  N3_20 
REMARK   10  A    between atoms: N3_20  and  N4_22 
REMARK       I    between atoms: N4_22  and  C13_24 
REMARK   11  A    between atoms: C13_24  and  C14_26 
REMARK   12  A    between atoms: C17_38  and  C18_39 
REMARK   13  A    between atoms: C18_39  and  N8_40 
REMARK   14  A    between atoms: N8_40  and  N9_41 
REMARK   15  A    between atoms: C19_44  and  O8_46 
REMARK   16  A    between atoms: C21_48  and  O9_49 
REMARK   17  A    between atoms: C21_48  and  O10_51 
ROOT
HETATM    1  C11 UNL     1       1.651  -1.741   0.080  1.00  0.00     0.219 A 
HETATM    2  O6  UNL     1       2.459  -2.944   0.152  1.00  0.00    -0.340 OA
HETATM    3  C17 UNL     1       1.680  -2.740  -0.984  1.00  0.00     0.204 A 
ENDROOT
BRANCH   1   4
HETATM    4  N2  UNL     1       0.823  -1.653   1.219  1.00  0.00    -0.345 N 
ATOM      5  H2  UNL     1       0.990  -2.302   1.988  1.00  0.00     0.163 HD
BRANCH   4   6
HETATM    6  C10 UNL     1      -0.195  -0.741   1.347  1.00  0.00     0.120 C 
BRANCH   6   7
HETATM    7  C9  UNL     1      -1.462  -0.758   0.653  1.00  0.00     0.059 A 
HETATM    8  C7  UNL     1      -2.295  -1.785   0.725  1.00  0.00     0.019 A 
HETATM    9  N1  UNL     1      -3.527  -1.795   0.046  1.00  0.00    -0.365 N 
HETATM   10  C8  UNL     1      -1.941  -2.936   1.594  1.00  0.00     0.069 C 
HETATM   11  C5  UNL     1      -3.951  -0.865  -0.667  1.00  0.00     0.002 A 
ATOM     12  H1  UNL     1      -4.115  -2.622   0.144  1.00  0.00     0.165 HD
HETATM   13  C4  UNL     1      -3.145   0.367  -0.850  1.00  0.00     0.198 A 
HETATM   14  C6  UNL     1      -5.280  -0.968  -1.356  1.00  0.00     0.064 C 
HETATM   15  C21 UNL     1      -1.883   0.451  -0.108  1.00  0.00     0.211 A 
BRANCH  13  16
HETATM   16  C3  UNL     1      -3.978   1.575  -0.688  1.00  0.00     0.274 C 
HETATM   17  O2  UNL     1      -3.820   2.362   0.251  1.00  0.00    -0.264 OA
BRANCH  16  18
HETATM   18  O1  UNL     1      -4.990   1.863  -1.612  1.00  0.00    -0.321 OA
BRANCH  18  19
HETATM   19  C2  UNL     1      -5.776   3.044  -1.416  1.00  0.00     0.174 C 
HETATM   20  C1  UNL     1      -6.798   3.178  -2.504  1.00  0.00     0.034 C 
ENDBRANCH  18  19
ENDBRANCH  16  18
ENDBRANCH  13  16
BRANCH  15  21
HETATM   21  O9  UNL     1      -1.759   1.629   0.634  1.00  0.00    -0.361 OA
ATOM     22  H9  UNL     1      -0.941   1.683   1.115  1.00  0.00     0.213 HD
ENDBRANCH  15  21
BRANCH  15  23
HETATM   23  O10 UNL     1      -0.806   0.600  -1.069  1.00  0.00    -0.361 OA
ATOM     24  H10 UNL     1       0.012   0.654  -0.588  1.00  0.00     0.213 HD
ENDBRANCH  15  23
ENDBRANCH   6   7
BRANCH   6  25
HETATM   25  C19 UNL     1      -0.369  -0.319   2.758  1.00  0.00     0.310 C 
HETATM   26  O7  UNL     1       0.403  -0.742   3.676  1.00  0.00    -0.258 OA
BRANCH  25  27
HETATM   27  O8  UNL     1      -1.373   0.546   3.123  1.00  0.00    -0.321 OA
HETATM   28  C20 UNL     1      -1.551   0.954   4.457  1.00  0.00     0.213 C 
ENDBRANCH  25  27
ENDBRANCH   6  25
ENDBRANCH   4   6
ENDBRANCH   1   4
BRANCH   1  29
HETATM   29  C12 UNL     1       2.521  -0.519  -0.211  1.00  0.00     0.151 C 
HETATM   30  S1  UNL     1       2.664  -0.037  -1.723  1.00  0.00    -0.058 SA
BRANCH  29  31
HETATM   31  N3  UNL     1       3.190   0.117   0.827  1.00  0.00    -0.287 N 
ATOM     32  H3  UNL     1       3.074  -0.264   1.766  1.00  0.00     0.188 HD
BRANCH  31  33
HETATM   33  N4  UNL     1       4.009   1.239   0.683  1.00  0.00    -0.262 N 
HETATM   34  C13 UNL     1       5.394   1.054   0.494  1.00  0.00     0.305 C 
HETATM   35  O3  UNL     1       5.861  -0.107   0.457  1.00  0.00    -0.263 OA
ATOM     36  H4  UNL     1       3.611   2.178   0.714  1.00  0.00     0.190 HD
BRANCH  34  37
HETATM   37  C14 UNL     1       6.325   2.163   0.338  1.00  0.00     0.194 A 
HETATM   38  N5  UNL     1       5.820   3.415   0.380  1.00  0.00    -0.299 N 
HETATM   39  C15 UNL     1       6.619   4.475   0.244  1.00  0.00     0.316 A 
ATOM     40  H5  UNL     1       4.818   3.551   0.517  1.00  0.00     0.171 HD
HETATM   41  O4  UNL     1       6.147   5.659   0.283  1.00  0.00    -0.262 OA
HETATM   42  C16 UNL     1       7.978   4.288   0.058  1.00  0.00     0.328 A 
HETATM   43  O5  UNL     1       8.730   5.287  -0.069  1.00  0.00    -0.261 OA
HETATM   44  N6  UNL     1       8.434   3.025   0.023  1.00  0.00    -0.260 N 
HETATM   45  N7  UNL     1       7.634   1.994   0.158  1.00  0.00    -0.278 N 
ATOM     46  H6  UNL     1       9.432   2.863  -0.113  1.00  0.00     0.190 HD
ATOM     47  H7  UNL     1       8.020   1.050   0.125  1.00  0.00     0.189 HD
ENDBRANCH  34  37
ENDBRANCH  31  33
ENDBRANCH  29  31
ENDBRANCH   1  29
BRANCH   3  48
HETATM   48  C18 UNL     1       0.653  -3.737  -1.358  1.00  0.00     0.171 C 
BRANCH  48  49
HETATM   49  N8  UNL     1       1.208  -5.057  -1.628  1.00  0.00    -0.146 NA
BRANCH  49  50
HETATM   50  N9  UNL     1       0.144  -5.898  -1.966  1.00  0.00    -0.348 N 
ATOM     51  H92 UNL     1      -0.837  -5.623  -2.011  1.00  0.00     0.172 HD
ATOM     52  H91 UNL     1       0.532  -6.822  -2.155  1.00  0.00     0.172 HD
ENDBRANCH  49  50
ENDBRANCH  48  49
ENDBRANCH   3  48
TORSDOF 17
