REMARK  15 active torsions:
REMARK  status: ('A' for Active; 'I' for Inactive)
REMARK    1  A    between atoms: N1_1  and  N2_4 
REMARK    2  A    between atoms: N2_4  and  N3_5 
REMARK    3  A    between atoms: N3_5  and  C1_7 
REMARK    4  A    between atoms: C3_9  and  N4_10 
REMARK    5  A    between atoms: C5_15  and  N7_16 
REMARK    6  A    between atoms: C6_21  and  N9_22 
REMARK    7  A    between atoms: C8_29  and  C9_30 
REMARK       I    between atoms: C9_30  and  N11_32 
REMARK    8  A    between atoms: N11_32  and  C10_34 
REMARK    9  A    between atoms: C10_34  and  C11_35 
REMARK       I    between atoms: C11_35  and  N12_37 
REMARK   10  A    between atoms: N12_37  and  C12_39 
REMARK   11  A    between atoms: C12_39  and  C13_40 
REMARK   12  A    between atoms: C12_39  and  C17_51 
REMARK       I    between atoms: C13_40  and  N13_42 
REMARK   13  A    between atoms: N13_42  and  C14_44 
REMARK   14  A    between atoms: C14_44  and  C15_45 
REMARK   15  A    between atoms: C14_44  and  C16_48 
ROOT
HETATM    1  C9  UNL     1       1.877  -0.287   0.019  1.00  0.00     0.249 C 
HETATM    2  O2  UNL     1       1.365  -1.421  -0.095  1.00  0.00    -0.271 OA
HETATM    3  N11 UNL     1       1.276   0.667   0.857  1.00  0.00    -0.350 N 
ATOM      4  H11 UNL     1       1.705   1.588   0.949  1.00  0.00     0.163 HD
ENDROOT
BRANCH   1   5
HETATM    5  C8  UNL     1       3.108   0.050  -0.723  1.00  0.00     0.241 C 
HETATM    6  C1  UNL     1       3.028  -0.170  -2.194  1.00  0.00     0.157 C 
HETATM    7  C2  UNL     1       3.244   1.229  -2.731  1.00  0.00     0.085 C 
HETATM    8  C3  UNL     1       4.076   1.843  -1.631  1.00  0.00     0.250 C 
HETATM    9  O1  UNL     1       3.475   1.362  -0.487  1.00  0.00    -0.349 OA
BRANCH   6  10
HETATM   10  N3  UNL     1       4.004  -1.111  -2.695  1.00  0.00    -0.245 N 
ATOM     11  H3  UNL     1       4.332  -0.989  -3.653  1.00  0.00     0.197 HD
BRANCH  10  12
HETATM   12  N2  UNL     1       4.461  -2.036  -2.057  1.00  0.00    -0.248 NA
BRANCH  12  13
HETATM   13  N1  UNL     1       4.605  -3.070  -1.381  1.00  0.00    -0.261 N 
ATOM     14  H12 UNL     1       3.605  -3.270  -1.355  1.00  0.00     0.193 HD
ATOM     15  H11 UNL     1       4.989  -3.848  -0.845  1.00  0.00     0.193 HD
ENDBRANCH  12  13
ENDBRANCH  10  12
ENDBRANCH   6  10
BRANCH   8  16
HETATM   16  N4  UNL     1       5.472   1.478  -1.701  1.00  0.00    -0.148 N 
HETATM   17  C4  UNL     1       6.183   1.265  -2.822  1.00  0.00     0.222 A 
HETATM   18  N5  UNL     1       7.446   0.944  -2.479  1.00  0.00    -0.259 N 
HETATM   19  N6  UNL     1       7.541   0.951  -1.170  1.00  0.00     0.092 N 
ATOM     20  H5  UNL     1       8.203   0.731  -3.129  1.00  0.00     0.189 HD
HETATM   21  C5  UNL     1       8.591   0.697  -0.361  1.00  0.00     0.727 A 
HETATM   22  C7  UNL     1       6.334   1.278  -0.684  1.00  0.00     0.738 A 
HETATM   23  N8  UNL     1       8.390   0.781   0.963  1.00  0.00    -0.020 N 
HETATM   24  C6  UNL     1       7.172   1.110   1.462  1.00  0.00     0.705 A 
ATOM     25  H8  UNL     1       9.163   0.595   1.602  1.00  0.00     0.203 HD
HETATM   26  N10 UNL     1       6.145   1.358   0.637  1.00  0.00    -0.019 N 
ATOM     27  H10 UNL     1       5.230   1.605   1.013  1.00  0.00     0.203 HD
BRANCH  21  28
HETATM   28  N7  UNL     1       9.746   0.384  -0.837  1.00  0.00    -0.232 N 
ATOM     29  H72 UNL     1       9.899   0.320  -1.843  1.00  0.00     0.174 HD
ATOM     30  H71 UNL     1      10.540   0.192  -0.226  1.00  0.00     0.174 HD
ENDBRANCH  21  28
BRANCH  24  31
HETATM   31  N9  UNL     1       7.016   1.183   2.762  1.00  0.00    -0.234 N 
ATOM     32  H92 UNL     1       7.797   0.994   3.390  1.00  0.00     0.174 HD
ATOM     33  H91 UNL     1       6.100   1.430   3.137  1.00  0.00     0.174 HD
ENDBRANCH  24  31
ENDBRANCH   8  16
ENDBRANCH   1   5
BRANCH   3  34
HETATM   34  C10 UNL     1       0.075   0.380   1.587  1.00  0.00     0.225 C 
BRANCH  34  35
HETATM   35  C11 UNL     1      -1.102   0.068   0.772  1.00  0.00     0.236 C 
HETATM   36  O3  UNL     1      -1.007   0.084  -0.491  1.00  0.00    -0.272 OA
HETATM   37  N12 UNL     1      -2.346  -0.253   1.371  1.00  0.00    -0.341 N 
ATOM     38  H12 UNL     1      -2.440  -0.274   2.386  1.00  0.00     0.163 HD
BRANCH  37  39
HETATM   39  C12 UNL     1      -3.478  -0.550   0.525  1.00  0.00     0.227 C 
BRANCH  39  40
HETATM   40  C13 UNL     1      -4.616   0.309   0.887  1.00  0.00     0.247 C 
HETATM   41  O4  UNL     1      -4.490   1.132   1.827  1.00  0.00    -0.271 OA
HETATM   42  N13 UNL     1      -5.838   0.200   0.174  1.00  0.00    -0.337 N 
ATOM     43  H13 UNL     1      -5.914  -0.475  -0.587  1.00  0.00     0.163 HD
BRANCH  42  44
HETATM   44  C14 UNL     1      -6.992   1.037   0.509  1.00  0.00     0.275 C 
BRANCH  44  45
HETATM   45  C15 UNL     1      -8.104   0.157   0.868  1.00  0.00     0.264 C 
HETATM   46  N14 UNL     1      -9.345   0.696   1.232  1.00  0.00    -0.060 NA
HETATM   47  O5  UNL     1      -7.967  -1.088   0.858  1.00  0.00    -0.274 OA
ENDBRANCH  44  45
BRANCH  44  48
HETATM   48  C16 UNL     1      -7.334   1.943  -0.614  1.00  0.00     0.205 C 
HETATM   49  O6  UNL     1      -6.667   1.924  -1.676  1.00  0.00    -0.646 OA
HETATM   50  O7  UNL     1      -8.391   2.827  -0.519  1.00  0.00    -0.646 OA
ENDBRANCH  44  48
ENDBRANCH  42  44
ENDBRANCH  39  40
BRANCH  39  51
HETATM   51  C17 UNL     1      -3.806  -2.002   0.785  1.00  0.00     0.047 A 
HETATM   52  C18 UNL     1      -3.861  -2.434   2.068  1.00  0.00     0.045 A 
HETATM   53  C19 UNL     1      -4.162  -3.772   2.312  1.00  0.00     0.095 A 
HETATM   54  N15 UNL     1      -4.387  -4.584   1.272  1.00  0.00    -0.319 N 
HETATM   55  C20 UNL     1      -4.332  -4.156  -0.008  1.00  0.00     0.324 A 
ATOM     56  H15 UNL     1      -4.608  -5.563   1.453  1.00  0.00     0.170 HD
HETATM   57  O8  UNL     1      -4.548  -4.941  -0.981  1.00  0.00    -0.247 OA
HETATM   58  N16 UNL     1      -4.040  -2.860  -0.227  1.00  0.00    -0.310 N 
ATOM     59  H16 UNL     1      -3.995  -2.518  -1.187  1.00  0.00     0.170 HD
ENDBRANCH  39  51
ENDBRANCH  37  39
ENDBRANCH  34  35
ENDBRANCH   3  34
TORSDOF 15
