REMARK  6 active torsions:
REMARK  status: ('A' for Active; 'I' for Inactive)
REMARK    1  A    between atoms: S1_2  and  C1_4 
REMARK    2  A    between atoms: S1_2  and  C12_22 
REMARK    3  A    between atoms: C1_4  and  C2_5 
REMARK    4  A    between atoms: C2_5  and  C3_6 
REMARK    5  A    between atoms: C3_6  and  O3_7 
REMARK    6  A    between atoms: N1_9  and  O4_11 
ROOT
HETATM    1  C2  UNL     1      -0.119   0.060   0.234  1.00  0.00     0.043 C 
HETATM    2  C4  UNL     1      -0.593   1.457   0.394  1.00  0.00     0.049 C 
HETATM    3  C5  UNL     1      -1.685   1.909  -0.509  1.00  0.00     0.274 C 
HETATM    4  N2  UNL     1      -2.754   1.008  -0.747  1.00  0.00     0.093 N 
HETATM    5  C6  UNL     1      -4.057   1.512  -0.395  1.00  0.00     0.273 C 
HETATM    6  C7  UNL     1      -5.061   0.402  -0.185  1.00  0.00     0.030 C 
HETATM    7  C8  UNL     1      -4.772  -0.727  -1.133  1.00  0.00     0.004 C 
HETATM    8  C9  UNL     1      -3.444  -1.346  -0.716  1.00  0.00     0.036 C 
HETATM    9  C10 UNL     1      -2.476  -0.289  -0.237  1.00  0.00     0.224 C 
HETATM   10  C11 UNL     1      -1.096  -0.667  -0.733  1.00  0.00     0.055 C 
ENDROOT
BRANCH   1  11
HETATM   11  C1  UNL     1       1.258  -0.127  -0.292  1.00  0.00     0.163 C 
BRANCH  11  12
HETATM   12  S1  UNL     1       2.526   0.426   0.770  1.00  0.00     0.176 S 
HETATM   13  O1  UNL     1       2.526  -0.338   2.058  1.00  0.00    -0.223 OA
HETATM   14  O2  UNL     1       2.485   1.908   1.053  1.00  0.00    -0.223 OA
BRANCH  12  15
HETATM   15  C12 UNL     1       4.127   0.156   0.057  1.00  0.00     0.059 A 
HETATM   16  C13 UNL     1       4.822  -1.010   0.265  1.00  0.00     0.023 A 
HETATM   17  C14 UNL     1       6.060  -1.215  -0.290  1.00  0.00     0.002 A 
HETATM   18  C15 UNL     1       6.640  -0.233  -1.082  1.00  0.00     0.000 A 
HETATM   19  C16 UNL     1       5.956   0.933  -1.296  1.00  0.00     0.002 A 
HETATM   20  C17 UNL     1       4.708   1.124  -0.729  1.00  0.00     0.023 A 
ENDBRANCH  12  15
ENDBRANCH  11  12
ENDBRANCH   1  11
BRANCH   1  21
HETATM   21  C3  UNL     1      -0.293  -0.700   1.513  1.00  0.00     0.145 C 
HETATM   22  N1  UNL     1       0.114  -1.929   1.574  1.00  0.00    -0.250 N 
ATOM     23  H1  UNL     1       0.541  -2.335   0.741  1.00  0.00     0.196 HD
BRANCH  21  24
HETATM   24  O3  UNL     1      -0.880  -0.141   2.643  1.00  0.00    -0.347 OA
ATOM     25  H3  UNL     1      -0.990  -0.623   3.454  1.00  0.00     0.219 HD
ENDBRANCH  21  24
BRANCH  22  26
HETATM   26  O4  UNL     1       0.006  -2.706   2.678  1.00  0.00    -0.288 OA
ATOM     27  H4  UNL     1       0.304  -3.607   2.723  1.00  0.00     0.244 HD
ENDBRANCH  22  26
ENDBRANCH   1  21
TORSDOF 6
