REMARK  5 active torsions:
REMARK  status: ('A' for Active; 'I' for Inactive)
REMARK    1  A    between atoms: S1_2  and  C1_4 
REMARK    2  A    between atoms: S1_2  and  N1_10 
REMARK    3  A    between atoms: N2_15  and  C11_16 
REMARK    4  A    between atoms: C11_16  and  C12_17 
REMARK    5  A    between atoms: C16_21  and  O3_22 
ROOT
HETATM    1  N1  UNL     1       1.231   0.134  -0.161  1.00  0.00    -0.183 NA
HETATM    2  C7  UNL     1       1.607  -1.222   0.339  1.00  0.00     0.188 C 
HETATM    3  C8  UNL     1       0.495  -2.072   0.199  1.00  0.00    -0.167 C 
HETATM    4  C9  UNL     1      -0.704  -2.759  -0.070  1.00  0.00     0.096 C 
HETATM    5  C10 UNL     1      -1.650  -1.729  -0.791  1.00  0.00     0.107 C 
HETATM    6  N2  UNL     1      -1.174  -0.372  -0.571  1.00  0.00    -0.278 NA
HETATM    7  C18 UNL     1       0.040   0.090  -1.031  1.00  0.00     0.203 C 
ENDROOT
BRANCH   1   8
HETATM    8  S1  UNL     1       2.483   0.834  -1.075  1.00  0.00     0.245 S 
HETATM    9  O1  UNL     1       2.742  -0.013  -2.304  1.00  0.00    -0.206 OA
HETATM   10  O2  UNL     1       1.995   2.162  -1.580  1.00  0.00    -0.206 OA
BRANCH   8  11
HETATM   11  C1  UNL     1       3.942   1.086  -0.203  1.00  0.00     0.074 A 
HETATM   12  C2  UNL     1       4.177   2.249   0.488  1.00  0.00     0.025 A 
HETATM   13  C3  UNL     1       5.360   2.443   1.189  1.00  0.00     0.002 A 
HETATM   14  C4  UNL     1       6.319   1.451   1.192  1.00  0.00     0.000 A 
HETATM   15  C5  UNL     1       6.106   0.274   0.506  1.00  0.00     0.002 A 
HETATM   16  C6  UNL     1       4.907   0.107  -0.190  1.00  0.00     0.025 A 
ENDBRANCH   8  11
ENDBRANCH   1   8
BRANCH   6  17
HETATM   17  C11 UNL     1      -2.240   0.523  -0.954  1.00  0.00     0.072 C 
BRANCH  17  18
HETATM   18  C12 UNL     1      -3.496   0.401  -0.240  1.00  0.00    -0.023 A 
HETATM   19  C13 UNL     1      -4.585  -0.175  -0.832  1.00  0.00     0.012 A 
HETATM   20  C14 UNL     1      -5.765  -0.280  -0.138  1.00  0.00     0.004 A 
HETATM   21  C15 UNL     1      -5.895   0.182   1.154  1.00  0.00     0.036 A 
HETATM   22  C16 UNL     1      -4.791   0.761   1.739  1.00  0.00     0.066 A 
HETATM   23  C17 UNL     1      -3.604   0.869   1.047  1.00  0.00     0.048 A 
BRANCH  22  24
HETATM   24  O3  UNL     1      -4.914   1.235   3.057  1.00  0.00    -0.361 OA
ATOM     25  H3  UNL     1      -4.152   1.634   3.461  1.00  0.00     0.217 HD
ENDBRANCH  22  24
ENDBRANCH  17  18
ENDBRANCH   6  17
TORSDOF 5
