REMARK  9 active torsions:
REMARK  status: ('A' for Active; 'I' for Inactive)
REMARK    1  A    between atoms: C4_5  and  C5_6 
REMARK    2  A    between atoms: C5_6  and  O1_7 
REMARK    3  A    between atoms: C5_6  and  C6_9 
REMARK    4  A    between atoms: C6_9  and  C7_10 
REMARK    5  A    between atoms: C6_9  and  N4_22 
REMARK       I    between atoms: C7_10  and  N2_12 
REMARK    6  A    between atoms: N2_12  and  C8_14 
REMARK    7  A    between atoms: C11_18  and  N3_19 
REMARK    8  A    between atoms: C14_27  and  O7_28 
REMARK    9  A    between atoms: O7_28  and  C15_29 
ROOT
HETATM    1  N1  UNL     1      -5.073  -3.004   1.463  1.00  0.00    -0.191 NA
HETATM    2  C1  UNL     1      -4.409  -2.174   1.003  1.00  0.00     0.102 C 
HETATM    3  C2  UNL     1      -3.588  -1.124   0.434  1.00  0.00     0.079 A 
HETATM    4  C3  UNL     1      -2.217  -1.128   0.623  1.00  0.00     0.039 A 
HETATM    5  C4  UNL     1      -1.432  -0.148   0.093  1.00  0.00    -0.003 A 
HETATM    6  C12 UNL     1      -2.086   0.838  -0.634  1.00  0.00     0.017 A 
HETATM    7  C13 UNL     1      -3.439   0.834  -0.815  1.00  0.00     0.039 A 
HETATM    8  C14 UNL     1      -4.254  -0.137  -0.296  1.00  0.00     0.095 A 
ENDROOT
BRANCH   8   9
HETATM    9  O7  UNL     1      -5.625  -0.189  -0.449  1.00  0.00    -0.289 OA
BRANCH   9  10
HETATM   10  C15 UNL     1      -6.382   0.729  -1.147  1.00  0.00     0.505 C 
HETATM   11  F1  UNL     1      -7.322   1.321  -0.289  1.00  0.00    -0.184 F 
HETATM   12  F2  UNL     1      -7.081   0.109  -2.181  1.00  0.00    -0.184 F 
ENDBRANCH   9  10
ENDBRANCH   8   9
BRANCH   5  13
HETATM   13  C5  UNL     1      -0.016  -0.102   0.208  1.00  0.00     0.091 C 
BRANCH  13  14
HETATM   14  O1  UNL     1       0.545   1.001  -0.216  1.00  0.00    -0.361 OA
ATOM     15  H1  UNL     1       1.491   1.032  -0.139  1.00  0.00     0.217 HD
ENDBRANCH  13  14
BRANCH  13  16
HETATM   16  C6  UNL     1       0.896  -1.088   0.719  1.00  0.00     0.304 C 
BRANCH  16  17
HETATM   17  C7  UNL     1       2.294  -0.924   0.172  1.00  0.00     0.258 C 
HETATM   18  O2  UNL     1       2.726  -1.823  -0.543  1.00  0.00    -0.270 OA
HETATM   19  N2  UNL     1       2.983   0.241   0.526  1.00  0.00    -0.322 N 
ATOM     20  H2  UNL     1       2.491   0.897   1.133  1.00  0.00     0.169 HD
BRANCH  19  21
HETATM   21  C8  UNL     1       4.329   0.613   0.118  1.00  0.00     0.075 A 
HETATM   22  C9  UNL     1       5.084  -0.173  -0.670  1.00  0.00     0.040 A 
HETATM   23  C10 UNL     1       6.344   0.256  -1.003  1.00  0.00     0.054 A 
HETATM   24  S1  UNL     1       6.459   1.746  -0.217  1.00  0.00    -0.076 SA
HETATM   25  C11 UNL     1       4.896   1.799   0.527  1.00  0.00     0.170 A 
BRANCH  25  26
HETATM   26  N3  UNL     1       4.397   2.861   1.351  1.00  0.00    -0.106 N 
HETATM   27  O3  UNL     1       3.304   2.922   1.881  1.00  0.00    -0.531 OA
HETATM   28  O4  UNL     1       5.288   3.931   1.549  1.00  0.00    -0.531 OA
ENDBRANCH  25  26
ENDBRANCH  19  21
ENDBRANCH  16  17
BRANCH  16  29
HETATM   29  N4  UNL     1       0.491  -2.437   0.482  1.00  0.00    -0.134 N 
HETATM   30  O5  UNL     1       0.521  -3.343   1.354  1.00  0.00    -0.535 OA
HETATM   31  O6  UNL     1       0.072  -2.859  -0.774  1.00  0.00    -0.535 OA
ENDBRANCH  16  29
ENDBRANCH  13  16
ENDBRANCH   5  13
TORSDOF 9
