REMARK  9 active torsions:
REMARK  status: ('A' for Active; 'I' for Inactive)
REMARK    1  A    between atoms: C1_2  and  C2_3 
REMARK       I    between atoms: C1_2  and  N3_21 
REMARK    2  A    between atoms: C2_3  and  S1_4 
REMARK    3  A    between atoms: S1_4  and  C3_5 
REMARK    4  A    between atoms: N2_10  and  C6_11 
REMARK    5  A    between atoms: C6_11  and  C7_12 
REMARK    6  A    between atoms: C10_15  and  C11_16 
REMARK    7  A    between atoms: N3_21  and  N4_23 
REMARK    8  A    between atoms: C14_25  and  C15_26 
REMARK    9  A    between atoms: C18_29  and  N5_30 
ROOT
HETATM    1  S1  UNL     1       0.408   0.245   0.763  1.00  0.00    -0.084 SA
ENDROOT
BRANCH   1   2
HETATM    2  C2  UNL     1       1.523   0.106   2.155  1.00  0.00     0.186 C 
BRANCH   2   3
HETATM    3  C1  UNL     1       2.517  -0.942   1.892  1.00  0.00     0.245 C 
HETATM    4  O1  UNL     1       3.333  -1.245   2.797  1.00  0.00    -0.271 OA
HETATM    5  N3  UNL     1       2.574  -1.607   0.662  1.00  0.00    -0.270 N 
ATOM      6  H3  UNL     1       1.914  -1.358  -0.075  1.00  0.00     0.190 HD
BRANCH   5   7
HETATM    7  N4  UNL     1       3.514  -2.600   0.430  1.00  0.00    -0.307 N 
HETATM    8  C14 UNL     1       4.682  -2.376  -0.047  1.00  0.00     0.144 C 
ATOM      9  H4  UNL     1       3.261  -3.563   0.652  1.00  0.00     0.186 HD
BRANCH   8  10
HETATM   10  C15 UNL     1       5.175  -1.060  -0.406  1.00  0.00     0.095 A 
HETATM   11  C16 UNL     1       6.435  -0.774  -0.916  1.00  0.00     0.043 A 
HETATM   12  C17 UNL     1       6.455   0.592  -1.104  1.00  0.00     0.065 A 
HETATM   13  C18 UNL     1       5.217   1.042  -0.699  1.00  0.00     0.215 A 
HETATM   14  O4  UNL     1       4.480   0.041  -0.290  1.00  0.00    -0.287 OA
BRANCH  13  15
HETATM   15  N5  UNL     1       4.834   2.434  -0.738  1.00  0.00    -0.090 N 
HETATM   16  O2  UNL     1       3.703   2.801  -0.363  1.00  0.00    -0.530 OA
HETATM   17  O3  UNL     1       5.699   3.398  -1.187  1.00  0.00    -0.530 OA
ENDBRANCH  13  15
ENDBRANCH   8  10
ENDBRANCH   5   7
ENDBRANCH   2   3
ENDBRANCH   1   2
BRANCH   1  18
HETATM   18  C3  UNL     1      -0.618  -1.196   0.577  1.00  0.00     0.146 A 
HETATM   19  N1  UNL     1      -0.647  -2.318   1.315  1.00  0.00    -0.345 N 
HETATM   20  C4  UNL     1      -1.557  -3.186   0.855  1.00  0.00     0.107 A 
ATOM     21  H1  UNL     1      -0.050  -2.488   2.125  1.00  0.00     0.167 HD
HETATM   22  C5  UNL     1      -2.123  -2.558  -0.233  1.00  0.00     0.110 A 
HETATM   23  N2  UNL     1      -1.536  -1.353  -0.381  1.00  0.00    -0.332 N 
BRANCH  23  24
HETATM   24  C6  UNL     1      -1.936  -0.437  -1.451  1.00  0.00     0.169 C 
BRANCH  24  25
HETATM   25  C7  UNL     1      -3.050   0.410  -1.030  1.00  0.00    -0.040 A 
HETATM   26  C8  UNL     1      -4.332  -0.080  -1.183  1.00  0.00     0.009 A 
HETATM   27  C9  UNL     1      -5.445   0.625  -0.826  1.00  0.00     0.013 A 
HETATM   28  C10 UNL     1      -5.308   1.890  -0.283  1.00  0.00     0.006 A 
HETATM   29  C12 UNL     1      -4.036   2.392  -0.125  1.00  0.00     0.013 A 
HETATM   30  C13 UNL     1      -2.901   1.662  -0.494  1.00  0.00     0.009 A 
BRANCH  28  31
HETATM   31  C11 UNL     1      -6.486   2.699   0.125  1.00  0.00     0.386 C 
HETATM   32  F1  UNL     1      -7.182   2.032   1.132  1.00  0.00    -0.209 F 
HETATM   33  F2  UNL     1      -7.379   2.917  -0.896  1.00  0.00    -0.209 F 
ENDBRANCH  28  31
ENDBRANCH  24  25
ENDBRANCH  23  24
ENDBRANCH   1  18
TORSDOF 9
