REMARK  9 active torsions:
REMARK  status: ('A' for Active; 'I' for Inactive)
REMARK    1  A    between atoms: C1_2  and  C2_3 
REMARK    2  A    between atoms: C1_2  and  S1_5 
REMARK    3  A    between atoms: S1_5  and  C3_6 
REMARK    4  A    between atoms: C3_6  and  C4_7 
REMARK    5  A    between atoms: C4_7  and  S2_8 
REMARK    6  A    between atoms: S2_8  and  C5_9 
REMARK    7  A    between atoms: C6_14  and  C7_15 
REMARK    8  A    between atoms: C7_15  and  N3_16 
REMARK       I    between atoms: N3_16  and  C8_18 
REMARK    9  A    between atoms: C8_18  and  C9_20 
ROOT
HETATM    1  C5  UNL     1       0.581   1.029  -1.685  1.00  0.00     0.203 A 
HETATM    2  N1  UNL     1      -0.282   1.816  -1.000  1.00  0.00    -0.272 N 
ATOM      3  H1  UNL     1      -0.200   2.820  -0.838  1.00  0.00     0.189 HD
HETATM    4  N2  UNL     1      -1.241   1.029  -0.589  1.00  0.00    -0.279 N 
ATOM      5  H2  UNL     1      -2.047   1.331  -0.041  1.00  0.00     0.189 HD
HETATM    6  C6  UNL     1      -1.013  -0.253  -0.995  1.00  0.00     0.159 A 
HETATM    7  O3  UNL     1       0.111  -0.187  -1.658  1.00  0.00    -0.270 OA
ENDROOT
BRANCH   6   8
HETATM    8  C7  UNL     1      -1.878  -1.425  -0.720  1.00  0.00     0.209 C 
BRANCH   8   9
HETATM    9  N3  UNL     1      -3.061  -0.985  -0.018  1.00  0.00    -0.349 N 
HETATM   10  C8  UNL     1      -4.069  -1.895   0.392  1.00  0.00     0.258 C 
HETATM   11  O2  UNL     1      -3.991  -3.119   0.173  1.00  0.00    -0.267 OA
ATOM     12  H3  UNL     1      -3.175   0.007   0.189  1.00  0.00     0.163 HD
BRANCH  10  13
HETATM   13  C9  UNL     1      -5.250  -1.384   1.102  1.00  0.00     0.072 A 
HETATM   14  C10 UNL     1      -5.530  -0.086   1.431  1.00  0.00     0.025 A 
HETATM   15  C11 UNL     1      -6.674   0.152   2.081  1.00  0.00     0.009 A 
HETATM   16  C12 UNL     1      -7.475  -0.925   2.364  1.00  0.00     0.050 A 
HETATM   17  S3  UNL     1      -6.595  -2.230   1.710  1.00  0.00    -0.097 SA
ENDBRANCH  10  13
ENDBRANCH   8   9
ENDBRANCH   6   8
BRANCH   1  18
HETATM   18  S2  UNL     1       2.054   1.688  -2.432  1.00  0.00    -0.084 SA
BRANCH  18  19
HETATM   19  C4  UNL     1       3.388   1.601  -1.223  1.00  0.00     0.093 C 
BRANCH  19  20
HETATM   20  C3  UNL     1       3.700   0.123  -0.965  1.00  0.00     0.093 C 
BRANCH  20  21
HETATM   21  S1  UNL     1       5.034   0.001   0.249  1.00  0.00    -0.091 SA
BRANCH  21  22
HETATM   22  C1  UNL     1       6.557   0.647  -0.416  1.00  0.00     0.195 C 
HETATM   23  O1  UNL     1       6.561   1.068  -1.555  1.00  0.00    -0.285 OA
BRANCH  22  24
HETATM   24  C2  UNL     1       7.780   0.662   0.417  1.00  0.00     0.175 C 
HETATM   25 BR1  UNL     1       7.388  -0.083   2.137  1.00  0.00    -0.088 Br
ENDBRANCH  22  24
ENDBRANCH  21  22
ENDBRANCH  20  21
ENDBRANCH  19  20
ENDBRANCH  18  19
ENDBRANCH   1  18
TORSDOF 9
