REMARK  9 active torsions:
REMARK  status: ('A' for Active; 'I' for Inactive)
REMARK    1  A    between atoms: C1_2  and  C2_3 
REMARK       I    between atoms: C1_2  and  N4_22 
REMARK    2  A    between atoms: C2_3  and  O2_4 
REMARK    3  A    between atoms: O2_4  and  C3_5 
REMARK    4  A    between atoms: C3_5  and  C4_7 
REMARK    5  A    between atoms: C7_10  and  N1_11 
REMARK    6  A    between atoms: C11_17  and  N3_18 
REMARK    7  A    between atoms: N4_22  and  C13_24 
REMARK    8  A    between atoms: C16_27  and  O6_28 
REMARK    9  A    between atoms: O6_28  and  C17_29 
ROOT
HETATM    1  C3  UNL     1      -0.814   2.111  -0.102  1.00  0.00     0.293 C 
HETATM    2  O3  UNL     1      -0.269   2.439   0.982  1.00  0.00    -0.259 OA
ENDROOT
BRANCH   1   3
HETATM    3  O2  UNL     1      -0.308   2.600  -1.291  1.00  0.00    -0.308 OA
BRANCH   3   4
HETATM    4  C2  UNL     1       0.795   3.454  -1.401  1.00  0.00     0.282 C 
BRANCH   4   5
HETATM    5  C1  UNL     1       2.031   2.792  -0.959  1.00  0.00     0.246 C 
HETATM    6  O1  UNL     1       3.027   3.559  -0.815  1.00  0.00    -0.271 OA
HETATM    7  N4  UNL     1       2.102   1.425  -0.721  1.00  0.00    -0.325 N 
ATOM      8  H4  UNL     1       1.242   0.900  -0.881  1.00  0.00     0.169 HD
BRANCH   7   9
HETATM    9  C13 UNL     1       3.216   0.669  -0.285  1.00  0.00     0.035 A 
HETATM   10  C14 UNL     1       4.394   1.188   0.188  1.00  0.00     0.032 A 
HETATM   11  C15 UNL     1       5.466   0.380   0.589  1.00  0.00     0.039 A 
HETATM   12  C16 UNL     1       5.411  -0.987   0.537  1.00  0.00     0.075 A 
HETATM   13  C18 UNL     1       4.206  -1.520   0.054  1.00  0.00     0.039 A 
HETATM   14  C19 UNL     1       3.157  -0.729  -0.339  1.00  0.00     0.032 A 
BRANCH  12  15
HETATM   15  O6  UNL     1       6.431  -1.835   0.917  1.00  0.00    -0.290 OA
BRANCH  15  16
HETATM   16  C17 UNL     1       7.665  -1.412   1.410  1.00  0.00     0.505 C 
HETATM   17  F1  UNL     1       8.638  -2.057   0.660  1.00  0.00    -0.184 F 
HETATM   18  F2  UNL     1       7.821  -1.941   2.706  1.00  0.00    -0.184 F 
ENDBRANCH  15  16
ENDBRANCH  12  15
ENDBRANCH   7   9
ENDBRANCH   4   5
ENDBRANCH   3   4
ENDBRANCH   1   3
BRANCH   1  19
HETATM   19  C4  UNL     1      -1.973   1.224  -0.142  1.00  0.00     0.042 A 
HETATM   20  C5  UNL     1      -2.569   0.864  -1.332  1.00  0.00     0.020 A 
HETATM   21  C6  UNL     1      -3.663   0.024  -1.359  1.00  0.00     0.035 A 
HETATM   22  C7  UNL     1      -4.211  -0.494  -0.193  1.00  0.00     0.088 A 
HETATM   23  C11 UNL     1      -3.617  -0.137   0.996  1.00  0.00     0.132 A 
HETATM   24  C12 UNL     1      -2.508   0.716   1.019  1.00  0.00     0.056 A 
BRANCH  22  25
HETATM   25  N1  UNL     1      -5.338  -1.351  -0.305  1.00  0.00    -0.266 N 
HETATM   26  C8  UNL     1      -5.298  -2.647  -0.689  1.00  0.00     0.118 A 
HETATM   27  C9  UNL     1      -6.572  -3.141  -0.683  1.00  0.00     0.038 A 
HETATM   28  C10 UNL     1      -7.404  -2.116  -0.283  1.00  0.00     0.109 A 
HETATM   29  N2  UNL     1      -6.605  -1.059  -0.069  1.00  0.00    -0.305 N 
ATOM     30  H2  UNL     1      -6.935  -0.144   0.238  1.00  0.00     0.186 HD
ENDBRANCH  22  25
BRANCH  23  31
HETATM   31  N3  UNL     1      -4.152  -0.648   2.208  1.00  0.00    -0.113 N 
HETATM   32  O4  UNL     1      -4.020  -0.003   3.265  1.00  0.00    -0.532 OA
HETATM   33  O5  UNL     1      -4.819  -1.844   2.262  1.00  0.00    -0.532 OA
ENDBRANCH  23  31
ENDBRANCH   1  19
TORSDOF 9
