REMARK  5 active torsions:
REMARK  status: ('A' for Active; 'I' for Inactive)
REMARK    1  A    between atoms: C2_2  and  C3_3 
REMARK    2  A    between atoms: C2_2  and  C4_6 
REMARK    3  A    between atoms: C5_8  and  O4_9 
REMARK    4  A    between atoms: C13_18  and  C14_19 
REMARK    5  A    between atoms: C14_19  and  O5_20 
ROOT
HETATM    1  C4  UNL     1       1.652   0.756   0.317  1.00  0.00     0.102 A 
HETATM    2  O3  UNL     1       1.340   1.872   0.989  1.00  0.00    -0.286 OA
HETATM    3  C5  UNL     1       0.076   2.128   0.933  1.00  0.00     0.191 A 
HETATM    4  C6  UNL     1      -0.491   1.129   0.182  1.00  0.00     0.018 A 
HETATM    5  C7  UNL     1       0.518   0.241  -0.222  1.00  0.00     0.001 A 
HETATM    6  C8  UNL     1       0.104  -0.892  -1.077  1.00  0.00     0.004 C 
HETATM    7  C9  UNL     1       1.205  -1.554  -1.852  1.00  0.00     0.025 C 
HETATM    8  C10 UNL     1      -0.864  -0.317  -2.097  1.00  0.00    -0.016 C 
HETATM    9  C11 UNL     1      -1.807   0.504  -1.678  1.00  0.00    -0.020 C 
HETATM   10  C12 UNL     1      -1.902   0.849  -0.221  1.00  0.00     0.055 C 
HETATM   11  C13 UNL     1      -2.467  -0.360   0.477  1.00  0.00     0.058 C 
HETATM   12  C15 UNL     1      -1.423  -1.354   0.868  1.00  0.00     0.012 C 
HETATM   13  C16 UNL     1      -0.682  -1.935  -0.310  1.00  0.00     0.019 C 
ENDROOT
BRANCH   1  14
HETATM   14  C2  UNL     1       3.000   0.250   0.228  1.00  0.00     0.066 C 
HETATM   15  C1  UNL     1       3.289  -0.958   0.620  1.00  0.00     0.033 C 
BRANCH  14  16
HETATM   16  C3  UNL     1       4.034   1.108  -0.307  1.00  0.00     0.211 C 
HETATM   17  O1  UNL     1       3.760   2.277  -0.688  1.00  0.00    -0.644 OA
HETATM   18  O2  UNL     1       5.338   0.606  -0.389  1.00  0.00    -0.644 OA
ENDBRANCH  14  16
ENDBRANCH   1  14
BRANCH   3  19
HETATM   19  O4  UNL     1      -0.604   3.218   1.522  1.00  0.00    -0.340 OA
ATOM     20  H4  UNL     1      -1.534   3.406   1.481  1.00  0.00     0.220 HD
ENDBRANCH   3  19
BRANCH  11  21
HETATM   21  C14 UNL     1      -3.209   0.076   1.717  1.00  0.00     0.309 C 
HETATM   22  F1  UNL     1      -2.385   0.568   2.707  1.00  0.00    -0.220 F 
BRANCH  21  23
HETATM   23  O5  UNL     1      -4.265   0.946   1.429  1.00  0.00    -0.366 OA
ATOM     24  H5  UNL     1      -4.732   1.220   2.209  1.00  0.00     0.213 HD
ENDBRANCH  21  23
ENDBRANCH  11  21
TORSDOF 5
