REMARK  6 active torsions:
REMARK  status: ('A' for Active; 'I' for Inactive)
REMARK    1  A    between atoms: O1_1  and  C1_3 
REMARK    2  A    between atoms: C3_5  and  C4_6 
REMARK    3  A    between atoms: C4_6  and  O2_7 
REMARK    4  A    between atoms: C4_6  and  N1_9 
REMARK    5  A    between atoms: C10_15  and  O3_16 
REMARK    6  A    between atoms: N2_18  and  C11_19 
ROOT
HETATM    1  C1  UNL     1      -1.022   0.689  -1.300  1.00  0.00     0.145 A 
HETATM    2  C2  UNL     1       0.335   0.448  -1.359  1.00  0.00     0.072 A 
HETATM    3  C3  UNL     1       0.733  -0.375  -0.320  1.00  0.00     0.055 A 
HETATM    4  C10 UNL     1      -0.461  -0.618   0.372  1.00  0.00     0.155 A 
HETATM    5  N2  UNL     1      -1.479   0.021  -0.228  1.00  0.00    -0.303 N 
ENDROOT
BRANCH   3   6
HETATM    6  C4  UNL     1       2.078  -0.904   0.018  1.00  0.00     0.395 C 
BRANCH   6   7
HETATM    7  O2  UNL     1       2.680  -1.350  -1.159  1.00  0.00    -0.364 OA
ATOM      8  H2  UNL     1       3.541  -1.689  -0.943  1.00  0.00     0.212 HD
ENDBRANCH   6   7
BRANCH   6   9
HETATM    9  N1  UNL     1       2.870  -0.013   0.794  1.00  0.00     0.121 N 
HETATM   10  C5  UNL     1       3.184   1.243   0.217  1.00  0.00     0.276 C 
HETATM   11  C6  UNL     1       4.323   1.191  -0.775  1.00  0.00     0.030 C 
HETATM   12  C7  UNL     1       5.527   0.470  -0.205  1.00  0.00     0.003 C 
HETATM   13  C8  UNL     1       5.172  -0.821   0.453  1.00  0.00     0.030 C 
HETATM   14  C9  UNL     1       4.023  -0.619   1.392  1.00  0.00     0.276 C 
ENDBRANCH   6   9
ENDBRANCH   3   6
BRANCH   4  15
HETATM   15  O3  UNL     1      -0.491  -1.424   1.512  1.00  0.00    -0.345 OA
ATOM     16  H3  UNL     1      -1.300  -1.589   1.981  1.00  0.00     0.219 HD
ENDBRANCH   4  15
BRANCH   1  17
HETATM   17  O1  UNL     1      -1.770   1.478  -2.188  1.00  0.00    -0.346 OA
ATOM     18  H1  UNL     1      -2.705   1.644  -2.147  1.00  0.00     0.219 HD
ENDBRANCH   1  17
BRANCH   5  19
HETATM   19  C11 UNL     1      -2.838  -0.025   0.236  1.00  0.00     0.094 C 
HETATM   20  C12 UNL     1      -3.531  -1.336  -0.109  1.00  0.00     0.026 C 
HETATM   21  C13 UNL     1      -5.034  -1.171  -0.085  1.00  0.00     0.002 C 
HETATM   22  C14 UNL     1      -5.471  -0.148   0.934  1.00  0.00     0.000 C 
HETATM   23  C15 UNL     1      -4.972   1.202   0.474  1.00  0.00     0.002 C 
HETATM   24  C16 UNL     1      -3.679   1.083  -0.304  1.00  0.00     0.026 C 
ENDBRANCH   5  19
TORSDOF 6
