REMARK  4 active torsions:
REMARK  status: ('A' for Active; 'I' for Inactive)
REMARK    1  A    between atoms: C4_4  and  C5_5 
REMARK    2  A    between atoms: C7_7  and  C8_8 
REMARK    3  A    between atoms: C13_13  and  N1_14 
REMARK    4  A    between atoms: C14_17  and  N2_18 
ROOT
HETATM    1  C8  UNL     1      -0.118  -0.268  -1.261  1.00  0.00     0.107 C 
HETATM    2  C9  UNL     1      -0.507   1.158  -1.450  1.00  0.00     0.034 C 
HETATM    3  C10 UNL     1      -1.777   1.600  -0.835  1.00  0.00     0.045 C 
HETATM    4  C11 UNL     1      -2.686   0.523  -0.362  1.00  0.00    -0.012 A 
HETATM    5  C12 UNL     1      -4.019   0.814  -0.227  1.00  0.00     0.051 A 
HETATM    6  C13 UNL     1      -4.889  -0.177   0.233  1.00  0.00     0.146 A 
HETATM    7  C14 UNL     1      -4.376  -1.413   0.534  1.00  0.00     0.134 A 
HETATM    8  N3  UNL     1      -3.042  -1.678   0.390  1.00  0.00    -0.327 N 
ATOM      9  H3  UNL     1      -2.681  -2.604   0.619  1.00  0.00     0.169 HD
HETATM   10  C15 UNL     1      -2.208  -0.727  -0.051  1.00  0.00     0.109 A 
HETATM   11  N4  UNL     1      -0.820  -0.968  -0.217  1.00  0.00    -0.368 N 
ATOM     12  H4  UNL     1      -0.329  -1.624   0.391  1.00  0.00     0.161 HD
ENDROOT
BRANCH   1  13
HETATM   13  C7  UNL     1       1.328  -0.517  -1.262  1.00  0.00     0.005 C 
HETATM   14  C5  UNL     1       2.206  -0.075  -0.349  1.00  0.00    -0.064 C 
HETATM   15  C6  UNL     1       1.757   0.742   0.798  1.00  0.00     0.048 C 
BRANCH  14  16
HETATM   16  C4  UNL     1       3.598  -0.428  -0.526  1.00  0.00     0.008 C 
HETATM   17  C2  UNL     1       4.639  -0.131   0.199  1.00  0.00    -0.087 C 
HETATM   18  C1  UNL     1       5.965  -0.687  -0.303  1.00  0.00     0.043 C 
HETATM   19  C3  UNL     1       4.734   0.658   1.424  1.00  0.00     0.043 C 
ENDBRANCH  14  16
ENDBRANCH   1  13
BRANCH   7  20
HETATM   20  N2  UNL     1      -5.134  -2.358   0.939  1.00  0.00    -0.383 N 
ATOM     21  H22 UNL     1      -6.129  -2.160   1.046  1.00  0.00     0.157 HD
ATOM     22  H21 UNL     1      -4.753  -3.277   1.163  1.00  0.00     0.157 HD
ENDBRANCH   7  20
BRANCH   6  23
HETATM   23  N1  UNL     1      -6.237   0.209   0.338  1.00  0.00    -0.112 N 
HETATM   24  O1  UNL     1      -6.711   1.098  -0.424  1.00  0.00    -0.532 OA
HETATM   25  O2  UNL     1      -7.086  -0.339   1.238  1.00  0.00    -0.532 OA
ENDBRANCH   6  23
TORSDOF 4
