REMARK  5 active torsions:
REMARK  status: ('A' for Active; 'I' for Inactive)
REMARK    1  A    between atoms: O1_1  and  C1_3 
REMARK    2  A    between atoms: C1_3  and  C2_4 
REMARK    3  A    between atoms: C2_4  and  C3_5 
REMARK    4  A    between atoms: N1_10  and  N2_12 
REMARK    5  A    between atoms: N2_12  and  C8_14 
ROOT
HETATM    1  N2  UNL     1       0.775   1.183   0.327  1.00  0.00    -0.282 N 
ATOM      2  H2  UNL     1       0.132   1.850  -0.099  1.00  0.00     0.188 HD
ENDROOT
BRANCH   1   3
HETATM    3  N1  UNL     1       0.253   0.508   1.389  1.00  0.00    -0.282 N 
HETATM    4  C1  UNL     1      -0.661  -0.374   1.186  1.00  0.00     0.130 C 
ATOM      5  H1  UNL     1       0.583   0.700   2.335  1.00  0.00     0.189 HD
BRANCH   4   6
HETATM    6  O1  UNL     1      -1.162  -1.033   2.288  1.00  0.00    -0.348 OA
ATOM      7  H1  UNL     1      -0.838  -0.836   3.159  1.00  0.00     0.219 HD
ENDBRANCH   4   6
BRANCH   4   8
HETATM    8  C2  UNL     1      -1.162  -0.679  -0.160  1.00  0.00     0.090 C 
BRANCH   8   9
HETATM    9  C3  UNL     1      -2.583  -0.386  -0.425  1.00  0.00    -0.007 C 
HETATM   10  C4  UNL     1      -3.598  -1.085   0.411  1.00  0.00     0.005 C 
HETATM   11  C5  UNL     1      -4.886  -0.396  -0.078  1.00  0.00     0.000 C 
HETATM   12  C6  UNL     1      -4.457   0.989  -0.511  1.00  0.00     0.000 C 
HETATM   13  C7  UNL     1      -2.970   1.066  -0.142  1.00  0.00     0.005 C 
ENDBRANCH   8   9
ENDBRANCH   4   8
ENDBRANCH   1   3
BRANCH   1  14
HETATM   14  C8  UNL     1       1.900   1.134  -0.222  1.00  0.00     0.147 A 
HETATM   15  N3  UNL     1       2.274   1.873  -1.279  1.00  0.00    -0.283 N 
HETATM   16  N4  UNL     1       3.508   1.586  -1.611  1.00  0.00    -0.298 N 
ATOM     17  H3  UNL     1       1.684   2.557  -1.753  1.00  0.00     0.188 HD
HETATM   18  C9  UNL     1       4.003   0.639  -0.782  1.00  0.00     0.063 A 
ATOM     19  H4  UNL     1       4.021   2.014  -2.382  1.00  0.00     0.187 HD
HETATM   20  C10 UNL     1       5.210   0.001  -0.693  1.00  0.00     0.055 A 
HETATM   21  C14 UNL     1       2.969   0.342   0.119  1.00  0.00     0.039 A 
HETATM   22  C11 UNL     1       5.416  -0.939   0.284  1.00  0.00     0.036 A 
HETATM   23 CL1  UNL     1       6.960  -1.762   0.405  1.00  0.00    -0.084 Cl
HETATM   24  C12 UNL     1       4.435  -1.267   1.193  1.00  0.00     0.025 A 
HETATM   25  C13 UNL     1       3.210  -0.610   1.092  1.00  0.00     0.019 A 
ENDBRANCH   1  14
TORSDOF 5
