REMARK  3 active torsions:
REMARK  status: ('A' for Active; 'I' for Inactive)
REMARK    1  A    between atoms: C2_2  and  C3_4 
REMARK    2  A    between atoms: C6_7  and  N1_8 
REMARK       I    between atoms: N1_8  and  C7_10 
REMARK       I    between atoms: C7_10  and  N2_12 
REMARK    3  A    between atoms: N2_12  and  C8_14 
ROOT
HETATM    1  N1  UNL     1       0.718  -0.481   0.470  1.00  0.00    -0.307 N 
ATOM      2  H1  UNL     1       0.784  -1.398   0.913  1.00  0.00     0.170 HD
HETATM    3  C7  UNL     1      -0.553  -0.100   0.019  1.00  0.00     0.321 C 
HETATM    4  O2  UNL     1      -0.782   0.989  -0.536  1.00  0.00    -0.247 OA
HETATM    5  N2  UNL     1      -1.666  -1.037   0.213  1.00  0.00    -0.338 N 
ATOM      6  H2  UNL     1      -1.525  -1.942   0.663  1.00  0.00     0.164 HD
ENDROOT
BRANCH   1   7
HETATM    7  C6  UNL     1       1.897   0.247   0.383  1.00  0.00     0.062 A 
HETATM    8  C5  UNL     1       1.986   1.471  -0.198  1.00  0.00     0.032 A 
HETATM    9  C4  UNL     1       3.218   2.140  -0.248  1.00  0.00     0.019 A 
HETATM   10  C3  UNL     1       4.377   1.620   0.269  1.00  0.00     0.033 A 
HETATM   11  C15 UNL     1       4.258   0.375   0.854  1.00  0.00     0.074 A 
HETATM   12  C14 UNL     1       3.071  -0.302   0.918  1.00  0.00     0.095 A 
HETATM   13 CL1  UNL     1       5.746  -0.308   1.526  1.00  0.00    -0.081 Cl
HETATM   14  N3  UNL     1       3.044  -1.579   1.540  1.00  0.00    -0.098 NA
BRANCH  10  15
HETATM   15  C2  UNL     1       5.650   2.326   0.209  1.00  0.00     0.157 C 
HETATM   16  C1  UNL     1       6.797   1.719  -0.501  1.00  0.00     0.097 C 
HETATM   17  O1  UNL     1       5.782   3.439   0.753  1.00  0.00    -0.293 OA
ENDBRANCH  10  15
ENDBRANCH   1   7
BRANCH   5  18
HETATM   18  C8  UNL     1      -2.953  -0.633  -0.252  1.00  0.00     0.086 C 
HETATM   19  C9  UNL     1      -3.417  -1.639  -1.285  1.00  0.00     0.025 C 
HETATM   20  C10 UNL     1      -4.586  -1.012  -2.014  1.00  0.00     0.002 C 
HETATM   21  C11 UNL     1      -5.366  -0.129  -1.082  1.00  0.00     0.000 C 
HETATM   22  C12 UNL     1      -5.337  -0.709   0.329  1.00  0.00     0.002 C 
HETATM   23  C13 UNL     1      -3.953  -0.566   0.894  1.00  0.00     0.025 C 
ENDBRANCH   5  18
TORSDOF 3
