REMARK  8 active torsions:
REMARK  status: ('A' for Active; 'I' for Inactive)
REMARK    1  A    between atoms: C2_2  and  N1_3 
REMARK    2  A    between atoms: C3_5  and  C4_6 
REMARK    3  A    between atoms: C3_5  and  N2_15 
REMARK    4  A    between atoms: C4_6  and  C5_7 
REMARK    5  A    between atoms: C6_8  and  C7_9 
REMARK    6  A    between atoms: C8_10  and  C10_12 
REMARK    7  A    between atoms: N3_17  and  C12_19 
REMARK    8  A    between atoms: C15_26  and  N6_27 
ROOT
HETATM    1  C10 UNL     1       6.533  -0.173  -0.045  1.00  0.00    -0.054 C 
HETATM    2  C11 UNL     1       7.727  -0.128  -0.216  1.00  0.00     0.010 C 
HETATM    3 CL1  UNL     1       9.444  -0.058  -0.493  1.00  0.00    -0.023 Cl
ENDROOT
BRANCH   1   4
HETATM    4  C8  UNL     1       5.119  -0.204   0.167  1.00  0.00     0.001 C 
HETATM    5  C7  UNL     1       4.517   0.794   0.756  1.00  0.00     0.080 C 
HETATM    6  C9  UNL     1       4.352  -1.377  -0.290  1.00  0.00     0.059 C 
BRANCH   5   7
HETATM    7  C6  UNL     1       3.108   0.764   0.967  1.00  0.00    -0.077 C 
HETATM    8  C5  UNL     1       1.917   0.752   1.162  1.00  0.00    -0.094 C 
BRANCH   8   9
HETATM    9  C4  UNL     1       0.469   0.755   1.415  1.00  0.00     0.171 C 
BRANCH   9  10
HETATM   10  C3  UNL     1      -0.285   0.236   0.233  1.00  0.00     0.102 C 
HETATM   11  N1  UNL     1      -1.141   0.997  -0.338  1.00  0.00    -0.378 N 
ATOM     12  H1  UNL     1      -1.651   0.633  -1.143  1.00  0.00     0.160 HD
BRANCH  11  13
HETATM   13  C2  UNL     1      -1.421   2.338   0.096  1.00  0.00     0.116 C 
HETATM   14  C1  UNL     1      -2.426   2.934  -0.865  1.00  0.00     0.026 C 
ENDBRANCH  11  13
BRANCH  10  15
HETATM   15  N2  UNL     1      -0.066  -1.076  -0.255  1.00  0.00    -0.288 N 
HETATM   16  N3  UNL     1      -1.036  -1.860  -0.354  1.00  0.00    -0.294 N 
ATOM     17  H3  UNL     1      -0.835  -2.795  -0.709  1.00  0.00     0.187 HD
ATOM     18  H2  UNL     1       0.871  -1.378  -0.522  1.00  0.00     0.188 HD
BRANCH  16  19
HETATM   19  C12 UNL     1      -2.370  -1.586  -0.027  1.00  0.00     0.116 A 
HETATM   20  C13 UNL     1      -3.393  -1.347  -0.951  1.00  0.00     0.053 A 
HETATM   21  C14 UNL     1      -3.288  -1.334  -2.435  1.00  0.00     0.072 C 
HETATM   22  N4  UNL     1      -4.487  -1.134  -0.198  1.00  0.00    -0.301 N 
HETATM   23  N5  UNL     1      -4.191  -1.227   1.087  1.00  0.00    -0.284 N 
ATOM     24  H4  UNL     1      -5.416  -0.929  -0.567  1.00  0.00     0.186 HD
HETATM   25  C15 UNL     1      -2.885  -1.507   1.250  1.00  0.00     0.144 A 
ATOM     26  H5  UNL     1      -4.859  -1.104   1.848  1.00  0.00     0.188 HD
BRANCH  25  27
HETATM   27  N6  UNL     1      -2.300  -1.658   2.390  1.00  0.00    -0.382 N 
ATOM     28  H62 UNL     1      -1.310  -1.870   2.514  1.00  0.00     0.157 HD
ATOM     29  H61 UNL     1      -2.681  -1.600   3.334  1.00  0.00     0.157 HD
ENDBRANCH  25  27
ENDBRANCH  16  19
ENDBRANCH  10  15
ENDBRANCH   9  10
ENDBRANCH   8   9
ENDBRANCH   5   7
ENDBRANCH   1   4
TORSDOF 8
