REMARK  8 active torsions:
REMARK  status: ('A' for Active; 'I' for Inactive)
REMARK    1  A    between atoms: C5_5  and  O1_6 
REMARK    2  A    between atoms: C10_12  and  O2_13 
REMARK    3  A    between atoms: O2_13  and  C11_14 
REMARK    4  A    between atoms: C11_14  and  C12_16 
REMARK    5  A    between atoms: C12_16  and  C13_17 
REMARK    6  A    between atoms: C13_17  and  C14_18 
REMARK    7  A    between atoms: C14_18  and  C16_20 
REMARK    8  A    between atoms: C19_23  and  O4_24 
ROOT
HETATM    1  O2  UNL     1      -0.395  -0.289  -1.163  1.00  0.00    -0.290 OA
ENDROOT
BRANCH   1   2
HETATM    2  C10 UNL     1      -1.588   0.185  -0.591  1.00  0.00     0.270 C 
HETATM    3  C9  UNL     1      -2.274   1.071  -1.609  1.00  0.00     0.062 C 
HETATM    4  C8  UNL     1      -3.575   1.628  -1.119  1.00  0.00     0.019 C 
HETATM    5  C6  UNL     1      -4.374   0.653  -0.318  1.00  0.00     0.012 C 
HETATM    6  C5  UNL     1      -5.244   1.375   0.683  1.00  0.00     0.129 C 
HETATM    7  C7  UNL     1      -5.278  -0.185  -1.199  1.00  0.00     0.021 C 
HETATM    8  C22 UNL     1      -3.478  -0.278   0.510  1.00  0.00     0.163 C 
HETATM    9  C4  UNL     1      -6.119   0.486   1.478  1.00  0.00     0.037 C 
HETATM   10  C3  UNL     1      -5.586  -0.847   1.826  1.00  0.00     0.038 C 
HETATM   11  C2  UNL     1      -4.387  -1.286   1.107  1.00  0.00    -0.060 C 
HETATM   12  C1  UNL     1      -4.101  -2.560   0.981  1.00  0.00     0.017 C 
HETATM   13  O5  UNL     1      -2.475  -0.838  -0.266  1.00  0.00    -0.350 OA
BRANCH   6  14
HETATM   14  O1  UNL     1      -6.033   2.329   0.040  1.00  0.00    -0.395 OA
ATOM     15  H1  UNL     1      -5.471   2.900  -0.471  1.00  0.00     0.210 HD
ENDBRANCH   6  14
ENDBRANCH   1   2
BRANCH   1  16
HETATM   16  C11 UNL     1       0.846  -0.005  -0.622  1.00  0.00     0.261 C 
HETATM   17  O3  UNL     1       0.883   0.702   0.417  1.00  0.00    -0.265 OA
BRANCH  16  18
HETATM   18  C12 UNL     1       2.114  -0.496  -1.212  1.00  0.00     0.112 C 
BRANCH  18  19
HETATM   19  C13 UNL     1       3.315  -0.043  -0.427  1.00  0.00     0.019 C 
BRANCH  19  20
HETATM   20  C14 UNL     1       4.573  -0.564  -1.063  1.00  0.00     0.015 C 
HETATM   21  C15 UNL     1       4.612  -2.067  -1.124  1.00  0.00     0.015 C 
BRANCH  20  22
HETATM   22  C16 UNL     1       5.712  -0.120  -0.196  1.00  0.00    -0.051 A 
HETATM   23  C17 UNL     1       5.787  -0.578   1.103  1.00  0.00     0.010 A 
HETATM   24  C18 UNL     1       6.842  -0.163   1.896  1.00  0.00     0.040 A 
HETATM   25  C19 UNL     1       7.813   0.692   1.419  1.00  0.00     0.104 A 
HETATM   26  C20 UNL     1       7.700   1.128   0.109  1.00  0.00     0.149 A 
HETATM   27  F1  UNL     1       8.650   1.977  -0.389  1.00  0.00    -0.203 F 
HETATM   28  C21 UNL     1       6.659   0.734  -0.713  1.00  0.00     0.052 A 
BRANCH  25  29
HETATM   29  O4  UNL     1       8.887   1.127   2.195  1.00  0.00    -0.358 OA
ATOM     30  H4  UNL     1       9.556   1.716   1.866  1.00  0.00     0.217 HD
ENDBRANCH  25  29
ENDBRANCH  20  22
ENDBRANCH  19  20
ENDBRANCH  18  19
ENDBRANCH  16  18
ENDBRANCH   1  16
TORSDOF 8
