REMARK  5 active torsions:
REMARK  status: ('A' for Active; 'I' for Inactive)
REMARK    1  A    between atoms: C2_2  and  C3_3 
REMARK    2  A    between atoms: C3_3  and  C6_6 
REMARK    3  A    between atoms: C11_14  and  C12_15 
REMARK    4  A    between atoms: C12_15  and  S1_16 
REMARK    5  A    between atoms: C12_15  and  C14_18 
ROOT
HETATM    1  C6  UNL     1       2.959  -0.155   0.172  1.00  0.00    -0.043 A 
HETATM    2  C7  UNL     1       3.198  -1.138   1.108  1.00  0.00     0.053 A 
HETATM    3  C8  UNL     1       2.214  -1.962   1.609  1.00  0.00     0.151 A 
HETATM    4  F1  UNL     1       2.424  -2.927   2.522  1.00  0.00    -0.203 F 
HETATM    5  C9  UNL     1       0.919  -1.754   1.112  1.00  0.00     0.128 A 
HETATM    6  O1  UNL     1      -0.084  -2.484   1.524  1.00  0.00    -0.271 OA
HETATM    7  C10 UNL     1      -1.305  -2.315   1.080  1.00  0.00     0.296 A 
HETATM    8  O2  UNL     1      -2.269  -3.042   1.499  1.00  0.00    -0.259 OA
HETATM    9  C11 UNL     1      -1.650  -1.363   0.146  1.00  0.00     0.037 A 
HETATM   10  C19 UNL     1      -0.626  -0.568  -0.319  1.00  0.00     0.029 A 
HETATM   11  C20 UNL     1       0.644  -0.782   0.177  1.00  0.00     0.002 A 
HETATM   12  C21 UNL     1       1.678   0.021  -0.293  1.00  0.00     0.022 A 
ENDROOT
BRANCH   9  13
HETATM   13  C12 UNL     1      -3.044  -1.205  -0.332  1.00  0.00     0.122 C 
BRANCH  13  14
HETATM   14  S1  UNL     1      -3.113  -1.638  -2.114  1.00  0.00    -0.159 SA
HETATM   15  C13 UNL     1      -2.741  -3.427  -2.206  1.00  0.00     0.091 C 
ENDBRANCH  13  14
BRANCH  13  16
HETATM   16  C14 UNL     1      -3.605   0.126  -0.086  1.00  0.00     0.003 A 
HETATM   17  C15 UNL     1      -3.886   1.073  -1.047  1.00  0.00     0.036 A 
HETATM   18  C16 UNL     1      -4.405   2.213  -0.456  1.00  0.00     0.007 A 
HETATM   19  C17 UNL     1      -4.830   3.453  -1.158  1.00  0.00     0.068 C 
HETATM   20  N1  UNL     1      -4.435   1.945   0.871  1.00  0.00    -0.348 N 
HETATM   21  C18 UNL     1      -3.960   0.702   1.115  1.00  0.00     0.124 A 
ATOM     22  H1  UNL     1      -4.769   2.590   1.587  1.00  0.00     0.167 HD
HETATM   23  N2  UNL     1      -3.860   0.118   2.409  1.00  0.00    -0.082 NA
ENDBRANCH  13  16
ENDBRANCH   9  13
BRANCH   1  24
HETATM   24  C3  UNL     1       4.060   0.685  -0.317  1.00  0.00    -0.003 C 
HETATM   25  C4  UNL     1       3.578   1.934  -1.016  1.00  0.00     0.024 C 
HETATM   26  C5  UNL     1       4.955  -0.061  -1.280  1.00  0.00     0.024 C 
BRANCH  24  27
HETATM   27  C2  UNL     1       4.903   1.146   0.825  1.00  0.00    -0.023 C 
HETATM   28  C1  UNL     1       6.199   0.923   0.896  1.00  0.00     0.008 C 
ENDBRANCH  24  27
ENDBRANCH   1  24
TORSDOF 5
