REMARK  6 active torsions:
REMARK  status: ('A' for Active; 'I' for Inactive)
REMARK    1  A    between atoms: C2_2  and  C3_3 
REMARK    2  A    between atoms: C3_3  and  C4_4 
REMARK    3  A    between atoms: C12_12  and  N1_13 
REMARK    4  A    between atoms: N1_13  and  C13_15 
REMARK    5  A    between atoms: C14_16  and  N2_17 
REMARK    6  A    between atoms: N2_17  and  C15_19 
ROOT
HETATM    1  C4  UNL     1       4.939   0.532  -2.326  1.00  0.00     0.010 C 
HETATM    2  C5  UNL     1       3.924  -0.079  -1.788  1.00  0.00     0.051 C 
HETATM    3  C6  UNL     1       3.750  -0.203  -0.339  1.00  0.00     0.078 C 
HETATM    4  C7  UNL     1       2.361  -0.197   0.167  1.00  0.00    -0.012 C 
HETATM    5  C8  UNL     1       1.971   1.282   0.357  1.00  0.00     0.020 C 
HETATM    6  C9  UNL     1       2.219  -0.909   1.506  1.00  0.00     0.020 C 
HETATM    7  C10 UNL     1       1.405  -0.821  -0.755  1.00  0.00    -0.011 A 
HETATM    8  C11 UNL     1       0.132  -1.210  -0.265  1.00  0.00     0.040 A 
HETATM    9  C12 UNL     1      -0.826  -1.774  -1.058  1.00  0.00     0.036 A 
HETATM   10  C21 UNL     1      -0.514  -1.960  -2.388  1.00  0.00     0.074 A 
HETATM   11  C22 UNL     1       0.719  -1.588  -2.878  1.00  0.00     0.152 A 
HETATM   12  F1  UNL     1       1.034  -1.769  -4.187  1.00  0.00    -0.203 F 
HETATM   13  C23 UNL     1       1.708  -1.008  -2.070  1.00  0.00     0.121 A 
HETATM   14  O3  UNL     1       2.937  -0.656  -2.620  1.00  0.00    -0.312 OA
ENDROOT
BRANCH   9  15
HETATM   15  N1  UNL     1      -2.090  -2.152  -0.517  1.00  0.00    -0.351 N 
ATOM     16  H1  UNL     1      -2.777  -2.562  -1.150  1.00  0.00     0.166 HD
BRANCH  15  17
HETATM   17  C13 UNL     1      -2.453  -1.994   0.843  1.00  0.00     0.118 A 
HETATM   18  C14 UNL     1      -3.066  -0.969   1.528  1.00  0.00     0.115 A 
HETATM   19  C19 UNL     1      -2.983  -1.703   2.693  1.00  0.00     0.252 A 
HETATM   20  O1  UNL     1      -3.306  -1.565   3.898  1.00  0.00    -0.281 OA
HETATM   21  C20 UNL     1      -2.372  -2.726   2.009  1.00  0.00     0.253 A 
HETATM   22  O2  UNL     1      -1.915  -3.878   2.324  1.00  0.00    -0.281 OA
BRANCH  18  23
HETATM   23  N2  UNL     1      -3.594   0.344   1.216  1.00  0.00    -0.377 N 
ATOM     24  H2  UNL     1      -2.985   1.159   1.289  1.00  0.00     0.160 HD
BRANCH  23  25
HETATM   25  C15 UNL     1      -4.951   0.517   0.809  1.00  0.00     0.019 C 
HETATM   26  C16 UNL     1      -5.286  -0.206  -0.476  1.00  0.00     0.037 C 
HETATM   27  C17 UNL     1      -5.868   0.062   1.942  1.00  0.00     0.037 C 
HETATM   28  C18 UNL     1      -5.216   1.990   0.605  1.00  0.00     0.037 C 
ENDBRANCH  23  25
ENDBRANCH  18  23
ENDBRANCH  15  17
ENDBRANCH   9  15
BRANCH   1  29
HETATM   29  C3  UNL     1       6.036   1.171  -1.582  1.00  0.00     0.056 C 
BRANCH  29  30
HETATM   30  C2  UNL     1       6.043   2.645  -1.919  1.00  0.00    -0.033 C 
HETATM   31  C1  UNL     1       5.885   3.563  -0.979  1.00  0.00     0.007 C 
ENDBRANCH  29  30
ENDBRANCH   1  29
TORSDOF 6
