REMARK  5 active torsions:
REMARK  status: ('A' for Active; 'I' for Inactive)
REMARK       I    between atoms: C2_2  and  N1_4 
REMARK    1  A    between atoms: N1_4  and  C3_6 
REMARK    2  A    between atoms: C4_9  and  O2_10 
REMARK    3  A    between atoms: O2_10  and  C5_11 
REMARK    4  A    between atoms: C10_17  and  S1_18 
REMARK    5  A    between atoms: S1_18  and  C11_19 
ROOT
HETATM    1  C3  UNL     1       3.529   0.298  -0.101  1.00  0.00     0.149 A 
HETATM    2  N2  UNL     1       2.264   0.262   0.312  1.00  0.00    -0.305 N 
ATOM      3  H2  UNL     1       1.697   1.078   0.544  1.00  0.00     0.171 HD
HETATM    4  C4  UNL     1       1.834  -1.061   0.378  1.00  0.00     0.231 A 
HETATM    5  N3  UNL     1       2.884  -1.780  -0.008  1.00  0.00    -0.310 N 
ATOM      6  H3  UNL     1       2.890  -2.798  -0.068  1.00  0.00     0.170 HD
HETATM    7  C17 UNL     1       3.956  -0.985  -0.315  1.00  0.00     0.161 A 
HETATM    8  C18 UNL     1       5.244  -1.460  -0.765  1.00  0.00     0.121 C 
HETATM    9  N4  UNL     1       6.287  -1.829  -1.112  1.00  0.00    -0.190 NA
ENDROOT
BRANCH   1  10
HETATM   10  N1  UNL     1       4.344   1.464  -0.302  1.00  0.00    -0.311 N 
HETATM   11  C2  UNL     1       3.900   2.781  -0.081  1.00  0.00     0.219 C 
HETATM   12  C1  UNL     1       2.526   3.052   0.385  1.00  0.00     0.117 C 
HETATM   13  O1  UNL     1       4.681   3.736  -0.283  1.00  0.00    -0.274 OA
ATOM     14  H1  UNL     1       5.302   1.329  -0.624  1.00  0.00     0.170 HD
ENDBRANCH   1  10
BRANCH   4  15
HETATM   15  O2  UNL     1       0.592  -1.347   0.769  1.00  0.00    -0.278 OA
BRANCH  15  16
HETATM   16  C5  UNL     1      -0.221  -2.382   0.977  1.00  0.00     0.096 A 
HETATM   17  C6  UNL     1       0.104  -3.707   0.794  1.00  0.00     0.040 A 
HETATM   18  C7  UNL     1      -0.828  -4.687   1.045  1.00  0.00     0.026 A 
HETATM   19  C8  UNL     1      -2.097  -4.378   1.479  1.00  0.00     0.035 A 
HETATM   20 CL1  UNL     1      -3.226  -5.678   1.777  1.00  0.00    -0.084 Cl
HETATM   21  C9  UNL     1      -2.413  -3.045   1.660  1.00  0.00     0.045 A 
HETATM   22  C10 UNL     1      -1.522  -2.044   1.424  1.00  0.00     0.036 A 
BRANCH  22  23
HETATM   23  S1  UNL     1      -1.967  -0.309   1.674  1.00  0.00    -0.122 SA
BRANCH  23  24
HETATM   24  C11 UNL     1      -2.677   0.366   0.162  1.00  0.00     0.052 C 
HETATM   25  C12 UNL     1      -1.610   0.407  -0.900  1.00  0.00     0.015 C 
HETATM   26  C13 UNL     1      -2.179   1.195  -2.066  1.00  0.00     0.001 C 
HETATM   27  C14 UNL     1      -2.277   2.640  -1.683  1.00  0.00     0.000 C 
HETATM   28  C15 UNL     1      -2.560   2.849  -0.223  1.00  0.00     0.001 C 
HETATM   29  C16 UNL     1      -3.306   1.707   0.403  1.00  0.00     0.015 C 
ENDBRANCH  23  24
ENDBRANCH  22  23
ENDBRANCH  15  16
ENDBRANCH   4  15
TORSDOF 5
