REMARK  5 active torsions:
REMARK  status: ('A' for Active; 'I' for Inactive)
REMARK       I    between atoms: N1_2  and  C2_4 
REMARK    1  A    between atoms: C2_4  and  C3_6 
REMARK    2  A    between atoms: C6_11  and  O2_12 
REMARK    3  A    between atoms: O2_12  and  C7_13 
REMARK    4  A    between atoms: C10_16  and  N3_17 
REMARK       I    between atoms: N3_17  and  C11_19 
REMARK    5  A    between atoms: C11_19  and  C12_21 
ROOT
HETATM    1  C7  UNL     1       1.862   0.294   1.159  1.00  0.00     0.119 A 
HETATM    2  C8  UNL     1       1.816  -0.833   0.395  1.00  0.00     0.048 A 
HETATM    3  C9  UNL     1       0.712  -1.076  -0.317  1.00  0.00     0.040 A 
HETATM    4  C10 UNL     1      -0.308  -0.162  -0.225  1.00  0.00     0.079 A 
HETATM    5  S1  UNL     1       0.314   1.000   0.851  1.00  0.00    -0.047 SA
ENDROOT
BRANCH   1   6
HETATM    6  O2  UNL     1       2.849   0.807   1.992  1.00  0.00    -0.300 OA
BRANCH   6   7
HETATM    7  C6  UNL     1       4.049   0.197   2.149  1.00  0.00     0.119 A 
HETATM    8  C5  UNL     1       4.447  -0.313   3.360  1.00  0.00     0.057 A 
HETATM    9  C4  UNL     1       5.687  -0.932   3.486  1.00  0.00     0.091 A 
HETATM   10  N2  UNL     1       6.492  -1.032   2.436  1.00  0.00    -0.359 N 
HETATM   11  C3  UNL     1       6.161  -0.547   1.198  1.00  0.00     0.142 A 
ATOM     12  H2  UNL     1       7.396  -1.489   2.556  1.00  0.00     0.165 HD
HETATM   13  C19 UNL     1       4.941   0.061   1.080  1.00  0.00     0.182 A 
HETATM   14  F1  UNL     1       4.540   0.594  -0.088  1.00  0.00    -0.201 F 
BRANCH  11  15
HETATM   15  C2  UNL     1       7.124  -0.724   0.161  1.00  0.00     0.271 C 
HETATM   16  N1  UNL     1       6.980  -0.329  -1.170  1.00  0.00    -0.360 N 
HETATM   17  C1  UNL     1       8.077  -0.582  -2.142  1.00  0.00     0.149 C 
ATOM     18  H1  UNL     1       6.123   0.133  -1.476  1.00  0.00     0.162 HD
HETATM   19  O1  UNL     1       8.235  -1.297   0.452  1.00  0.00    -0.266 OA
ENDBRANCH  11  15
ENDBRANCH   6   7
ENDBRANCH   1   6
BRANCH   4  20
HETATM   20  N3  UNL     1      -1.586  -0.214  -0.897  1.00  0.00    -0.321 N 
HETATM   21  C11 UNL     1      -2.505   0.831  -0.668  1.00  0.00     0.226 C 
HETATM   22  O3  UNL     1      -2.198   1.769   0.103  1.00  0.00    -0.273 OA
ATOM     23  H3  UNL     1      -1.818  -0.987  -1.521  1.00  0.00     0.169 HD
BRANCH  21  24
HETATM   24  C12 UNL     1      -3.839   0.798  -1.356  1.00  0.00     0.078 C 
HETATM   25  C13 UNL     1      -4.671   1.995  -0.984  1.00  0.00     0.014 C 
HETATM   26  C14 UNL     1      -5.329   1.854   0.360  1.00  0.00     0.001 C 
HETATM   27  C15 UNL     1      -6.717   1.256   0.258  1.00  0.00     0.000 C 
HETATM   28  C16 UNL     1      -6.656  -0.248   0.062  1.00  0.00     0.000 C 
HETATM   29  C17 UNL     1      -5.981  -0.497  -1.277  1.00  0.00     0.001 C 
HETATM   30  C18 UNL     1      -4.489  -0.506  -1.026  1.00  0.00     0.014 C 
ENDBRANCH  21  24
ENDBRANCH   4  20
TORSDOF 5
