REMARK  5 active torsions:
REMARK  status: ('A' for Active; 'I' for Inactive)
REMARK    1  A    between atoms: S1_2  and  C2_3 
REMARK    2  A    between atoms: C3_8  and  C4_9 
REMARK    3  A    between atoms: C8_15  and  C9_16 
REMARK    4  A    between atoms: N3_17  and  N4_19 
REMARK       I    between atoms: N4_19  and  C10_21 
REMARK    5  A    between atoms: C10_21  and  C11_23 
ROOT
HETATM    1  C2  UNL     1       3.664  -1.903  -0.110  1.00  0.00     0.098 A 
HETATM    2  N1  UNL     1       4.975  -1.665  -0.245  1.00  0.00    -0.293 N 
ATOM      3  H1  UNL     1       5.690  -2.388  -0.322  1.00  0.00     0.187 HD
HETATM    4  N2  UNL     1       5.215  -0.371  -0.265  1.00  0.00    -0.298 N 
ATOM      5  H2  UNL     1       6.137   0.054  -0.358  1.00  0.00     0.187 HD
HETATM    6  C3  UNL     1       4.036   0.319  -0.141  1.00  0.00     0.079 A 
HETATM    7  C8  UNL     1       3.057  -0.636  -0.044  1.00  0.00     0.045 A 
ENDROOT
BRANCH   7   8
HETATM    8  C9  UNL     1       1.637  -0.439   0.104  1.00  0.00     0.123 C 
HETATM    9  N3  UNL     1       0.843  -1.445   0.182  1.00  0.00    -0.308 N 
ATOM     10  H3  UNL     1       1.242  -2.383   0.137  1.00  0.00     0.186 HD
BRANCH   9  11
HETATM   11  N4  UNL     1      -0.538  -1.317   0.325  1.00  0.00    -0.270 N 
HETATM   12  C10 UNL     1      -1.293  -0.492  -0.554  1.00  0.00     0.240 C 
HETATM   13  O1  UNL     1      -0.710   0.128  -1.468  1.00  0.00    -0.271 OA
ATOM     14  H4  UNL     1      -1.014  -1.823   1.072  1.00  0.00     0.190 HD
BRANCH  12  15
HETATM   15  C11 UNL     1      -2.757  -0.347  -0.414  1.00  0.00     0.083 C 
HETATM   16  C12 UNL     1      -3.270   0.576  -1.470  1.00  0.00     0.014 C 
HETATM   17  C13 UNL     1      -4.774   0.679  -1.253  1.00  0.00     0.001 C 
HETATM   18  C14 UNL     1      -4.974   1.489  -0.020  1.00  0.00     0.000 C 
HETATM   19  C15 UNL     1      -4.021   1.244   1.081  1.00  0.00     0.005 C 
HETATM   20  C16 UNL     1      -3.166   0.039   0.975  1.00  0.00    -0.006 C 
HETATM   21  C17 UNL     1      -3.771  -1.165   1.667  1.00  0.00     0.011 C 
ENDBRANCH  12  15
ENDBRANCH   9  11
ENDBRANCH   7   8
BRANCH   1  22
HETATM   22  S1  UNL     1       2.786  -3.451  -0.024  1.00  0.00    -0.115 SA
HETATM   23  C1  UNL     1       3.919  -4.831  -0.146  1.00  0.00     0.097 C 
ENDBRANCH   1  22
BRANCH   6  24
HETATM   24  C4  UNL     1       3.920   1.770  -0.125  1.00  0.00     0.035 A 
HETATM   25  C5  UNL     1       4.941   2.680  -0.227  1.00  0.00     0.023 A 
HETATM   26  C6  UNL     1       4.612   3.977  -0.189  1.00  0.00     0.033 A 
HETATM   27  C7  UNL     1       3.288   4.290  -0.052  1.00  0.00     0.075 A 
HETATM   28 CL1  UNL     1       2.563   5.906   0.028  1.00  0.00    -0.076 Cl
HETATM   29  S2  UNL     1       2.547   2.755   0.020  1.00  0.00    -0.076 SA
ENDBRANCH   6  24
TORSDOF 5
