REMARK  10 active torsions:
REMARK  status: ('A' for Active; 'I' for Inactive)
REMARK    1  A    between atoms: C2_2  and  N1_3 
REMARK    2  A    between atoms: C4_5  and  C5_6 
REMARK    3  A    between atoms: C5_6  and  N2_7 
REMARK    4  A    between atoms: C11_16  and  C12_17 
REMARK    5  A    between atoms: C12_17  and  C13_18 
REMARK       I    between atoms: C13_18  and  N5_20 
REMARK    6  A    between atoms: N5_20  and  C14_22 
REMARK    7  A    between atoms: C14_22  and  C15_23 
REMARK    8  A    between atoms: N6_24  and  N7_26 
REMARK    9  A    between atoms: C16_31  and  S1_32 
REMARK   10  A    between atoms: S1_32  and  N9_33 
ROOT
HETATM    1  N1  UNL     1       1.676  -0.787   0.314  1.00  0.00    -0.355 N 
HETATM    2  C3  UNL     1       2.884  -0.142   0.074  1.00  0.00     0.100 A 
HETATM    3  C4  UNL     1       3.045   1.039  -0.572  1.00  0.00    -0.024 A 
HETATM    4  C7  UNL     1       1.933   1.642  -1.022  1.00  0.00     0.024 A 
HETATM    5  C8  UNL     1       0.713   1.072  -0.818  1.00  0.00    -0.007 A 
HETATM    6  C9  UNL     1      -0.410   1.672  -1.366  1.00  0.00     0.014 A 
HETATM    7  C10 UNL     1      -1.621   1.117  -1.257  1.00  0.00     0.014 A 
HETATM    8  C11 UNL     1      -1.763  -0.097  -0.564  1.00  0.00    -0.005 A 
HETATM    9  C16 UNL     1      -0.681  -0.745   0.019  1.00  0.00     0.117 A 
HETATM   10  C17 UNL     1       0.587  -0.151  -0.136  1.00  0.00     0.069 A 
ENDROOT
BRANCH   8  11
HETATM   11  C12 UNL     1      -3.083  -0.673  -0.642  1.00  0.00     0.087 C 
BRANCH  11  12
HETATM   12  C13 UNL     1      -4.185  -0.443   0.248  1.00  0.00     0.242 C 
HETATM   13  O1  UNL     1      -4.911  -1.406   0.662  1.00  0.00    -0.269 OA
HETATM   14  N5  UNL     1      -4.574   0.855   0.741  1.00  0.00    -0.353 N 
ATOM     15  H5  UNL     1      -4.032   1.679   0.479  1.00  0.00     0.163 HD
BRANCH  14  16
HETATM   16  C14 UNL     1      -5.746   1.001   1.619  1.00  0.00     0.169 C 
BRANCH  16  17
HETATM   17  C15 UNL     1      -6.951   0.543   0.856  1.00  0.00     0.101 C 
HETATM   18  N6  UNL     1      -7.317   1.203  -0.194  1.00  0.00    -0.300 N 
ATOM     19  H6  UNL     1      -8.136   0.895  -0.719  1.00  0.00     0.187 HD
BRANCH  18  20
HETATM   20  N7  UNL     1      -6.607   2.337  -0.626  1.00  0.00    -0.250 N 
HETATM   21  N8  UNL     1      -6.392   2.632  -1.833  1.00  0.00    -0.331 N 
ATOM     22  H82 UNL     1      -6.767   1.992  -2.533  1.00  0.00     0.178 HD
ATOM     23  H81 UNL     1      -5.877   3.455  -2.146  1.00  0.00     0.178 HD
ATOM     24  H7  UNL     1      -6.240   2.966   0.088  1.00  0.00     0.207 HD
ENDBRANCH  18  20
ENDBRANCH  16  17
ENDBRANCH  14  16
ENDBRANCH  11  12
ENDBRANCH   8  11
BRANCH   9  25
HETATM   25  S1  UNL     1      -0.820  -1.938   1.226  1.00  0.00     0.259 S 
HETATM   26  O2  UNL     1      -0.256  -1.521   2.647  1.00  0.00    -0.201 OA
HETATM   27  O3  UNL     1      -2.164  -1.453   1.873  1.00  0.00    -0.201 OA
BRANCH  25  28
HETATM   28  N9  UNL     1      -1.211  -3.510   0.991  1.00  0.00    -0.324 N 
ATOM     29  H92 UNL     1      -1.385  -3.784   0.024  1.00  0.00     0.169 HD
ATOM     30  H91 UNL     1      -1.294  -4.225   1.714  1.00  0.00     0.169 HD
ENDBRANCH  25  28
ENDBRANCH   9  25
BRANCH   1  31
HETATM   31  C2  UNL     1       1.679  -2.142   0.720  1.00  0.00     0.124 C 
HETATM   32  C1  UNL     1       2.003  -3.066  -0.519  1.00  0.00     0.027 C 
ENDBRANCH   1  31
BRANCH   3  33
HETATM   33  C5  UNL     1       4.380   1.626  -0.766  1.00  0.00     0.162 C 
BRANCH  33  34
HETATM   34  N2  UNL     1       5.371   0.647  -0.302  1.00  0.00    -0.363 N 
HETATM   35  C6  UNL     1       6.480   1.015   0.234  1.00  0.00     0.197 C 
HETATM   36  N3  UNL     1       6.804   2.365   0.406  1.00  0.00    -0.067 NA
HETATM   37  N4  UNL     1       7.420   0.041   0.672  1.00  0.00    -0.067 NA
ATOM     38  H2  UNL     1       5.175  -0.348  -0.407  1.00  0.00     0.162 HD
ENDBRANCH  33  34
ENDBRANCH   3  33
TORSDOF 10
