REMARK  10 active torsions:
REMARK  status: ('A' for Active; 'I' for Inactive)
REMARK    1  A    between atoms: C6_7  and  C7_8 
REMARK    2  A    between atoms: C7_8  and  N2_9 
REMARK       I    between atoms: C8_11  and  N3_12 
REMARK       I    between atoms: C8_11  and  N4_21 
REMARK    3  A    between atoms: N3_12  and  C9_14 
REMARK    4  A    between atoms: C9_14  and  C10_15 
REMARK    5  A    between atoms: C10_15  and  O1_16 
REMARK    6  A    between atoms: O1_16  and  C11_17 
REMARK    7  A    between atoms: C11_17  and  C12_18 
REMARK    8  A    between atoms: C12_18  and  O2_19 
REMARK    9  A    between atoms: N4_21  and  C13_23 
REMARK   10  A    between atoms: C13_23  and  C14_24 
REMARK       I    between atoms: C14_24  and  N5_26 
ROOT
HETATM    1  N2  UNL     1       0.140   0.748  -0.767  1.00  0.00    -0.200 N 
ATOM      2  H2  UNL     1      -0.064   1.128  -1.691  1.00  0.00     0.183 HD
HETATM    3  C8  UNL     1       1.358   0.833  -0.370  1.00  0.00     0.674 C 
HETATM    4  N3  UNL     1       1.807   0.354   0.889  1.00  0.00    -0.224 N 
ATOM      5  H3  UNL     1       1.611   0.876   1.743  1.00  0.00     0.177 HD
HETATM    6  N4  UNL     1       2.303   1.438  -1.235  1.00  0.00    -0.217 N 
ATOM      7  H4  UNL     1       2.296   1.193  -2.225  1.00  0.00     0.178 HD
ENDROOT
BRANCH   1   8
HETATM    8  C7  UNL     1      -0.941   0.190  -0.069  1.00  0.00     0.136 C 
BRANCH   8   9
HETATM    9  C6  UNL     1      -2.002  -0.373  -0.905  1.00  0.00     0.057 A 
HETATM   10  N1  UNL     1      -2.019  -0.373  -2.237  1.00  0.00    -0.360 N 
HETATM   11  C1  UNL     1      -0.932   0.205  -3.046  1.00  0.00     0.156 C 
HETATM   12  C2  UNL     1      -3.083  -0.930  -2.882  1.00  0.00     0.091 A 
HETATM   13  C3  UNL     1      -4.158  -1.500  -2.251  1.00  0.00     0.026 A 
HETATM   14  C4  UNL     1      -4.151  -1.505  -0.895  1.00  0.00    -0.022 A 
HETATM   15  C5  UNL     1      -3.087  -0.949  -0.240  1.00  0.00    -0.020 A 
HETATM   16  C20 UNL     1      -5.239  -2.082  -0.061  1.00  0.00     0.275 C 
HETATM   17  C16 UNL     1      -3.163  -1.010   1.251  1.00  0.00     0.069 C 
HETATM   18  C17 UNL     1      -4.515  -0.544   1.656  1.00  0.00     0.241 C 
HETATM   19  N8  UNL     1      -5.603  -1.103   0.932  1.00  0.00    -0.071 N 
HETATM   20  C18 UNL     1      -6.564  -1.762   1.831  1.00  0.00     0.272 C 
HETATM   21  C19 UNL     1      -6.345  -0.054   0.252  1.00  0.00     0.272 C 
ENDBRANCH   8   9
ENDBRANCH   1   8
BRANCH   4  22
HETATM   22  C9  UNL     1       2.561  -0.911   0.939  1.00  0.00     0.164 C 
BRANCH  22  23
HETATM   23  C10 UNL     1       2.944  -1.246   2.343  1.00  0.00     0.188 C 
BRANCH  23  24
HETATM   24  O1  UNL     1       3.647  -2.434   2.391  1.00  0.00    -0.387 OA
BRANCH  24  25
HETATM   25  C11 UNL     1       4.825  -2.449   1.672  1.00  0.00     0.193 C 
BRANCH  25  26
HETATM   26  C12 UNL     1       5.467  -3.833   1.860  1.00  0.00     0.190 C 
BRANCH  26  27
HETATM   27  O2  UNL     1       5.740  -4.093   3.184  1.00  0.00    -0.399 OA
ATOM     28  H2  UNL     1       6.137  -4.948   3.300  1.00  0.00     0.209 HD
ENDBRANCH  26  27
ENDBRANCH  25  26
ENDBRANCH  24  25
ENDBRANCH  23  24
ENDBRANCH  22  23
ENDBRANCH   4  22
BRANCH   6  29
HETATM   29  C13 UNL     1       3.272   2.389  -0.757  1.00  0.00     0.241 C 
BRANCH  29  30
HETATM   30  C14 UNL     1       4.152   2.885  -1.843  1.00  0.00     0.241 C 
HETATM   31  O3  UNL     1       3.999   2.468  -3.021  1.00  0.00    -0.271 OA
HETATM   32  N5  UNL     1       5.152   3.823  -1.530  1.00  0.00    -0.302 N 
HETATM   33  C15 UNL     1       4.972   5.086  -1.457  1.00  0.00     0.203 C 
ATOM     34  H5  UNL     1       6.091   3.469  -1.348  1.00  0.00     0.171 HD
HETATM   35  N6  UNL     1       6.048   5.926  -1.134  1.00  0.00    -0.066 NA
HETATM   36  N7  UNL     1       3.692   5.623  -1.701  1.00  0.00    -0.066 NA
ENDBRANCH  29  30
ENDBRANCH   6  29
TORSDOF 10
