REMARK  10 active torsions:
REMARK  status: ('A' for Active; 'I' for Inactive)
REMARK    1  A    between atoms: C2_2  and  N1_3 
REMARK       I    between atoms: C3_5  and  N3_7 
REMARK       I    between atoms: C4_9  and  N5_11 
REMARK    2  A    between atoms: N5_11  and  C5_13 
REMARK    3  A    between atoms: C5_13  and  C6_14 
REMARK    4  A    between atoms: C6_14  and  C7_15 
REMARK    5  A    between atoms: C7_15  and  C8_16 
REMARK       I    between atoms: C8_16  and  N6_18 
REMARK    6  A    between atoms: N6_18  and  S1_20 
REMARK    7  A    between atoms: S1_20  and  C9_22 
REMARK    8  A    between atoms: C12_25  and  C13_26 
REMARK    9  A    between atoms: C13_26  and  N7_27 
REMARK   10  A    between atoms: N9_33  and  O3_34 
ROOT
HETATM    1  C8  UNL     1      -0.734   1.405   0.146  1.00  0.00     0.229 C 
HETATM    2  O1  UNL     1      -0.637   1.774   1.333  1.00  0.00    -0.273 OA
HETATM    3  N6  UNL     1       0.034   0.297  -0.294  1.00  0.00    -0.271 N 
ATOM      4  H6  UNL     1      -0.050   0.001  -1.267  1.00  0.00     0.179 HD
ENDROOT
BRANCH   3   5
HETATM    5  S1  UNL     1       1.116  -0.583   0.754  1.00  0.00     0.171 S 
HETATM    6  O2  UNL     1       0.673  -2.020   0.935  1.00  0.00    -0.228 OA
BRANCH   5   7
HETATM    7  C9  UNL     1       2.773  -0.462   0.123  1.00  0.00     0.138 A 
HETATM    8  C10 UNL     1       3.625   0.555   0.501  1.00  0.00     0.045 A 
HETATM    9  C11 UNL     1       4.906   0.623  -0.004  1.00  0.00     0.034 A 
HETATM   10  C12 UNL     1       5.365  -0.331  -0.905  1.00  0.00     0.077 A 
HETATM   11  N9  UNL     1       4.499  -1.301  -1.242  1.00  0.00    -0.165 N 
HETATM   12  N10 UNL     1       3.266  -1.358  -0.748  1.00  0.00    -0.264 N 
ATOM     13  H10 UNL     1       2.662  -2.124  -1.047  1.00  0.00     0.190 HD
BRANCH  10  14
HETATM   14  C13 UNL     1       6.759  -0.248  -1.451  1.00  0.00     0.190 C 
BRANCH  14  15
HETATM   15  N7  UNL     1       7.619  -0.965  -0.536  1.00  0.00    -0.346 N 
HETATM   16  C14 UNL     1       8.257  -0.426   0.541  1.00  0.00     0.109 A 
HETATM   17  C15 UNL     1       8.970  -1.437   1.139  1.00  0.00     0.106 A 
HETATM   18  N8  UNL     1       8.776  -2.572   0.448  1.00  0.00    -0.361 N 
HETATM   19  C16 UNL     1       7.939  -2.265  -0.584  1.00  0.00     0.182 A 
ATOM     20  H8  UNL     1       9.177  -3.487   0.655  1.00  0.00     0.166 HD
ENDBRANCH  14  15
ENDBRANCH  10  14
BRANCH  11  21
HETATM   21  O3  UNL     1       4.906  -2.281  -2.141  1.00  0.00    -0.268 OA
ATOM     22  H3  UNL     1       4.294  -2.967  -2.379  1.00  0.00     0.247 HD
ENDBRANCH  11  21
ENDBRANCH   5   7
ENDBRANCH   3   5
BRANCH   1  23
HETATM   23  C7  UNL     1      -1.620   2.090  -0.800  1.00  0.00     0.105 C 
BRANCH  23  24
HETATM   24  C6  UNL     1      -2.446   3.127  -0.112  1.00  0.00     0.029 C 
BRANCH  24  25
HETATM   25  C5  UNL     1      -3.362   2.556   0.918  1.00  0.00     0.122 C 
BRANCH  25  26
HETATM   26  N5  UNL     1      -4.268   1.598   0.265  1.00  0.00    -0.364 N 
HETATM   27  C4  UNL     1      -5.223   0.979   1.102  1.00  0.00     0.190 C 
HETATM   28  N3  UNL     1      -5.525  -0.234   0.963  1.00  0.00    -0.305 N 
HETATM   29  N4  UNL     1      -5.845   1.757   2.113  1.00  0.00    -0.063 NA
HETATM   30  C3  UNL     1      -5.035  -1.170   0.039  1.00  0.00     0.190 C 
ATOM     31  H3  UNL     1      -6.226  -0.588   1.614  1.00  0.00     0.171 HD
HETATM   32  N1  UNL     1      -5.807  -2.057  -0.458  1.00  0.00    -0.365 N 
HETATM   33  N2  UNL     1      -3.678  -1.136  -0.348  1.00  0.00    -0.063 NA
ATOM     34  H1  UNL     1      -5.445  -2.735  -1.129  1.00  0.00     0.162 HD
ATOM     35  H5  UNL     1      -4.210   1.393  -0.733  1.00  0.00     0.162 HD
BRANCH  32  36
HETATM   36  C2  UNL     1      -7.192  -2.094  -0.065  1.00  0.00     0.118 C 
HETATM   37  C1  UNL     1      -8.018  -1.315  -1.057  1.00  0.00     0.026 C 
ENDBRANCH  32  36
ENDBRANCH  25  26
ENDBRANCH  24  25
ENDBRANCH  23  24
ENDBRANCH   1  23
TORSDOF 10
