REMARK  12 active torsions:
REMARK  status: ('A' for Active; 'I' for Inactive)
REMARK    1  A    between atoms: N1_4  and  C4_5 
REMARK    2  A    between atoms: C4_5  and  C5_6 
REMARK    3  A    between atoms: C9_10  and  C10_11 
REMARK    4  A    between atoms: C10_11  and  C11_12 
REMARK       I    between atoms: C11_12  and  N2_14 
REMARK    5  A    between atoms: N2_14  and  C12_16 
REMARK    6  A    between atoms: C12_16  and  C13_17 
REMARK    7  A    between atoms: C12_16  and  N3_21 
REMARK    8  A    between atoms: C13_17  and  C14_18 
REMARK    9  A    between atoms: C14_18  and  C15_19 
REMARK   10  A    between atoms: N3_21  and  N4_22 
REMARK   11  A    between atoms: N3_21  and  O3_25 
REMARK   12  A    between atoms: C19_30  and  C20_31 
REMARK       I    between atoms: C20_31  and  N5_33 
ROOT
HETATM    1  C5  UNL     1       0.635   1.130  -0.877  1.00  0.00    -0.040 A 
HETATM    2  C6  UNL     1       0.642   2.526  -0.737  1.00  0.00     0.009 A 
HETATM    3  C7  UNL     1      -0.361   3.184  -0.075  1.00  0.00     0.001 A 
HETATM    4  C8  UNL     1      -1.405   2.480   0.470  1.00  0.00     0.007 A 
HETATM    5  C9  UNL     1      -1.447   1.080   0.351  1.00  0.00    -0.049 A 
HETATM    6  C16 UNL     1      -0.416   0.452  -0.323  1.00  0.00     0.016 A 
ENDROOT
BRANCH   5   7
HETATM    7  C10 UNL     1      -2.612   0.395   0.945  1.00  0.00     0.141 C 
BRANCH   7   8
HETATM    8  C11 UNL     1      -3.658   0.031  -0.032  1.00  0.00     0.223 C 
HETATM    9  O1  UNL     1      -3.462   0.142  -1.272  1.00  0.00    -0.273 OA
HETATM   10  N2  UNL     1      -4.942  -0.459   0.371  1.00  0.00    -0.340 N 
ATOM     11  H2  UNL     1      -5.123  -0.539   1.372  1.00  0.00     0.164 HD
BRANCH  10  12
HETATM   12  C12 UNL     1      -5.982  -0.842  -0.517  1.00  0.00     0.208 C 
BRANCH  12  13
HETATM   13  C13 UNL     1      -7.203   0.008  -0.630  1.00  0.00     0.052 C 
BRANCH  13  14
HETATM   14  C14 UNL     1      -7.046   1.411  -1.061  1.00  0.00     0.073 C 
BRANCH  14  15
HETATM   15  C15 UNL     1      -6.381   2.334  -0.136  1.00  0.00     0.231 C 
HETATM   16  O2  UNL     1      -6.223   2.106   1.036  1.00  0.00    -0.307 OA
ENDBRANCH  14  15
ENDBRANCH  13  14
ENDBRANCH  12  13
BRANCH  12  17
HETATM   17  N3  UNL     1      -6.467  -2.201  -0.216  1.00  0.00    -0.090 NA
BRANCH  17  18
HETATM   18  N4  UNL     1      -7.018  -2.287   1.064  1.00  0.00    -0.339 NA
ATOM     19  H42 UNL     1      -6.268  -2.105   1.731  1.00  0.00     0.173 HD
ATOM     20  H41 UNL     1      -7.354  -3.227   1.272  1.00  0.00     0.173 HD
ENDBRANCH  17  18
BRANCH  17  21
HETATM   21  O3  UNL     1      -7.461  -2.443  -1.101  1.00  0.00    -0.292 OA
ATOM     22  H3  UNL     1      -7.774  -3.319  -0.907  1.00  0.00     0.239 HD
ENDBRANCH  17  21
ENDBRANCH  12  17
ENDBRANCH  10  12
ENDBRANCH   7   8
ENDBRANCH   5   7
BRANCH   1  23
HETATM   23  C4  UNL     1       1.731   0.537  -1.628  1.00  0.00     0.166 C 
BRANCH  23  24
HETATM   24  N1  UNL     1       2.958   0.307  -0.900  1.00  0.00    -0.362 N 
HETATM   25  C3  UNL     1       3.256  -0.827  -0.276  1.00  0.00     0.098 A 
HETATM   26  C2  UNL     1       4.448  -1.060   0.418  1.00  0.00    -0.031 A 
HETATM   27  C1  UNL     1       4.664  -2.372   1.086  1.00  0.00     0.050 C 
HETATM   28  C19 UNL     1       5.393  -0.064   0.474  1.00  0.00     0.041 A 
HETATM   29  C18 UNL     1       5.074   1.116  -0.176  1.00  0.00     0.035 A 
HETATM   30  C17 UNL     1       3.892   1.306  -0.848  1.00  0.00     0.092 A 
BRANCH  28  31
HETATM   31  C20 UNL     1       6.692  -0.222   1.114  1.00  0.00     0.258 C 
HETATM   32  O4  UNL     1       7.411   0.770   1.430  1.00  0.00    -0.267 OA
HETATM   33  N5  UNL     1       7.226  -1.523   1.409  1.00  0.00    -0.299 N 
HETATM   34  C21 UNL     1       8.363  -1.815   0.864  1.00  0.00     0.203 C 
ATOM     35  H5  UNL     1       6.736  -2.181   2.015  1.00  0.00     0.171 HD
HETATM   36  N6  UNL     1       8.981  -3.055   1.078  1.00  0.00    -0.066 NA
HETATM   37  N7  UNL     1       8.974  -0.808   0.026  1.00  0.00    -0.066 NA
ENDBRANCH  28  31
ENDBRANCH  23  24
ENDBRANCH   1  23
TORSDOF 12
