REMARK  6 active torsions:
REMARK  status: ('A' for Active; 'I' for Inactive)
REMARK       I    between atoms: C1_2  and  N1_3 
REMARK    1  A    between atoms: C1_2  and  C15_29 
REMARK    2  A    between atoms: N1_3  and  C2_5 
REMARK    3  A    between atoms: N2_7  and  C4_8 
REMARK    4  A    between atoms: C7_11  and  N3_12 
REMARK       I    between atoms: N3_12  and  C8_14 
REMARK    5  A    between atoms: C8_14  and  C9_16 
REMARK    6  A    between atoms: C17_33  and  C18_34 
ROOT
HETATM    1  C2  UNL     1       2.834   0.432  -1.025  1.00  0.00     0.304 C 
HETATM    2  C3  UNL     1       1.736  -0.216  -0.242  1.00  0.00     0.178 C 
HETATM    3  N2  UNL     1       0.800  -0.880  -1.119  1.00  0.00    -0.370 N 
HETATM    4  C13 UNL     1       1.249  -1.834  -2.095  1.00  0.00     0.151 C 
HETATM    5  C14 UNL     1       2.656  -1.448  -2.534  1.00  0.00     0.254 C 
HETATM    6  N5  UNL     1       2.849  -0.030  -2.423  1.00  0.00    -0.051 N 
ATOM      7  H51 UNL     1       3.703   0.263  -2.898  1.00  0.00     0.279 HD
ATOM      8  H52 UNL     1       2.167   0.479  -2.985  1.00  0.00     0.279 HD
ENDROOT
BRANCH   3   9
HETATM    9  C4  UNL     1      -0.596  -0.534  -0.939  1.00  0.00     0.074 A 
HETATM   10  C5  UNL     1      -1.175   0.674  -1.227  1.00  0.00     0.040 A 
HETATM   11  C6  UNL     1      -2.485   0.809  -0.991  1.00  0.00     0.040 A 
HETATM   12  C7  UNL     1      -3.165  -0.255  -0.488  1.00  0.00     0.078 A 
HETATM   13  S1  UNL     1      -1.904  -1.447  -0.352  1.00  0.00    -0.055 SA
BRANCH  12  14
HETATM   14  N3  UNL     1      -4.532  -0.430  -0.096  1.00  0.00    -0.319 N 
HETATM   15  C8  UNL     1      -5.441   0.646  -0.050  1.00  0.00     0.253 C 
HETATM   16  O2  UNL     1      -5.105   1.834  -0.330  1.00  0.00    -0.271 OA
ATOM     17  H3  UNL     1      -4.858  -1.363   0.158  1.00  0.00     0.169 HD
BRANCH  15  18
HETATM   18  C9  UNL     1      -6.859   0.477   0.331  1.00  0.00     0.277 C 
HETATM   19  C10 UNL     1      -7.113  -0.793   1.048  1.00  0.00     0.044 C 
HETATM   20  C11 UNL     1      -8.321  -0.390   1.906  1.00  0.00     0.030 C 
HETATM   21  C12 UNL     1      -7.838   0.981   2.370  1.00  0.00     0.233 C 
HETATM   22  N4  UNL     1      -7.255   1.591   1.183  1.00  0.00    -0.062 N 
ATOM     23  H42 UNL     1      -6.497   2.243   1.386  1.00  0.00     0.278 HD
ATOM     24  H41 UNL     1      -7.869   2.262   0.722  1.00  0.00     0.278 HD
ENDBRANCH  15  18
ENDBRANCH  12  14
ENDBRANCH   3   9
BRANCH   1  25
HETATM   25  N1  UNL     1       4.075   0.187  -0.376  1.00  0.00    -0.327 N 
HETATM   26  C1  UNL     1       5.295   0.811  -0.680  1.00  0.00     0.261 C 
HETATM   27  O1  UNL     1       5.350   1.635  -1.620  1.00  0.00    -0.267 OA
ATOM     28  H1  UNL     1       4.079  -0.502   0.376  1.00  0.00     0.165 HD
BRANCH  26  29
HETATM   29  C15 UNL     1       6.520   0.490   0.104  1.00  0.00     0.090 A 
HETATM   30  C16 UNL     1       6.589  -0.276   1.224  1.00  0.00     0.113 A 
HETATM   31  N6  UNL     1       7.737  -0.431   1.796  1.00  0.00    -0.355 N 
HETATM   32  C17 UNL     1       8.809   0.156   1.274  1.00  0.00     0.159 A 
ATOM     33  H6  UNL     1       7.820  -0.998   2.640  1.00  0.00     0.166 HD
HETATM   34  S2  UNL     1       8.143   0.960  -0.090  1.00  0.00    -0.061 SA
BRANCH  32  35
HETATM   35  C18 UNL     1      10.227   0.094   1.788  1.00  0.00     0.439 C 
HETATM   36  F1  UNL     1      10.289   0.695   3.021  1.00  0.00    -0.164 F 
HETATM   37  F2  UNL     1      11.013   0.768   0.897  1.00  0.00    -0.164 F 
HETATM   38  F3  UNL     1      10.561  -1.255   1.812  1.00  0.00    -0.164 F 
ENDBRANCH  32  35
ENDBRANCH  26  29
ENDBRANCH   1  25
TORSDOF 6
