REMARK  8 active torsions:
REMARK  status: ('A' for Active; 'I' for Inactive)
REMARK    1  A    between atoms: C8_8  and  N1_9 
REMARK    2  A    between atoms: N1_9  and  C9_11 
REMARK    3  A    between atoms: C9_11  and  C10_12 
REMARK    4  A    between atoms: C13_18  and  N2_19 
REMARK    5  A    between atoms: C13_18  and  C14_23 
REMARK    6  A    between atoms: C15_28  and  S1_29 
REMARK    7  A    between atoms: S1_29  and  C16_32 
REMARK    8  A    between atoms: C20_37  and  N5_38 
ROOT
HETATM    1  C9  UNL     1      -1.610   0.721  -0.763  1.00  0.00     0.153 C 
HETATM    2  C11 UNL     1      -0.696  -0.419  -1.204  1.00  0.00     0.045 C 
HETATM    3  C12 UNL     1       0.471  -0.710  -0.371  1.00  0.00     0.050 C 
HETATM    4  C13 UNL     1       1.726  -0.019  -0.862  1.00  0.00     0.189 C 
HETATM    5  C18 UNL     1       1.653   1.374  -0.282  1.00  0.00     0.049 C 
HETATM    6  C19 UNL     1       0.532   2.075  -1.022  1.00  0.00     0.038 C 
HETATM    7  C20 UNL     1      -0.809   1.959  -0.417  1.00  0.00     0.220 C 
ENDROOT
BRANCH   4   8
HETATM    8  N2  UNL     1       1.666   0.026  -2.334  1.00  0.00    -0.063 N 
ATOM      9  H23 UNL     1       1.530  -0.894  -2.754  1.00  0.00     0.275 HD
ATOM     10  H22 UNL     1       0.812   0.461  -2.683  1.00  0.00     0.275 HD
ATOM     11  H21 UNL     1       2.511   0.491  -2.665  1.00  0.00     0.275 HD
ENDBRANCH   4   8
BRANCH   4  12
HETATM   12  C14 UNL     1       2.966  -0.721  -0.517  1.00  0.00     0.177 A 
HETATM   13  N3  UNL     1       2.977  -1.893   0.200  1.00  0.00    -0.279 N 
HETATM   14  N4  UNL     1       4.233  -2.286   0.351  1.00  0.00    -0.268 N 
ATOM     15  H3  UNL     1       2.155  -2.380   0.557  1.00  0.00     0.189 HD
HETATM   16  C15 UNL     1       4.986  -1.361  -0.271  1.00  0.00     0.262 A 
ATOM     17  H4  UNL     1       4.562  -3.119   0.839  1.00  0.00     0.190 HD
HETATM   18  O3  UNL     1       4.206  -0.467  -0.763  1.00  0.00    -0.266 OA
BRANCH  16  19
HETATM   19  S1  UNL     1       6.740  -1.334  -0.415  1.00  0.00     0.215 S 
HETATM   20  O1  UNL     1       7.202  -2.766  -0.460  1.00  0.00    -0.219 OA
HETATM   21  O2  UNL     1       7.134  -0.745  -1.760  1.00  0.00    -0.219 OA
BRANCH  19  22
HETATM   22  C16 UNL     1       7.497  -0.467   0.910  1.00  0.00     0.145 C 
HETATM   23  C17 UNL     1       7.005   0.948   0.924  1.00  0.00     0.021 C 
ENDBRANCH  19  22
ENDBRANCH  16  19
ENDBRANCH   4  12
BRANCH   1  24
HETATM   24  N1  UNL     1      -2.398   0.411   0.331  1.00  0.00    -0.392 N 
ATOM     25  H1  UNL     1      -2.426   1.167   1.015  1.00  0.00     0.155 HD
BRANCH  24  26
HETATM   26  C8  UNL     1      -3.141  -0.655   0.712  1.00  0.00     0.135 C 
HETATM   27  C2  UNL     1      -3.767  -0.214   2.076  1.00  0.00    -0.063 C 
HETATM   28  C1  UNL     1      -3.468  -0.763   3.199  1.00  0.00     0.016 C 
HETATM   29  C3  UNL     1      -4.744   0.901   1.932  1.00  0.00     0.039 C 
HETATM   30  C4  UNL     1      -5.563   0.858   0.690  1.00  0.00     0.032 C 
HETATM   31  C5  UNL     1      -5.467  -0.517   0.092  1.00  0.00    -0.022 C 
HETATM   32  C6  UNL     1      -4.338  -1.204   0.079  1.00  0.00    -0.061 C 
HETATM   33  C7  UNL     1      -4.382  -2.575  -0.549  1.00  0.00     0.045 C 
ENDBRANCH  24  26
ENDBRANCH   1  24
BRANCH   1  34
HETATM   34  C10 UNL     1      -2.425   1.008  -1.992  1.00  0.00     0.414 C 
HETATM   35  F1  UNL     1      -1.560   1.367  -3.063  1.00  0.00    -0.168 F 
HETATM   36  F2  UNL     1      -3.090  -0.063  -2.535  1.00  0.00    -0.168 F 
HETATM   37  F3  UNL     1      -3.219   2.141  -1.857  1.00  0.00    -0.168 F 
ENDBRANCH   1  34
BRANCH   7  38
HETATM   38  N5  UNL     1      -0.720   2.239   0.980  1.00  0.00    -0.072 N 
ATOM     39  H53 UNL     1      -1.652   2.294   1.390  1.00  0.00     0.274 HD
ATOM     40  H52 UNL     1      -0.355   1.429   1.481  1.00  0.00     0.274 HD
ATOM     41  H51 UNL     1      -0.181   3.073   1.213  1.00  0.00     0.274 HD
ENDBRANCH   7  38
TORSDOF 8
