REMARK  5 active torsions:
REMARK  status: ('A' for Active; 'I' for Inactive)
REMARK    1  A    between atoms: C5_7  and  O1_8 
REMARK    2  A    between atoms: O1_8  and  C6_9 
REMARK    3  A    between atoms: C9_19  and  C10_20 
REMARK       I    between atoms: C10_20  and  N5_22 
REMARK    4  A    between atoms: N5_22  and  C11_24 
REMARK    5  A    between atoms: N7_33  and  C18_34 
ROOT
HETATM    1  N1  UNL     1       7.446   2.145  -0.370  1.00  0.00    -0.197 NA
HETATM    2  C1  UNL     1       7.400   1.102   0.161  1.00  0.00     0.069 C 
HETATM    3  C2  UNL     1       7.326  -0.201   0.829  1.00  0.00     0.156 C 
HETATM    4  C3  UNL     1       8.292  -1.163   0.126  1.00  0.00     0.192 C 
HETATM    5  F1  UNL     1       8.471  -2.264   0.921  1.00  0.00    -0.248 F 
HETATM    6  C4  UNL     1       7.153  -1.431  -0.864  1.00  0.00     0.072 C 
HETATM    7  C5  UNL     1       6.200  -1.071   0.283  1.00  0.00     0.155 C 
ENDROOT
BRANCH   7   8
HETATM    8  O1  UNL     1       5.057  -0.376  -0.126  1.00  0.00    -0.315 OA
BRANCH   8   9
HETATM    9  C6  UNL     1       3.820  -0.819   0.306  1.00  0.00     0.227 A 
HETATM   10  N2  UNL     1       3.656  -1.883   1.101  1.00  0.00    -0.306 N 
HETATM   11  C7  UNL     1       2.424  -2.264   1.487  1.00  0.00     0.133 A 
ATOM     12  H2  UNL     1       4.471  -2.409   1.417  1.00  0.00     0.171 HD
HETATM   13  N3  UNL     1       2.212  -3.280   2.250  1.00  0.00    -0.383 N 
HETATM   14  C8  UNL     1       1.297  -1.566   1.073  1.00  0.00     0.123 A 
ATOM     15  H32 UNL     1       3.040  -3.793   2.554  1.00  0.00     0.157 HD
ATOM     16  H31 UNL     1       1.278  -3.569   2.542  1.00  0.00     0.157 HD
HETATM   17  N4  UNL     1      -0.006  -1.713   1.278  1.00  0.00    -0.332 N 
HETATM   18  C21 UNL     1       1.477  -0.474   0.258  1.00  0.00     0.144 A 
HETATM   19  C9  UNL     1      -0.706  -0.737   0.614  1.00  0.00     0.179 A 
ATOM     20  H4  UNL     1      -0.427  -2.447   1.848  1.00  0.00     0.168 HD
HETATM   21  N7  UNL     1       0.220   0.001   0.007  1.00  0.00    -0.302 N 
HETATM   22  N8  UNL     1       2.730  -0.143  -0.094  1.00  0.00    -0.306 N 
ATOM     23  H8  UNL     1       2.862   0.667  -0.699  1.00  0.00     0.171 HD
BRANCH  19  24
HETATM   24  C10 UNL     1      -2.156  -0.614   0.634  1.00  0.00     0.286 C 
HETATM   25  O2  UNL     1      -2.810  -1.168   1.607  1.00  0.00    -0.264 OA
HETATM   26  N5  UNL     1      -2.949   0.046  -0.302  1.00  0.00    -0.350 N 
ATOM     27  H5  UNL     1      -2.504   0.497  -1.101  1.00  0.00     0.163 HD
BRANCH  26  28
HETATM   28  C11 UNL     1      -4.401   0.108  -0.167  1.00  0.00     0.085 C 
HETATM   29  C12 UNL     1      -4.832   1.558  -0.078  1.00  0.00     0.029 C 
HETATM   30  C13 UNL     1      -6.251   1.742  -0.573  1.00  0.00     0.061 C 
HETATM   31  C14 UNL     1      -7.092   0.518  -0.359  1.00  0.00     0.191 C 
HETATM   32  F2  UNL     1      -8.329   0.771  -0.952  1.00  0.00    -0.227 F 
HETATM   33  C15 UNL     1      -7.375   0.303   1.069  1.00  0.00     0.103 C 
HETATM   34  C16 UNL     1      -6.541  -0.724  -0.988  1.00  0.00     0.061 C 
HETATM   35  N6  UNL     1      -7.577   0.138   2.186  1.00  0.00    -0.194 NA
HETATM   36  C17 UNL     1      -5.099  -0.479  -1.376  1.00  0.00     0.029 C 
ENDBRANCH  26  28
ENDBRANCH  19  24
BRANCH  21  37
HETATM   37  C18 UNL     1       0.002   1.214  -0.783  1.00  0.00     0.171 A 
HETATM   38  C19 UNL     1       0.913   2.386  -0.500  1.00  0.00     0.113 A 
HETATM   39  C20 UNL     1      -0.542   2.422  -0.042  1.00  0.00     0.266 A 
HETATM   40  F3  UNL     1      -0.761   2.309   1.337  1.00  0.00    -0.204 F 
HETATM   41  F4  UNL     1      -1.373   3.283  -0.721  1.00  0.00    -0.204 F 
ENDBRANCH  21  37
ENDBRANCH   8   9
ENDBRANCH   7   8
TORSDOF 5
