REMARK  9 active torsions:
REMARK  status: ('A' for Active; 'I' for Inactive)
REMARK    1  A    between atoms: C2_2  and  N1_3 
REMARK    2  A    between atoms: C2_2  and  C20_37 
REMARK    3  A    between atoms: C5_8  and  N3_9 
REMARK    4  A    between atoms: N3_9  and  C6_11 
REMARK    5  A    between atoms: N4_14  and  C9_15 
REMARK    6  A    between atoms: C9_15  and  O1_16 
REMARK    7  A    between atoms: C9_15  and  C10_18 
REMARK    8  A    between atoms: C12_21  and  C13_22 
REMARK    9  A    between atoms: C16_29  and  C17_30 
ROOT
HETATM    1  N1  UNL     1      -4.915   0.796  -0.716  1.00  0.00    -0.291 N 
HETATM    2  C3  UNL     1      -3.931   1.637  -1.252  1.00  0.00     0.190 A 
HETATM    3  N2  UNL     1      -2.747   1.151  -1.084  1.00  0.00    -0.347 N 
ATOM      4  H2  UNL     1      -1.881   1.591  -1.395  1.00  0.00     0.167 HD
HETATM    5  C4  UNL     1      -2.830  -0.011  -0.444  1.00  0.00     0.106 A 
HETATM    6  C5  UNL     1      -1.818  -0.892  -0.037  1.00  0.00     0.076 A 
HETATM    7  C16 UNL     1      -2.242  -2.052   0.637  1.00  0.00     0.073 A 
HETATM    8  C18 UNL     1      -3.589  -2.202   0.826  1.00  0.00     0.108 A 
HETATM    9  N7  UNL     1      -4.534  -1.331   0.419  1.00  0.00    -0.349 N 
ATOM     10  H7  UNL     1      -5.519  -1.522   0.601  1.00  0.00     0.167 HD
HETATM   11  C19 UNL     1      -4.170  -0.207  -0.229  1.00  0.00     0.142 A 
ENDROOT
BRANCH   6  12
HETATM   12  N3  UNL     1      -0.607  -0.733  -0.220  1.00  0.00    -0.381 N 
ATOM     13  H3  UNL     1      -0.104  -1.524   0.182  1.00  0.00     0.160 HD
BRANCH  12  14
HETATM   14  C6  UNL     1       0.318   0.155  -0.787  1.00  0.00     0.112 C 
HETATM   15  C7  UNL     1       0.317   1.538  -0.262  1.00  0.00     0.057 C 
HETATM   16  C8  UNL     1       1.756   1.967  -0.132  1.00  0.00     0.278 C 
HETATM   17  N4  UNL     1       2.589   0.811  -0.412  1.00  0.00     0.125 N 
HETATM   18  C15 UNL     1       1.761  -0.317  -0.558  1.00  0.00     0.301 C 
BRANCH  17  19
HETATM   19  C9  UNL     1       3.543   0.772   0.648  1.00  0.00     0.408 C 
BRANCH  19  20
HETATM   20  O1  UNL     1       2.937   0.561   1.871  1.00  0.00    -0.363 OA
ATOM     21  H1  UNL     1       3.572   0.535   2.577  1.00  0.00     0.212 HD
ENDBRANCH  19  20
BRANCH  19  22
HETATM   22  C10 UNL     1       4.734  -0.137   0.426  1.00  0.00     0.075 A 
HETATM   23  C11 UNL     1       4.595  -1.409  -0.050  1.00  0.00     0.081 A 
HETATM   24  S1  UNL     1       6.223  -1.973  -0.056  1.00  0.00    -0.080 SA
HETATM   25  C12 UNL     1       6.973  -0.557   0.546  1.00  0.00     0.123 A 
HETATM   26  N5  UNL     1       5.961   0.249   0.713  1.00  0.00    -0.348 N 
ATOM     27  H5  UNL     1       6.122   1.191   1.071  1.00  0.00     0.166 HD
BRANCH  25  28
HETATM   28  C13 UNL     1       8.446  -0.339   0.811  1.00  0.00     0.288 C 
HETATM   29  C14 UNL     1       8.910   0.979   0.313  1.00  0.00     0.098 C 
HETATM   30  F1  UNL     1       8.577  -0.415   2.190  1.00  0.00    -0.199 F 
HETATM   31  F2  UNL     1       9.123  -1.411   0.248  1.00  0.00    -0.199 F 
ENDBRANCH  25  28
ENDBRANCH  19  22
ENDBRANCH  17  19
ENDBRANCH  12  14
ENDBRANCH   6  12
BRANCH   7  32
HETATM   32  C17 UNL     1      -1.327  -3.074   1.136  1.00  0.00     0.268 C 
HETATM   33  N6  UNL     1      -1.864  -4.315   1.661  1.00  0.00    -0.057 NA
HETATM   34  O2  UNL     1      -0.112  -2.883   1.107  1.00  0.00    -0.271 OA
ENDBRANCH   7  32
BRANCH   1  35
HETATM   35  C2  UNL     1      -6.284   1.135  -0.770  1.00  0.00     0.099 C 
HETATM   36  C1  UNL     1      -6.572   2.474  -0.051  1.00  0.00     0.073 C 
BRANCH  35  37
HETATM   37  C20 UNL     1      -7.391   0.199  -0.644  1.00  0.00     0.428 C 
HETATM   38  F3  UNL     1      -7.767  -0.146   0.644  1.00  0.00    -0.165 F 
HETATM   39  F4  UNL     1      -8.599   0.811  -1.135  1.00  0.00    -0.165 F 
HETATM   40  F5  UNL     1      -7.317  -0.937  -1.455  1.00  0.00    -0.165 F 
ENDBRANCH  35  37
ENDBRANCH   1  35
TORSDOF 9
