REMARK  9 active torsions:
REMARK  status: ('A' for Active; 'I' for Inactive)
REMARK    1  A    between atoms: C3_3  and  C4_4 
REMARK    2  A    between atoms: C4_4  and  O1_5 
REMARK    3  A    between atoms: C4_4  and  N1_7 
REMARK    4  A    between atoms: N1_7  and  C5_9 
REMARK    5  A    between atoms: C8_15  and  N4_16 
REMARK    6  A    between atoms: C11_19  and  C12_20 
REMARK    7  A    between atoms: C11_19  and  C13_22 
REMARK    8  A    between atoms: C16_33  and  C17_34 
REMARK    9  A    between atoms: C21_38  and  C22_39 
ROOT
HETATM    1  C4  UNL     1       0.239   2.176   0.842  1.00  0.00     0.155 C 
ENDROOT
BRANCH   1   2
HETATM    2  C3  UNL     1      -1.002   1.864   0.211  1.00  0.00     0.066 A 
HETATM    3  C2  UNL     1      -1.602   0.664   0.074  1.00  0.00    -0.013 A 
HETATM    4  C1  UNL     1      -1.141  -0.469   0.921  1.00  0.00     0.052 C 
HETATM    5  C23 UNL     1      -2.811   0.485  -0.613  1.00  0.00     0.095 A 
HETATM    6  N7  UNL     1      -3.422   1.564  -1.152  1.00  0.00    -0.194 N 
HETATM    7  C21 UNL     1      -3.581  -0.618  -0.937  1.00  0.00     0.061 A 
HETATM    8  N6  UNL     1      -2.869   2.764  -1.028  1.00  0.00    -0.265 N 
HETATM    9  N8  UNL     1      -4.503   1.203  -1.758  1.00  0.00    -0.282 N 
HETATM   10  C15 UNL     1      -1.732   2.935  -0.395  1.00  0.00     0.147 A 
ATOM     11  H6  UNL     1      -3.339   3.573  -1.434  1.00  0.00     0.190 HD
HETATM   12  N5  UNL     1      -1.204   4.247  -0.327  1.00  0.00    -0.080 NA
HETATM   13  C16 UNL     1      -4.682  -0.154  -1.673  1.00  0.00     0.049 A 
ATOM     14  H8  UNL     1      -5.139   1.841  -2.236  1.00  0.00     0.189 HD
BRANCH  13  15
HETATM   15  C17 UNL     1      -5.807  -0.896  -2.233  1.00  0.00    -0.006 C 
HETATM   16  C18 UNL     1      -5.539  -1.948  -3.250  1.00  0.00     0.021 C 
HETATM   17  C19 UNL     1      -6.835  -1.339  -1.200  1.00  0.00     0.021 C 
HETATM   18  C20 UNL     1      -6.629   0.161  -3.060  1.00  0.00     0.021 C 
ENDBRANCH  13  15
BRANCH   7  19
HETATM   19  C22 UNL     1      -3.282  -2.009  -0.696  1.00  0.00     0.391 C 
HETATM   20  F4  UNL     1      -4.323  -2.811  -0.261  1.00  0.00    -0.209 F 
HETATM   21  F5  UNL     1      -2.892  -2.654  -1.934  1.00  0.00    -0.209 F 
ENDBRANCH   7  19
ENDBRANCH   1   2
BRANCH   1  22
HETATM   22  O1  UNL     1       0.543   3.446   0.978  1.00  0.00    -0.345 OA
ATOM     23  H1  UNL     1       1.369   3.654   1.398  1.00  0.00     0.219 HD
ENDBRANCH   1  22
BRANCH   1  24
HETATM   24  N1  UNL     1       1.208   1.347   1.341  1.00  0.00    -0.332 N 
ATOM     25  H1  UNL     1       1.070   0.340   1.252  1.00  0.00     0.168 HD
BRANCH  24  26
HETATM   26  C5  UNL     1       2.430   1.819   1.994  1.00  0.00     0.097 A 
HETATM   27  C6  UNL     1       2.576   3.055   2.561  1.00  0.00     0.140 A 
HETATM   28  N2  UNL     1       3.817   3.086   3.150  1.00  0.00    -0.306 N 
HETATM   29  N3  UNL     1       4.414   1.948   2.968  1.00  0.00    -0.280 N 
ATOM     30  H2  UNL     1       4.209   3.882   3.653  1.00  0.00     0.186 HD
HETATM   31  C7  UNL     1       5.725   1.506   3.394  1.00  0.00     0.179 C 
HETATM   32  C8  UNL     1       3.578   1.114   2.241  1.00  0.00     0.148 A 
BRANCH  32  33
HETATM   33  N4  UNL     1       3.935  -0.170   1.804  1.00  0.00    -0.363 N 
HETATM   34  C9  UNL     1       3.352  -1.451   2.005  1.00  0.00     0.125 C 
HETATM   35  C10 UNL     1       3.684  -2.247   0.743  1.00  0.00     0.039 C 
HETATM   36  C11 UNL     1       4.635  -1.378  -0.013  1.00  0.00     0.062 C 
HETATM   37  C14 UNL     1       5.172  -0.415   0.979  1.00  0.00     0.142 C 
BRANCH  36  38
HETATM   38  C12 UNL     1       5.742  -2.213  -0.657  1.00  0.00     0.239 C 
HETATM   39  F1  UNL     1       6.621  -1.391  -1.344  1.00  0.00    -0.254 F 
ENDBRANCH  36  38
BRANCH  36  40
HETATM   40  C13 UNL     1       3.898  -0.597  -1.095  1.00  0.00     0.365 C 
HETATM   41  F2  UNL     1       3.327  -1.471  -1.983  1.00  0.00    -0.213 F 
HETATM   42  F3  UNL     1       4.705   0.330  -1.675  1.00  0.00    -0.213 F 
ENDBRANCH  36  40
ENDBRANCH  32  33
ENDBRANCH  24  26
ENDBRANCH   1  24
TORSDOF 9
