REMARK  11 active torsions:
REMARK  status: ('A' for Active; 'I' for Inactive)
REMARK    1  A    between atoms: C2_2  and  C3_3 
REMARK    2  A    between atoms: C3_3  and  C4_4 
REMARK    3  A    between atoms: C4_4  and  C5_5 
REMARK    4  A    between atoms: N1_9  and  C9_10 
REMARK    5  A    between atoms: C9_10  and  C10_11 
REMARK    6  A    between atoms: C10_11  and  C11_12 
REMARK    7  A    between atoms: C11_12  and  C12_13 
REMARK    8  A    between atoms: C12_13  and  C13_14 
REMARK    9  A    between atoms: C13_14  and  C14_15 
REMARK   10  A    between atoms: C14_15  and  C15_16 
REMARK   11  A    between atoms: C15_16  and  C16_17 
ROOT
HETATM    1  C5  UNL     1      -2.819  -0.227  -1.520  1.00  0.00     0.089 C 
HETATM    2  C6  UNL     1      -3.165   1.069  -2.179  1.00  0.00     0.031 C 
HETATM    3  C7  UNL     1      -2.534   2.028  -1.161  1.00  0.00     0.046 C 
HETATM    4  C8  UNL     1      -1.258   1.241  -0.918  1.00  0.00     0.064 C 
HETATM    5  N1  UNL     1      -1.419   0.012  -1.113  1.00  0.00    -0.365 N 
ENDROOT
BRANCH   5   6
HETATM    6  C9  UNL     1      -0.511  -1.079  -1.092  1.00  0.00     0.090 C 
BRANCH   6   7
HETATM    7  C10 UNL     1       0.624  -1.041  -0.219  1.00  0.00     0.013 C 
BRANCH   7   8
HETATM    8  C11 UNL     1       0.958  -0.214   0.706  1.00  0.00    -0.025 C 
BRANCH   8   9
HETATM    9  C12 UNL     1       2.227  -0.357   1.521  1.00  0.00     0.027 C 
BRANCH   9  10
HETATM   10  C13 UNL     1       3.045   0.913   1.300  1.00  0.00     0.004 C 
BRANCH  10  11
HETATM   11  C14 UNL     1       4.314   0.874   2.080  1.00  0.00     0.000 C 
BRANCH  11  12
HETATM   12  C15 UNL     1       5.313  -0.159   1.803  1.00  0.00    -0.000 C 
BRANCH  12  13
HETATM   13  C16 UNL     1       6.021  -0.204   0.517  1.00  0.00    -0.005 C 
HETATM   14  C17 UNL     1       5.164  -0.412  -0.674  1.00  0.00     0.005 C 
ENDBRANCH  12  13
ENDBRANCH  11  12
ENDBRANCH  10  11
ENDBRANCH   9  10
ENDBRANCH   8   9
ENDBRANCH   7   8
ENDBRANCH   6   7
ENDBRANCH   5   6
BRANCH   1  15
HETATM   15  C4  UNL     1      -3.667  -0.470  -0.324  1.00  0.00     0.029 C 
BRANCH  15  16
HETATM   16  C3  UNL     1      -5.115  -0.518  -0.713  1.00  0.00     0.028 C 
BRANCH  16  17
HETATM   17  C2  UNL     1      -5.979  -0.790   0.497  1.00  0.00    -0.037 C 
HETATM   18  C1  UNL     1      -6.731  -1.865   0.489  1.00  0.00     0.007 C 
ENDBRANCH  16  17
ENDBRANCH  15  16
ENDBRANCH   1  15
TORSDOF 11
