REMARK  10 active torsions:
REMARK  status: ('A' for Active; 'I' for Inactive)
REMARK    1  A    between atoms: C2_2  and  C3_3 
REMARK    2  A    between atoms: C3_3  and  C4_4 
REMARK    3  A    between atoms: C4_4  and  C6_6 
REMARK    4  A    between atoms: C6_6  and  C7_7 
REMARK    5  A    between atoms: C7_7  and  N1_8 
REMARK    6  A    between atoms: N2_11  and  C10_12 
REMARK    7  A    between atoms: C10_12  and  C11_13 
REMARK    8  A    between atoms: C11_13  and  C12_14 
REMARK    9  A    between atoms: C12_14  and  C13_15 
REMARK   10  A    between atoms: C13_15  and  C14_16 
ROOT
HETATM    1  N1  UNL     1       1.542  -0.826   0.611  1.00  0.00    -0.363 N 
HETATM    2  C8  UNL     1       0.959  -1.558  -0.356  1.00  0.00     0.107 A 
HETATM    3  C9  UNL     1      -0.378  -1.897  -0.315  1.00  0.00     0.107 A 
HETATM    4  N2  UNL     1      -1.163  -1.506   0.704  1.00  0.00    -0.364 N 
HETATM    5  C16 UNL     1      -0.585  -0.774   1.672  1.00  0.00     0.107 A 
HETATM    6  C17 UNL     1       0.752  -0.437   1.628  1.00  0.00     0.107 A 
ENDROOT
BRANCH   1   7
HETATM    7  C7  UNL     1       2.966  -0.468   0.562  1.00  0.00     0.132 C 
BRANCH   7   8
HETATM    8  C6  UNL     1       3.169   0.827  -0.147  1.00  0.00     0.058 C 
BRANCH   8   9
HETATM    9  C4  UNL     1       4.662   1.140  -0.147  1.00  0.00    -0.066 C 
HETATM   10  C5  UNL     1       4.967   2.262   0.460  1.00  0.00     0.019 C 
BRANCH   9  11
HETATM   11  C3  UNL     1       5.483   0.163  -0.822  1.00  0.00     0.005 C 
BRANCH  11  12
HETATM   12  C2  UNL     1       6.878   0.323  -1.105  1.00  0.00    -0.010 C 
HETATM   13  C1  UNL     1       7.764   1.255  -0.980  1.00  0.00     0.011 C 
ENDBRANCH  11  12
ENDBRANCH   9  11
ENDBRANCH   8   9
ENDBRANCH   7   8
ENDBRANCH   1   7
BRANCH   4  14
HETATM   14  C10 UNL     1      -2.579  -1.861   0.753  1.00  0.00     0.128 C 
BRANCH  14  15
HETATM   15  C11 UNL     1      -3.428  -0.801   0.064  1.00  0.00     0.020 C 
BRANCH  15  16
HETATM   16  C12 UNL     1      -4.867  -1.250   0.163  1.00  0.00     0.002 C 
BRANCH  16  17
HETATM   17  C13 UNL     1      -5.766  -0.265  -0.499  1.00  0.00    -0.000 C 
BRANCH  17  18
HETATM   18  C14 UNL     1      -5.650   1.074   0.146  1.00  0.00    -0.005 C 
HETATM   19  C15 UNL     1      -6.619   2.002  -0.601  1.00  0.00     0.005 C 
ENDBRANCH  17  18
ENDBRANCH  16  17
ENDBRANCH  15  16
ENDBRANCH  14  15
ENDBRANCH   4  14
TORSDOF 10
