REMARK  11 active torsions:
REMARK  status: ('A' for Active; 'I' for Inactive)
REMARK    1  A    between atoms: C2_2  and  C3_3 
REMARK    2  A    between atoms: C3_3  and  C4_4 
REMARK    3  A    between atoms: C4_4  and  C5_5 
REMARK    4  A    between atoms: C5_5  and  C6_6 
REMARK    5  A    between atoms: C5_5  and  C8_8 
REMARK    6  A    between atoms: N1_9  and  C9_10 
REMARK    7  A    between atoms: N1_9  and  C16_17 
REMARK    8  A    between atoms: C9_10  and  C10_11 
REMARK    9  A    between atoms: C11_12  and  C12_13 
REMARK   10  A    between atoms: C12_13  and  C13_14 
REMARK   11  A    between atoms: C16_17  and  C17_18 
ROOT
HETATM    1  C8  UNL     1      -0.915   0.095  -0.823  1.00  0.00     0.072 C 
HETATM    2  N1  UNL     1      -0.185  -0.926  -1.362  1.00  0.00    -0.362 N 
ENDROOT
BRANCH   2   3
HETATM    3  C9  UNL     1       0.800  -0.534  -2.358  1.00  0.00     0.220 C 
BRANCH   3   4
HETATM    4  C10 UNL     1       1.827   0.225  -1.638  1.00  0.00    -0.086 C 
HETATM    5  C11 UNL     1       2.658   0.866  -1.040  1.00  0.00    -0.104 C 
BRANCH   5   6
HETATM    6  C12 UNL     1       3.648   1.654  -0.298  1.00  0.00     0.098 C 
BRANCH   6   7
HETATM    7  C13 UNL     1       4.587   0.703   0.413  1.00  0.00    -0.003 A 
HETATM    8  C14 UNL     1       5.667   1.374   1.223  1.00  0.00     0.006 A 
HETATM    9  C15 UNL     1       4.518   0.669   1.906  1.00  0.00     0.006 A 
ENDBRANCH   6   7
ENDBRANCH   5   6
ENDBRANCH   3   4
ENDBRANCH   2   3
BRANCH   2  10
HETATM   10  C16 UNL     1      -0.122  -2.250  -0.974  1.00  0.00     0.064 C 
BRANCH  10  11
HETATM   11  C17 UNL     1       0.501  -2.607   0.335  1.00  0.00     0.040 C 
HETATM   12  C18 UNL     1       0.412  -4.136   0.452  1.00  0.00     0.010 C 
ENDBRANCH  10  11
ENDBRANCH   2  10
BRANCH   1  13
HETATM   13  C5  UNL     1      -1.981  -0.114   0.190  1.00  0.00     0.046 C 
BRANCH  13  14
HETATM   14  C4  UNL     1      -2.615   1.213   0.620  1.00  0.00     0.017 C 
BRANCH  14  15
HETATM   15  C3  UNL     1      -3.437   1.848  -0.469  1.00  0.00     0.027 C 
BRANCH  15  16
HETATM   16  C2  UNL     1      -3.992   3.107   0.091  1.00  0.00    -0.037 C 
HETATM   17  C1  UNL     1      -3.683   4.252  -0.486  1.00  0.00     0.007 C 
ENDBRANCH  15  16
ENDBRANCH  14  15
ENDBRANCH  13  14
BRANCH  13  18
HETATM   18  C6  UNL     1      -3.095  -0.994  -0.165  1.00  0.00    -0.027 C 
HETATM   19  C7  UNL     1      -3.429  -2.081   0.544  1.00  0.00     0.007 C 
ENDBRANCH  13  18
ENDBRANCH   1  13
TORSDOF 11
