REMARK  10 active torsions:
REMARK  status: ('A' for Active; 'I' for Inactive)
REMARK    1  A    between atoms: C2_2  and  C3_3 
REMARK    2  A    between atoms: C3_3  and  N1_4 
REMARK    3  A    between atoms: N1_4  and  C4_5 
REMARK    4  A    between atoms: N1_4  and  C10_11 
REMARK    5  A    between atoms: C4_5  and  C5_6 
REMARK    6  A    between atoms: C5_6  and  C6_7 
REMARK    7  A    between atoms: C6_7  and  C7_8 
REMARK    8  A    between atoms: C7_8  and  C8_9 
REMARK    9  A    between atoms: C10_11  and  C12_13 
REMARK   10  A    between atoms: N2_15  and  C15_17 
ROOT
HETATM    1  N1  UNL     1       0.274  -1.573  -0.205  1.00  0.00     0.096 N 
ENDROOT
BRANCH   1   2
HETATM    2  C3  UNL     1       0.592  -2.995  -0.016  1.00  0.00     0.299 C 
BRANCH   2   3
HETATM    3  C2  UNL     1      -0.392  -3.902  -0.652  1.00  0.00    -0.007 C 
HETATM    4  C1  UNL     1      -1.103  -4.814   0.016  1.00  0.00     0.008 C 
ENDBRANCH   2   3
ENDBRANCH   1   2
BRANCH   1   5
HETATM    5  C4  UNL     1       1.307  -0.776   0.419  1.00  0.00     0.273 C 
BRANCH   5   6
HETATM    6  C5  UNL     1       2.642  -0.844  -0.266  1.00  0.00     0.030 C 
BRANCH   6   7
HETATM    7  C6  UNL     1       3.675   0.006   0.433  1.00  0.00     0.002 C 
BRANCH   7   8
HETATM    8  C7  UNL     1       3.319   1.445   0.511  1.00  0.00    -0.000 C 
BRANCH   8   9
HETATM    9  C8  UNL     1       3.134   2.106  -0.838  1.00  0.00    -0.005 C 
HETATM   10  C9  UNL     1       4.388   2.046  -1.674  1.00  0.00     0.005 C 
ENDBRANCH   8   9
ENDBRANCH   7   8
ENDBRANCH   6   7
ENDBRANCH   5   6
ENDBRANCH   1   5
BRANCH   1  11
HETATM   11  C10 UNL     1      -1.038  -1.306   0.272  1.00  0.00     0.226 C 
HETATM   12  C11 UNL     1      -1.223  -1.435   1.766  1.00  0.00     0.043 C 
BRANCH  11  13
HETATM   13  C12 UNL     1      -1.710  -0.178  -0.363  1.00  0.00     0.072 C 
HETATM   14  C13 UNL     1      -1.237   1.214  -0.339  1.00  0.00     0.251 C 
HETATM   15  N2  UNL     1      -2.662   1.620  -0.443  1.00  0.00    -0.051 N 
HETATM   16  C14 UNL     1      -3.202   1.532  -1.764  1.00  0.00     0.278 C 
HETATM   17  C17 UNL     1      -2.918   0.404   0.356  1.00  0.00     0.251 C 
BRANCH  15  18
HETATM   18  C15 UNL     1      -2.972   2.815   0.241  1.00  0.00     0.192 C 
HETATM   19  C16 UNL     1      -4.240   3.068   0.539  1.00  0.00     0.037 C 
ENDBRANCH  15  18
ENDBRANCH  11  13
ENDBRANCH   1  11
TORSDOF 10
