REMARK  6 active torsions:
REMARK  status: ('A' for Active; 'I' for Inactive)
REMARK    1  A    between atoms: C2_2  and  C3_3 
REMARK    2  A    between atoms: C3_3  and  C4_4 
REMARK    3  A    between atoms: C4_4  and  C5_5 
REMARK    4  A    between atoms: C5_5  and  O1_6 
REMARK    5  A    between atoms: O1_6  and  N1_7 
REMARK    6  A    between atoms: C17_20  and  O2_21 
ROOT
HETATM    1  N1  UNL     1       2.293  -0.678  -0.717  1.00  0.00    -0.275 N 
ATOM      2  H1  UNL     1       2.062  -1.625  -1.017  1.00  0.00     0.193 HD
HETATM    3  C6  UNL     1       1.336   0.069  -0.187  1.00  0.00     0.014 C 
HETATM    4  C7  UNL     1       1.847   1.386   0.181  1.00  0.00     0.055 C 
HETATM    5  C8  UNL     1       0.911   2.530   0.101  1.00  0.00     0.010 C 
HETATM    6  C9  UNL     1      -0.055   2.264  -1.052  1.00  0.00     0.034 C 
HETATM    7  C10 UNL     1      -1.180   1.389  -0.575  1.00  0.00    -0.076 C 
HETATM    8  C11 UNL     1      -1.162   0.130  -0.181  1.00  0.00    -0.064 C 
HETATM    9  C12 UNL     1       0.093  -0.695  -0.146  1.00  0.00     0.089 C 
HETATM   10  C13 UNL     1      -2.348  -0.653   0.282  1.00  0.00    -0.015 C 
HETATM   11  C14 UNL     1      -2.163  -0.847   1.770  1.00  0.00     0.020 C 
HETATM   12  C15 UNL     1      -2.441  -1.998  -0.360  1.00  0.00     0.016 C 
HETATM   13  C16 UNL     1      -3.839  -2.417  -0.690  1.00  0.00     0.033 C 
HETATM   14  C17 UNL     1      -4.882  -1.921   0.252  1.00  0.00     0.126 C 
HETATM   15  C18 UNL     1      -4.875  -0.414   0.349  1.00  0.00    -0.017 C 
HETATM   16  C19 UNL     1      -5.910   0.057  -0.687  1.00  0.00     0.018 C 
HETATM   17  C20 UNL     1      -5.365   0.030   1.684  1.00  0.00     0.018 C 
HETATM   18  C21 UNL     1      -3.565   0.138  -0.069  1.00  0.00     0.008 C 
HETATM   19  C22 UNL     1      -3.403   1.602   0.364  1.00  0.00     0.011 C 
HETATM   20  C23 UNL     1      -2.421   2.190  -0.616  1.00  0.00     0.035 C 
ENDROOT
BRANCH   1  21
HETATM   21  O1  UNL     1       3.573  -0.238  -0.879  1.00  0.00    -0.281 OA
BRANCH  21  22
HETATM   22  C5  UNL     1       4.560  -0.504   0.099  1.00  0.00     0.201 C 
BRANCH  22  23
HETATM   23  C4  UNL     1       5.901   0.077  -0.293  1.00  0.00     0.029 C 
BRANCH  23  24
HETATM   24  C3  UNL     1       6.883  -0.256   0.808  1.00  0.00     0.002 C 
BRANCH  24  25
HETATM   25  C2  UNL     1       8.249   0.304   0.466  1.00  0.00    -0.004 C 
HETATM   26  C1  UNL     1       8.707  -0.312  -0.828  1.00  0.00     0.005 C 
ENDBRANCH  24  25
ENDBRANCH  23  24
ENDBRANCH  22  23
ENDBRANCH  21  22
ENDBRANCH   1  21
BRANCH  14  27
HETATM   27  O2  UNL     1      -6.122  -2.385  -0.242  1.00  0.00    -0.395 OA
ATOM     28  H2  UNL     1      -6.787  -2.069   0.358  1.00  0.00     0.210 HD
ENDBRANCH  14  27
TORSDOF 6
