REMARK  8 active torsions:
REMARK  status: ('A' for Active; 'I' for Inactive)
REMARK       I    between atoms: N1_3  and  C3_4 
REMARK    1  A    between atoms: C3_4  and  O2_6 
REMARK    2  A    between atoms: O2_6  and  C4_7 
REMARK    3  A    between atoms: C8_11  and  C9_12 
REMARK    4  A    between atoms: C9_12  and  C10_13 
REMARK    5  A    between atoms: C14_17  and  O3_18 
REMARK    6  A    between atoms: C14_17  and  C15_20 
REMARK    7  A    between atoms: C15_20  and  C16_21 
REMARK    8  A    between atoms: C17_22  and  C18_23 
ROOT
HETATM    1  C1  UNL     1      -0.328  -2.428  -0.168  1.00  0.00     0.041 C 
HETATM    2  C2  UNL     1      -0.292  -1.138  -0.244  1.00  0.00     0.042 C 
HETATM    3  N1  UNL     1      -1.213  -0.126   0.264  1.00  0.00    -0.290 N 
HETATM    4  C3  UNL     1      -2.567  -0.423   0.515  1.00  0.00     0.368 C 
HETATM    5  O1  UNL     1      -3.412   0.335   1.004  1.00  0.00    -0.238 OA
HETATM    6  C8  UNL     1      -0.478   1.087   0.430  1.00  0.00     0.098 C 
HETATM    7  C13 UNL     1       0.992   0.725   0.103  1.00  0.00     0.070 C 
HETATM    8  C14 UNL     1       0.810  -0.373  -0.885  1.00  0.00     0.104 C 
ENDROOT
BRANCH   8   9
HETATM    9  O3  UNL     1       0.446   0.048  -2.133  1.00  0.00    -0.383 OA
ATOM     10  H3  UNL     1       1.150   0.537  -2.543  1.00  0.00     0.211 HD
ENDBRANCH   8   9
BRANCH   8  11
HETATM   11  C15 UNL     1       2.053  -1.249  -1.050  1.00  0.00     0.071 C 
BRANCH  11  12
HETATM   12  C16 UNL     1       3.066  -0.420  -1.676  1.00  0.00    -0.027 C 
HETATM   13  C17 UNL     1       4.234  -0.063  -1.300  1.00  0.00    -0.026 C 
BRANCH  13  14
HETATM   14  C18 UNL     1       4.999  -0.341  -0.119  1.00  0.00     0.008 C 
HETATM   15  C19 UNL     1       5.312   0.940   0.680  1.00  0.00     0.008 C 
HETATM   16  C20 UNL     1       5.994   0.395   1.901  1.00  0.00     0.001 C 
HETATM   17  C21 UNL     1       5.566  -1.048   2.026  1.00  0.00     0.001 C 
HETATM   18  C22 UNL     1       4.454  -1.199   0.963  1.00  0.00     0.008 C 
ENDBRANCH  13  14
ENDBRANCH  11  12
ENDBRANCH   8  11
BRANCH   6  19
HETATM   19  C9  UNL     1      -0.776   2.285  -0.351  1.00  0.00     0.029 C 
BRANCH  19  20
HETATM   20  C10 UNL     1      -2.048   3.012  -0.282  1.00  0.00    -0.021 C 
HETATM   21  C11 UNL     1      -2.390   3.599   1.077  1.00  0.00     0.009 C 
HETATM   22  C12 UNL     1      -1.859   4.274  -1.178  1.00  0.00     0.009 C 
ENDBRANCH  19  20
ENDBRANCH   6  19
BRANCH   4  23
HETATM   23  O2  UNL     1      -3.082  -1.687   0.200  1.00  0.00    -0.294 OA
BRANCH  23  24
HETATM   24  C4  UNL     1      -4.420  -2.060   0.416  1.00  0.00     0.061 C 
HETATM   25  C5  UNL     1      -4.564  -3.496  -0.057  1.00  0.00     0.046 C 
HETATM   26  C6  UNL     1      -4.825  -1.999   1.869  1.00  0.00     0.046 C 
HETATM   27  C7  UNL     1      -5.401  -1.235  -0.381  1.00  0.00     0.046 C 
ENDBRANCH  23  24
ENDBRANCH   4  23
TORSDOF 8
