REMARK  11 active torsions:
REMARK  status: ('A' for Active; 'I' for Inactive)
REMARK    1  A    between atoms: N1_1  and  N2_4 
REMARK       I    between atoms: N2_4  and  C1_5 
REMARK    2  A    between atoms: C1_5  and  C2_7 
REMARK    3  A    between atoms: C2_7  and  O2_8 
REMARK    4  A    between atoms: C2_7  and  C3_10 
REMARK    5  A    between atoms: C6_15  and  N4_16 
REMARK    6  A    between atoms: C7_20  and  O4_21 
REMARK    7  A    between atoms: O4_21  and  C8_22 
REMARK    8  A    between atoms: C9_23  and  N5_24 
REMARK    9  A    between atoms: C11_32  and  C12_33 
REMARK   10  A    between atoms: C12_33  and  O5_34 
REMARK   11  A    between atoms: C12_33  and  O6_36 
ROOT
HETATM    1  C3  UNL     1       1.788  -0.517  -0.063  1.00  0.00     0.061 C 
HETATM    2  C4  UNL     1       2.489  -0.962  -1.067  1.00  0.00     0.164 C 
HETATM    3  N3  UNL     1       3.676  -0.442  -1.615  1.00  0.00    -0.074 NA
HETATM    4  O3  UNL     1       2.043  -2.147  -1.750  1.00  0.00    -0.335 OA
HETATM    5  C5  UNL     1       1.612  -3.186  -0.914  1.00  0.00     0.212 C 
HETATM    6  C6  UNL     1       0.530  -2.660  -0.032  1.00  0.00     0.241 C 
HETATM    7  C7  UNL     1       0.466  -1.228   0.272  1.00  0.00     0.194 C 
ENDROOT
BRANCH   7   8
HETATM    8  O4  UNL     1      -0.567  -0.642  -0.471  1.00  0.00    -0.369 OA
BRANCH   8   9
HETATM    9  C8  UNL     1      -1.573  -0.082   0.268  1.00  0.00     0.190 C 
HETATM   10  C9  UNL     1      -2.932  -0.716   0.000  1.00  0.00     0.240 C 
HETATM   11  C10 UNL     1      -3.916   0.430  -0.098  1.00  0.00     0.268 C 
HETATM   12  N6  UNL     1      -3.175   1.625   0.253  1.00  0.00    -0.062 N 
HETATM   13  C11 UNL     1      -1.826   1.329  -0.208  1.00  0.00     0.271 C 
ATOM     14  H62 UNL     1      -3.568   2.491  -0.115  1.00  0.00     0.277 HD
ATOM     15  H61 UNL     1      -3.239   1.890   1.236  1.00  0.00     0.277 HD
BRANCH  10  16
HETATM   16  N5  UNL     1      -3.352  -1.578   1.080  1.00  0.00    -0.071 N 
ATOM     17  H53 UNL     1      -2.647  -2.287   1.283  1.00  0.00     0.274 HD
ATOM     18  H52 UNL     1      -3.344  -1.083   1.972  1.00  0.00     0.274 HD
ATOM     19  H51 UNL     1      -4.262  -2.003   0.901  1.00  0.00     0.274 HD
ENDBRANCH  10  16
BRANCH  13  20
HETATM   20  C12 UNL     1      -1.809   1.429  -1.694  1.00  0.00     0.287 C 
BRANCH  20  21
HETATM   21  O5  UNL     1      -0.564   1.156  -2.244  1.00  0.00    -0.369 OA
ATOM     22  H5  UNL     1      -0.553   1.220  -3.192  1.00  0.00     0.212 HD
ENDBRANCH  20  21
BRANCH  20  23
HETATM   23  O6  UNL     1      -2.122   2.768  -2.044  1.00  0.00    -0.369 OA
ATOM     24  H6  UNL     1      -2.111   2.832  -2.992  1.00  0.00     0.212 HD
ENDBRANCH  20  23
ENDBRANCH  13  20
ENDBRANCH   8   9
ENDBRANCH   7   8
BRANCH   1  25
HETATM   25  C2  UNL     1       2.112   0.643   0.718  1.00  0.00     0.163 C 
BRANCH  25  26
HETATM   26  C1  UNL     1       3.138   1.645   0.740  1.00  0.00     0.368 C 
HETATM   27  N2  UNL     1       3.056   2.681   1.760  1.00  0.00    -0.286 NA
HETATM   28  O1  UNL     1       4.074   1.673  -0.056  1.00  0.00    -0.247 OA
BRANCH  27  29
HETATM   29  N1  UNL     1       2.993   3.569   2.629  1.00  0.00    -0.276 N 
ATOM     30  H12 UNL     1       3.323   2.992   1.855  1.00  0.00     0.191 HD
ATOM     31  H11 UNL     1       2.936   4.295   3.343  1.00  0.00     0.191 HD
ENDBRANCH  27  29
ENDBRANCH  25  26
BRANCH  25  32
HETATM   32  O2  UNL     1       1.244   0.899   1.707  1.00  0.00    -0.354 OA
ATOM     33  H2  UNL     1       0.564   0.235   1.692  1.00  0.00     0.218 HD
ENDBRANCH  25  32
ENDBRANCH   1  25
BRANCH   6  34
HETATM   34  N4  UNL     1       0.437  -3.508   1.168  1.00  0.00    -0.070 N 
ATOM     35  H43 UNL     1       0.307  -4.493   0.939  1.00  0.00     0.274 HD
ATOM     36  H42 UNL     1       1.329  -3.592   1.655  1.00  0.00     0.274 HD
ATOM     37  H41 UNL     1      -0.303  -3.148   1.771  1.00  0.00     0.274 HD
ENDBRANCH   6  34
TORSDOF 11
