REMARK  9 active torsions:
REMARK  status: ('A' for Active; 'I' for Inactive)
REMARK    1  A    between atoms: N1_1  and  C1_5 
REMARK    2  A    between atoms: C1_5  and  N2_6 
REMARK    3  A    between atoms: C1_5  and  C2_10 
REMARK    4  A    between atoms: C6_18  and  O3_19 
REMARK    5  A    between atoms: C6_18  and  N4_21 
REMARK    6  A    between atoms: N4_21  and  C7_23 
REMARK    7  A    between atoms: C9_25  and  O4_26 
REMARK    8  A    between atoms: C9_25  and  O5_28 
REMARK    9  A    between atoms: C10_31  and  C11_32 
ROOT
HETATM    1  C2  UNL     1       3.396   0.048  -0.378  1.00  0.00     0.143 A 
HETATM    2  N3  UNL     1       3.937   0.687  -1.352  1.00  0.00    -0.306 N 
ATOM      3  H3  UNL     1       4.947   0.828  -1.343  1.00  0.00     0.170 HD
HETATM    4  C3  UNL     1       3.186   1.207  -2.444  1.00  0.00     0.299 A 
HETATM    5  O1  UNL     1       3.683   1.831  -3.404  1.00  0.00    -0.264 OA
HETATM    6  C4  UNL     1       1.746   0.985  -2.417  1.00  0.00     0.270 A 
HETATM    7  O2  UNL     1       1.024   1.430  -3.370  1.00  0.00    -0.280 OA
HETATM    8  C5  UNL     1       1.113   0.263  -1.321  1.00  0.00     0.141 A 
HETATM    9  C6  UNL     1      -0.177   0.056  -1.284  1.00  0.00     0.172 C 
HETATM   10  N5  UNL     1       1.999  -0.205  -0.287  1.00  0.00    -0.336 N 
ATOM     11  H5  UNL     1       1.625  -0.718   0.511  1.00  0.00     0.167 HD
ENDROOT
BRANCH   9  12
HETATM   12  O3  UNL     1      -0.960   0.539  -2.318  1.00  0.00    -0.344 OA
ATOM     13  H3  UNL     1      -1.898   0.389  -2.291  1.00  0.00     0.219 HD
ENDBRANCH   9  12
BRANCH   9  14
HETATM   14  N4  UNL     1      -0.783  -0.650  -0.209  1.00  0.00    -0.336 N 
ATOM     15  H4  UNL     1      -0.328  -1.494   0.139  1.00  0.00     0.168 HD
BRANCH  14  16
HETATM   16  C7  UNL     1      -1.996  -0.230   0.402  1.00  0.00     0.055 C 
HETATM   17  C8  UNL     1      -2.494   0.983   0.569  1.00  0.00     0.101 C 
HETATM   18  C9  UNL     1      -3.802   0.907   1.270  1.00  0.00     0.302 C 
HETATM   19  O6  UNL     1      -3.892  -0.410   1.699  1.00  0.00    -0.307 OA
HETATM   20  C10 UNL     1      -2.981  -1.156   1.001  1.00  0.00     0.278 C 
BRANCH  18  21
HETATM   21  O4  UNL     1      -4.865   1.278   0.487  1.00  0.00    -0.340 OA
ATOM     22  H4  UNL     1      -5.701   1.229   0.935  1.00  0.00     0.216 HD
ENDBRANCH  18  21
BRANCH  18  23
HETATM   23  O5  UNL     1      -3.703   1.705   2.407  1.00  0.00    -0.340 OA
ATOM     24  H5  UNL     1      -4.539   1.656   2.855  1.00  0.00     0.216 HD
ENDBRANCH  18  23
BRANCH  20  25
HETATM   25  C11 UNL     1      -3.685  -1.964  -0.017  1.00  0.00     0.209 C 
HETATM   26  O7  UNL     1      -3.073  -2.749  -0.805  1.00  0.00    -0.646 OA
HETATM   27  O8  UNL     1      -5.059  -1.865  -0.119  1.00  0.00    -0.646 OA
ENDBRANCH  20  25
ENDBRANCH  14  16
ENDBRANCH   9  14
BRANCH   1  28
HETATM   28  C1  UNL     1       4.266  -0.450   0.704  1.00  0.00     0.444 C 
BRANCH  28  29
HETATM   29  N1  UNL     1       5.654  -0.122   0.481  1.00  0.00    -0.043 N 
ATOM     30  H13 UNL     1       5.828   0.880   0.560  1.00  0.00     0.277 HD
ATOM     31  H12 UNL     1       6.249  -0.437   1.247  1.00  0.00     0.277 HD
ATOM     32  H11 UNL     1       5.960  -0.494  -0.418  1.00  0.00     0.277 HD
ENDBRANCH  28  29
BRANCH  28  33
HETATM   33  N2  UNL     1       3.832   0.078   1.981  1.00  0.00    -0.043 N 
ATOM     34  H23 UNL     1       4.427  -0.237   2.747  1.00  0.00     0.277 HD
ATOM     35  H22 UNL     1       4.006   1.080   2.060  1.00  0.00     0.277 HD
ATOM     36  H21 UNL     1       2.851  -0.154   2.139  1.00  0.00     0.277 HD
ENDBRANCH  28  33
ENDBRANCH   1  28
TORSDOF 9
