REMARK  7 active torsions:
REMARK  status: ('A' for Active; 'I' for Inactive)
REMARK    1  A    between atoms: N1_1  and  N2_4 
REMARK    2  A    between atoms: N2_4  and  C1_6 
REMARK       I    between atoms: N4_9  and  C2_10 
REMARK       I    between atoms: C2_10  and  N5_12 
REMARK    3  A    between atoms: N5_12  and  N6_14 
REMARK    4  A    between atoms: N7_19  and  C4_20 
REMARK    5  A    between atoms: C6_22  and  C7_23 
REMARK    6  A    between atoms: C9_28  and  O4_29 
REMARK    7  A    between atoms: C10_31  and  O5_32 
ROOT
HETATM    1  C1  UNL     1       1.599  -1.192  -0.550  1.00  0.00     0.718 A 
HETATM    2  N3  UNL     1       2.838  -0.745  -0.333  1.00  0.00    -0.115 N 
ATOM      3  H3  UNL     1       3.679  -1.288  -0.529  1.00  0.00     0.206 HD
HETATM    4  N4  UNL     1       2.852   0.482   0.165  1.00  0.00    -0.137 N 
HETATM    5  C2  UNL     1       3.973   1.279   0.521  1.00  0.00     0.364 C 
HETATM    6  O1  UNL     1       3.821   2.434   0.985  1.00  0.00    -0.243 OA
HETATM    7  N5  UNL     1       5.283   0.777   0.354  1.00  0.00    -0.256 N 
ATOM      8  H5  UNL     1       5.420  -0.161  -0.023  1.00  0.00     0.191 HD
HETATM    9  C3  UNL     1       1.541   0.813   0.262  1.00  0.00     0.367 A 
HETATM   10  O2  UNL     1       1.216   1.945   0.712  1.00  0.00    -0.244 OA
HETATM   11  N7  UNL     1       0.754  -0.189  -0.167  1.00  0.00    -0.120 N 
ENDROOT
BRANCH  11  12
HETATM   12  C4  UNL     1      -0.656  -0.268  -0.240  1.00  0.00     0.149 C 
HETATM   13  C5  UNL     1      -1.377   1.039  -0.295  1.00  0.00     0.074 C 
HETATM   14  C6  UNL     1      -2.857   0.851  -0.222  1.00  0.00     0.032 C 
HETATM   15  C8  UNL     1      -3.462  -0.272   0.024  1.00  0.00     0.066 C 
HETATM   16  N9  UNL     1      -4.886  -0.410   0.085  1.00  0.00    -0.103 NA
HETATM   17  C9  UNL     1      -2.675  -1.499   0.255  1.00  0.00     0.196 C 
HETATM   18  C10 UNL     1      -1.343  -1.073   0.832  1.00  0.00     0.176 C 
BRANCH  14  19
HETATM   19  C7  UNL     1      -3.666   2.045  -0.452  1.00  0.00     0.262 C 
HETATM   20  N8  UNL     1      -3.108   3.312  -0.727  1.00  0.00    -0.057 NA
HETATM   21  O3  UNL     1      -4.928   1.974  -0.409  1.00  0.00    -0.271 OA
ENDBRANCH  14  19
BRANCH  17  22
HETATM   22  O4  UNL     1      -2.469  -2.078  -1.017  1.00  0.00    -0.387 OA
ATOM     23  H4  UNL     1      -1.962  -2.868  -0.868  1.00  0.00     0.210 HD
ENDBRANCH  17  22
BRANCH  18  24
HETATM   24  O5  UNL     1      -0.677  -2.175   1.266  1.00  0.00    -0.391 OA
ATOM     25  H5  UNL     1      -1.110  -2.683   1.942  1.00  0.00     0.210 HD
ENDBRANCH  18  24
ENDBRANCH  11  12
BRANCH   1  26
HETATM   26  N2  UNL     1       1.257  -2.355  -1.034  1.00  0.00    -0.137 N 
ATOM     27  H2  UNL     1       0.265  -2.563  -1.147  1.00  0.00     0.205 HD
BRANCH  26  28
HETATM   28  N1  UNL     1       2.175  -3.314  -1.399  1.00  0.00    -0.331 N 
ATOM     29  H12 UNL     1       3.163  -3.090  -1.279  1.00  0.00     0.177 HD
ATOM     30  H11 UNL     1       1.908  -4.223  -1.777  1.00  0.00     0.177 HD
ENDBRANCH  26  28
ENDBRANCH   1  26
BRANCH   7  31
HETATM   31  N6  UNL     1       6.396   1.554   0.701  1.00  0.00    -0.341 N 
ATOM     32  H62 UNL     1       6.242   2.490   1.077  1.00  0.00     0.177 HD
ATOM     33  H61 UNL     1       7.342   1.192   0.580  1.00  0.00     0.177 HD
ENDBRANCH   7  31
TORSDOF 7
