REMARK  4 active torsions:
REMARK  status: ('A' for Active; 'I' for Inactive)
REMARK    1  A    between atoms: C1_2  and  C2_4 
REMARK    2  A    between atoms: N1_7  and  C5_8 
REMARK    3  A    between atoms: C5_8  and  C6_9 
REMARK    4  A    between atoms: C6_9  and  C7_10 
ROOT
HETATM    1  C7  UNL     1      -1.385  -0.127  -0.411  1.00  0.00    -0.038 C 
HETATM    2  C8  UNL     1      -1.752  -0.559  -1.847  1.00  0.00     0.010 C 
HETATM    3  C9  UNL     1      -3.077  -1.201  -1.964  1.00  0.00     0.005 C 
HETATM    4  C10 UNL     1      -4.139  -0.592  -1.073  1.00  0.00    -0.013 C 
HETATM    5  C11 UNL     1      -4.225  -1.364   0.193  1.00  0.00     0.013 C 
HETATM    6  C12 UNL     1      -3.135  -1.084   1.191  1.00  0.00     0.009 C 
HETATM    7  C13 UNL     1      -3.511   0.204   1.818  1.00  0.00    -0.026 C 
HETATM    8  C14 UNL     1      -3.557   1.386   1.251  1.00  0.00    -0.026 C 
HETATM    9  C15 UNL     1      -3.213   1.633  -0.208  1.00  0.00     0.009 C 
HETATM   10  C16 UNL     1      -4.122   0.859  -1.051  1.00  0.00     0.013 C 
HETATM   11  C17 UNL     1      -1.763   1.287  -0.292  1.00  0.00     0.018 C 
HETATM   12  C18 UNL     1      -1.763  -1.108   0.590  1.00  0.00     0.018 C 
ENDROOT
BRANCH   1  13
HETATM   13  C6  UNL     1       0.155  -0.117  -0.517  1.00  0.00     0.029 C 
BRANCH  13  14
HETATM   14  C5  UNL     1       0.884   0.263   0.701  1.00  0.00     0.122 C 
BRANCH  14  15
HETATM   15  N1  UNL     1       2.291   0.226   0.434  1.00  0.00    -0.393 N 
HETATM   16  C4  UNL     1       2.859   1.170  -0.402  1.00  0.00     0.122 C 
HETATM   17  C3  UNL     1       4.144   0.598  -1.018  1.00  0.00     0.035 C 
HETATM   18  C2  UNL     1       5.062   0.363   0.179  1.00  0.00     0.093 C 
HETATM   19  C20 UNL     1       4.486  -0.716   1.054  1.00  0.00     0.059 C 
HETATM   20  C19 UNL     1       3.020  -0.632   1.245  1.00  0.00     0.059 C 
BRANCH  18  21
HETATM   21  C1  UNL     1       6.386  -0.026  -0.336  1.00  0.00     0.177 C 
HETATM   22  O1  UNL     1       6.870  -1.163  -0.032  1.00  0.00    -0.648 OA
HETATM   23  O2  UNL     1       7.158   0.783  -1.149  1.00  0.00    -0.648 OA
ENDBRANCH  18  21
ENDBRANCH  14  15
ENDBRANCH  13  14
ENDBRANCH   1  13
TORSDOF 4
