REMARK  5 active torsions:
REMARK  status: ('A' for Active; 'I' for Inactive)
REMARK    1  A    between atoms: C10_11  and  C11_12 
REMARK    2  A    between atoms: C11_12  and  N2_13 
REMARK       I    between atoms: N2_13  and  C12_15 
REMARK    3  A    between atoms: C12_15  and  C13_17 
REMARK    4  A    between atoms: C13_17  and  C14_18 
REMARK    5  A    between atoms: C14_18  and  C15_19 
ROOT
HETATM    1  C11 UNL     1      -0.411  -1.609   0.653  1.00  0.00     0.158 C 
ENDROOT
BRANCH   1   2
HETATM    2  C10 UNL     1      -1.816  -1.101   0.686  1.00  0.00     0.240 C 
HETATM    3  N1  UNL     1      -2.579  -1.527  -0.468  1.00  0.00     0.090 N 
HETATM    4  C1  UNL     1      -2.397  -2.922  -0.781  1.00  0.00     0.310 C 
HETATM    5  C2  UNL     1      -3.954  -1.180  -0.321  1.00  0.00     0.277 C 
HETATM    6  C3  UNL     1      -4.203  -0.165   0.783  1.00  0.00     0.018 C 
HETATM    7  C4  UNL     1      -5.582   0.378   0.547  1.00  0.00     0.007 C 
HETATM    8  C8  UNL     1      -3.157   0.927   0.785  1.00  0.00    -0.007 C 
HETATM    9  C5  UNL     1      -5.724   1.834   0.885  1.00  0.00     0.000 C 
HETATM   10  C6  UNL     1      -4.710   2.704   0.211  1.00  0.00     0.000 C 
HETATM   11  C7  UNL     1      -3.537   1.900  -0.326  1.00  0.00     0.005 C 
HETATM   12  C9  UNL     1      -1.765   0.414   0.633  1.00  0.00     0.042 C 
ENDBRANCH   1   2
BRANCH   1  13
HETATM   13  N2  UNL     1       0.337  -1.178  -0.478  1.00  0.00    -0.359 N 
HETATM   14  C12 UNL     1       1.714  -1.616  -0.613  1.00  0.00     0.217 C 
HETATM   15  O1  UNL     1       2.206  -2.356   0.266  1.00  0.00    -0.274 OA
ATOM     16  H2  UNL     1      -0.087  -0.572  -1.181  1.00  0.00     0.162 HD
BRANCH  14  17
HETATM   17  C13 UNL     1       2.502  -1.189  -1.765  1.00  0.00     0.103 C 
BRANCH  17  18
HETATM   18  C14 UNL     1       3.957  -1.264  -1.621  1.00  0.00     0.014 C 
BRANCH  18  19
HETATM   19  C15 UNL     1       4.690  -0.388  -0.695  1.00  0.00    -0.014 C 
HETATM   20  C16 UNL     1       4.436  -0.405   0.753  1.00  0.00     0.004 C 
HETATM   21  C17 UNL     1       5.559   0.429   1.431  1.00  0.00     0.000 C 
HETATM   22  C18 UNL     1       5.785   1.729   0.731  1.00  0.00     0.000 C 
HETATM   23  C19 UNL     1       4.620   2.075  -0.172  1.00  0.00     0.000 C 
HETATM   24  C20 UNL     1       4.581   1.034  -1.266  1.00  0.00     0.004 C 
ENDBRANCH  18  19
ENDBRANCH  17  18
ENDBRANCH  14  17
ENDBRANCH   1  13
TORSDOF 5
