REMARK  9 active torsions:
REMARK  status: ('A' for Active; 'I' for Inactive)
REMARK    1  A    between atoms: C3_3  and  C4_4 
REMARK    2  A    between atoms: C4_4  and  C5_5 
REMARK    3  A    between atoms: C9_10  and  C10_11 
REMARK    4  A    between atoms: C16_17  and  C18_19 
REMARK       I    between atoms: C18_19  and  N1_21 
REMARK    5  A    between atoms: N1_21  and  C19_23 
REMARK    6  A    between atoms: C19_23  and  C20_24 
REMARK    7  A    between atoms: C20_24  and  N2_25 
REMARK    8  A    between atoms: N2_25  and  C21_26 
REMARK    9  A    between atoms: N2_25  and  C23_28 
ROOT
HETATM    1  C1  UNL     1      -5.352   3.551   2.199  1.00  0.00     0.112 C 
HETATM    2  C2  UNL     1      -4.959   2.163   1.961  1.00  0.00    -0.110 C 
HETATM    3  C3  UNL     1      -4.651   1.011   1.776  1.00  0.00    -0.088 C 
ENDROOT
BRANCH   3   4
HETATM    4  C4  UNL     1      -4.313  -0.404   1.567  1.00  0.00     0.091 C 
HETATM    5  C7  UNL     1      -2.951  -0.544   2.263  1.00  0.00     0.032 C 
HETATM    6  C8  UNL     1      -2.210   0.377   1.273  1.00  0.00     0.013 C 
HETATM    7  C9  UNL     1      -2.575  -0.147  -0.064  1.00  0.00    -0.023 A 
HETATM    8  C29 UNL     1      -3.280   0.938  -0.895  1.00  0.00     0.012 A 
HETATM    9  C31 UNL     1      -3.882  -0.741   0.162  1.00  0.00    -0.010 A 
HETATM   10  C30 UNL     1      -4.604   0.272  -0.748  1.00  0.00     0.013 A 
HETATM   11  C32 UNL     1      -4.205  -2.149  -0.088  1.00  0.00     0.018 C 
BRANCH   4  12
HETATM   12  C5  UNL     1      -5.348  -1.175   2.209  1.00  0.00     0.144 C 
HETATM   13  C6  UNL     1      -5.514  -1.168   3.713  1.00  0.00     0.093 C 
HETATM   14  O1  UNL     1      -6.135  -1.856   1.627  1.00  0.00    -0.296 OA
ENDBRANCH   4  12
BRANCH   7  15
HETATM   15  C10 UNL     1      -1.440  -0.667  -0.915  1.00  0.00    -0.030 A 
HETATM   16  C11 UNL     1      -0.795  -1.787  -0.134  1.00  0.00     0.016 C 
HETATM   17  C12 UNL     1      -1.963  -1.243  -2.204  1.00  0.00     0.011 A 
HETATM   18  C13 UNL     1      -1.350  -0.605  -3.388  1.00  0.00     0.006 A 
HETATM   19  C14 UNL     1      -0.408   0.368  -2.871  1.00  0.00    -0.001 A 
HETATM   20  C15 UNL     1      -0.485   0.372  -1.326  1.00  0.00     0.016 A 
HETATM   21  C26 UNL     1       0.981   0.061  -3.266  1.00  0.00    -0.043 C 
HETATM   22  C16 UNL     1       0.858   0.638  -0.985  1.00  0.00     0.043 C 
HETATM   23  C17 UNL     1       1.138   2.138  -1.333  1.00  0.00     0.026 C 
HETATM   24  C25 UNL     1       1.796  -0.041  -2.027  1.00  0.00     0.028 C 
HETATM   25  C27 UNL     1       1.602   1.121  -4.180  1.00  0.00     0.015 C 
HETATM   26  C28 UNL     1       1.183  -1.264  -3.984  1.00  0.00     0.015 C 
BRANCH  22  27
HETATM   27  C18 UNL     1       1.550   0.469   0.258  1.00  0.00     0.226 C 
HETATM   28  O2  UNL     1       1.569   1.474   1.068  1.00  0.00    -0.273 OA
HETATM   29  N1  UNL     1       2.236  -0.656   0.763  1.00  0.00    -0.359 N 
ATOM     30  H1  UNL     1       2.259  -1.487   0.173  1.00  0.00     0.162 HD
BRANCH  29  31
HETATM   31  C19 UNL     1       2.906  -0.739   2.034  1.00  0.00     0.152 C 
BRANCH  31  32
HETATM   32  C20 UNL     1       4.025   0.237   2.221  1.00  0.00     0.292 C 
BRANCH  32  33
HETATM   33  N2  UNL     1       5.078   0.113   1.261  1.00  0.00     0.089 N 
BRANCH  33  34
HETATM   34  C21 UNL     1       5.856  -1.080   1.354  1.00  0.00     0.268 C 
HETATM   35  C22 UNL     1       6.711  -1.191   2.574  1.00  0.00     0.037 C 
ENDBRANCH  33  34
BRANCH  33  36
HETATM   36  C23 UNL     1       5.912   1.271   1.315  1.00  0.00     0.268 C 
HETATM   37  C24 UNL     1       7.057   1.220   0.328  1.00  0.00     0.037 C 
ENDBRANCH  33  36
ENDBRANCH  32  33
ENDBRANCH  31  32
ENDBRANCH  29  31
ENDBRANCH  22  27
ENDBRANCH   7  15
ENDBRANCH   3   4
TORSDOF 9
