REMARK  11 active torsions:
REMARK  status: ('A' for Active; 'I' for Inactive)
REMARK    1  A    between atoms: C2_2  and  O1_4 
REMARK    2  A    between atoms: C2_2  and  C4_6 
REMARK    3  A    between atoms: C4_6  and  C5_8 
REMARK    4  A    between atoms: C5_8  and  N1_9 
REMARK    5  A    between atoms: N1_9  and  C6_12 
REMARK    6  A    between atoms: C6_12  and  O2_13 
REMARK    7  A    between atoms: C6_12  and  C7_15 
REMARK    8  A    between atoms: C9_18  and  C10_19 
REMARK    9  A    between atoms: C13_22  and  O3_23 
REMARK   10  A    between atoms: C14_25  and  O4_26 
REMARK   11  A    between atoms: O4_26  and  C15_27 
ROOT
HETATM    1  C7  UNL     1      -2.885   1.308   1.257  1.00  0.00     0.073 A 
HETATM    2  C8  UNL     1      -3.479   1.701   2.429  1.00  0.00     0.081 A 
HETATM    3  S1  UNL     1      -2.111   1.985   3.423  1.00  0.00    -0.081 SA
HETATM    4  C9  UNL     1      -0.892   1.591   2.297  1.00  0.00     0.087 A 
HETATM    5  N2  UNL     1      -1.592   1.262   1.222  1.00  0.00    -0.349 N 
ATOM      6  H2  UNL     1      -1.113   0.973   0.369  1.00  0.00     0.166 HD
ENDROOT
BRANCH   4   7
HETATM    7  C10 UNL     1       0.568   1.613   2.487  1.00  0.00     0.039 A 
HETATM    8  C11 UNL     1       1.028   2.000   3.726  1.00  0.00     0.020 A 
HETATM    9  C12 UNL     1       2.405   2.045   3.977  1.00  0.00     0.040 A 
HETATM   10  C13 UNL     1       3.267   1.689   2.943  1.00  0.00     0.102 A 
HETATM   11  C14 UNL     1       2.833   1.300   1.700  1.00  0.00     0.142 A 
HETATM   12  C25 UNL     1       1.450   1.269   1.491  1.00  0.00     0.165 A 
HETATM   13  F2  UNL     1       0.943   0.899   0.297  1.00  0.00    -0.202 F 
BRANCH  10  14
HETATM   14  O3  UNL     1       4.616   1.745   3.227  1.00  0.00    -0.358 OA
ATOM     15  H3  UNL     1       5.204   1.502   2.522  1.00  0.00     0.217 HD
ENDBRANCH  10  14
BRANCH  11  16
HETATM   16  O4  UNL     1       3.726   0.963   0.726  1.00  0.00    -0.339 OA
BRANCH  16  17
HETATM   17  C15 UNL     1       4.261  -0.295   0.445  1.00  0.00     0.137 C 
HETATM   18  C16 UNL     1       3.946  -0.603  -1.013  1.00  0.00     0.016 C 
HETATM   19  C17 UNL     1       4.607  -1.870  -1.490  1.00  0.00     0.012 C 
HETATM   20  C21 UNL     1       4.459   0.577  -1.825  1.00  0.00     0.012 C 
HETATM   21  C18 UNL     1       6.105  -1.766  -1.367  1.00  0.00    -0.013 C 
HETATM   22  C19 UNL     1       6.605  -0.635  -2.226  1.00  0.00     0.009 C 
HETATM   23  C24 UNL     1       6.422  -1.530   0.081  1.00  0.00     0.012 C 
HETATM   24  C20 UNL     1       5.965   0.641  -1.725  1.00  0.00    -0.013 C 
HETATM   25  C22 UNL     1       6.336   0.879  -0.296  1.00  0.00     0.012 C 
HETATM   26  C23 UNL     1       5.766  -0.235   0.557  1.00  0.00     0.016 C 
ENDBRANCH  16  17
ENDBRANCH  11  16
ENDBRANCH   4   7
BRANCH   1  27
HETATM   27  C6  UNL     1      -3.752   0.946   0.064  1.00  0.00     0.370 C 
BRANCH  27  28
HETATM   28  N1  UNL     1      -4.839   0.093   0.546  1.00  0.00    -0.041 N 
ATOM     29  H12 UNL     1      -5.313   0.513   1.345  1.00  0.00     0.280 HD
ATOM     30  H11 UNL     1      -4.479  -0.748   0.997  1.00  0.00     0.280 HD
BRANCH  28  31
HETATM   31  C5  UNL     1      -5.765  -0.232  -0.498  1.00  0.00     0.276 C 
BRANCH  31  32
HETATM   32  C4  UNL     1      -6.874  -1.102  -0.004  1.00  0.00     0.229 C 
HETATM   33  F1  UNL     1      -7.547  -0.573   1.068  1.00  0.00    -0.244 F 
BRANCH  32  34
HETATM   34  C2  UNL     1      -7.867  -1.472  -1.053  1.00  0.00     0.083 C 
HETATM   35  C1  UNL     1      -8.681  -0.325  -1.552  1.00  0.00     0.048 C 
HETATM   36  C3  UNL     1      -7.207  -2.239  -2.202  1.00  0.00     0.048 C 
BRANCH  34  37
HETATM   37  O1  UNL     1      -8.762  -2.396  -0.467  1.00  0.00    -0.388 OA
ATOM     38  H1  UNL     1      -8.244  -3.126  -0.149  1.00  0.00     0.210 HD
ENDBRANCH  34  37
ENDBRANCH  32  34
ENDBRANCH  31  32
ENDBRANCH  28  31
ENDBRANCH  27  28
BRANCH  27  39
HETATM   39  O2  UNL     1      -3.019   0.351  -0.941  1.00  0.00    -0.365 OA
ATOM     40  H2  UNL     1      -2.313   0.905  -1.254  1.00  0.00     0.212 HD
ENDBRANCH  27  39
ENDBRANCH   1  27
TORSDOF 11
