REMARK  12 active torsions:
REMARK  status: ('A' for Active; 'I' for Inactive)
REMARK    1  A    between atoms: C3_5  and  C4_6 
REMARK    2  A    between atoms: C4_6  and  O1_8 
REMARK    3  A    between atoms: C7_13  and  C8_14 
REMARK    4  A    between atoms: C8_14  and  O2_15 
REMARK    5  A    between atoms: C8_14  and  C9_17 
REMARK    6  A    between atoms: C10_18  and  C11_19 
REMARK    7  A    between atoms: C12_20  and  O3_21 
REMARK    8  A    between atoms: C14_24  and  O4_26 
REMARK    9  A    between atoms: C16_28  and  C17_29 
REMARK   10  A    between atoms: C17_29  and  C18_30 
REMARK   11  A    between atoms: C18_30  and  C19_31 
REMARK   12  A    between atoms: C20_32  and  C21_34 
ROOT
HETATM    1  C11 UNL     1      -0.680  -0.267  -1.299  1.00  0.00     0.044 C 
HETATM    2  C12 UNL     1      -0.204   0.218  -2.636  1.00  0.00     0.129 C 
HETATM    3  C13 UNL     1      -0.168   1.705  -2.446  1.00  0.00     0.070 C 
HETATM    4  C14 UNL     1      -1.296   2.024  -1.461  1.00  0.00     0.061 C 
HETATM    5  C15 UNL     1      -0.720   2.802  -0.343  1.00  0.00     0.046 C 
HETATM    6  C16 UNL     1      -1.850   0.684  -1.112  1.00  0.00     0.030 C 
ENDROOT
BRANCH   1   7
HETATM    7  C10 UNL     1       0.274  -0.229  -0.203  1.00  0.00    -0.020 C 
HETATM    8  C9  UNL     1       1.552   0.074  -0.211  1.00  0.00     0.006 C 
BRANCH   8   9
HETATM    9  C8  UNL     1       2.416   0.071   1.001  1.00  0.00     0.177 C 
BRANCH   9  10
HETATM   10  C7  UNL     1       3.853  -0.038   0.632  1.00  0.00     0.012 A 
HETATM   11  C2  UNL     1       4.736  -0.880   1.264  1.00  0.00     0.017 A 
HETATM   12  C1  UNL     1       4.242  -1.726   2.369  1.00  0.00     0.069 C 
HETATM   13  N1  UNL     1       6.034  -0.918   0.863  1.00  0.00    -0.347 N 
HETATM   14  C3  UNL     1       6.498  -0.160  -0.133  1.00  0.00     0.110 A 
ATOM     15  H1  UNL     1       6.677  -1.549   1.341  1.00  0.00     0.167 HD
HETATM   16  N2  UNL     1       5.644   0.661  -0.751  1.00  0.00    -0.353 N 
HETATM   17  C6  UNL     1       4.339   0.741  -0.396  1.00  0.00     0.101 A 
ATOM     18  H2  UNL     1       5.985   1.246  -1.514  1.00  0.00     0.166 HD
BRANCH  14  19
HETATM   19  C4  UNL     1       7.926  -0.273  -0.495  1.00  0.00     0.181 C 
HETATM   20  C5  UNL     1       8.725   0.514   0.497  1.00  0.00     0.047 C 
BRANCH  19  21
HETATM   21  O1  UNL     1       8.296  -1.608  -0.552  1.00  0.00    -0.388 OA
ATOM     22  H1  UNL     1       9.214  -1.681  -0.785  1.00  0.00     0.210 HD
ENDBRANCH  19  21
ENDBRANCH  14  19
ENDBRANCH   9  10
BRANCH   9  23
HETATM   23  O2  UNL     1       2.292   1.311   1.659  1.00  0.00    -0.387 OA
ATOM     24  H2  UNL     1       1.374   1.381   1.895  1.00  0.00     0.210 HD
ENDBRANCH   9  23
ENDBRANCH   8   9
ENDBRANCH   1   7
BRANCH   2  25
HETATM   25  O3  UNL     1       0.918  -0.360  -3.135  1.00  0.00    -0.395 OA
ATOM     26  H3  UNL     1       1.220  -0.053  -3.982  1.00  0.00     0.210 HD
ENDBRANCH   2  25
BRANCH   6  27
HETATM   27  C17 UNL     1      -2.547   0.601   0.183  1.00  0.00     0.012 C 
BRANCH  27  28
HETATM   28  C18 UNL     1      -3.136  -0.772   0.431  1.00  0.00     0.030 C 
BRANCH  28  29
HETATM   29  C19 UNL     1      -4.118  -1.166  -0.599  1.00  0.00     0.016 C 
HETATM   30  C20 UNL     1      -5.392  -1.346  -0.558  1.00  0.00     0.124 C 
HETATM   31  F1  UNL     1      -5.948  -1.742  -1.806  1.00  0.00    -0.205 F 
BRANCH  30  32
HETATM   32  C21 UNL     1      -6.324  -1.111   0.500  1.00  0.00     0.024 A 
HETATM   33  C22 UNL     1      -6.093  -0.404   1.631  1.00  0.00     0.016 A 
HETATM   34  C23 UNL     1      -7.065  -0.284   2.646  1.00  0.00     0.001 A 
HETATM   35  C24 UNL     1      -8.277  -0.890   2.498  1.00  0.00     0.002 A 
HETATM   36  C25 UNL     1      -8.547  -1.612   1.365  1.00  0.00     0.025 A 
HETATM   37  C26 UNL     1      -7.589  -1.718   0.389  1.00  0.00     0.047 A 
HETATM   38 CL1  UNL     1      -7.979  -2.659  -1.045  1.00  0.00    -0.083 Cl
ENDBRANCH  30  32
ENDBRANCH  28  29
ENDBRANCH  27  28
ENDBRANCH   6  27
BRANCH   4  39
HETATM   39  O4  UNL     1      -2.323   2.746  -2.112  1.00  0.00    -0.390 OA
ATOM     40  H4  UNL     1      -3.023   2.944  -1.501  1.00  0.00     0.210 HD
ENDBRANCH   4  39
TORSDOF 12
