REMARK  12 active torsions:
REMARK  status: ('A' for Active; 'I' for Inactive)
REMARK    1  A    between atoms: C9_11  and  O1_12 
REMARK    2  A    between atoms: N1_14  and  C10_15 
REMARK    3  A    between atoms: C10_15  and  C11_16 
REMARK    4  A    between atoms: C10_15  and  C16_27 
REMARK    5  A    between atoms: C11_16  and  C12_17 
REMARK    6  A    between atoms: C12_17  and  C13_18 
REMARK    7  A    between atoms: C13_18  and  C14_19 
REMARK    8  A    between atoms: C14_19  and  C15_20 
REMARK    9  A    between atoms: C15_20  and  O2_21 
REMARK   10  A    between atoms: N2_23  and  O3_25 
REMARK       I    between atoms: C16_27  and  N3_29 
REMARK   11  A    between atoms: C19_32  and  C20_33 
REMARK   12  A    between atoms: C20_33  and  O5_34 
ROOT
HETATM    1  C10 UNL     1      -1.163   0.226  -0.158  1.00  0.00     0.184 C 
ENDROOT
BRANCH   1   2
HETATM    2  N1  UNL     1      -1.107   1.587  -0.635  1.00  0.00    -0.313 N 
HETATM    3  C6  UNL     1      -0.925   2.695   0.138  1.00  0.00     0.050 A 
HETATM    4  C5  UNL     1      -0.743   2.886   1.486  1.00  0.00     0.056 A 
HETATM    5  C7  UNL     1      -0.940   3.836  -0.644  1.00  0.00     0.003 A 
HETATM    6  C4  UNL     1      -0.581   4.168   2.037  1.00  0.00     0.058 A 
HETATM    7  C3  UNL     1      -0.602   5.272   1.221  1.00  0.00     0.062 A 
HETATM    8 CL2  UNL     1      -0.356   4.289   3.765  1.00  0.00    -0.082 Cl
HETATM    9  C2  UNL     1      -0.782   5.111  -0.126  1.00  0.00    -0.026 A 
HETATM   10 CL1  UNL     1      -0.397   6.884   1.912  1.00  0.00    -0.082 Cl
HETATM   11  C1  UNL     1      -0.808   6.295  -1.031  1.00  0.00     0.051 C 
HETATM   12  C8  UNL     1      -1.136   3.429  -1.932  1.00  0.00     0.070 A 
HETATM   13  C9  UNL     1      -1.236   2.064  -1.913  1.00  0.00     0.144 A 
BRANCH  13  14
HETATM   14  O1  UNL     1      -1.442   1.236  -3.031  1.00  0.00    -0.346 OA
ATOM     15  H1  UNL     1      -1.511   0.289  -3.018  1.00  0.00     0.219 HD
ENDBRANCH  13  14
ENDBRANCH   1   2
BRANCH   1  16
HETATM   16  C11 UNL     1      -1.280  -0.769  -1.287  1.00  0.00     0.035 C 
BRANCH  16  17
HETATM   17  C12 UNL     1      -1.368  -2.195  -0.849  1.00  0.00     0.003 C 
BRANCH  17  18
HETATM   18  C13 UNL     1      -2.578  -2.552  -0.048  1.00  0.00     0.008 C 
BRANCH  18  19
HETATM   19  C14 UNL     1      -2.435  -4.047   0.287  1.00  0.00     0.086 C 
BRANCH  19  20
HETATM   20  C15 UNL     1      -3.558  -4.544   1.076  1.00  0.00     0.135 C 
HETATM   21  N2  UNL     1      -4.293  -5.494   0.625  1.00  0.00    -0.251 N 
ATOM     22  H2  UNL     1      -5.075  -5.834   1.184  1.00  0.00     0.196 HD
BRANCH  20  23
HETATM   23  O2  UNL     1      -3.853  -4.010   2.314  1.00  0.00    -0.348 OA
ATOM     24  H2  UNL     1      -4.584  -4.333   2.828  1.00  0.00     0.219 HD
ENDBRANCH  20  23
BRANCH  21  25
HETATM   25  O3  UNL     1      -4.040  -6.059  -0.602  1.00  0.00    -0.288 OA
ATOM     26  H3  UNL     1      -4.584  -6.762  -0.936  1.00  0.00     0.244 HD
ENDBRANCH  21  25
ENDBRANCH  19  20
ENDBRANCH  18  19
ENDBRANCH  17  18
ENDBRANCH  16  17
ENDBRANCH   1  16
BRANCH   1  27
HETATM   27  C16 UNL     1      -0.098  -0.167   0.782  1.00  0.00     0.243 C 
HETATM   28  O4  UNL     1      -0.480  -0.647   1.924  1.00  0.00    -0.271 OA
HETATM   29  N3  UNL     1       1.284  -0.099   0.624  1.00  0.00    -0.350 N 
HETATM   30  C17 UNL     1       2.162  -0.524   1.731  1.00  0.00     0.126 C 
HETATM   31  C22 UNL     1       1.991   0.343  -0.541  1.00  0.00     0.126 C 
HETATM   32  C18 UNL     1       2.932  -1.713   1.282  1.00  0.00     0.027 C 
HETATM   33  C19 UNL     1       3.638  -1.511  -0.035  1.00  0.00     0.012 C 
HETATM   34  C21 UNL     1       2.815  -0.821  -1.059  1.00  0.00     0.027 C 
BRANCH  33  35
HETATM   35  C20 UNL     1       4.962  -0.781   0.164  1.00  0.00     0.168 C 
BRANCH  35  36
HETATM   36  O5  UNL     1       5.813  -1.503   0.999  1.00  0.00    -0.400 OA
ATOM     37  H5  UNL     1       6.638  -1.048   1.123  1.00  0.00     0.209 HD
ENDBRANCH  35  36
ENDBRANCH  33  35
ENDBRANCH   1  27
TORSDOF 12
