REMARK  10 active torsions:
REMARK  status: ('A' for Active; 'I' for Inactive)
REMARK    1  A    between atoms: O1_2  and  C2_3 
REMARK    2  A    between atoms: C2_3  and  C3_4 
REMARK    3  A    between atoms: C3_4  and  C4_5 
REMARK    4  A    between atoms: C4_5  and  C5_6 
REMARK    5  A    between atoms: C6_7  and  C8_9 
REMARK    6  A    between atoms: C8_9  and  O2_10 
REMARK    7  A    between atoms: O2_10  and  C9_11 
REMARK    8  A    between atoms: C14_17  and  C15_18 
REMARK    9  A    between atoms: C18_25  and  N3_26 
REMARK   10  A    between atoms: C19_31  and  N5_32 
ROOT
HETATM    1  C15 UNL     1       2.261  -1.295  -0.096  1.00  0.00     0.079 C 
HETATM    2  N1  UNL     1       2.344  -0.185  -0.800  1.00  0.00    -0.349 N 
ATOM      3  H1  UNL     1       1.488   0.033  -1.311  1.00  0.00     0.166 HD
HETATM    4  C16 UNL     1       3.384   0.780  -0.999  1.00  0.00     0.101 A 
HETATM    5  C17 UNL     1       4.525   1.086  -0.275  1.00  0.00     0.058 A 
HETATM    6  N2  UNL     1       5.274   2.090  -0.824  1.00  0.00    -0.193 N 
ATOM      7  H2  UNL     1       6.128   2.368  -0.341  1.00  0.00     0.184 HD
HETATM    8  C18 UNL     1       4.958   2.729  -1.951  1.00  0.00     0.677 A 
HETATM    9  N4  UNL     1       3.833   2.414  -2.651  1.00  0.00    -0.175 N 
ATOM     10  H4  UNL     1       3.586   2.899  -3.514  1.00  0.00     0.186 HD
HETATM   11  C19 UNL     1       3.076   1.448  -2.157  1.00  0.00     0.143 A 
HETATM   12  C20 UNL     1       5.302   0.735   0.916  1.00  0.00     0.075 C 
HETATM   13  C21 UNL     1       5.155  -0.592   1.509  1.00  0.00     0.102 C 
HETATM   14  N6  UNL     1       4.577  -1.638   0.689  1.00  0.00    -0.276 NA
HETATM   15  C22 UNL     1       5.372  -2.819   0.618  1.00  0.00     0.118 C 
HETATM   16  C23 UNL     1       3.192  -1.803   0.942  1.00  0.00     0.109 C 
HETATM   17 CL2  UNL     1       2.767  -3.293   1.731  1.00  0.00    -0.068 Cl
ENDROOT
BRANCH   1  18
HETATM   18  C14 UNL     1       0.984  -1.938  -0.229  1.00  0.00     0.028 A 
HETATM   19  C9  UNL     1      -0.229  -1.289  -0.518  1.00  0.00     0.081 A 
HETATM   20  C10 UNL     1      -1.355  -1.962  -0.907  1.00  0.00     0.039 A 
HETATM   21  C11 UNL     1      -1.356  -3.348  -1.027  1.00  0.00     0.026 A 
HETATM   22  C12 UNL     1      -0.200  -4.018  -0.753  1.00  0.00     0.035 A 
HETATM   23 CL1  UNL     1      -0.232  -5.773  -0.922  1.00  0.00    -0.084 Cl
HETATM   24  C13 UNL     1       0.932  -3.346  -0.370  1.00  0.00     0.040 A 
BRANCH  19  25
HETATM   25  O2  UNL     1      -0.230   0.053  -0.383  1.00  0.00    -0.346 OA
BRANCH  25  26
HETATM   26  C8  UNL     1      -1.173   1.030  -0.535  1.00  0.00     0.209 C 
BRANCH  26  27
HETATM   27  C6  UNL     1      -2.357   0.990   0.346  1.00  0.00    -0.064 C 
HETATM   28  C5  UNL     1      -3.591   0.888  -0.100  1.00  0.00    -0.022 C 
HETATM   29  C7  UNL     1      -2.132   1.064   1.817  1.00  0.00     0.045 C 
BRANCH  28  30
HETATM   30  C4  UNL     1      -4.794   0.840   0.739  1.00  0.00     0.029 C 
BRANCH  30  31
HETATM   31  C3  UNL     1      -5.848   1.860   0.393  1.00  0.00     0.030 C 
BRANCH  31  32
HETATM   32  C2  UNL     1      -6.983   1.674   1.369  1.00  0.00     0.167 C 
BRANCH  32  33
HETATM   33  O1  UNL     1      -7.518   0.364   1.303  1.00  0.00    -0.396 OA
HETATM   34  C1  UNL     1      -8.561   0.254   2.227  1.00  0.00     0.201 C 
ENDBRANCH  32  33
ENDBRANCH  31  32
ENDBRANCH  30  31
ENDBRANCH  28  30
ENDBRANCH  26  27
ENDBRANCH  25  26
ENDBRANCH  19  25
ENDBRANCH   1  18
BRANCH  11  35
HETATM   35  N5  UNL     1       2.001   1.082  -2.893  1.00  0.00    -0.383 N 
ATOM     36  H52 UNL     1       1.417   0.337  -2.512  1.00  0.00     0.157 HD
ATOM     37  H51 UNL     1       1.772   1.579  -3.754  1.00  0.00     0.157 HD
ENDBRANCH  11  35
BRANCH   8  38
HETATM   38  N3  UNL     1       5.707   3.668  -2.437  1.00  0.00    -0.234 N 
ATOM     39  H32 UNL     1       6.550   3.904  -1.913  1.00  0.00     0.174 HD
ATOM     40  H31 UNL     1       5.465   4.157  -3.299  1.00  0.00     0.174 HD
ENDBRANCH   8  38
TORSDOF 10
