REMARK  11 active torsions:
REMARK  status: ('A' for Active; 'I' for Inactive)
REMARK    1  A    between atoms: C7_9  and  C8_10 
REMARK    2  A    between atoms: C8_10  and  C9_11 
REMARK    3  A    between atoms: C9_11  and  C10_12 
REMARK    4  A    between atoms: C10_12  and  C12_14 
REMARK    5  A    between atoms: C12_14  and  C13_15 
REMARK    6  A    between atoms: C13_15  and  O3_16 
REMARK    7  A    between atoms: C13_15  and  C14_18 
REMARK    8  A    between atoms: C14_18  and  C15_19 
REMARK    9  A    between atoms: C18_24  and  O6_25 
REMARK   10  A    between atoms: C19_27  and  C20_28 
REMARK   11  A    between atoms: C20_28  and  O7_29 
ROOT
HETATM    1  C1  UNL     1      -5.976  -0.212   2.646  1.00  0.00     0.047 C 
HETATM    2  C2  UNL     1      -4.942  -0.948   1.882  1.00  0.00    -0.068 C 
HETATM    3  C3  UNL     1      -4.663  -2.235   2.078  1.00  0.00    -0.020 C 
HETATM    4  C4  UNL     1      -3.646  -3.027   1.349  1.00  0.00     0.037 C 
HETATM    5  C5  UNL     1      -2.219  -2.684   1.534  1.00  0.00     0.115 C 
HETATM    6  C6  UNL     1      -1.423  -2.881   0.249  1.00  0.00     0.259 C 
HETATM    7  O1  UNL     1      -1.377  -4.146  -0.002  1.00  0.00    -0.265 OA
HETATM    8  O2  UNL     1      -0.863  -1.999  -0.514  1.00  0.00    -0.316 OA
HETATM    9  C7  UNL     1       0.152  -1.256  -1.009  1.00  0.00     0.138 C 
HETATM   10  C16 UNL     1      -0.312   0.122  -1.569  1.00  0.00     0.040 C 
HETATM   11  C17 UNL     1       0.129   0.353  -2.960  1.00  0.00     0.015 C 
HETATM   12  C18 UNL     1      -1.820   0.051  -1.389  1.00  0.00     0.132 C 
HETATM   13  C19 UNL     1      -2.676   1.204  -1.530  1.00  0.00     0.058 C 
HETATM   14  C21 UNL     1      -3.412   1.719  -0.330  1.00  0.00     0.113 C 
HETATM   15 CL1  UNL     1      -2.290   2.049   0.988  1.00  0.00    -0.123 Cl
HETATM   16  C22 UNL     1      -4.628   0.913   0.121  1.00  0.00     0.124 C 
HETATM   17 CL2  UNL     1      -5.643   0.557  -1.263  1.00  0.00    -0.119 Cl
HETATM   18  C23 UNL     1      -4.158  -0.266   0.877  1.00  0.00     0.001 C 
ENDROOT
BRANCH   9  19
HETATM   19  C8  UNL     1       1.360  -1.107  -0.129  1.00  0.00     0.033 C 
BRANCH  19  20
HETATM   20  C9  UNL     1       2.428  -0.287  -0.763  1.00  0.00     0.007 C 
BRANCH  20  21
HETATM   21  C10 UNL     1       3.654  -0.118   0.091  1.00  0.00    -0.016 C 
HETATM   22  C11 UNL     1       4.319  -1.403   0.444  1.00  0.00     0.010 C 
BRANCH  21  23
HETATM   23  C12 UNL     1       4.650   0.740  -0.662  1.00  0.00     0.036 C 
BRANCH  23  24
HETATM   24  C13 UNL     1       5.920   0.970   0.111  1.00  0.00     0.128 C 
BRANCH  24  25
HETATM   25  O3  UNL     1       6.749   1.765  -0.680  1.00  0.00    -0.395 OA
ATOM     26  H3  UNL     1       7.551   1.910  -0.192  1.00  0.00     0.210 HD
ENDBRANCH  24  25
BRANCH  24  27
HETATM   27  C14 UNL     1       5.648   1.722   1.394  1.00  0.00     0.144 C 
BRANCH  27  28
HETATM   28  C15 UNL     1       6.896   1.955   2.163  1.00  0.00     0.175 C 
HETATM   29  O4  UNL     1       8.017   1.555   1.755  1.00  0.00    -0.648 OA
HETATM   30  O5  UNL     1       6.861   2.626   3.365  1.00  0.00    -0.648 OA
ENDBRANCH  27  28
ENDBRANCH  24  27
ENDBRANCH  23  24
ENDBRANCH  21  23
ENDBRANCH  20  21
ENDBRANCH  19  20
ENDBRANCH   9  19
BRANCH  12  31
HETATM   31  O6  UNL     1      -2.207  -1.005  -2.189  1.00  0.00    -0.395 OA
ATOM     32  H6  UNL     1      -3.149  -1.049  -2.077  1.00  0.00     0.210 HD
ENDBRANCH  12  31
BRANCH  13  33
HETATM   33  C20 UNL     1      -2.007   2.430  -2.174  1.00  0.00     0.172 C 
BRANCH  33  34
HETATM   34  O7  UNL     1      -2.928   3.486  -2.256  1.00  0.00    -0.400 OA
ATOM     35  H7  UNL     1      -2.515   4.243  -2.654  1.00  0.00     0.209 HD
ENDBRANCH  33  34
ENDBRANCH  13  33
TORSDOF 11
