REMARK  14 active torsions:
REMARK  status: ('A' for Active; 'I' for Inactive)
REMARK    1  A    between atoms: O1_2  and  C2_3 
REMARK    2  A    between atoms: C2_3  and  N2_7 
REMARK    3  A    between atoms: C5_10  and  C6_11 
REMARK    4  A    between atoms: C6_11  and  N3_12 
REMARK    5  A    between atoms: N3_12  and  C7_13 
REMARK    6  A    between atoms: N3_12  and  C16_28 
REMARK    7  A    between atoms: C7_13  and  C8_14 
REMARK    8  A    between atoms: C8_14  and  O2_15 
REMARK    9  A    between atoms: O2_15  and  C9_16 
REMARK   10  A    between atoms: C9_16  and  N5_20 
REMARK   11  A    between atoms: N5_20  and  C10_22 
REMARK   12  A    between atoms: C16_28  and  S1_32 
REMARK   13  A    between atoms: S1_32  and  C17_33 
REMARK   14  A    between atoms: C17_33  and  C18_34 
ROOT
HETATM    1  N3  UNL     1      -1.319  -1.480   0.395  1.00  0.00    -0.340 N 
ENDROOT
BRANCH   1   2
HETATM    2  C6  UNL     1      -2.639  -1.196   0.799  1.00  0.00     0.071 C 
BRANCH   2   3
HETATM    3  C5  UNL     1      -3.659  -0.752  -0.161  1.00  0.00     0.027 C 
HETATM    4  C4  UNL     1      -4.952  -0.555   0.649  1.00  0.00     0.030 C 
HETATM    5  C3  UNL     1      -5.853   0.479   0.076  1.00  0.00     0.127 C 
HETATM    6  N2  UNL     1      -5.198   1.764   0.040  1.00  0.00    -0.348 N 
HETATM    7  C20 UNL     1      -3.749   1.739  -0.192  1.00  0.00     0.127 C 
HETATM    8  C19 UNL     1      -3.465   0.461  -0.973  1.00  0.00     0.030 C 
BRANCH   6   9
HETATM    9  C2  UNL     1      -5.841   3.014   0.198  1.00  0.00     0.214 C 
HETATM   10  N1  UNL     1      -7.136   3.124   0.227  1.00  0.00    -0.365 N 
ATOM     11  H12 UNL     1      -7.600   4.025   0.341  1.00  0.00     0.159 HD
ATOM     12  H11 UNL     1      -7.699   2.279   0.132  1.00  0.00     0.159 HD
BRANCH   9  13
HETATM   13  O1  UNL     1      -5.067   4.177   0.328  1.00  0.00    -0.327 OA
HETATM   14  C1  UNL     1      -5.674   5.432   0.035  1.00  0.00     0.213 C 
ENDBRANCH   9  13
ENDBRANCH   6   9
ENDBRANCH   2   3
ENDBRANCH   1   2
BRANCH   1  15
HETATM   15  C7  UNL     1      -0.339  -0.502   0.026  1.00  0.00     0.157 C 
BRANCH  15  16
HETATM   16  C8  UNL     1       0.974  -1.164  -0.407  1.00  0.00     0.199 C 
BRANCH  16  17
HETATM   17  O2  UNL     1       1.838  -0.094  -0.742  1.00  0.00    -0.321 OA
BRANCH  17  18
HETATM   18  C9  UNL     1       3.122  -0.253  -1.202  1.00  0.00     0.212 C 
HETATM   19  N4  UNL     1       3.522  -1.394  -1.588  1.00  0.00    -0.365 N 
ATOM     20  H42 UNL     1       2.910  -2.210  -1.566  1.00  0.00     0.159 HD
ATOM     21  H41 UNL     1       4.476  -1.512  -1.930  1.00  0.00     0.159 HD
BRANCH  18  22
HETATM   22  N5  UNL     1       3.965   0.872  -1.233  1.00  0.00    -0.352 N 
ATOM     23  H5  UNL     1       3.831   1.539  -1.993  1.00  0.00     0.163 HD
BRANCH  22  24
HETATM   24  C10 UNL     1       5.002   1.156  -0.277  1.00  0.00     0.085 C 
HETATM   25  C11 UNL     1       5.556   2.561  -0.531  1.00  0.00     0.025 C 
HETATM   26  C12 UNL     1       6.820   2.692   0.266  1.00  0.00     0.002 C 
HETATM   27  C13 UNL     1       7.890   1.805  -0.380  1.00  0.00     0.000 C 
HETATM   28  C14 UNL     1       7.217   0.696  -1.164  1.00  0.00     0.002 C 
HETATM   29  C15 UNL     1       6.109   0.146  -0.283  1.00  0.00     0.025 C 
ENDBRANCH  22  24
ENDBRANCH  18  22
ENDBRANCH  17  18
ENDBRANCH  16  17
ENDBRANCH  15  16
ENDBRANCH   1  15
BRANCH   1  30
HETATM   30  C16 UNL     1      -0.911  -2.876   0.341  1.00  0.00     0.139 C 
HETATM   31  N6  UNL     1      -1.169  -3.604  -0.689  1.00  0.00    -0.380 N 
ATOM     32  H62 UNL     1      -1.669  -3.179  -1.470  1.00  0.00     0.158 HD
ATOM     33  H61 UNL     1      -0.883  -4.582  -0.727  1.00  0.00     0.158 HD
BRANCH  30  34
HETATM   34  S1  UNL     1      -0.037  -3.618   1.705  1.00  0.00    -0.092 SA
BRANCH  34  35
HETATM   35  C17 UNL     1       0.320  -5.347   1.379  1.00  0.00     0.118 C 
BRANCH  35  36
HETATM   36  C18 UNL     1      -0.962  -6.183   1.322  1.00  0.00     0.188 C 
HETATM   37 CL1  UNL     1      -1.781  -6.039   2.890  1.00  0.00    -0.107 Cl
HETATM   38 CL2  UNL     1      -0.544  -7.894   1.035  1.00  0.00    -0.107 Cl
ENDBRANCH  35  36
ENDBRANCH  34  35
ENDBRANCH  30  34
ENDBRANCH   1  30
TORSDOF 14
