REMARK  10 active torsions:
REMARK  status: ('A' for Active; 'I' for Inactive)
REMARK    1  A    between atoms: C2_2  and  C3_3 
REMARK    2  A    between atoms: C3_3  and  C4_4 
REMARK    3  A    between atoms: C4_4  and  C5_5 
REMARK    4  A    between atoms: C5_5  and  C6_6 
REMARK    5  A    between atoms: C6_6  and  C7_7 
REMARK    6  A    between atoms: C7_7  and  C9_9 
REMARK    7  A    between atoms: C19_23  and  O4_24 
REMARK    8  A    between atoms: C19_23  and  C20_26 
REMARK    9  A    between atoms: C23_29  and  C24_30 
REMARK   10  A    between atoms: C28_36  and  O7_37 
ROOT
HETATM    1  C9  UNL     1      -0.116   0.361   0.564  1.00  0.00     0.023 C 
HETATM    2  C10 UNL     1      -0.171   1.632   1.310  1.00  0.00     0.076 C 
HETATM    3  C11 UNL     1      -0.021   1.695   2.806  1.00  0.00     0.029 C 
HETATM    4  C12 UNL     1       0.646   2.804   0.933  1.00  0.00     0.270 C 
HETATM    5  O1  UNL     1       1.806   3.214   0.714  1.00  0.00    -0.264 OA
HETATM    6  O2  UNL     1      -0.587   3.501   0.879  1.00  0.00    -0.313 OA
HETATM    7  C13 UNL     1      -1.370   2.297   0.857  1.00  0.00     0.159 C 
HETATM    8  C14 UNL     1      -1.626   1.689  -0.520  1.00  0.00    -0.002 C 
HETATM    9  C15 UNL     1      -0.745   2.501  -1.401  1.00  0.00     0.019 C 
HETATM   10  C16 UNL     1      -2.980   2.087  -0.917  1.00  0.00     0.040 C 
HETATM   11  C17 UNL     1      -4.151   1.223  -0.870  1.00  0.00     0.156 C 
HETATM   12 CL1  UNL     1      -5.626   1.929  -0.183  1.00  0.00    -0.117 Cl
HETATM   13  C18 UNL     1      -3.812  -0.128  -0.398  1.00  0.00     0.180 C 
HETATM   14  O3  UNL     1      -4.725  -0.937  -0.525  1.00  0.00    -0.293 OA
HETATM   15  C19 UNL     1      -2.498  -0.517   0.181  1.00  0.00     0.132 C 
HETATM   16  C23 UNL     1      -1.303   0.167  -0.370  1.00  0.00     0.021 C 
ENDROOT
BRANCH  16  17
HETATM   17  C24 UNL     1      -0.904  -0.258  -1.781  1.00  0.00     0.052 C 
HETATM   18  C25 UNL     1       0.079  -1.353  -2.013  1.00  0.00     0.186 C 
HETATM   19  O5  UNL     1      -0.414  -2.651  -2.250  1.00  0.00    -0.321 OA
HETATM   20  C26 UNL     1      -1.126  -2.797  -3.470  1.00  0.00     0.261 C 
HETATM   21  O6  UNL     1      -1.419  -3.897  -3.967  1.00  0.00    -0.265 OA
HETATM   22  C27 UNL     1      -1.416  -1.452  -3.966  1.00  0.00     0.143 C 
HETATM   23  C28 UNL     1      -1.883  -0.479  -2.831  1.00  0.00     0.134 C 
BRANCH  23  24
HETATM   24  O7  UNL     1      -2.111   0.592  -3.749  1.00  0.00    -0.395 OA
ATOM     25  H7  UNL     1      -2.751   0.447  -4.436  1.00  0.00     0.210 HD
ENDBRANCH  23  24
ENDBRANCH  16  17
BRANCH   1  26
HETATM   26  C7  UNL     1       0.793  -0.655   1.071  1.00  0.00    -0.012 C 
HETATM   27  C8  UNL     1       0.902  -1.111   2.496  1.00  0.00     0.010 C 
BRANCH  26  28
HETATM   28  C6  UNL     1       2.275  -0.156   0.998  1.00  0.00     0.005 C 
BRANCH  28  29
HETATM   29  C5  UNL     1       3.247  -1.275   1.224  1.00  0.00     0.000 C 
BRANCH  29  30
HETATM   30  C4  UNL     1       4.638  -0.710   1.132  1.00  0.00     0.000 C 
BRANCH  30  31
HETATM   31  C3  UNL     1       4.910  -0.104  -0.198  1.00  0.00    -0.000 C 
BRANCH  31  32
HETATM   32  C2  UNL     1       6.349   0.414  -0.175  1.00  0.00    -0.005 C 
HETATM   33  C1  UNL     1       7.266  -0.747   0.087  1.00  0.00     0.005 C 
ENDBRANCH  31  32
ENDBRANCH  30  31
ENDBRANCH  29  30
ENDBRANCH  28  29
ENDBRANCH  26  28
ENDBRANCH   1  26
BRANCH  15  34
HETATM   34  O4  UNL     1      -2.306  -1.860  -0.354  1.00  0.00    -0.381 OA
ATOM     35  H4  UNL     1      -1.467  -2.108   0.016  1.00  0.00     0.211 HD
ENDBRANCH  15  34
BRANCH  15  36
HETATM   36  C20 UNL     1      -2.857  -0.890   1.516  1.00  0.00     0.020 C 
HETATM   37  C21 UNL     1      -3.835  -2.111   1.622  1.00  0.00     0.013 C 
HETATM   38  C22 UNL     1      -3.607   0.030   2.476  1.00  0.00     0.013 C 
ENDBRANCH  15  36
TORSDOF 10
