REMARK  10 active torsions:
REMARK  status: ('A' for Active; 'I' for Inactive)
REMARK    1  A    between atoms: C2_2  and  O1_3 
REMARK    2  A    between atoms: O1_3  and  C3_4 
REMARK    3  A    between atoms: C6_7  and  N1_8 
REMARK       I    between atoms: N1_8  and  C7_10 
REMARK    4  A    between atoms: C7_10  and  O3_12 
REMARK    5  A    between atoms: O3_12  and  C8_13 
REMARK    6  A    between atoms: N2_19  and  C14_20 
REMARK    7  A    between atoms: C17_25  and  N4_26 
REMARK    8  A    between atoms: N4_26  and  C18_28 
REMARK    9  A    between atoms: C18_28  and  C19_29 
REMARK   10  A    between atoms: C19_29  and  C22_32 
ROOT
HETATM    1  C8  UNL     1      -0.404  -1.453  -0.117  1.00  0.00     0.131 C 
HETATM    2  C9  UNL     1      -0.475  -2.852   0.447  1.00  0.00     0.049 C 
HETATM    3  C10 UNL     1       0.832  -3.608   0.354  1.00  0.00     0.029 C 
HETATM    4  C11 UNL     1       1.859  -2.728  -0.304  1.00  0.00     0.093 C 
HETATM    5  C12 UNL     1       1.312  -2.325  -1.656  1.00  0.00     0.029 C 
HETATM    6  C13 UNL     1       0.013  -1.552  -1.568  1.00  0.00     0.049 C 
HETATM    7  N2  UNL     1       1.941  -1.530   0.559  1.00  0.00    -0.314 N 
HETATM    8  C24 UNL     1       0.739  -0.775   0.566  1.00  0.00     0.132 C 
HETATM    9  N6  UNL     1       0.686   0.377   1.119  1.00  0.00    -0.285 N 
ATOM     10  H6  UNL     1       1.539   0.731   1.553  1.00  0.00     0.182 HD
HETATM   11 CL1  UNL     1      -0.709   1.372   1.187  1.00  0.00     0.012 Cl
ENDROOT
BRANCH   7  12
HETATM   12  C14 UNL     1       3.105  -1.233   1.266  1.00  0.00     0.126 A 
HETATM   13  C15 UNL     1       3.294  -1.711   2.543  1.00  0.00     0.067 A 
HETATM   14  C16 UNL     1       4.463  -1.414   3.252  1.00  0.00     0.110 A 
HETATM   15  N3  UNL     1       5.393  -0.655   2.662  1.00  0.00    -0.202 N 
HETATM   16  C17 UNL     1       5.224  -0.183   1.421  1.00  0.00     0.679 A 
ATOM     17  H3  UNL     1       6.249  -0.431   3.169  1.00  0.00     0.183 HD
HETATM   18  N5  UNL     1       4.089  -0.482   0.756  1.00  0.00    -0.176 N 
ATOM     19  H5  UNL     1       3.974  -0.115  -0.189  1.00  0.00     0.186 HD
BRANCH  16  20
HETATM   20  N4  UNL     1       6.149   0.558   0.864  1.00  0.00    -0.225 N 
ATOM     21  H4  UNL     1       7.000   0.773   1.384  1.00  0.00     0.177 HD
BRANCH  20  22
HETATM   22  C18 UNL     1       5.984   1.077  -0.478  1.00  0.00     0.146 C 
BRANCH  22  23
HETATM   23  C19 UNL     1       7.013   2.135  -0.797  1.00  0.00    -0.032 C 
HETATM   24  C20 UNL     1       6.796   2.637  -2.203  1.00  0.00     0.016 C 
HETATM   25  C21 UNL     1       6.790   3.345   0.120  1.00  0.00     0.016 C 
BRANCH  23  26
HETATM   26  C22 UNL     1       8.413   1.669  -0.556  1.00  0.00     0.006 C 
HETATM   27  C23 UNL     1       8.793   0.471  -1.377  1.00  0.00     0.006 C 
ENDBRANCH  23  26
ENDBRANCH  22  23
ENDBRANCH  20  22
ENDBRANCH  16  20
ENDBRANCH   7  12
BRANCH   1  28
HETATM   28  O3  UNL     1      -1.608  -0.829   0.096  1.00  0.00    -0.285 OA
BRANCH  28  29
HETATM   29  C7  UNL     1      -2.865  -1.114  -0.331  1.00  0.00     0.362 C 
HETATM   30  N1  UNL     1      -4.029  -0.357  -0.007  1.00  0.00    -0.332 N 
ATOM     31  H1  UNL     1      -3.938   0.466   0.588  1.00  0.00     0.165 HD
HETATM   32  O2  UNL     1      -2.977  -2.136  -1.071  1.00  0.00    -0.238 OA
BRANCH  30  33
HETATM   33  C6  UNL     1      -5.327  -0.726  -0.498  1.00  0.00     0.086 C 
HETATM   34  C5  UNL     1      -6.267  -1.145   0.613  1.00  0.00     0.028 C 
HETATM   35  C4  UNL     1      -7.658  -0.744   0.188  1.00  0.00     0.034 C 
HETATM   36  C3  UNL     1      -7.776   0.766   0.175  1.00  0.00     0.121 C 
HETATM   37  C26 UNL     1      -6.672   1.383  -0.632  1.00  0.00     0.034 C 
HETATM   38  C25 UNL     1      -5.962   0.312  -1.391  1.00  0.00     0.028 C 
BRANCH  36  39
HETATM   39  O1  UNL     1      -9.031   1.159  -0.248  1.00  0.00    -0.386 OA
BRANCH  39  40
HETATM   40  C2  UNL     1      -9.703   1.794   0.767  1.00  0.00     0.163 C 
HETATM   41  C1  UNL     1      -8.942   3.027   1.218  1.00  0.00     0.033 C 
ENDBRANCH  39  40
ENDBRANCH  36  39
ENDBRANCH  30  33
ENDBRANCH  28  29
ENDBRANCH   1  28
TORSDOF 10
