REMARK  9 active torsions:
REMARK  status: ('A' for Active; 'I' for Inactive)
REMARK    1  A    between atoms: C2_2  and  C3_3 
REMARK    2  A    between atoms: C3_3  and  C4_4 
REMARK    3  A    between atoms: C6_9  and  O1_10 
REMARK    4  A    between atoms: N2_12  and  C7_13 
REMARK    5  A    between atoms: C12_18  and  N3_19 
REMARK       I    between atoms: N3_19  and  C13_21 
REMARK    6  A    between atoms: C13_21  and  C14_23 
REMARK    7  A    between atoms: C14_23  and  N4_24 
REMARK    8  A    between atoms: C16_26  and  C17_27 
REMARK    9  A    between atoms: C17_27  and  C18_28 
ROOT
HETATM    1  C7  UNL     1      -3.669   0.720   0.645  1.00  0.00     0.046 C 
HETATM    2  C8  UNL     1      -3.965   1.991   1.468  1.00  0.00     0.032 C 
HETATM    3  C9  UNL     1      -3.055   3.052   0.872  1.00  0.00     0.009 C 
HETATM    4  C10 UNL     1      -2.222   2.282  -0.116  1.00  0.00     0.011 C 
HETATM    5  C11 UNL     1      -3.310   1.320  -0.654  1.00  0.00     0.038 C 
HETATM    6  C12 UNL     1      -1.356   1.311   0.637  1.00  0.00     0.094 C 
HETATM    7  C23 UNL     1      -2.316   0.254   1.152  1.00  0.00     0.033 C 
HETATM    8  C24 UNL     1      -1.974  -1.124   0.653  1.00  0.00     0.014 C 
ENDROOT
BRANCH   6   9
HETATM    9  N3  UNL     1      -0.350   0.779  -0.230  1.00  0.00    -0.354 N 
HETATM   10  C13 UNL     1       1.031   1.002   0.028  1.00  0.00     0.237 C 
HETATM   11  O2  UNL     1       1.372   1.674   1.028  1.00  0.00    -0.272 OA
ATOM     12  H3  UNL     1      -0.627   0.232  -1.045  1.00  0.00     0.162 HD
BRANCH  10  13
HETATM   13  C14 UNL     1       2.070   0.450  -0.870  1.00  0.00     0.252 C 
BRANCH  13  14
HETATM   14  N4  UNL     1       3.386   0.821  -0.390  1.00  0.00    -0.278 N 
HETATM   15  C15 UNL     1       4.123   0.127   0.458  1.00  0.00     0.138 A 
HETATM   16  C16 UNL     1       5.304   0.831   0.651  1.00  0.00     0.044 A 
HETATM   17  N5  UNL     1       5.210   1.939  -0.113  1.00  0.00    -0.289 N 
HETATM   18  N6  UNL     1       4.043   1.908  -0.730  1.00  0.00    -0.240 N 
ATOM     19  H5  UNL     1       5.915   2.671  -0.199  1.00  0.00     0.188 HD
ATOM     20  H6  UNL     1       3.702   2.621  -1.375  1.00  0.00     0.208 HD
BRANCH  16  21
HETATM   21  C17 UNL     1       6.401   0.399   1.541  1.00  0.00     0.064 C 
BRANCH  21  22
HETATM   22  C18 UNL     1       7.422  -0.456   0.887  1.00  0.00    -0.009 C 
HETATM   23  C19 UNL     1       8.099   0.234  -0.258  1.00  0.00     0.005 C 
HETATM   24  C20 UNL     1       8.490  -0.870  -1.228  1.00  0.00     0.000 C 
HETATM   25  C21 UNL     1       8.040  -2.166  -0.605  1.00  0.00     0.000 C 
HETATM   26  C22 UNL     1       6.866  -1.717   0.257  1.00  0.00     0.005 C 
ENDBRANCH  21  22
ENDBRANCH  16  21
ENDBRANCH  13  14
ENDBRANCH  10  13
ENDBRANCH   6   9
BRANCH   1  27
HETATM   27  N2  UNL     1      -4.708  -0.222   0.709  1.00  0.00    -0.304 N 
HETATM   28  C4  UNL     1      -5.382  -0.881  -0.241  1.00  0.00     0.087 A 
HETATM   29  N1  UNL     1      -6.302  -1.669   0.395  1.00  0.00    -0.336 N 
HETATM   30  C5  UNL     1      -6.213  -1.516   1.716  1.00  0.00     0.132 A 
ATOM     31  H1  UNL     1      -6.963  -2.287  -0.076  1.00  0.00     0.168 HD
HETATM   32 BR1  UNL     1      -7.295  -2.412   3.012  1.00  0.00    -0.026 Br
HETATM   33  C6  UNL     1      -5.208  -0.603   1.925  1.00  0.00     0.179 A 
BRANCH  28  34
HETATM   34  C3  UNL     1      -5.161  -0.757  -1.680  1.00  0.00     0.076 C 
BRANCH  34  35
HETATM   35  C2  UNL     1      -6.206  -1.650  -2.380  1.00  0.00     0.003 C 
HETATM   36  C1  UNL     1      -7.564  -1.125  -1.975  1.00  0.00     0.005 C 
ENDBRANCH  34  35
ENDBRANCH  28  34
BRANCH  33  37
HETATM   37  O1  UNL     1      -4.828  -0.191   3.191  1.00  0.00    -0.344 OA
ATOM     38  H1  UNL     1      -4.133   0.440   3.336  1.00  0.00     0.219 HD
ENDBRANCH  33  37
ENDBRANCH   1  27
TORSDOF 9
