REMARK  6 active torsions:
REMARK  status: ('A' for Active; 'I' for Inactive)
REMARK    1  A    between atoms: C5_8  and  C6_9 
REMARK    2  A    between atoms: N3_10  and  N4_12 
REMARK    3  A    between atoms: N4_12  and  C7_14 
REMARK    4  A    between atoms: C8_17  and  N6_18 
REMARK    5  A    between atoms: C9_23  and  O1_24 
REMARK    6  A    between atoms: O1_24  and  C10_25 
ROOT
HETATM    1  C7  UNL     1      -0.151   1.371  -0.273  1.00  0.00     0.161 A 
HETATM    2  N5  UNL     1       0.160   0.644  -1.360  1.00  0.00    -0.174 N 
ATOM      3  H5  UNL     1       1.118   0.331  -1.518  1.00  0.00     0.186 HD
HETATM    4  C8  UNL     1      -0.815   0.336  -2.237  1.00  0.00     0.679 A 
HETATM    5  N7  UNL     1      -2.091   0.727  -2.069  1.00  0.00    -0.169 N 
ATOM      6  H7  UNL     1      -2.792   0.467  -2.763  1.00  0.00     0.186 HD
HETATM    7  C9  UNL     1      -2.454   1.454  -1.002  1.00  0.00     0.188 A 
HETATM    8  C16 UNL     1      -1.453   1.778  -0.088  1.00  0.00     0.131 A 
HETATM    9 CL2  UNL     1      -1.872   2.714   1.306  1.00  0.00    -0.076 Cl
ENDROOT
BRANCH   1  10
HETATM   10  N4  UNL     1       0.796   1.654   0.552  1.00  0.00    -0.284 N 
ATOM     11  H4  UNL     1       0.576   2.205   1.382  1.00  0.00     0.188 HD
BRANCH  10  12
HETATM   12  N3  UNL     1       2.098   1.239   0.355  1.00  0.00    -0.309 N 
HETATM   13  C6  UNL     1       2.441   0.071   0.826  1.00  0.00     0.122 C 
ATOM     14  H3  UNL     1       2.769   1.825  -0.142  1.00  0.00     0.186 HD
BRANCH  13  15
HETATM   15  C5  UNL     1       3.807  -0.368   0.621  1.00  0.00     0.021 A 
HETATM   16  C2  UNL     1       4.322  -1.572   1.057  1.00  0.00     0.035 A 
HETATM   17  C1  UNL     1       3.555  -2.619   1.810  1.00  0.00     0.070 C 
HETATM   18  N1  UNL     1       5.605  -1.596   0.673  1.00  0.00    -0.303 N 
HETATM   19  N2  UNL     1       5.905  -0.463   0.021  1.00  0.00    -0.307 N 
ATOM     20  H1  UNL     1       6.256  -2.361   0.850  1.00  0.00     0.186 HD
HETATM   21  C3  UNL     1       7.192  -0.106  -0.552  1.00  0.00     0.177 C 
HETATM   22  C4  UNL     1       4.825   0.319  -0.032  1.00  0.00     0.124 A 
ENDBRANCH  13  15
ENDBRANCH  10  12
ENDBRANCH   1  10
BRANCH   4  23
HETATM   23  N6  UNL     1      -0.491  -0.365  -3.276  1.00  0.00    -0.234 N 
ATOM     24  H62 UNL     1       0.477  -0.661  -3.403  1.00  0.00     0.174 HD
ATOM     25  H61 UNL     1      -1.229  -0.598  -3.940  1.00  0.00     0.174 HD
ENDBRANCH   4  23
BRANCH   7  26
HETATM   26  O1  UNL     1      -3.775   1.845  -0.851  1.00  0.00    -0.292 OA
BRANCH  26  27
HETATM   27  C10 UNL     1      -4.736   1.033  -0.277  1.00  0.00     0.078 A 
HETATM   28  C11 UNL     1      -6.020   1.507  -0.168  1.00  0.00     0.039 A 
HETATM   29  C12 UNL     1      -7.010   0.711   0.407  1.00  0.00     0.026 A 
HETATM   30  C13 UNL     1      -6.752  -0.551   0.878  1.00  0.00     0.034 A 
HETATM   31 CL1  UNL     1      -8.011  -1.554   1.605  1.00  0.00    -0.084 Cl
HETATM   32  C14 UNL     1      -5.453  -1.024   0.764  1.00  0.00     0.026 A 
HETATM   33  C15 UNL     1      -4.473  -0.234   0.194  1.00  0.00     0.039 A 
ENDBRANCH  26  27
ENDBRANCH   7  26
TORSDOF 6
