REMARK  6 active torsions:
REMARK  status: ('A' for Active; 'I' for Inactive)
REMARK    1  A    between atoms: N1_1  and  C1_4 
REMARK    2  A    between atoms: C3_9  and  N4_10 
REMARK    3  A    between atoms: N4_10  and  N5_12 
REMARK       I    between atoms: N5_12  and  C4_14 
REMARK    4  A    between atoms: C4_14  and  C5_16 
REMARK    5  A    between atoms: C8_21  and  S1_22 
REMARK    6  A    between atoms: S1_22  and  C9_25 
ROOT
HETATM    1  C1  UNL     1      -0.711  -1.606  -0.928  1.00  0.00     0.122 A 
HETATM    2  N2  UNL     1       0.489  -1.588  -1.533  1.00  0.00    -0.328 N 
ATOM      3  H2  UNL     1       0.582  -1.929  -2.490  1.00  0.00     0.168 HD
HETATM    4  C2  UNL     1       1.561  -1.124  -0.882  1.00  0.00     0.146 A 
HETATM    5  N3  UNL     1       2.839  -1.108  -1.535  1.00  0.00    -0.080 NA
HETATM    6  C3  UNL     1       1.495  -0.649   0.415  1.00  0.00     0.090 A 
HETATM    7  C7  UNL     1       0.281  -0.658   1.051  1.00  0.00     0.062 A 
HETATM    8  C8  UNL     1      -0.827  -1.146   0.357  1.00  0.00     0.110 A 
ENDROOT
BRANCH   6   9
HETATM    9  N4  UNL     1       2.652  -0.169   1.061  1.00  0.00    -0.295 N 
ATOM     10  H4  UNL     1       3.049  -0.721   1.821  1.00  0.00     0.187 HD
BRANCH   9  11
HETATM   11  N5  UNL     1       3.232   0.935   0.736  1.00  0.00    -0.265 N 
HETATM   12  C4  UNL     1       4.395   1.274   1.492  1.00  0.00     0.282 C 
HETATM   13  O1  UNL     1       4.261   1.478   2.710  1.00  0.00    -0.265 OA
ATOM     14  H5  UNL     1       2.882   1.530  -0.015  1.00  0.00     0.190 HD
BRANCH  12  15
HETATM   15  C5  UNL     1       5.699   1.381   0.872  1.00  0.00     0.114 C 
HETATM   16 CL1  UNL     1       5.889   1.090  -0.862  1.00  0.00    -0.077 Cl
HETATM   17  C6  UNL     1       6.750   1.692   1.585  1.00  0.00     0.114 C 
HETATM   18 CL2  UNL     1       6.618   1.986   3.287  1.00  0.00    -0.095 Cl
ENDBRANCH  12  15
ENDBRANCH   9  11
ENDBRANCH   6   9
BRANCH   8  19
HETATM   19  S1  UNL     1      -2.356  -1.136   1.193  1.00  0.00     0.210 S 
HETATM   20  O2  UNL     1      -2.924  -2.535   1.303  1.00  0.00    -0.217 OA
HETATM   21  O3  UNL     1      -2.141  -0.644   2.593  1.00  0.00    -0.217 OA
BRANCH  19  22
HETATM   22  C9  UNL     1      -3.467  -0.114   0.320  1.00  0.00     0.064 A 
HETATM   23  C10 UNL     1      -3.286   1.253   0.492  1.00  0.00     0.024 A 
HETATM   24  C11 UNL     1      -4.144   2.096  -0.158  1.00  0.00     0.002 A 
HETATM   25  C12 UNL     1      -5.151   1.599  -0.954  1.00  0.00     0.000 A 
HETATM   26  C13 UNL     1      -5.309   0.240  -1.108  1.00  0.00     0.002 A 
HETATM   27  C14 UNL     1      -4.450  -0.637  -0.457  1.00  0.00     0.024 A 
ENDBRANCH  19  22
ENDBRANCH   8  19
BRANCH   1  28
HETATM   28  N1  UNL     1      -1.761  -2.052  -1.528  1.00  0.00    -0.384 N 
ATOM     29  H12 UNL     1      -1.675  -2.395  -2.485  1.00  0.00     0.157 HD
ATOM     30  H11 UNL     1      -2.672  -2.066  -1.069  1.00  0.00     0.157 HD
ENDBRANCH   1  28
TORSDOF 6
