REMARK  5 active torsions:
REMARK  status: ('A' for Active; 'I' for Inactive)
REMARK    1  A    between atoms: C2_2  and  N1_4 
REMARK    2  A    between atoms: C2_2  and  O1_8 
REMARK    3  A    between atoms: O1_8  and  C4_9 
REMARK    4  A    between atoms: C7_12  and  N2_13 
REMARK    5  A    between atoms: C10_18  and  C12_20 
ROOT
HETATM    1  N2  UNL     1       1.421   0.586   0.615  1.00  0.00    -0.276 N 
HETATM    2  C8  UNL     1       2.134   1.737   1.135  1.00  0.00     0.368 C 
HETATM    3  O2  UNL     1       1.830   2.938   0.911  1.00  0.00    -0.238 OA
HETATM    4  O3  UNL     1       3.205   1.262   1.921  1.00  0.00    -0.301 OA
HETATM    5  C9  UNL     1       2.930  -0.139   2.099  1.00  0.00     0.218 C 
HETATM    6  C10 UNL     1       2.458  -0.427   0.650  1.00  0.00     0.105 C 
HETATM    7  C11 UNL     1       1.955  -1.808   0.477  1.00  0.00     0.048 C 
ENDROOT
BRANCH   1   8
HETATM    8  C7  UNL     1       0.056   0.573   0.253  1.00  0.00     0.041 A 
HETATM    9  C6  UNL     1      -0.514   1.426  -0.673  1.00  0.00     0.032 A 
HETATM   10  C5  UNL     1      -1.850   1.405  -0.992  1.00  0.00     0.039 A 
HETATM   11  C4  UNL     1      -2.733   0.501  -0.385  1.00  0.00     0.072 A 
HETATM   12  C17 UNL     1      -2.180  -0.352   0.538  1.00  0.00     0.039 A 
HETATM   13  C16 UNL     1      -0.839  -0.328   0.853  1.00  0.00     0.032 A 
BRANCH  11  14
HETATM   14  O1  UNL     1      -4.064   0.498  -0.717  1.00  0.00    -0.313 OA
BRANCH  14  15
HETATM   15  C2  UNL     1      -5.116  -0.257  -0.283  1.00  0.00     0.221 C 
HETATM   16  C1  UNL     1      -6.354   0.268  -1.050  1.00  0.00     0.078 C 
HETATM   17  C3  UNL     1      -5.034  -1.742  -0.480  1.00  0.00     0.078 C 
BRANCH  15  18
HETATM   18  N1  UNL     1      -5.404   0.078   1.123  1.00  0.00    -0.047 N 
ATOM     19  H13 UNL     1      -5.613   1.063   1.286  1.00  0.00     0.278 HD
ATOM     20  H12 UNL     1      -6.295  -0.281   1.467  1.00  0.00     0.278 HD
ATOM     21  H11 UNL     1      -4.588  -0.268   1.628  1.00  0.00     0.278 HD
ENDBRANCH  15  18
ENDBRANCH  14  15
ENDBRANCH  11  14
ENDBRANCH   1   8
BRANCH   6  22
HETATM   22  C12 UNL     1       3.629  -0.115  -0.215  1.00  0.00     0.065 A 
HETATM   23  N3  UNL     1       4.922   0.062   0.209  1.00  0.00    -0.343 N 
HETATM   24  C13 UNL     1       5.725   0.341  -0.824  1.00  0.00     0.140 A 
ATOM     25  H3  UNL     1       5.229  -0.009   1.179  1.00  0.00     0.167 HD
HETATM   26  N4  UNL     1       7.132   0.588  -0.793  1.00  0.00    -0.081 NA
HETATM   27  C14 UNL     1       4.981   0.355  -1.965  1.00  0.00     0.099 A 
HETATM   28 CL1  UNL     1       5.556   0.666  -3.574  1.00  0.00    -0.079 Cl
HETATM   29  C15 UNL     1       3.677   0.069  -1.582  1.00  0.00     0.084 A 
HETATM   30 CL2  UNL     1       2.376  -0.032  -2.726  1.00  0.00    -0.080 Cl
ENDBRANCH   6  22
TORSDOF 5
