REMARK  9 active torsions:
REMARK  status: ('A' for Active; 'I' for Inactive)
REMARK    1  A    between atoms: C2_2  and  C5_5 
REMARK    2  A    between atoms: N3_11  and  C7_13 
REMARK    3  A    between atoms: C7_13  and  N4_15 
REMARK    4  A    between atoms: N4_15  and  C8_17 
REMARK    5  A    between atoms: C8_17  and  C9_18 
REMARK    6  A    between atoms: C12_21  and  C13_22 
REMARK    7  A    between atoms: C13_22  and  N5_23 
REMARK    8  A    between atoms: N5_23  and  O1_24 
REMARK    9  A    between atoms: O1_24  and  C14_25 
ROOT
HETATM    1  C7  UNL     1       0.344  -0.491  -0.121  1.00  0.00     0.173 C 
HETATM    2  S1  UNL     1       0.570  -2.048  -0.523  1.00  0.00    -0.041 SA
ENDROOT
BRANCH   1   3
HETATM    3  N3  UNL     1      -0.822  -0.056   0.576  1.00  0.00    -0.312 N 
HETATM    4  C6  UNL     1      -2.017  -0.349   0.134  1.00  0.00     0.167 A 
HETATM    5  N2  UNL     1      -2.468  -1.009  -0.899  1.00  0.00    -0.279 N 
HETATM    6  S2  UNL     1      -3.511   0.133   0.886  1.00  0.00    -0.037 SA
HETATM    7  N1  UNL     1      -3.729  -1.133  -1.091  1.00  0.00    -0.295 N 
ATOM      8  H2  UNL     1      -1.812  -1.429  -1.558  1.00  0.00     0.189 HD
HETATM    9  C5  UNL     1      -4.576  -0.582  -0.229  1.00  0.00     0.077 A 
ATOM     10  H1  UNL     1      -4.079  -1.650  -1.898  1.00  0.00     0.187 HD
ATOM     11  H3  UNL     1      -0.722   0.491   1.431  1.00  0.00     0.170 HD
BRANCH   9  12
HETATM   12  C2  UNL     1      -6.071  -0.563  -0.202  1.00  0.00    -0.001 C 
HETATM   13  C1  UNL     1      -6.593  -1.945  -0.398  1.00  0.00     0.021 C 
HETATM   14  C3  UNL     1      -6.478  -0.002   1.154  1.00  0.00     0.021 C 
HETATM   15  C4  UNL     1      -6.600   0.344  -1.271  1.00  0.00     0.021 C 
ENDBRANCH   9  12
ENDBRANCH   1   3
BRANCH   1  16
HETATM   16  N4  UNL     1       1.317   0.497  -0.410  1.00  0.00    -0.361 N 
ATOM     17  H4  UNL     1       1.157   1.457  -0.106  1.00  0.00     0.162 HD
BRANCH  16  18
HETATM   18  C8  UNL     1       2.521   0.179  -1.119  1.00  0.00     0.187 C 
BRANCH  18  19
HETATM   19  C9  UNL     1       3.606   1.070  -0.560  1.00  0.00     0.071 A 
HETATM   20  C10 UNL     1       3.671   2.425  -0.653  1.00  0.00     0.037 A 
HETATM   21  C11 UNL     1       4.824   2.802   0.005  1.00  0.00     0.042 A 
HETATM   22  C12 UNL     1       5.419   1.666   0.473  1.00  0.00     0.107 A 
HETATM   23  O2  UNL     1       4.664   0.672   0.115  1.00  0.00    -0.311 OA
BRANCH  22  24
HETATM   24  C13 UNL     1       6.686   1.575   1.252  1.00  0.00     0.255 C 
BRANCH  24  25
HETATM   25  N5  UNL     1       7.148   0.534   1.589  1.00  0.00    -0.287 NA
BRANCH  25  26
HETATM   26  O1  UNL     1       7.789  -0.452   2.033  1.00  0.00    -0.155 OA
BRANCH  26  27
HETATM   27  C14 UNL     1       8.478  -1.519   1.444  1.00  0.00     0.447 C 
HETATM   28  F1  UNL     1       9.820  -1.496   1.851  1.00  0.00    -0.199 F 
HETATM   29 CL1  UNL     1       7.806  -3.077   2.025  1.00  0.00    -0.058 Cl
ENDBRANCH  26  27
ENDBRANCH  25  26
ENDBRANCH  24  25
ENDBRANCH  22  24
ENDBRANCH  18  19
ENDBRANCH  16  18
ENDBRANCH   1  16
TORSDOF 9
