REMARK  7 active torsions:
REMARK  status: ('A' for Active; 'I' for Inactive)
REMARK    1  A    between atoms: O1_1  and  C1_3 
REMARK    2  A    between atoms: C3_5  and  C4_6 
REMARK    3  A    between atoms: C4_6  and  O2_7 
REMARK    4  A    between atoms: C4_6  and  N1_9 
REMARK    5  A    between atoms: N1_9  and  N2_11 
REMARK    6  A    between atoms: C5_13  and  C6_15 
REMARK    7  A    between atoms: N3_22  and  C11_23 
ROOT
HETATM    1  C4  UNL     1       1.308  -1.009   0.045  1.00  0.00     0.268 C 
ENDROOT
BRANCH   1   2
HETATM    2  C3  UNL     1      -0.021  -0.402  -0.226  1.00  0.00     0.011 A 
HETATM    3  C2  UNL     1      -0.328   0.601  -1.106  1.00  0.00     0.069 A 
HETATM    4  C1  UNL     1      -1.669   0.861  -1.041  1.00  0.00     0.147 A 
HETATM    5  N3  UNL     1      -2.191   0.025  -0.129  1.00  0.00    -0.302 N 
HETATM    6  C10 UNL     1      -1.229  -0.754   0.386  1.00  0.00     0.111 A 
BRANCH   4   7
HETATM    7  O1  UNL     1      -2.385   1.819  -1.784  1.00  0.00    -0.346 OA
ATOM      8  H1  UNL     1      -3.317   2.000  -1.739  1.00  0.00     0.219 HD
ENDBRANCH   4   7
BRANCH   5   9
HETATM    9  C11 UNL     1      -3.572  -0.003   0.216  1.00  0.00     0.041 A 
HETATM   10  C12 UNL     1      -4.053   0.820   1.213  1.00  0.00     0.030 A 
HETATM   11  C13 UNL     1      -5.389   0.808   1.562  1.00  0.00     0.002 A 
HETATM   12  C14 UNL     1      -6.301  -0.019   0.939  1.00  0.00     0.000 A 
HETATM   13  C15 UNL     1      -5.823  -0.843  -0.059  1.00  0.00     0.002 A 
HETATM   14  C16 UNL     1      -4.475  -0.834  -0.414  1.00  0.00     0.030 A 
ENDBRANCH   5   9
ENDBRANCH   1   2
BRANCH   1  15
HETATM   15  O2  UNL     1       1.257  -2.390   0.056  1.00  0.00    -0.371 OA
ATOM     16  H2  UNL     1       2.107  -2.778   0.229  1.00  0.00     0.212 HD
ENDBRANCH   1  15
BRANCH   1  17
HETATM   17  N1  UNL     1       2.300  -0.521  -0.877  1.00  0.00    -0.301 N 
ATOM     18  H1  UNL     1       2.718  -1.214  -1.498  1.00  0.00     0.183 HD
BRANCH  17  19
HETATM   19  N2  UNL     1       2.745   0.761  -1.016  1.00  0.00    -0.277 N 
HETATM   20  C5  UNL     1       3.842   1.301  -0.724  1.00  0.00     0.216 C 
HETATM   21  F1  UNL     1       3.964   2.636  -1.000  1.00  0.00    -0.184 F 
ATOM     22  H2  UNL     1       2.064   1.397  -1.432  1.00  0.00     0.189 HD
BRANCH  20  23
HETATM   23  C6  UNL     1       5.002   0.631  -0.115  1.00  0.00     0.064 A 
HETATM   24  C7  UNL     1       5.165  -0.677   0.264  1.00  0.00     0.044 A 
HETATM   25  C8  UNL     1       6.432  -0.824   0.787  1.00  0.00     0.144 A 
HETATM   26  O3  UNL     1       7.001   0.349   0.722  1.00  0.00    -0.314 OA
HETATM   27  C9  UNL     1       6.207   1.247   0.199  1.00  0.00     0.136 A 
HETATM   28 BR1  UNL     1       6.622   3.084  -0.085  1.00  0.00    -0.022 Br
ENDBRANCH  20  23
ENDBRANCH  17  19
ENDBRANCH   1  17
TORSDOF 7
