REMARK  7 active torsions:
REMARK  status: ('A' for Active; 'I' for Inactive)
REMARK    1  A    between atoms: C2_2  and  S1_3 
REMARK    2  A    between atoms: S1_3  and  C3_4 
REMARK    3  A    between atoms: C3_4  and  N1_5 
REMARK    4  A    between atoms: N1_5  and  S2_7 
REMARK    5  A    between atoms: S2_7  and  C4_10 
REMARK    6  A    between atoms: C7_13  and  N2_14 
REMARK       I    between atoms: N2_14  and  C8_16 
REMARK    7  A    between atoms: C8_16  and  C9_18 
ROOT
HETATM    1  C4  UNL     1       1.275  -0.122   0.488  1.00  0.00     0.082 A 
HETATM    2  C5  UNL     1       0.667  -0.990  -0.379  1.00  0.00     0.027 A 
HETATM    3  C6  UNL     1      -0.724  -0.988  -0.482  1.00  0.00     0.033 A 
HETATM    4  C7  UNL     1      -1.546  -0.163   0.235  1.00  0.00     0.057 A 
HETATM    5  C13 UNL     1      -0.891   0.715   1.115  1.00  0.00     0.062 A 
HETATM    6 CL1  UNL     1      -1.842   1.812   2.080  1.00  0.00    -0.082 Cl
HETATM    7  C14 UNL     1       0.470   0.720   1.223  1.00  0.00     0.051 A 
ENDROOT
BRANCH   4   8
HETATM    8  N2  UNL     1      -2.961  -0.138   0.152  1.00  0.00    -0.320 N 
HETATM    9  C8  UNL     1      -3.811  -0.905  -0.638  1.00  0.00     0.280 C 
HETATM   10  O3  UNL     1      -3.397  -1.775  -1.429  1.00  0.00    -0.265 OA
ATOM     11  H2  UNL     1      -3.422   0.540   0.759  1.00  0.00     0.169 HD
BRANCH   9  12
HETATM   12  C9  UNL     1      -5.272  -0.670  -0.526  1.00  0.00     0.145 A 
HETATM   13  C10 UNL     1      -6.226  -1.348  -1.240  1.00  0.00     0.047 A 
HETATM   14  C11 UNL     1      -7.443  -0.825  -0.838  1.00  0.00     0.056 A 
HETATM   15  C12 UNL     1      -7.132   0.144   0.102  1.00  0.00     0.158 A 
HETATM   16  N3  UNL     1      -8.098   0.943   0.784  1.00  0.00    -0.075 NA
HETATM   17  O4  UNL     1      -5.813   0.204   0.259  1.00  0.00    -0.290 OA
ENDBRANCH   9  12
ENDBRANCH   4   8
BRANCH   1  18
HETATM   18  S2  UNL     1       3.011  -0.118   0.624  1.00  0.00     0.269 S 
HETATM   19  O1  UNL     1       3.434   0.384   1.986  1.00  0.00    -0.200 OA
HETATM   20  O2  UNL     1       3.537  -1.487   0.377  1.00  0.00    -0.200 OA
BRANCH  18  21
HETATM   21  N1  UNL     1       3.608   1.026  -0.547  1.00  0.00    -0.239 N 
ATOM     22  H1  UNL     1       2.983   1.694  -0.998  1.00  0.00     0.189 HD
BRANCH  21  23
HETATM   23  C3  UNL     1       4.856   1.000  -0.822  1.00  0.00     0.014 C 
BRANCH  23  24
HETATM   24  S1  UNL     1       6.459   0.837  -1.074  1.00  0.00    -0.069 SA
BRANCH  24  25
HETATM   25  C2  UNL     1       7.545   1.246   0.344  1.00  0.00     0.084 C 
HETATM   26  C1  UNL     1       7.826   0.060   1.211  1.00  0.00     0.017 C 
ENDBRANCH  24  25
ENDBRANCH  23  24
ENDBRANCH  21  23
ENDBRANCH  18  21
ENDBRANCH   1  18
TORSDOF 7
