REMARK  4 active torsions:
REMARK  status: ('A' for Active; 'I' for Inactive)
REMARK    1  A    between atoms: C2_2  and  N1_3 
REMARK    2  A    between atoms: C2_2  and  C14_17 
REMARK       I    between atoms: N1_3  and  C3_5 
REMARK    3  A    between atoms: C3_5  and  C4_7 
REMARK       I    between atoms: C14_17  and  N2_19 
REMARK    4  A    between atoms: N2_19  and  C16_21 
ROOT
HETATM    1  C1  UNL     1       0.717   1.874  -1.701  1.00  0.00     0.042 C 
HETATM    2  C2  UNL     1       0.574   0.592  -0.918  1.00  0.00     0.172 C 
ENDROOT
BRANCH   2   3
HETATM    3  N1  UNL     1      -0.507   0.731  -0.000  1.00  0.00    -0.348 N 
HETATM    4  C3  UNL     1      -1.587  -0.184  -0.043  1.00  0.00     0.223 C 
HETATM    5  O1  UNL     1      -1.543  -1.098  -0.906  1.00  0.00    -0.273 OA
ATOM      6  H1  UNL     1      -0.503   1.486   0.685  1.00  0.00     0.163 HD
BRANCH   4   7
HETATM    7  C4  UNL     1      -2.748  -0.106   0.878  1.00  0.00     0.086 C 
HETATM    8  C5  UNL     1      -3.520   1.162   0.786  1.00  0.00    -0.001 C 
HETATM    9  C6  UNL     1      -4.522   1.147   1.951  1.00  0.00     0.010 C 
HETATM   10  C10 UNL     1      -4.354   1.270  -0.470  1.00  0.00     0.010 C 
HETATM   11  C7  UNL     1      -5.427  -0.057   1.827  1.00  0.00    -0.013 C 
HETATM   12  C8  UNL     1      -6.242   0.066   0.568  1.00  0.00     0.009 C 
HETATM   13  C13 UNL     1      -4.640  -1.346   1.825  1.00  0.00     0.010 C 
HETATM   14  C9  UNL     1      -5.297   0.110  -0.594  1.00  0.00    -0.013 C 
HETATM   15  C11 UNL     1      -4.480  -1.164  -0.597  1.00  0.00     0.010 C 
HETATM   16  C12 UNL     1      -3.658  -1.264   0.650  1.00  0.00    -0.001 C 
ENDBRANCH   4   7
ENDBRANCH   2   3
BRANCH   2  17
HETATM   17  C14 UNL     1       1.867   0.289  -0.254  1.00  0.00     0.242 C 
HETATM   18  O2  UNL     1       1.848   0.226   1.002  1.00  0.00    -0.271 OA
HETATM   19  N2  UNL     1       3.087   0.071  -0.939  1.00  0.00    -0.350 N 
HETATM   20  C15 UNL     1       3.110   0.136  -2.404  1.00  0.00     0.153 C 
BRANCH  19  21
HETATM   21  C16 UNL     1       4.299  -0.211  -0.201  1.00  0.00     0.088 C 
HETATM   22  C17 UNL     1       5.354   0.850  -0.409  1.00  0.00     0.040 C 
HETATM   23  C18 UNL     1       6.598   0.495   0.332  1.00  0.00     0.142 C 
HETATM   24  S1  UNL     1       6.398  -0.857   1.462  1.00  0.00     0.144 S 
HETATM   25  O3  UNL     1       7.768  -1.332   1.856  1.00  0.00    -0.228 OA
HETATM   26  O4  UNL     1       5.688  -0.457   2.714  1.00  0.00    -0.228 OA
HETATM   27  C19 UNL     1       5.585  -2.172   0.605  1.00  0.00     0.142 C 
HETATM   28  C20 UNL     1       4.802  -1.594  -0.558  1.00  0.00     0.040 C 
ENDBRANCH  19  21
ENDBRANCH   2  17
TORSDOF 4
