REMARK  4 active torsions:
REMARK  status: ('A' for Active; 'I' for Inactive)
REMARK    1  A    between atoms: C2_2  and  N1_3 
REMARK    2  A    between atoms: C4_5  and  N2_6 
REMARK    3  A    between atoms: C6_8  and  C7_9 
REMARK    4  A    between atoms: C8_12  and  C9_13 
ROOT
HETATM    1  N2  UNL     1       1.126  -1.280   0.384  1.00  0.00     0.121 N 
HETATM    2  C5  UNL     1       1.005  -1.625  -0.992  1.00  0.00     0.291 C 
HETATM    3  C6  UNL     1      -0.204  -0.813  -1.458  1.00  0.00     0.122 C 
HETATM    4  C8  UNL     1      -0.711  -0.094  -0.240  1.00  0.00     0.045 C 
HETATM    5  C15 UNL     1      -0.232  -0.996   0.860  1.00  0.00     0.177 C 
HETATM    6  C16 UNL     1      -0.283  -0.465   2.220  1.00  0.00     0.055 C 
HETATM    7  C17 UNL     1      -0.585  -1.495   3.255  1.00  0.00     0.111 C 
HETATM    8  S1  UNL     1      -1.071  -2.963   2.417  1.00  0.00     0.017 S 
HETATM    9  O3  UNL     1       0.114  -4.144   2.629  1.00  0.00    -0.258 OA
HETATM   10  C18 UNL     1      -1.004  -2.280   0.750  1.00  0.00     0.151 C 
ENDROOT
BRANCH   1  11
HETATM   11  C4  UNL     1       2.101  -0.292   0.601  1.00  0.00     0.374 C 
HETATM   12  C3  UNL     1       3.134  -0.502   1.692  1.00  0.00     0.160 C 
HETATM   13  N1  UNL     1       4.278   0.065   1.005  1.00  0.00    -0.206 NA
HETATM   14  S2  UNL     1       3.582  -0.651  -0.393  1.00  0.00     0.245 S 
HETATM   15  O4  UNL     1       3.857  -2.114  -0.538  1.00  0.00    -0.209 OA
HETATM   16  O5  UNL     1       3.793   0.198  -1.566  1.00  0.00    -0.209 OA
BRANCH  13  17
HETATM   17  C2  UNL     1       4.190   1.510   0.951  1.00  0.00     0.103 C 
HETATM   18  C1  UNL     1       5.513   2.180   0.618  1.00  0.00     0.021 C 
ENDBRANCH  13  17
ENDBRANCH   1  11
BRANCH   3  19
HETATM   19  C7  UNL     1       0.060  -0.064  -2.663  1.00  0.00     0.179 C 
HETATM   20  O1  UNL     1       0.755   0.971  -2.773  1.00  0.00    -0.648 OA
HETATM   21  O2  UNL     1      -0.490  -0.487  -3.900  1.00  0.00    -0.648 OA
ENDBRANCH   3  19
BRANCH   4  22
HETATM   22  C9  UNL     1      -2.123   0.194  -0.387  1.00  0.00    -0.007 C 
HETATM   23  C10 UNL     1      -2.292   1.304  -1.407  1.00  0.00     0.005 C 
HETATM   24  C11 UNL     1      -3.407   2.259  -1.010  1.00  0.00     0.000 C 
HETATM   25  C12 UNL     1      -4.676   1.505  -0.841  1.00  0.00     0.000 C 
HETATM   26  C13 UNL     1      -4.465   0.456   0.199  1.00  0.00     0.000 C 
HETATM   27  C14 UNL     1      -3.020   0.465   0.742  1.00  0.00     0.005 C 
ENDBRANCH   4  22
TORSDOF 4
