REMARK  9 active torsions:
REMARK  status: ('A' for Active; 'I' for Inactive)
REMARK    1  A    between atoms: C2_2  and  C3_3 
REMARK    2  A    between atoms: C2_2  and  C17_26 
REMARK    3  A    between atoms: C3_3  and  O1_4 
REMARK    4  A    between atoms: C3_3  and  N1_6 
REMARK    5  A    between atoms: N1_6  and  C4_7 
REMARK    6  A    between atoms: C8_12  and  C9_13 
REMARK    7  A    between atoms: C8_12  and  N4_19 
REMARK    8  A    between atoms: C10_14  and  C11_15 
REMARK    9  A    between atoms: C11_15  and  N3_16 
ROOT
HETATM    1  C4  UNL     1      -0.641  -0.704  -0.838  1.00  0.00     0.181 C 
HETATM    2  C5  UNL     1       0.037  -0.514   0.588  1.00  0.00     0.321 C 
HETATM    3  N2  UNL     1       1.295   0.192   0.253  1.00  0.00    -0.002 N 
HETATM    4  C6  UNL     1       0.835   1.539  -0.104  1.00  0.00     0.279 C 
HETATM    5  C7  UNL     1       1.937   0.300   1.577  1.00  0.00     0.279 C 
HETATM    6  C8  UNL     1       2.083  -0.461  -0.712  1.00  0.00     0.466 C 
HETATM    7  N5  UNL     1       1.531  -1.729  -1.218  1.00  0.00    -0.286 N 
ATOM      8  H5  UNL     1       2.104  -2.566  -1.327  1.00  0.00     0.168 HD
HETATM    9  C16 UNL     1       0.144  -1.710  -1.545  1.00  0.00     0.283 C 
HETATM   10  O2  UNL     1      -0.398  -2.492  -2.369  1.00  0.00    -0.265 OA
ENDROOT
BRANCH   1  11
HETATM   11  N1  UNL     1      -1.552  -0.006  -1.081  1.00  0.00    -0.378 NA
BRANCH  11  12
HETATM   12  C3  UNL     1      -2.589   0.781  -1.375  1.00  0.00     0.217 C 
BRANCH  12  13
HETATM   13  C2  UNL     1      -3.814   1.031  -0.573  1.00  0.00    -0.014 C 
HETATM   14  C1  UNL     1      -3.549   1.570   0.810  1.00  0.00     0.049 C 
BRANCH  13  15
HETATM   15  C17 UNL     1      -4.949   0.102  -0.705  1.00  0.00     0.019 C 
HETATM   16  C18 UNL     1      -4.970  -1.120   0.146  1.00  0.00     0.009 C 
HETATM   17  C19 UNL     1      -5.840  -0.930   1.394  1.00  0.00     0.001 C 
HETATM   18  C20 UNL     1      -7.267  -0.637   1.053  1.00  0.00     0.000 C 
HETATM   19  C21 UNL     1      -7.402  -0.188  -0.362  1.00  0.00     0.001 C 
HETATM   20  C22 UNL     1      -6.300   0.806  -0.629  1.00  0.00     0.009 C 
ENDBRANCH  13  15
ENDBRANCH  12  13
BRANCH  12  21
HETATM   21  O1  UNL     1      -2.472   1.413  -2.525  1.00  0.00    -0.335 OA
ATOM     22  H1  UNL     1      -1.689   1.253  -3.038  1.00  0.00     0.220 HD
ENDBRANCH  12  21
ENDBRANCH  11  12
ENDBRANCH   1  11
BRANCH   6  23
HETATM   23  C9  UNL     1       3.412  -0.834  -0.103  1.00  0.00    -0.010 C 
HETATM   24  C10 UNL     1       4.520  -1.089   0.363  1.00  0.00    -0.070 C 
BRANCH  24  25
HETATM   25  C11 UNL     1       5.877  -1.344   0.893  1.00  0.00     0.364 C 
BRANCH  25  26
HETATM   26  N3  UNL     1       6.621  -0.082   0.963  1.00  0.00     0.090 N 
HETATM   27  C12 UNL     1       8.033  -0.338   1.242  1.00  0.00     0.310 C 
HETATM   28  C13 UNL     1       6.069   0.703   2.096  1.00  0.00     0.310 C 
ENDBRANCH  25  26
ENDBRANCH  24  25
ENDBRANCH   6  23
BRANCH   6  29
HETATM   29  N4  UNL     1       2.422   0.343  -1.872  1.00  0.00     0.151 N 
HETATM   30  C14 UNL     1       3.197   1.504  -1.571  1.00  0.00     0.316 C 
HETATM   31  C15 UNL     1       3.052  -0.335  -2.951  1.00  0.00     0.316 C 
ENDBRANCH   6  29
TORSDOF 9
