REMARK  4 active torsions:
REMARK  status: ('A' for Active; 'I' for Inactive)
REMARK    1  A    between atoms: C2_2  and  N1_3 
REMARK    2  A    between atoms: N2_13  and  C10_14 
REMARK    3  A    between atoms: C10_14  and  C11_15 
REMARK    4  A    between atoms: C11_15  and  C12_16 
ROOT
HETATM    1  N1  UNL     1      -3.704  -0.298  -0.569  1.00  0.00    -0.347 N 
HETATM    2  C3  UNL     1      -3.579   0.782   0.398  1.00  0.00     0.152 C 
HETATM    3  C4  UNL     1      -2.406   1.654   0.026  1.00  0.00     0.187 C 
HETATM    4  O1  UNL     1      -1.844   2.273   1.145  1.00  0.00    -0.387 OA
HETATM    5  C5  UNL     1      -1.034   3.303   0.684  1.00  0.00     0.193 C 
HETATM    6  C6  UNL     1      -0.021   3.741   1.717  1.00  0.00     0.193 C 
HETATM    7  O2  UNL     1       1.284   3.417   1.353  1.00  0.00    -0.389 OA
HETATM    8  C7  UNL     1       1.565   2.121   1.843  1.00  0.00     0.169 C 
HETATM    9  C8  UNL     1       2.913   1.648   1.347  1.00  0.00     0.046 C 
HETATM   10  C9  UNL     1       2.762   1.069  -0.034  1.00  0.00     0.128 C 
HETATM   11  N2  UNL     1       3.452  -0.199  -0.185  1.00  0.00    -0.352 N 
HETATM   12  C13 UNL     1       2.767  -1.427  -0.393  1.00  0.00     0.219 C 
HETATM   13  O3  UNL     1       3.337  -2.300  -1.097  1.00  0.00    -0.273 OA
HETATM   14  C14 UNL     1       1.436  -1.747   0.161  1.00  0.00     0.103 C 
HETATM   15  C15 UNL     1       0.344  -1.659  -0.866  1.00  0.00     0.010 C 
HETATM   16  C16 UNL     1      -0.848  -2.488  -0.428  1.00  0.00     0.004 C 
HETATM   17  C17 UNL     1      -1.201  -2.080   0.977  1.00  0.00     0.028 C 
HETATM   18  C18 UNL     1      -2.495  -2.594   1.447  1.00  0.00    -0.015 C 
HETATM   19  C19 UNL     1      -3.669  -2.401   0.929  1.00  0.00     0.002 C 
HETATM   20  C20 UNL     1      -4.842  -3.067   1.639  1.00  0.00     0.054 C 
HETATM   21  C21 UNL     1      -4.032  -1.633  -0.251  1.00  0.00     0.249 C 
HETATM   22  O4  UNL     1      -4.751  -2.214  -1.153  1.00  0.00    -0.268 OA
ENDROOT
BRANCH  11  23
HETATM   23  C10 UNL     1       4.913  -0.148  -0.113  1.00  0.00     0.131 C 
BRANCH  23  24
HETATM   24  C11 UNL     1       5.513   0.072  -1.486  1.00  0.00     0.064 C 
BRANCH  24  25
HETATM   25  C12 UNL     1       6.994   0.109  -1.306  1.00  0.00     0.054 C 
HETATM   26  N3  UNL     1       7.727  -0.357  -2.237  1.00  0.00    -0.411 N 
ATOM     27  H32 UNL     1       7.297  -0.742  -3.078  1.00  0.00     0.155 HD
ATOM     28  H31 UNL     1       8.739  -0.332  -2.114  1.00  0.00     0.155 HD
ENDBRANCH  24  25
ENDBRANCH  23  24
ENDBRANCH  11  23
BRANCH   1  29
HETATM   29  C2  UNL     1      -3.473   0.120  -1.944  1.00  0.00     0.121 C 
HETATM   30  C1  UNL     1      -4.726   0.589  -2.632  1.00  0.00     0.026 C 
ENDBRANCH   1  29
TORSDOF 4
