REMARK  6 active torsions:
REMARK  status: ('A' for Active; 'I' for Inactive)
REMARK    1  A    between atoms: C4_5  and  N2_6 
REMARK    2  A    between atoms: N2_6  and  C5_8 
REMARK    3  A    between atoms: C5_8  and  N3_10 
REMARK    4  A    between atoms: N4_13  and  C8_14 
REMARK    5  A    between atoms: C8_14  and  C9_15 
REMARK    6  A    between atoms: C9_15  and  N5_16 
ROOT
HETATM    1  N3  UNL     1       0.627  -0.156  -0.007  1.00  0.00    -0.331 N 
HETATM    2  C6  UNL     1       0.047   0.450  -1.179  1.00  0.00     0.157 C 
HETATM    3  C7  UNL     1      -1.327   0.874  -0.663  1.00  0.00     0.294 C 
HETATM    4  N4  UNL     1      -1.674  -0.213   0.255  1.00  0.00     0.109 N 
HETATM    5  C15 UNL     1      -0.446  -0.750   0.749  1.00  0.00     0.400 C 
ENDROOT
BRANCH   1   6
HETATM    6  C5  UNL     1       2.005  -0.157   0.319  1.00  0.00     0.172 C 
HETATM    7  S1  UNL     1       2.458  -0.876   1.709  1.00  0.00    -0.041 SA
BRANCH   6   8
HETATM    8  N2  UNL     1       2.958   0.441  -0.499  1.00  0.00    -0.353 N 
ATOM      9  H2  UNL     1       2.618   0.882  -1.353  1.00  0.00     0.163 HD
BRANCH   8  10
HETATM   10  C4  UNL     1       4.331   0.498  -0.268  1.00  0.00     0.078 C 
HETATM   11  C3  UNL     1       4.796   1.141   0.985  1.00  0.00     0.031 C 
HETATM   12  C2  UNL     1       6.046   0.711   1.136  1.00  0.00     0.201 C 
HETATM   13  N1  UNL     1       6.403  -0.165   0.058  1.00  0.00    -0.048 N 
HETATM   14  C1  UNL     1       7.428  -1.079   0.313  1.00  0.00     0.278 C 
HETATM   15  C17 UNL     1       6.507   0.597  -1.164  1.00  0.00     0.245 C 
HETATM   16  C18 UNL     1       5.088  -0.811  -0.175  1.00  0.00     0.277 C 
HETATM   17  C16 UNL     1       5.120   1.170  -1.386  1.00  0.00     0.065 C 
ENDBRANCH   8  10
ENDBRANCH   6   8
ENDBRANCH   1   6
BRANCH   4  18
HETATM   18  C8  UNL     1      -2.432  -1.233  -0.392  1.00  0.00     0.302 C 
BRANCH  18  19
HETATM   19  C9  UNL     1      -3.824  -0.937  -0.782  1.00  0.00     0.267 C 
BRANCH  19  20
HETATM   20  N5  UNL     1      -4.799  -0.697   0.206  1.00  0.00    -0.065 N 
HETATM   21  C10 UNL     1      -5.341  -1.960   0.745  1.00  0.00     0.272 C 
HETATM   22  C11 UNL     1      -4.471   0.156   1.300  1.00  0.00     0.263 C 
HETATM   23  C12 UNL     1      -4.702   1.601   0.900  1.00  0.00     0.195 C 
HETATM   24  O1  UNL     1      -6.063   1.859   1.009  1.00  0.00    -0.388 OA
HETATM   25  C13 UNL     1      -6.766   0.767   0.499  1.00  0.00     0.195 C 
HETATM   26  C14 UNL     1      -5.951  -0.058  -0.466  1.00  0.00     0.263 C 
ENDBRANCH  19  20
ENDBRANCH  18  19
ENDBRANCH   4  18
TORSDOF 6
