REMARK  4 active torsions:
REMARK  status: ('A' for Active; 'I' for Inactive)
REMARK       I    between atoms: N1_2  and  C2_4 
REMARK       I    between atoms: C2_4  and  N2_6 
REMARK    1  A    between atoms: N2_6  and  C3_8 
REMARK    2  A    between atoms: N3_12  and  C7_14 
REMARK    3  A    between atoms: C7_14  and  C8_15 
REMARK    4  A    between atoms: C14_23  and  N5_24 
ROOT
HETATM    1  C3  UNL     1      -1.040   0.211   0.129  1.00  0.00     0.123 C 
HETATM    2  C4  UNL     1       0.390   0.066   0.687  1.00  0.00     0.040 C 
HETATM    3  C5  UNL     1       1.423   0.532  -0.279  1.00  0.00     0.084 C 
HETATM    4  C6  UNL     1       2.410  -0.580  -0.244  1.00  0.00     0.073 C 
HETATM    5  N3  UNL     1       3.707  -0.520  -0.430  1.00  0.00    -0.379 N 
ATOM      6  H3  UNL     1       4.252  -1.380  -0.374  1.00  0.00     0.160 HD
HETATM    7  N4  UNL     1       1.708  -1.785   0.033  1.00  0.00    -0.375 N 
ATOM      8  H4  UNL     1       1.933  -2.719  -0.309  1.00  0.00     0.161 HD
HETATM    9  C12 UNL     1       0.602  -1.414   0.905  1.00  0.00     0.091 C 
HETATM   10  C13 UNL     1      -0.694  -2.063   0.394  1.00  0.00     0.061 C 
HETATM   11  C14 UNL     1      -1.696  -0.976   0.726  1.00  0.00     0.215 C 
ENDROOT
BRANCH   1  12
HETATM   12  N2  UNL     1      -1.479   1.492   0.563  1.00  0.00    -0.336 N 
HETATM   13  C2  UNL     1      -1.762   2.570  -0.343  1.00  0.00     0.316 C 
HETATM   14  N1  UNL     1      -2.196   3.827   0.140  1.00  0.00    -0.347 N 
HETATM   15  O1  UNL     1      -1.633   2.430  -1.587  1.00  0.00    -0.247 OA
HETATM   16  C1  UNL     1      -2.478   4.902  -0.779  1.00  0.00     0.151 C 
ATOM     17  H1  UNL     1      -2.310   3.974   1.143  1.00  0.00     0.163 HD
ATOM     18  H2  UNL     1      -1.598   1.653   1.563  1.00  0.00     0.164 HD
ENDBRANCH   1  12
BRANCH  11  19
HETATM   19  N5  UNL     1      -3.020  -1.284   0.302  1.00  0.00    -0.061 N 
HETATM   20  C15 UNL     1      -3.895  -0.157   0.505  1.00  0.00     0.273 C 
HETATM   21  C16 UNL     1      -3.114  -1.648  -1.094  1.00  0.00     0.263 C 
HETATM   22  C17 UNL     1      -4.511  -2.162  -1.385  1.00  0.00     0.195 C 
HETATM   23  O2  UNL     1      -4.674  -3.350  -0.644  1.00  0.00    -0.388 OA
HETATM   24  C18 UNL     1      -4.765  -2.987   0.686  1.00  0.00     0.195 C 
HETATM   25  C19 UNL     1      -3.521  -2.344   1.178  1.00  0.00     0.263 C 
ENDBRANCH  11  19
BRANCH   5  26
HETATM   26  C7  UNL     1       4.386   0.714  -0.710  1.00  0.00     0.130 C 
BRANCH  26  27
HETATM   27  C8  UNL     1       5.844   0.648  -0.287  1.00  0.00    -0.028 A 
HETATM   28  C9  UNL     1       6.615  -0.445  -0.996  1.00  0.00     0.016 C 
HETATM   29  C10 UNL     1       6.574   1.848   0.115  1.00  0.00     0.011 A 
HETATM   30  C11 UNL     1       6.203   0.832   1.157  1.00  0.00     0.011 A 
ENDBRANCH  26  27
ENDBRANCH   5  26
TORSDOF 4
