REMARK  5 active torsions:
REMARK  status: ('A' for Active; 'I' for Inactive)
REMARK    1  A    between atoms: O1_2  and  C2_3 
REMARK    2  A    between atoms: C2_3  and  C3_5 
REMARK    3  A    between atoms: N3_13  and  C7_14 
REMARK    4  A    between atoms: C8_20  and  N6_21 
REMARK    5  A    between atoms: C9_24  and  N7_25 
ROOT
HETATM    1  C3  UNL     1       1.075  -0.385  -0.321  1.00  0.00     0.121 A 
HETATM    2  C4  UNL     1       1.143  -1.552  -1.031  1.00  0.00     0.138 A 
HETATM    3  C5  UNL     1       2.425  -2.013  -1.507  1.00  0.00     0.119 C 
HETATM    4  N1  UNL     1       3.456  -2.399  -1.897  1.00  0.00    -0.190 NA
HETATM    5  N2  UNL     1       0.008  -2.235  -1.262  1.00  0.00    -0.298 N 
ATOM      6  H2  UNL     1       0.040  -3.108  -1.789  1.00  0.00     0.171 HD
HETATM    7  C6  UNL     1      -1.159  -1.778  -0.806  1.00  0.00     0.335 A 
HETATM    8  O3  UNL     1      -2.185  -2.476  -1.063  1.00  0.00    -0.246 OA
HETATM    9  N3  UNL     1      -1.297  -0.642  -0.104  1.00  0.00    -0.229 N 
HETATM   10  C9  UNL     1      -0.152   0.056   0.135  1.00  0.00     0.131 A 
ENDROOT
BRANCH   1  11
HETATM   11  C2  UNL     1       2.281   0.403  -0.038  1.00  0.00     0.299 C 
HETATM   12  O2  UNL     1       2.597   1.279  -0.883  1.00  0.00    -0.259 OA
BRANCH  11  13
HETATM   13  O1  UNL     1       3.064   0.242   1.070  1.00  0.00    -0.322 OA
HETATM   14  C1  UNL     1       4.221   1.038   1.288  1.00  0.00     0.213 C 
ENDBRANCH  11  13
ENDBRANCH   1  11
BRANCH  10  15
HETATM   15  N7  UNL     1      -0.252   1.139   0.799  1.00  0.00    -0.384 N 
ATOM     16  H72 UNL     1       0.605   1.662   0.978  1.00  0.00     0.157 HD
ATOM     17  H71 UNL     1      -1.158   1.465   1.136  1.00  0.00     0.157 HD
ENDBRANCH  10  15
BRANCH   9  18
HETATM   18  C7  UNL     1      -2.567  -0.200   0.359  1.00  0.00     0.185 A 
HETATM   19  N4  UNL     1      -3.377  -0.782   1.262  1.00  0.00    -0.221 N 
HETATM   20  O4  UNL     1      -4.455  -0.078   1.425  1.00  0.00    -0.153 OA
ATOM     21  H4  UNL     1      -3.173  -1.654   1.750  1.00  0.00     0.198 HD
HETATM   22  N5  UNL     1      -4.402   0.966   0.662  1.00  0.00    -0.222 N 
HETATM   23  C8  UNL     1      -3.252   0.953  -0.030  1.00  0.00     0.168 A 
ATOM     24  H5  UNL     1      -5.122   1.686   0.597  1.00  0.00     0.198 HD
BRANCH  23  25
HETATM   25  N6  UNL     1      -2.837   1.802  -0.878  1.00  0.00    -0.381 N 
ATOM     26  H62 UNL     1      -1.963   1.792  -1.404  1.00  0.00     0.157 HD
ATOM     27  H61 UNL     1      -3.337   2.644  -1.162  1.00  0.00     0.157 HD
ENDBRANCH  23  25
ENDBRANCH   9  18
TORSDOF 5
