REMARK  3 active torsions:
REMARK  status: ('A' for Active; 'I' for Inactive)
REMARK    1  A    between atoms: C2_3  and  O1_4 
REMARK    2  A    between atoms: O1_4  and  C3_5 
REMARK    3  A    between atoms: C5_9  and  N3_10 
ROOT
HETATM    1  C1  UNL     1      -2.105  -1.527   0.400  1.00  0.00     0.163 C 
HETATM    2  N1  UNL     1      -2.438  -0.121   0.316  1.00  0.00    -0.280 N 
HETATM    3  C2  UNL     1      -1.617   0.747  -0.371  1.00  0.00     0.193 A 
HETATM    4  C7  UNL     1      -1.966   2.095  -0.447  1.00  0.00     0.180 A 
HETATM    5  C8  UNL     1      -1.213   3.012  -1.261  1.00  0.00     0.123 C 
HETATM    6  N6  UNL     1      -0.610   3.732  -1.933  1.00  0.00    -0.190 NA
HETATM    7  N7  UNL     1      -3.089   2.501   0.159  1.00  0.00    -0.283 N 
ATOM      8  H7  UNL     1      -3.346   3.487   0.108  1.00  0.00     0.188 HD
HETATM    9  N8  UNL     1      -3.876   1.670   0.821  1.00  0.00    -0.250 N 
ATOM     10  H8  UNL     1      -4.725   2.009   1.273  1.00  0.00     0.192 HD
HETATM   11  C9  UNL     1      -3.536   0.362   0.888  1.00  0.00     0.342 A 
HETATM   12  O2  UNL     1      -4.325  -0.381   1.529  1.00  0.00    -0.245 OA
ENDROOT
BRANCH   3  13
HETATM   13  O1  UNL     1      -0.540   0.219  -0.928  1.00  0.00    -0.285 OA
BRANCH  13  14
HETATM   14  C3  UNL     1       0.714  -0.115  -0.565  1.00  0.00     0.137 A 
HETATM   15  C4  UNL     1       1.136  -1.446  -0.906  1.00  0.00     0.147 A 
HETATM   16  N2  UNL     1       2.330  -1.922  -0.617  1.00  0.00    -0.199 N 
HETATM   17  C5  UNL     1       3.201  -1.131   0.026  1.00  0.00     0.677 A 
ATOM     18  H2  UNL     1       2.587  -2.874  -0.877  1.00  0.00     0.183 HD
HETATM   19  N4  UNL     1       2.885   0.114   0.376  1.00  0.00    -0.175 N 
HETATM   20  C6  UNL     1       1.656   0.622   0.087  1.00  0.00     0.150 A 
ATOM     21  H4  UNL     1       3.569   0.692   0.864  1.00  0.00     0.186 HD
HETATM   22  N5  UNL     1       1.387   1.807   0.483  1.00  0.00    -0.383 N 
ATOM     23  H52 UNL     1       0.466   2.188   0.266  1.00  0.00     0.157 HD
ATOM     24  H51 UNL     1       2.092   2.359   0.971  1.00  0.00     0.157 HD
BRANCH  17  25
HETATM   25  N3  UNL     1       4.383  -1.592   0.315  1.00  0.00    -0.234 N 
ATOM     26  H32 UNL     1       4.625  -2.546   0.047  1.00  0.00     0.174 HD
ATOM     27  H31 UNL     1       5.046  -0.990   0.804  1.00  0.00     0.174 HD
ENDBRANCH  17  25
ENDBRANCH  13  14
ENDBRANCH   3  13
TORSDOF 3
