REMARK  5 active torsions:
REMARK  status: ('A' for Active; 'I' for Inactive)
REMARK    1  A    between atoms: N2_3  and  C2_5 
REMARK    2  A    between atoms: C3_10  and  N5_11 
REMARK    3  A    between atoms: C5_13  and  N6_14 
REMARK    4  A    between atoms: C6_17  and  O3_18 
REMARK    5  A    between atoms: C7_24  and  N9_25 
ROOT
HETATM    1  N1  UNL     1       5.644   2.189   0.631  1.00  0.00    -0.172 NA
HETATM    2  C1  UNL     1       5.052   1.206   0.516  1.00  0.00     0.183 C 
HETATM    3  N2  UNL     1       4.348   0.006   0.360  1.00  0.00    -0.275 N 
ATOM      4  H2  UNL     1       4.828  -0.893   0.324  1.00  0.00     0.180 HD
ENDROOT
BRANCH   3   5
HETATM    5  C2  UNL     1       3.046   0.091   0.263  1.00  0.00     0.174 A 
HETATM    6  N3  UNL     1       2.406   1.269   0.310  1.00  0.00    -0.268 N 
HETATM    7  N4  UNL     1       1.090   1.260   0.204  1.00  0.00    -0.128 N 
ATOM      8  H3  UNL     1       2.919   2.143   0.424  1.00  0.00     0.189 HD
HETATM    9  C3  UNL     1       0.354   0.146   0.053  1.00  0.00     0.719 A 
ATOM     10  H4  UNL     1       0.601   2.155   0.239  1.00  0.00     0.205 HD
HETATM   11  N8  UNL     1       1.009  -1.025   0.007  1.00  0.00    -0.170 N 
HETATM   12  C7  UNL     1       2.345  -1.084   0.109  1.00  0.00     0.161 A 
ATOM     13  H8  UNL     1       0.479  -1.889  -0.108  1.00  0.00     0.186 HD
BRANCH   9  14
HETATM   14  N5  UNL     1      -1.075   0.222  -0.055  1.00  0.00    -0.092 N 
HETATM   15  C4  UNL     1      -1.914  -0.751  -0.453  1.00  0.00     0.175 A 
HETATM   16  C5  UNL     1      -3.214  -0.290  -0.423  1.00  0.00     0.172 A 
HETATM   17  C6  UNL     1      -3.115   1.021   0.017  1.00  0.00     0.191 A 
HETATM   18  N7  UNL     1      -1.813   1.261   0.217  1.00  0.00    -0.257 N 
ATOM     19  H7  UNL     1      -1.442   2.153   0.544  1.00  0.00     0.190 HD
BRANCH  16  20
HETATM   20  N6  UNL     1      -4.404  -0.988  -0.763  1.00  0.00    -0.110 N 
HETATM   21  O1  UNL     1      -5.353  -0.353  -1.244  1.00  0.00    -0.532 OA
HETATM   22  O2  UNL     1      -4.559  -2.342  -0.586  1.00  0.00    -0.532 OA
ENDBRANCH  16  20
BRANCH  17  23
HETATM   23  O3  UNL     1      -4.127   1.918   0.217  1.00  0.00    -0.343 OA
ATOM     24  H3  UNL     1      -4.059   2.816   0.518  1.00  0.00     0.219 HD
ENDBRANCH  17  23
ENDBRANCH   9  14
BRANCH  12  25
HETATM   25  N9  UNL     1       2.990  -2.214   0.067  1.00  0.00    -0.382 N 
ATOM     26  H92 UNL     1       4.006  -2.259   0.145  1.00  0.00     0.157 HD
ATOM     27  H91 UNL     1       2.471  -3.084  -0.047  1.00  0.00     0.157 HD
ENDBRANCH  12  25
ENDBRANCH   3   5
TORSDOF 5
