REMARK  13 active torsions:
REMARK  status: ('A' for Active; 'I' for Inactive)
REMARK    1  A    between atoms: C2_2  and  C3_3 
REMARK    2  A    between atoms: C3_3  and  N1_4 
REMARK    3  A    between atoms: N1_4  and  C4_6 
REMARK    4  A    between atoms: C6_13  and  N4_14 
REMARK    5  A    between atoms: N4_14  and  C7_16 
REMARK    6  A    between atoms: C7_16  and  C8_17 
REMARK    7  A    between atoms: C8_17  and  C9_18 
REMARK    8  A    between atoms: C9_18  and  C10_19 
REMARK    9  A    between atoms: C10_19  and  C11_20 
REMARK   10  A    between atoms: C11_20  and  O2_21 
REMARK   11  A    between atoms: O2_21  and  C12_22 
REMARK   12  A    between atoms: C12_22  and  C13_23 
REMARK   13  A    between atoms: C13_23  and  N5_24 
ROOT
HETATM    1  C4  UNL     1       3.915   0.564   1.240  1.00  0.00     0.697 A 
HETATM    2  N2  UNL     1       3.139   1.131   2.190  1.00  0.00    -0.140 N 
ATOM      3  H2  UNL     1       3.577   1.593   2.987  1.00  0.00     0.189 HD
HETATM    4  C5  UNL     1       1.794   1.095   2.101  1.00  0.00     0.352 A 
HETATM    5  O1  UNL     1       1.046   1.610   2.963  1.00  0.00    -0.246 OA
HETATM    6  N3  UNL     1       1.220   0.479   1.041  1.00  0.00    -0.140 N 
ATOM      7  H3  UNL     1       0.203   0.450   0.971  1.00  0.00     0.189 HD
HETATM    8  C6  UNL     1       1.953  -0.087   0.092  1.00  0.00     0.696 A 
HETATM    9  N6  UNL     1       3.305  -0.037   0.204  1.00  0.00    -0.022 N 
ATOM     10  H6  UNL     1       3.877  -0.470  -0.522  1.00  0.00     0.203 HD
ENDROOT
BRANCH   8  11
HETATM   11  N4  UNL     1       1.487  -0.689  -0.942  1.00  0.00    -0.225 N 
ATOM     12  H4  UNL     1       2.148  -1.088  -1.609  1.00  0.00     0.177 HD
BRANCH  11  13
HETATM   13  C7  UNL     1       0.070  -0.831  -1.210  1.00  0.00     0.138 C 
BRANCH  13  14
HETATM   14  C8  UNL     1      -0.430  -2.041  -0.456  1.00  0.00     0.020 C 
BRANCH  14  15
HETATM   15  C9  UNL     1      -1.888  -2.304  -0.651  1.00  0.00     0.004 C 
BRANCH  15  16
HETATM   16  C10 UNL     1      -2.721  -1.136  -0.182  1.00  0.00     0.026 C 
BRANCH  16  17
HETATM   17  C11 UNL     1      -4.202  -1.417  -0.379  1.00  0.00     0.167 C 
BRANCH  17  18
HETATM   18  O2  UNL     1      -5.015  -0.379   0.043  1.00  0.00    -0.389 OA
BRANCH  18  19
HETATM   19  C12 UNL     1      -4.768   0.809  -0.633  1.00  0.00     0.194 C 
BRANCH  19  20
HETATM   20  C13 UNL     1      -5.742   1.860  -0.077  1.00  0.00     0.255 C 
BRANCH  20  21
HETATM   21  N5  UNL     1      -7.079   1.341  -0.343  1.00  0.00    -0.077 N 
ATOM     22  H53 UNL     1      -7.241   1.113  -1.324  1.00  0.00     0.274 HD
ATOM     23  H52 UNL     1      -7.234   0.404   0.028  1.00  0.00     0.274 HD
ATOM     24  H51 UNL     1      -7.725   2.038   0.026  1.00  0.00     0.274 HD
ENDBRANCH  20  21
ENDBRANCH  19  20
ENDBRANCH  18  19
ENDBRANCH  17  18
ENDBRANCH  16  17
ENDBRANCH  15  16
ENDBRANCH  14  15
ENDBRANCH  13  14
ENDBRANCH  11  13
ENDBRANCH   8  11
BRANCH   1  25
HETATM   25  N1  UNL     1       5.203   0.625   1.369  1.00  0.00    -0.222 N 
ATOM     26  H1  UNL     1       5.582   1.101   2.188  1.00  0.00     0.178 HD
BRANCH  25  27
HETATM   27  C3  UNL     1       6.122   0.064   0.431  1.00  0.00     0.164 C 
BRANCH  27  28
HETATM   28  C2  UNL     1       6.235   1.013  -0.722  1.00  0.00    -0.017 C 
HETATM   29  C1  UNL     1       7.406   1.532  -1.016  1.00  0.00     0.008 C 
ENDBRANCH  27  28
ENDBRANCH  25  27
ENDBRANCH   1  25
TORSDOF 13
