REMARK  12 active torsions:
REMARK  status: ('A' for Active; 'I' for Inactive)
REMARK    1  A    between atoms: C2_2  and  C3_3 
REMARK    2  A    between atoms: C3_3  and  N1_4 
REMARK    3  A    between atoms: N1_4  and  C4_7 
REMARK    4  A    between atoms: C4_7  and  C5_8 
REMARK    5  A    between atoms: C5_8  and  C6_9 
REMARK    6  A    between atoms: C7_10  and  C8_11 
REMARK    7  A    between atoms: C8_11  and  N2_12 
REMARK    8  A    between atoms: C10_15  and  O1_16 
REMARK    9  A    between atoms: C11_18  and  O2_19 
REMARK   10  A    between atoms: C12_21  and  O3_22 
REMARK   11  A    between atoms: N3_25  and  C14_26 
REMARK   12  A    between atoms: C14_26  and  C15_27 
ROOT
HETATM    1  N2  UNL     1      -1.149   0.988  -0.496  1.00  0.00    -0.354 N 
ATOM      2  H2  UNL     1      -1.584   1.877  -0.249  1.00  0.00     0.166 HD
HETATM    3  C9  UNL     1      -2.051   0.152  -0.512  1.00  0.00     0.111 C 
HETATM    4  C10 UNL     1      -1.873  -1.291  -0.824  1.00  0.00     0.216 C 
HETATM    5  C11 UNL     1      -2.665  -2.076   0.197  1.00  0.00     0.184 C 
HETATM    6  C12 UNL     1      -4.131  -1.761  -0.107  1.00  0.00     0.167 C 
HETATM    7  C13 UNL     1      -4.377  -0.325   0.287  1.00  0.00     0.159 C 
HETATM    8  N3  UNL     1      -3.419   0.564  -0.243  1.00  0.00    -0.363 N 
ENDROOT
BRANCH   1   9
HETATM    9  C8  UNL     1       0.193   1.245  -0.667  1.00  0.00     0.089 C 
BRANCH   9  10
HETATM   10  C7  UNL     1       1.112   1.135   0.472  1.00  0.00     0.013 C 
HETATM   11  C6  UNL     1       2.181   0.386   0.490  1.00  0.00    -0.024 C 
BRANCH  11  12
HETATM   12  C5  UNL     1       2.707  -0.495  -0.573  1.00  0.00     0.054 C 
BRANCH  12  13
HETATM   13  C4  UNL     1       4.058  -0.089  -1.058  1.00  0.00     0.236 C 
BRANCH  13  14
HETATM   14  N1  UNL     1       5.013  -0.178   0.028  1.00  0.00    -0.072 N 
ATOM     15  H12 UNL     1       5.119  -1.120   0.405  1.00  0.00     0.277 HD
ATOM     16  H11 UNL     1       4.694   0.262   0.891  1.00  0.00     0.277 HD
BRANCH  14  17
HETATM   17  C3  UNL     1       6.271   0.395  -0.502  1.00  0.00     0.259 C 
BRANCH  17  18
HETATM   18  C2  UNL     1       7.319   0.172   0.496  1.00  0.00    -0.010 C 
HETATM   19  C1  UNL     1       7.128  -0.444   1.612  1.00  0.00     0.008 C 
ENDBRANCH  17  18
ENDBRANCH  14  17
ENDBRANCH  13  14
ENDBRANCH  12  13
ENDBRANCH  11  12
ENDBRANCH   9  10
ENDBRANCH   1   9
BRANCH   4  20
HETATM   20  O1  UNL     1      -0.565  -1.678  -0.894  1.00  0.00    -0.385 OA
ATOM     21  H1  UNL     1      -0.451  -2.600  -1.093  1.00  0.00     0.210 HD
ENDBRANCH   4  20
BRANCH   8  22
HETATM   22  C14 UNL     1      -3.757   1.961  -0.541  1.00  0.00     0.150 C 
BRANCH  22  23
HETATM   23  C15 UNL     1      -5.190   2.238  -0.297  1.00  0.00    -0.017 C 
HETATM   24  C16 UNL     1      -5.604   3.123   0.580  1.00  0.00     0.008 C 
ENDBRANCH  22  23
ENDBRANCH   8  22
BRANCH   5  25
HETATM   25  O2  UNL     1      -2.441  -3.448   0.131  1.00  0.00    -0.390 OA
ATOM     26  H2  UNL     1      -2.939  -3.941   0.773  1.00  0.00     0.210 HD
ENDBRANCH   5  25
BRANCH   6  27
HETATM   27  O3  UNL     1      -4.998  -2.611   0.536  1.00  0.00    -0.391 OA
ATOM     28  H3  UNL     1      -5.908  -2.415   0.347  1.00  0.00     0.210 HD
ENDBRANCH   6  27
TORSDOF 12
