REMARK  13 active torsions:
REMARK  status: ('A' for Active; 'I' for Inactive)
REMARK    1  A    between atoms: N1_1  and  C1_5 
REMARK    2  A    between atoms: C1_5  and  C2_6 
REMARK    3  A    between atoms: C2_6  and  C3_7 
REMARK    4  A    between atoms: C3_7  and  N2_8 
REMARK    5  A    between atoms: N2_8  and  C4_10 
REMARK    6  A    between atoms: C7_15  and  N4_16 
REMARK    7  A    between atoms: N4_16  and  C8_18 
REMARK    8  A    between atoms: C8_18  and  C9_19 
REMARK    9  A    between atoms: C9_19  and  C10_20 
REMARK   10  A    between atoms: C10_20  and  C11_21 
REMARK   11  A    between atoms: C11_21  and  N5_22 
REMARK   12  A    between atoms: N5_22  and  C12_25 
REMARK   13  A    between atoms: C12_25  and  C13_26 
ROOT
HETATM    1  C4  UNL     1       3.231  -0.167   0.060  1.00  0.00     0.118 A 
HETATM    2  C5  UNL     1       3.264   1.002   0.774  1.00  0.00     0.066 A 
HETATM    3  C6  UNL     1       2.124   1.820   0.822  1.00  0.00     0.110 A 
HETATM    4  N3  UNL     1       1.032   1.419   0.157  1.00  0.00    -0.202 N 
ATOM      5  H3  UNL     1       0.201   2.009   0.188  1.00  0.00     0.183 HD
HETATM    6  C7  UNL     1       0.979   0.278  -0.548  1.00  0.00     0.679 A 
HETATM    7  N6  UNL     1       2.086  -0.497  -0.583  1.00  0.00    -0.177 N 
ATOM      8  H6  UNL     1       2.058  -1.366  -1.116  1.00  0.00     0.185 HD
ENDROOT
BRANCH   6   9
HETATM    9  N4  UNL     1      -0.073  -0.106  -1.186  1.00  0.00    -0.226 N 
ATOM     10  H4  UNL     1      -0.058  -0.984  -1.706  1.00  0.00     0.177 HD
BRANCH   9  11
HETATM   11  C8  UNL     1      -1.278   0.701  -1.170  1.00  0.00     0.138 C 
BRANCH  11  12
HETATM   12  C9  UNL     1      -2.304   0.219  -2.148  1.00  0.00     0.022 C 
BRANCH  12  13
HETATM   13  C10 UNL     1      -2.757  -1.188  -1.901  1.00  0.00     0.029 C 
BRANCH  13  14
HETATM   14  C11 UNL     1      -3.383  -1.405  -0.560  1.00  0.00     0.232 C 
BRANCH  14  15
HETATM   15  N5  UNL     1      -4.558  -0.595  -0.335  1.00  0.00    -0.075 N 
ATOM     16  H52 UNL     1      -4.375   0.399  -0.475  1.00  0.00     0.277 HD
ATOM     17  H51 UNL     1      -5.258  -0.718  -1.067  1.00  0.00     0.277 HD
BRANCH  15  18
HETATM   18  C12 UNL     1      -5.084  -0.874   0.976  1.00  0.00     0.237 C 
BRANCH  18  19
HETATM   19  C13 UNL     1      -6.306  -0.097   1.328  1.00  0.00     0.011 A 
HETATM   20  C14 UNL     1      -7.561  -0.179   0.551  1.00  0.00     0.007 A 
HETATM   21  C15 UNL     1      -6.699   1.070   0.463  1.00  0.00     0.007 A 
ENDBRANCH  18  19
ENDBRANCH  15  18
ENDBRANCH  14  15
ENDBRANCH  13  14
ENDBRANCH  12  13
ENDBRANCH  11  12
ENDBRANCH   9  11
ENDBRANCH   6   9
BRANCH   1  22
HETATM   22  N2  UNL     1       4.219  -0.963  -0.034  1.00  0.00    -0.376 N 
ATOM     23  H2  UNL     1       4.104  -1.812  -0.588  1.00  0.00     0.161 HD
BRANCH  22  24
HETATM   24  C3  UNL     1       5.488  -0.730   0.599  1.00  0.00     0.123 C 
BRANCH  24  25
HETATM   25  C2  UNL     1       6.289   0.201  -0.314  1.00  0.00     0.047 C 
BRANCH  25  26
HETATM   26  C1  UNL     1       7.642   0.507   0.270  1.00  0.00     0.231 C 
BRANCH  26  27
HETATM   27  N1  UNL     1       8.443  -0.670   0.469  1.00  0.00    -0.079 N 
ATOM     28  H13 UNL     1       7.947  -1.357   1.037  1.00  0.00     0.274 HD
ATOM     29  H12 UNL     1       8.531  -1.202  -0.397  1.00  0.00     0.274 HD
ATOM     30  H11 UNL     1       9.360  -0.463   0.865  1.00  0.00     0.274 HD
ENDBRANCH  26  27
ENDBRANCH  25  26
ENDBRANCH  24  25
ENDBRANCH  22  24
ENDBRANCH   1  22
TORSDOF 13
