REMARK  12 active torsions:
REMARK  status: ('A' for Active; 'I' for Inactive)
REMARK    1  A    between atoms: N3_4  and  C2_6 
REMARK    2  A    between atoms: C2_6  and  C3_7 
REMARK    3  A    between atoms: C3_7  and  C4_8 
REMARK    4  A    between atoms: C4_8  and  C5_9 
REMARK    5  A    between atoms: C5_9  and  C6_10 
REMARK    6  A    between atoms: C6_10  and  C7_11 
REMARK    7  A    between atoms: C7_11  and  C8_12 
REMARK    8  A    between atoms: C8_12  and  O1_13 
REMARK    9  A    between atoms: O1_13  and  C9_14 
REMARK   10  A    between atoms: C9_14  and  C10_15 
REMARK   11  A    between atoms: C11_16  and  O2_17 
REMARK   12  A    between atoms: C15_22  and  N4_23 
ROOT
HETATM    1  O1  UNL     1      -2.037   2.801   0.416  1.00  0.00    -0.391 OA
ENDROOT
BRANCH   1   2
HETATM    2  C8  UNL     1      -1.140   2.476  -0.516  1.00  0.00     0.167 C 
BRANCH   2   3
HETATM    3  C7  UNL     1       0.093   1.712   0.002  1.00  0.00     0.026 C 
BRANCH   3   4
HETATM    4  C6  UNL     1       0.956   1.440  -1.183  1.00  0.00     0.002 C 
BRANCH   4   5
HETATM    5  C5  UNL     1       2.247   0.685  -0.836  1.00  0.00     0.000 C 
BRANCH   5   6
HETATM    6  C4  UNL     1       1.922  -0.635  -0.225  1.00  0.00     0.002 C 
BRANCH   6   7
HETATM    7  C3  UNL     1       3.098  -1.433   0.214  1.00  0.00     0.020 C 
BRANCH   7   8
HETATM    8  C2  UNL     1       4.068  -1.793  -0.850  1.00  0.00     0.122 C 
BRANCH   8   9
HETATM    9  N3  UNL     1       4.719  -0.669  -1.464  1.00  0.00    -0.367 N 
HETATM   10  C1  UNL     1       5.700  -0.057  -0.912  1.00  0.00     0.196 C 
HETATM   11  N1  UNL     1       6.175  -0.483   0.344  1.00  0.00    -0.067 NA
HETATM   12  N2  UNL     1       6.318   1.048  -1.548  1.00  0.00    -0.067 NA
ATOM     13  H3  UNL     1       4.388  -0.346  -2.373  1.00  0.00     0.161 HD
ENDBRANCH   8   9
ENDBRANCH   7   8
ENDBRANCH   6   7
ENDBRANCH   5   6
ENDBRANCH   4   5
ENDBRANCH   3   4
ENDBRANCH   2   3
ENDBRANCH   1   2
BRANCH   1  14
HETATM   14  C9  UNL     1      -2.732   1.958   1.180  1.00  0.00     0.175 C 
BRANCH  14  15
HETATM   15  C10 UNL     1      -3.712   1.008   0.568  1.00  0.00     0.045 C 
HETATM   16  C11 UNL     1      -4.406   0.202   1.712  1.00  0.00     0.130 C 
HETATM   17  C12 UNL     1      -4.175  -1.175   1.212  1.00  0.00     0.046 C 
HETATM   18  C13 UNL     1      -2.680  -1.098   0.873  1.00  0.00     0.016 C 
HETATM   19  C15 UNL     1      -4.386  -1.108  -0.275  1.00  0.00     0.194 C 
HETATM   20  C14 UNL     1      -3.185  -0.124  -0.199  1.00  0.00     0.025 C 
BRANCH  16  21
HETATM   21  O2  UNL     1      -3.743   0.431   2.904  1.00  0.00    -0.395 OA
ATOM     22  H2  UNL     1      -4.165  -0.059   3.600  1.00  0.00     0.210 HD
ENDBRANCH  16  21
BRANCH  19  23
HETATM   23  N4  UNL     1      -5.599  -0.487  -0.714  1.00  0.00    -0.074 N 
ATOM     24  H43 UNL     1      -6.398  -0.941  -0.272  1.00  0.00     0.274 HD
ATOM     25  H42 UNL     1      -5.673   0.448  -0.313  1.00  0.00     0.274 HD
ATOM     26  H41 UNL     1      -5.742  -0.442  -1.723  1.00  0.00     0.274 HD
ENDBRANCH  19  23
ENDBRANCH  14  15
ENDBRANCH   1  14
TORSDOF 12
