REMARK  8 active torsions:
REMARK  status: ('A' for Active; 'I' for Inactive)
REMARK    1  A    between atoms: C3_4  and  N2_5 
REMARK    2  A    between atoms: N2_5  and  C4_7 
REMARK    3  A    between atoms: C4_7  and  N3_9 
REMARK    4  A    between atoms: N3_9  and  C5_11 
REMARK    5  A    between atoms: N4_14  and  C8_15 
REMARK    6  A    between atoms: C8_15  and  C9_16 
REMARK    7  A    between atoms: C9_16  and  C10_17 
REMARK    8  A    between atoms: C17_24  and  C18_25 
ROOT
HETATM    1  C4  UNL     1       1.920  -1.796   0.449  1.00  0.00     0.172 C 
HETATM    2  S1  UNL     1       1.011  -3.183   0.712  1.00  0.00    -0.041 SA
ENDROOT
BRANCH   1   3
HETATM    3  N2  UNL     1       3.287  -1.914   0.697  1.00  0.00    -0.332 N 
ATOM      4  H2  UNL     1       3.576  -2.831   1.037  1.00  0.00     0.168 HD
BRANCH   3   5
HETATM    5  C3  UNL     1       4.336  -0.990   0.560  1.00  0.00     0.051 A 
HETATM    6  C2  UNL     1       4.352   0.341   0.299  1.00  0.00     0.120 A 
HETATM    7  N1  UNL     1       5.650   0.769   0.263  1.00  0.00    -0.361 N 
HETATM    8  C1  UNL     1       6.055   2.137   0.014  1.00  0.00     0.155 C 
HETATM    9  C17 UNL     1       6.461  -0.243   0.492  1.00  0.00     0.037 A 
HETATM   10  C16 UNL     1       5.694  -1.361   0.683  1.00  0.00     0.058 A 
BRANCH   9  11
HETATM   11  C18 UNL     1       7.953  -0.278   0.560  1.00  0.00     0.079 A 
HETATM   12 CL1  UNL     1       8.645  -0.715   2.167  1.00  0.00    -0.112 Cl
HETATM   13  C19 UNL     1       8.831   0.402  -0.387  1.00  0.00     0.034 A 
HETATM   14  C20 UNL     1       8.582  -1.052  -0.608  1.00  0.00     0.034 A 
ENDBRANCH   9  11
ENDBRANCH   3   5
ENDBRANCH   1   3
BRANCH   1  15
HETATM   15  N3  UNL     1       1.177  -0.718  -0.031  1.00  0.00    -0.362 N 
ATOM     16  H3  UNL     1       1.666   0.148  -0.260  1.00  0.00     0.162 HD
BRANCH  15  17
HETATM   17  C5  UNL     1      -0.293  -0.775  -0.223  1.00  0.00     0.093 C 
HETATM   18  C6  UNL     1      -0.930  -0.770   1.131  1.00  0.00     0.070 C 
HETATM   19  C7  UNL     1      -2.277  -0.084   1.145  1.00  0.00     0.065 C 
HETATM   20  N4  UNL     1      -2.809   0.025  -0.130  1.00  0.00    -0.374 N 
HETATM   21  C14 UNL     1      -2.095   0.761  -1.093  1.00  0.00     0.065 C 
HETATM   22  C15 UNL     1      -0.665   0.344  -1.126  1.00  0.00     0.070 C 
BRANCH  20  23
HETATM   23  C8  UNL     1      -4.199  -0.225  -0.362  1.00  0.00     0.128 C 
BRANCH  23  24
HETATM   24  C9  UNL     1      -5.128   0.744   0.259  1.00  0.00     0.028 C 
BRANCH  24  25
HETATM   25  C10 UNL     1      -6.574   0.470  -0.054  1.00  0.00    -0.050 C 
HETATM   26  C11 UNL     1      -7.478   1.503   0.656  1.00  0.00     0.014 C 
HETATM   27  C12 UNL     1      -7.056  -0.884   0.382  1.00  0.00     0.014 C 
HETATM   28  C13 UNL     1      -6.879   0.624  -1.552  1.00  0.00     0.014 C 
ENDBRANCH  24  25
ENDBRANCH  23  24
ENDBRANCH  20  23
ENDBRANCH  15  17
ENDBRANCH   1  15
TORSDOF 8
