REMARK  6 active torsions:
REMARK  status: ('A' for Active; 'I' for Inactive)
REMARK    1  A    between atoms: C4_4  and  C5_5 
REMARK    2  A    between atoms: C5_5  and  C6_6 
REMARK    3  A    between atoms: C11_15  and  C22_28 
REMARK    4  A    between atoms: C18_22  and  C19_23 
REMARK    5  A    between atoms: C19_23  and  C20_24 
REMARK    6  A    between atoms: C20_24  and  O1_25 
ROOT
HETATM    1  C1  UNL     1      -1.654  -2.047  -2.253  1.00  0.00     0.015 C 
HETATM    2  C2  UNL     1      -1.578  -1.616  -0.858  1.00  0.00    -0.039 C 
HETATM    3  C3  UNL     1      -2.311  -2.814  -0.164  1.00  0.00     0.015 C 
HETATM    4  C4  UNL     1      -2.353  -0.422  -0.432  1.00  0.00     0.000 C 
HETATM    5  C10 UNL     1      -1.489   0.229   0.665  1.00  0.00     0.016 C 
HETATM    6  C11 UNL     1      -0.089   0.024   0.152  1.00  0.00    -0.030 C 
HETATM    7  C12 UNL     1       0.011   0.734  -1.144  1.00  0.00     0.011 C 
HETATM    8  C13 UNL     1       1.332   0.318  -1.525  1.00  0.00     0.012 C 
HETATM    9  C14 UNL     1       2.325  -0.318  -0.556  1.00  0.00    -0.015 C 
HETATM   10  C15 UNL     1       2.295  -1.653  -1.037  1.00  0.00     0.012 C 
HETATM   11  C16 UNL     1       0.806  -2.076  -1.050  1.00  0.00     0.007 C 
HETATM   12  C17 UNL     1      -0.185  -1.455  -0.245  1.00  0.00     0.003 C 
HETATM   13  C18 UNL     1       3.138   0.820  -0.309  1.00  0.00    -0.002 C 
HETATM   14  C21 UNL     1       2.023   1.520   0.477  1.00  0.00     0.012 C 
HETATM   15  C22 UNL     1       1.028   0.426   0.981  1.00  0.00     0.019 C 
HETATM   16  C23 UNL     1       2.040  -0.608   0.880  1.00  0.00     0.046 C 
HETATM   17  C24 UNL     1       2.925  -0.199   1.985  1.00  0.00     0.034 C 
HETATM   18 CL1  UNL     1       1.938  -2.273   1.397  1.00  0.00    -0.118 Cl
ENDROOT
BRANCH   4  19
HETATM   19  C5  UNL     1      -3.687  -0.722   0.209  1.00  0.00     0.064 C 
BRANCH  19  20
HETATM   20  C6  UNL     1      -4.400   0.529   0.601  1.00  0.00     0.025 A 
HETATM   21  C7  UNL     1      -4.280   1.136   1.823  1.00  0.00     0.112 A 
HETATM   22  N1  UNL     1      -4.971   2.282   2.091  1.00  0.00    -0.372 N 
HETATM   23  C8  UNL     1      -5.782   2.856   1.191  1.00  0.00     0.104 A 
ATOM     24  H1  UNL     1      -4.867   2.717   3.008  1.00  0.00     0.164 HD
HETATM   25  C9  UNL     1      -5.909   2.260  -0.030  1.00  0.00     0.105 A 
HETATM   26  N2  UNL     1      -5.233   1.136  -0.297  1.00  0.00    -0.367 N 
ATOM     27  H2  UNL     1      -5.345   0.711  -1.217  1.00  0.00     0.165 HD
ENDBRANCH  19  20
ENDBRANCH   4  19
BRANCH  13  28
HETATM   28  C19 UNL     1       4.525   0.882  -0.044  1.00  0.00     0.031 C 
BRANCH  28  29
HETATM   29  C20 UNL     1       4.972   2.351   0.150  1.00  0.00     0.164 C 
BRANCH  29  30
HETATM   30  O1  UNL     1       6.323   2.416   0.409  1.00  0.00    -0.401 OA
ATOM     31  H1  UNL     1       6.597   3.318   0.528  1.00  0.00     0.209 HD
ENDBRANCH  29  30
ENDBRANCH  28  29
ENDBRANCH  13  28
TORSDOF 6
