REMARK  6 active torsions:
REMARK  status: ('A' for Active; 'I' for Inactive)
REMARK    1  A    between atoms: C2_2  and  C3_3 
REMARK    2  A    between atoms: C3_3  and  C4_4 
REMARK    3  A    between atoms: C4_4  and  C5_5 
REMARK    4  A    between atoms: C5_5  and  C6_6 
REMARK    5  A    between atoms: C20_24  and  C21_25 
REMARK    6  A    between atoms: C21_25  and  C22_26 
ROOT
HETATM    1  C5  UNL     1      -1.484  -0.093  -0.509  1.00  0.00     0.083 C 
HETATM    2  C9  UNL     1      -0.925   1.243  -1.038  1.00  0.00     0.044 C 
HETATM    3  C10 UNL     1       0.567   1.266  -0.977  1.00  0.00     0.030 C 
HETATM    4  C11 UNL     1       1.203   2.423  -1.587  1.00  0.00    -0.024 C 
HETATM    5  C12 UNL     1       2.351   2.883  -1.131  1.00  0.00    -0.087 C 
HETATM    6  C13 UNL     1       2.971   4.080  -1.792  1.00  0.00     0.043 C 
HETATM    7  C14 UNL     1       3.051   2.275   0.006  1.00  0.00     0.033 C 
HETATM    8  C15 UNL     1       3.669   0.934  -0.255  1.00  0.00     0.006 C 
HETATM    9  C16 UNL     1       3.623   0.101   1.027  1.00  0.00     0.025 C 
HETATM   10  C17 UNL     1       2.866  -1.221   0.793  1.00  0.00     0.080 C 
HETATM   11  C18 UNL     1       3.855  -2.318   1.152  1.00  0.00     0.032 C 
HETATM   12  N1  UNL     1       1.683  -1.247   1.592  1.00  0.00    -0.355 N 
ATOM     13  H1  UNL     1       1.741  -0.684   2.441  1.00  0.00     0.162 HD
HETATM   14  C19 UNL     1       0.470  -1.897   1.426  1.00  0.00     0.247 C 
HETATM   15  O1  UNL     1      -0.023  -2.428   2.495  1.00  0.00    -0.271 OA
HETATM   16  C20 UNL     1      -0.329  -2.053   0.155  1.00  0.00     0.224 C 
HETATM   17  O4  UNL     1      -0.414  -0.976  -0.634  1.00  0.00    -0.363 OA
ENDROOT
BRANCH   1  18
HETATM   18  C4  UNL     1      -1.828   0.090   0.906  1.00  0.00     0.040 C 
BRANCH  18  19
HETATM   19  C3  UNL     1      -2.771   1.160   1.308  1.00  0.00     0.003 C 
BRANCH  19  20
HETATM   20  C2  UNL     1      -2.915   1.135   2.851  1.00  0.00    -0.004 C 
HETATM   21  C1  UNL     1      -3.877   2.224   3.273  1.00  0.00     0.005 C 
ENDBRANCH  19  20
ENDBRANCH  18  19
ENDBRANCH   1  18
BRANCH   1  22
HETATM   22  C6  UNL     1      -2.631  -0.381  -1.450  1.00  0.00     0.061 C 
HETATM   23  C7  UNL     1      -2.128  -0.548  -2.868  1.00  0.00     0.035 C 
HETATM   24  C8  UNL     1      -3.553  -1.463  -1.047  1.00  0.00     0.035 C 
HETATM   25 CL1  UNL     1      -3.673   1.102  -1.602  1.00  0.00    -0.117 Cl
ENDBRANCH   1  22
BRANCH  16  26
HETATM   26  C21 UNL     1       0.259  -3.318  -0.461  1.00  0.00     0.154 C 
BRANCH  26  27
HETATM   27  C22 UNL     1      -0.337  -3.734  -1.739  1.00  0.00     0.175 C 
HETATM   28  O2  UNL     1       0.110  -3.375  -2.861  1.00  0.00    -0.648 OA
HETATM   29  O3  UNL     1      -1.457  -4.568  -1.746  1.00  0.00    -0.648 OA
ENDBRANCH  26  27
ENDBRANCH  16  26
TORSDOF 6
