REMARK  10 active torsions:
REMARK  status: ('A' for Active; 'I' for Inactive)
REMARK    1  A    between atoms: C1_2  and  C2_3 
REMARK       I    between atoms: C1_2  and  N1_10 
REMARK    2  A    between atoms: C3_4  and  C4_5 
REMARK    3  A    between atoms: N1_10  and  C9_11 
REMARK    4  A    between atoms: N1_10  and  C15_23 
REMARK    5  A    between atoms: C9_11  and  C10_12 
REMARK    6  A    between atoms: C11_13  and  C12_14 
REMARK    7  A    between atoms: C12_14  and  C13_15 
REMARK    8  A    between atoms: C13_15  and  C14_16 
REMARK    9  A    between atoms: C14_16  and  O2_17 
REMARK   10  A    between atoms: N2_19  and  O3_21 
ROOT
HETATM    1  O1  UNL     1      -1.674   1.147  -0.254  1.00  0.00    -0.268 OA
HETATM    2  C1  UNL     1      -0.990   0.583   0.604  1.00  0.00     0.248 C 
HETATM    3  N1  UNL     1       0.162   1.329   1.038  1.00  0.00    -0.302 N 
ENDROOT
BRANCH   3   4
HETATM    4  C9  UNL     1       0.945   0.847   2.126  1.00  0.00     0.226 C 
BRANCH   4   5
HETATM    5  C10 UNL     1       1.993  -0.044   1.583  1.00  0.00    -0.086 C 
HETATM    6  C11 UNL     1       2.827  -0.780   1.153  1.00  0.00    -0.104 C 
BRANCH   6   7
HETATM    7  C12 UNL     1       3.839  -1.703   0.639  1.00  0.00     0.102 C 
BRANCH   7   8
HETATM    8  C13 UNL     1       4.098  -1.311  -0.802  1.00  0.00     0.098 C 
BRANCH   8   9
HETATM    9  C14 UNL     1       5.126  -2.232  -1.351  1.00  0.00     0.136 C 
HETATM   10  N2  UNL     1       6.267  -1.850  -1.806  1.00  0.00    -0.251 N 
ATOM     11  H2  UNL     1       6.893  -2.573  -2.159  1.00  0.00     0.196 HD
BRANCH   9  12
HETATM   12  O2  UNL     1       4.832  -3.583  -1.373  1.00  0.00    -0.348 OA
ATOM     13  H2  UNL     1       5.489  -4.172  -1.724  1.00  0.00     0.219 HD
ENDBRANCH   9  12
BRANCH  10  14
HETATM   14  O3  UNL     1       6.709  -0.571  -1.857  1.00  0.00    -0.288 OA
ATOM     15  H3  UNL     1       7.552  -0.289  -2.193  1.00  0.00     0.244 HD
ENDBRANCH  10  14
ENDBRANCH   8   9
ENDBRANCH   7   8
ENDBRANCH   6   7
ENDBRANCH   4   5
ENDBRANCH   3   4
BRANCH   3  16
HETATM   16  C15 UNL     1       0.520   2.554   0.426  1.00  0.00     0.056 A 
HETATM   17  C16 UNL     1       0.484   3.752   1.123  1.00  0.00     0.031 A 
HETATM   18  C17 UNL     1       0.822   4.970   0.583  1.00  0.00     0.002 A 
HETATM   19  C18 UNL     1       1.224   5.027  -0.735  1.00  0.00     0.002 A 
HETATM   20  C19 UNL     1       1.271   3.859  -1.452  1.00  0.00     0.021 A 
HETATM   21  C20 UNL     1       0.930   2.643  -0.901  1.00  0.00     0.037 A 
HETATM   22 BR1  UNL     1       1.029   1.062  -1.963  1.00  0.00    -0.049 Br
ENDBRANCH   3  16
BRANCH   2  23
HETATM   23  C2  UNL     1      -1.288  -0.710   1.143  1.00  0.00     0.071 C 
HETATM   24  C3  UNL     1      -2.252  -1.507   0.900  1.00  0.00    -0.017 C 
BRANCH  24  25
HETATM   25  C4  UNL     1      -3.435  -1.660   0.121  1.00  0.00     0.008 C 
HETATM   26  C5  UNL     1      -4.642  -1.884   1.052  1.00  0.00     0.008 C 
HETATM   27  C6  UNL     1      -5.750  -2.112   0.043  1.00  0.00     0.001 C 
HETATM   28  C7  UNL     1      -5.392  -1.261  -1.146  1.00  0.00     0.001 C 
HETATM   29  C8  UNL     1      -3.984  -0.656  -0.792  1.00  0.00     0.008 C 
ENDBRANCH  24  25
ENDBRANCH   2  23
TORSDOF 10
