REMARK  5 active torsions:
REMARK  status: ('A' for Active; 'I' for Inactive)
REMARK    1  A    between atoms: C1_2  and  C2_3 
REMARK       I    between atoms: C1_2  and  N2_16 
REMARK    2  A    between atoms: C2_3  and  N1_4 
REMARK    3  A    between atoms: N1_4  and  C3_6 
REMARK    4  A    between atoms: N2_16  and  C13_18 
REMARK    5  A    between atoms: C16_22  and  C17_23 
ROOT
HETATM    1  O1  UNL     1       0.583  -0.078   1.350  1.00  0.00    -0.272 OA
HETATM    2  C1  UNL     1       0.456   0.009   0.101  1.00  0.00     0.236 C 
HETATM    3  N2  UNL     1       1.592   0.037  -0.774  1.00  0.00    -0.319 N 
ATOM      4  H2  UNL     1       1.487   0.108  -1.786  1.00  0.00     0.169 HD
ENDROOT
BRANCH   2   5
HETATM    5  C2  UNL     1      -0.904   0.083  -0.462  1.00  0.00     0.212 C 
BRANCH   5   6
HETATM    6  N1  UNL     1      -1.859   0.036   0.594  1.00  0.00    -0.210 NA
HETATM    7 CL1  UNL     1      -1.569   1.254   1.788  1.00  0.00    -0.021 Cl
BRANCH   6   8
HETATM    8  C3  UNL     1      -3.210   0.108   0.119  1.00  0.00     0.030 C 
HETATM    9  C4  UNL     1      -3.563  -1.053  -0.748  1.00  0.00     0.031 C 
HETATM   10  C5  UNL     1      -5.018  -0.965  -1.185  1.00  0.00    -0.012 C 
HETATM   11  C6  UNL     1      -5.873  -1.095   0.041  1.00  0.00     0.009 C 
HETATM   12  C10 UNL     1      -5.195   0.332  -1.909  1.00  0.00     0.009 C 
HETATM   13  C7  UNL     1      -5.550   0.060   0.969  1.00  0.00    -0.012 C 
HETATM   14  C8  UNL     1      -5.904   1.332   0.225  1.00  0.00     0.009 C 
HETATM   15  C12 UNL     1      -4.097   0.040   1.367  1.00  0.00     0.031 C 
HETATM   16  C9  UNL     1      -4.951   1.466  -0.942  1.00  0.00    -0.012 C 
HETATM   17  C11 UNL     1      -3.514   1.441  -0.528  1.00  0.00     0.031 C 
ENDBRANCH   6   8
ENDBRANCH   5   6
ENDBRANCH   2   5
BRANCH   3  18
HETATM   18  C13 UNL     1       2.881  -0.040  -0.154  1.00  0.00     0.094 A 
HETATM   19  S1  UNL     1       3.174  -0.158   1.549  1.00  0.00    -0.075 SA
HETATM   20  C14 UNL     1       4.867  -0.213   1.519  1.00  0.00    -0.008 A 
HETATM   21  C15 UNL     1       5.166  -0.141   0.208  1.00  0.00    -0.025 A 
HETATM   22  C21 UNL     1       5.817  -0.316   2.665  1.00  0.00     0.047 C 
HETATM   23  C16 UNL     1       4.146  -0.049  -0.681  1.00  0.00     0.082 A 
HETATM   24  C18 UNL     1       6.642  -0.192  -0.129  1.00  0.00     0.041 C 
HETATM   25  C19 UNL     1       7.513  -0.499   0.997  1.00  0.00     0.005 C 
HETATM   26  C20 UNL     1       6.925  -1.252   2.155  1.00  0.00     0.005 C 
BRANCH  23  27
HETATM   27  C17 UNL     1       4.305   0.051  -2.143  1.00  0.00     0.212 C 
HETATM   28  O2  UNL     1       3.372   0.139  -2.946  1.00  0.00    -0.644 OA
HETATM   29  O3  UNL     1       5.577   0.049  -2.672  1.00  0.00    -0.644 OA
ENDBRANCH  23  27
ENDBRANCH   3  18
TORSDOF 5
