REMARK  6 active torsions:
REMARK  status: ('A' for Active; 'I' for Inactive)
REMARK    1  A    between atoms: N1_8  and  O1_10 
REMARK    2  A    between atoms: C18_22  and  O2_23 
REMARK    3  A    between atoms: C18_22  and  C19_25 
REMARK    4  A    between atoms: C19_25  and  C21_27 
REMARK    5  A    between atoms: C21_27  and  C23_29 
REMARK    6  A    between atoms: C24_31  and  C25_32 
ROOT
HETATM    1  C1  UNL     1       2.647  -2.596  -1.684  1.00  0.00     0.044 C 
HETATM    2  C2  UNL     1       2.561  -1.662  -0.549  1.00  0.00    -0.071 C 
HETATM    3  C3  UNL     1       3.713  -1.242   0.002  1.00  0.00    -0.023 C 
HETATM    4  C4  UNL     1       4.101  -0.353   1.097  1.00  0.00     0.033 C 
HETATM    5  C5  UNL     1       3.198   0.792   1.509  1.00  0.00    -0.001 C 
HETATM    6  C6  UNL     1       3.511   2.065   0.763  1.00  0.00     0.059 C 
HETATM    7  C7  UNL     1       3.595   1.511  -0.611  1.00  0.00     0.010 C 
HETATM    8  N1  UNL     1       4.622   1.683  -1.301  1.00  0.00    -0.277 N 
ATOM      9  H1  UNL     1       4.666   1.296  -2.244  1.00  0.00     0.193 HD
HETATM   10  C8  UNL     1       2.416   0.791  -1.060  1.00  0.00     0.061 C 
HETATM   11  C9  UNL     1       1.489   0.230  -0.002  1.00  0.00     0.015 C 
HETATM   12  C10 UNL     1       1.837   0.397   1.418  1.00  0.00    -0.004 C 
HETATM   13  C11 UNL     1       0.579   0.860   1.986  1.00  0.00     0.006 C 
HETATM   14  C12 UNL     1      -0.670   0.517   1.251  1.00  0.00     0.013 C 
HETATM   15  C13 UNL     1      -1.048  -0.558   0.382  1.00  0.00    -0.007 C 
HETATM   16  C14 UNL     1      -1.744  -1.628   1.260  1.00  0.00     0.019 C 
HETATM   17  C15 UNL     1      -0.048  -1.320  -0.508  1.00  0.00     0.017 C 
HETATM   18  C16 UNL     1      -0.322  -0.831  -1.918  1.00  0.00     0.010 C 
HETATM   19  C17 UNL     1      -1.806  -0.657  -1.962  1.00  0.00     0.039 C 
HETATM   20  C18 UNL     1      -2.105  -0.099  -0.574  1.00  0.00     0.069 C 
HETATM   21  C24 UNL     1       1.283  -1.266  -0.043  1.00  0.00     0.044 C 
ENDROOT
BRANCH  20  22
HETATM   22  O2  UNL     1      -2.047   1.320  -0.822  1.00  0.00    -0.389 OA
ATOM     23  H2  UNL     1      -2.718   1.611  -1.429  1.00  0.00     0.210 HD
ENDBRANCH  20  22
BRANCH  20  24
HETATM   24  C19 UNL     1      -3.557  -0.249  -0.312  1.00  0.00     0.027 C 
HETATM   25  C20 UNL     1      -4.337   0.319  -1.553  1.00  0.00     0.014 C 
BRANCH  24  26
HETATM   26  C21 UNL     1      -4.152   0.563   0.806  1.00  0.00     0.050 C 
HETATM   27  C22 UNL     1      -4.037   2.045   0.666  1.00  0.00     0.017 C 
BRANCH  26  28
HETATM   28  C23 UNL     1      -5.636   0.278   0.919  1.00  0.00     0.235 C 
HETATM   29  O3  UNL     1      -6.360   1.084   1.452  1.00  0.00    -0.306 OA
ENDBRANCH  26  28
ENDBRANCH  24  26
ENDBRANCH  20  24
BRANCH  21  30
HETATM   30  C25 UNL     1       1.244  -2.125   1.156  1.00  0.00     0.246 C 
HETATM   31  O4  UNL     1       1.804  -3.197   1.337  1.00  0.00    -0.306 OA
ENDBRANCH  21  30
BRANCH   8  32
HETATM   32  O1  UNL     1       5.691   2.385  -0.807  1.00  0.00    -0.290 OA
ATOM     33  H1  UNL     1       6.472   2.516  -1.332  1.00  0.00     0.244 HD
ENDBRANCH   8  32
TORSDOF 6
