REMARK  6 active torsions:
REMARK  status: ('A' for Active; 'I' for Inactive)
REMARK    1  A    between atoms: C2_2  and  C4_4 
REMARK    2  A    between atoms: C4_4  and  C5_5 
REMARK    3  A    between atoms: C4_4  and  C7_10 
REMARK    4  A    between atoms: C5_5  and  C6_7 
REMARK    5  A    between atoms: C6_7  and  O2_8 
REMARK    6  A    between atoms: C15_20  and  O4_21 
ROOT
HETATM    1  C7  UNL     1      -2.390   1.033   0.134  1.00  0.00     0.109 C 
HETATM    2  C8  UNL     1      -2.108   2.084  -0.822  1.00  0.00     0.195 C 
HETATM    3  O3  UNL     1      -2.699   2.556  -1.716  1.00  0.00    -0.285 OA
HETATM    4  S1  UNL     1      -0.444   2.645  -0.351  1.00  0.00    -0.086 SA
HETATM    5  C9  UNL     1      -0.145   1.306   0.890  1.00  0.00     0.069 C 
HETATM    6  C10 UNL     1       1.283   0.957   0.879  1.00  0.00     0.009 C 
HETATM    7  C11 UNL     1       1.921   0.741   2.231  1.00  0.00     0.033 C 
HETATM    8  C12 UNL     1       3.386   0.852   1.998  1.00  0.00    -0.023 C 
HETATM    9  C13 UNL     1       3.930   0.456   0.876  1.00  0.00    -0.072 C 
HETATM   10  C14 UNL     1       5.401   0.598   0.715  1.00  0.00     0.066 C 
HETATM   11  C15 UNL     1       5.973  -0.752   0.347  1.00  0.00     0.122 C 
HETATM   12  C16 UNL     1       5.186  -1.469  -0.702  1.00  0.00     0.033 C 
HETATM   13  C17 UNL     1       3.711  -1.542  -0.426  1.00  0.00     0.016 C 
HETATM   14  C18 UNL     1       3.154  -0.122  -0.232  1.00  0.00    -0.017 C 
HETATM   15  C19 UNL     1       3.441   0.590  -1.541  1.00  0.00     0.020 C 
HETATM   16  C20 UNL     1       1.679  -0.202   0.014  1.00  0.00     0.003 C 
HETATM   17  C21 UNL     1       0.872  -0.098  -1.258  1.00  0.00     0.007 C 
HETATM   18  C22 UNL     1      -0.577  -0.325  -0.949  1.00  0.00     0.012 C 
HETATM   19  C23 UNL     1      -1.083   0.251   0.318  1.00  0.00    -0.016 C 
HETATM   20  C24 UNL     1      -1.326  -0.760   1.410  1.00  0.00     0.018 C 
ENDROOT
BRANCH   1  21
HETATM   21  C4  UNL     1      -3.608   0.217   0.035  1.00  0.00    -0.012 C 
BRANCH  21  22
HETATM   22  C2  UNL     1      -3.894  -0.617  -1.132  1.00  0.00     0.011 C 
HETATM   23  C1  UNL     1      -4.942  -1.698  -0.847  1.00  0.00     0.014 C 
HETATM   24  C3  UNL     1      -4.482   0.130  -2.342  1.00  0.00     0.014 C 
ENDBRANCH  21  22
BRANCH  21  25
HETATM   25  C5  UNL     1      -4.829   0.949   0.486  1.00  0.00     0.197 C 
HETATM   26  O1  UNL     1      -4.895   2.122   0.091  1.00  0.00    -0.286 OA
BRANCH  25  27
HETATM   27  C6  UNL     1      -5.901   0.426   1.304  1.00  0.00     0.186 C 
BRANCH  27  28
HETATM   28  O2  UNL     1      -5.618  -0.733   2.004  1.00  0.00    -0.369 OA
ATOM     29  H2  UNL     1      -6.322  -1.077   2.541  1.00  0.00     0.216 HD
ENDBRANCH  27  28
ENDBRANCH  25  27
ENDBRANCH  21  25
ENDBRANCH   1  21
BRANCH  11  30
HETATM   30  O4  UNL     1       7.258  -0.517  -0.156  1.00  0.00    -0.395 OA
ATOM     31  H4  UNL     1       7.617  -1.365  -0.387  1.00  0.00     0.210 HD
ENDBRANCH  11  30
TORSDOF 6
