REMARK  6 active torsions:
REMARK  status: ('A' for Active; 'I' for Inactive)
REMARK    1  A    between atoms: C2_2  and  C3_3 
REMARK    2  A    between atoms: C3_3  and  C4_4 
REMARK    3  A    between atoms: C4_4  and  O2_6 
REMARK    4  A    between atoms: O2_6  and  C5_7 
REMARK    5  A    between atoms: C16_18  and  O3_19 
REMARK    6  A    between atoms: C22_26  and  C24_28 
ROOT
HETATM    1  C5  UNL     1       3.374   0.595  -0.240  1.00  0.00     0.132 C 
HETATM    2  C6  UNL     1       2.852   0.117  -1.577  1.00  0.00     0.033 C 
HETATM    3  C7  UNL     1       1.386   0.164  -1.707  1.00  0.00     0.012 C 
HETATM    4  C8  UNL     1       0.609  -0.465  -0.568  1.00  0.00    -0.036 C 
HETATM    5  C9  UNL     1       0.734  -1.975  -0.794  1.00  0.00     0.016 C 
HETATM    6  C10 UNL     1       1.242  -0.043   0.709  1.00  0.00    -0.004 C 
HETATM    7  C11 UNL     1       0.605  -0.805   1.840  1.00  0.00     0.006 C 
HETATM    8  C12 UNL     1      -0.813  -0.427   1.921  1.00  0.00     0.006 C 
HETATM    9  C13 UNL     1      -1.399   0.316   0.758  1.00  0.00    -0.005 C 
HETATM   10  C14 UNL     1      -0.832  -0.027  -0.580  1.00  0.00     0.001 C 
HETATM   11  C15 UNL     1      -1.686  -1.017  -1.340  1.00  0.00     0.038 C 
HETATM   12  C16 UNL     1      -3.112  -0.661  -1.454  1.00  0.00     0.128 C 
HETATM   13  C17 UNL     1      -3.601   0.345  -0.461  1.00  0.00     0.002 C 
HETATM   14  C18 UNL     1      -3.375   1.759  -0.970  1.00  0.00     0.019 C 
HETATM   15  C19 UNL     1      -2.888   0.072   0.818  1.00  0.00     0.002 C 
HETATM   16  C20 UNL     1      -3.607   0.872   1.821  1.00  0.00     0.007 C 
HETATM   17  C21 UNL     1      -4.970   1.108   1.235  1.00  0.00     0.020 C 
HETATM   18  C22 UNL     1      -5.014   0.269  -0.060  1.00  0.00     0.045 C 
HETATM   19  C23 UNL     1      -5.945   1.065  -0.983  1.00  0.00     0.026 C 
HETATM   20  C25 UNL     1       2.724  -0.295   0.799  1.00  0.00     0.038 C 
ENDROOT
BRANCH   1  21
HETATM   21  O2  UNL     1       4.779   0.440  -0.253  1.00  0.00    -0.316 OA
BRANCH  21  22
HETATM   22  C4  UNL     1       5.607   1.526  -0.005  1.00  0.00     0.259 C 
HETATM   23  O1  UNL     1       5.048   2.629   0.225  1.00  0.00    -0.265 OA
BRANCH  22  24
HETATM   24  C3  UNL     1       7.094   1.406  -0.009  1.00  0.00     0.111 C 
BRANCH  24  25
HETATM   25  C2  UNL     1       7.455  -0.030  -0.314  1.00  0.00     0.005 C 
HETATM   26  C1  UNL     1       8.938  -0.240  -0.338  1.00  0.00     0.005 C 
ENDBRANCH  24  25
ENDBRANCH  22  24
ENDBRANCH  21  22
ENDBRANCH   1  21
BRANCH  12  27
HETATM   27  O3  UNL     1      -3.852  -1.837  -1.391  1.00  0.00    -0.395 OA
ATOM     28  H3  UNL     1      -4.771  -1.608  -1.464  1.00  0.00     0.210 HD
ENDBRANCH  12  27
BRANCH  18  29
HETATM   29  C24 UNL     1      -5.650  -1.010   0.176  1.00  0.00     0.240 C 
HETATM   30  N1  UNL     1      -5.363  -1.936   1.214  1.00  0.00    -0.061 NA
HETATM   31  O4  UNL     1      -6.588  -1.416  -0.601  1.00  0.00    -0.276 OA
ENDBRANCH  18  29
TORSDOF 6
