REMARK  6 active torsions:
REMARK  status: ('A' for Active; 'I' for Inactive)
REMARK    1  A    between atoms: O1_2  and  C2_3 
REMARK    2  A    between atoms: C2_3  and  C3_4 
REMARK    3  A    between atoms: C6_7  and  O2_8 
REMARK    4  A    between atoms: C15_18  and  O3_19 
REMARK    5  A    between atoms: C18_23  and  C20_25 
REMARK    6  A    between atoms: C21_26  and  N1_27 
ROOT
HETATM    1  C3  UNL     1       2.263  -0.782   0.071  1.00  0.00    -0.012 C 
HETATM    2  C4  UNL     1       2.048  -2.146  -0.603  1.00  0.00     0.018 C 
HETATM    3  C5  UNL     1       3.421  -0.223  -0.803  1.00  0.00     0.044 C 
HETATM    4  C6  UNL     1       3.097  -0.127  -2.243  1.00  0.00     0.122 C 
HETATM    5  C7  UNL     1       1.758   0.554  -2.521  1.00  0.00     0.066 C 
HETATM    6  C8  UNL     1       0.765   0.033  -1.545  1.00  0.00    -0.072 C 
HETATM    7  C9  UNL     1      -0.329  -0.480  -2.014  1.00  0.00    -0.000 C 
HETATM    8  C10 UNL     1      -1.557  -1.096  -1.540  1.00  0.00    -0.016 C 
HETATM    9  C11 UNL     1      -1.793  -1.392  -0.144  1.00  0.00    -0.016 C 
HETATM   10  C12 UNL     1      -1.687  -2.909   0.048  1.00  0.00     0.020 C 
HETATM   11  C13 UNL     1      -3.267  -1.107   0.169  1.00  0.00     0.022 C 
HETATM   12  C14 UNL     1      -4.210  -2.172  -0.289  1.00  0.00     0.014 C 
HETATM   13  C15 UNL     1      -3.251  -1.085   1.673  1.00  0.00     0.123 C 
HETATM   14  C16 UNL     1      -1.966  -0.339   1.994  1.00  0.00     0.039 C 
HETATM   15  C17 UNL     1      -0.964  -0.802   0.922  1.00  0.00     0.013 C 
HETATM   16  C18 UNL     1      -0.048   0.318   0.668  1.00  0.00    -0.012 C 
HETATM   17  C19 UNL     1       0.289   0.934   2.049  1.00  0.00     0.021 C 
HETATM   18  C25 UNL     1       1.179   0.150  -0.086  1.00  0.00     0.037 C 
ENDROOT
BRANCH  16  19
HETATM   19  C20 UNL     1      -0.783   1.438   0.011  1.00  0.00     0.001 C 
HETATM   20  C21 UNL     1      -0.259   2.637  -0.052  1.00  0.00     0.094 C 
BRANCH  20  21
HETATM   21  N1  UNL     1      -0.937   3.725  -0.673  1.00  0.00    -0.328 N 
HETATM   22  C22 UNL     1      -0.555   5.003  -0.828  1.00  0.00     0.114 A 
HETATM   23  C23 UNL     1      -1.527   5.711  -1.491  1.00  0.00     0.106 A 
HETATM   24  N2  UNL     1      -2.518   4.854  -1.746  1.00  0.00    -0.360 N 
HETATM   25  C24 UNL     1      -2.141   3.639  -1.239  1.00  0.00     0.187 A 
ATOM     26  H2  UNL     1      -3.392   5.065  -2.228  1.00  0.00     0.166 HD
ENDBRANCH  20  21
ENDBRANCH  16  19
BRANCH   1  27
HETATM   27  C2  UNL     1       2.935  -1.050   1.361  1.00  0.00     0.176 C 
BRANCH  27  28
HETATM   28  O1  UNL     1       3.259   0.067   2.112  1.00  0.00    -0.395 OA
HETATM   29  C1  UNL     1       3.879  -0.228   3.297  1.00  0.00     0.201 C 
ENDBRANCH  27  28
ENDBRANCH   1  27
BRANCH  13  30
HETATM   30  O3  UNL     1      -3.278  -2.344   2.251  1.00  0.00    -0.395 OA
ATOM     31  H3  UNL     1      -3.268  -2.330   3.201  1.00  0.00     0.210 HD
ENDBRANCH  13  30
BRANCH   4  32
HETATM   32  O2  UNL     1       4.064   0.688  -2.835  1.00  0.00    -0.395 OA
ATOM     33  H2  UNL     1       3.856   0.750  -3.760  1.00  0.00     0.210 HD
ENDBRANCH   4  32
TORSDOF 6
