REMARK  5 active torsions:
REMARK  status: ('A' for Active; 'I' for Inactive)
REMARK    1  A    between atoms: C2_2  and  C4_4 
REMARK    2  A    between atoms: C6_6  and  C7_7 
REMARK    3  A    between atoms: C7_7  and  O1_8 
REMARK    4  A    between atoms: C7_7  and  N1_10 
REMARK    5  A    between atoms: N1_10  and  N2_12 
ROOT
HETATM    1  N2  UNL     1      -0.875  -0.050   0.411  1.00  0.00    -0.310 N 
ATOM      2  H2  UNL     1      -0.966   0.362   1.339  1.00  0.00     0.186 HD
HETATM    3  C8  UNL     1      -1.946  -0.196  -0.259  1.00  0.00     0.015 C 
HETATM    4  C9  UNL     1      -2.022  -0.775  -1.621  1.00  0.00     0.068 C 
HETATM    5  C10 UNL     1      -3.481  -1.068  -1.877  1.00  0.00    -0.017 C 
HETATM    6  C11 UNL     1      -3.709  -2.349  -2.601  1.00  0.00     0.020 C 
HETATM    7  C12 UNL     1      -4.208   0.023  -2.561  1.00  0.00    -0.020 C 
HETATM    8  C13 UNL     1      -4.302   1.185  -1.965  1.00  0.00    -0.017 C 
HETATM    9  C14 UNL     1      -3.691   1.385  -0.643  1.00  0.00     0.092 C 
HETATM   10  C15 UNL     1      -4.476   2.359   0.183  1.00  0.00     0.135 C 
HETATM   11  O2  UNL     1      -4.393   3.580  -0.031  1.00  0.00    -0.297 OA
HETATM   12  C16 UNL     1      -5.386   1.978   1.285  1.00  0.00     0.079 C 
HETATM   13  C17 UNL     1      -5.012   0.633   1.790  1.00  0.00     0.013 C 
HETATM   14  C18 UNL     1      -3.558   0.265   1.579  1.00  0.00    -0.003 C 
HETATM   15  C19 UNL     1      -2.625   1.226   2.230  1.00  0.00     0.011 C 
HETATM   16  C20 UNL     1      -3.351   0.142   0.088  1.00  0.00     0.021 C 
HETATM   17  C21 UNL     1      -4.025  -1.114  -0.437  1.00  0.00     0.009 C 
HETATM   18  C22 UNL     1      -3.481  -2.354   0.175  1.00  0.00     0.012 C 
ENDROOT
BRANCH   1  19
HETATM   19  N1  UNL     1       0.391  -0.393   0.007  1.00  0.00    -0.305 N 
ATOM     20  H1  UNL     1       0.589  -1.373  -0.194  1.00  0.00     0.183 HD
BRANCH  19  21
HETATM   21  C7  UNL     1       1.462   0.576  -0.147  1.00  0.00     0.261 C 
BRANCH  21  22
HETATM   22  C6  UNL     1       2.737  -0.098  -0.602  1.00  0.00     0.173 C 
HETATM   23  C5  UNL     1       3.861   0.912  -0.718  1.00  0.00     0.048 C 
HETATM   24  C4  UNL     1       4.605   0.652   0.580  1.00  0.00     0.050 C 
HETATM   25  C23 UNL     1       4.448  -0.858   0.653  1.00  0.00     0.062 C 
HETATM   26  O3  UNL     1       3.103  -1.025   0.336  1.00  0.00    -0.370 OA
HETATM   27  C24 UNL     1       4.625  -1.356   2.066  1.00  0.00     0.046 C 
HETATM   28  C25 UNL     1       5.271  -1.588  -0.355  1.00  0.00     0.046 C 
BRANCH  24  29
HETATM   29  C2  UNL     1       6.015   1.088   0.442  1.00  0.00    -0.086 C 
HETATM   30  C1  UNL     1       6.368   1.808  -0.604  1.00  0.00     0.014 C 
HETATM   31  C3  UNL     1       7.053   0.731   1.446  1.00  0.00     0.043 C 
ENDBRANCH  24  29
ENDBRANCH  21  22
BRANCH  21  32
HETATM   32  O1  UNL     1       1.696   1.198   1.076  1.00  0.00    -0.373 OA
ATOM     33  H1  UNL     1       0.895   1.621   1.362  1.00  0.00     0.212 HD
ENDBRANCH  21  32
ENDBRANCH  19  21
ENDBRANCH   1  19
TORSDOF 5
