REMARK  8 active torsions:
REMARK  status: ('A' for Active; 'I' for Inactive)
REMARK    1  A    between atoms: C2_2  and  C3_3 
REMARK    2  A    between atoms: C6_6  and  O1_7 
REMARK    3  A    between atoms: O1_7  and  C7_8 
REMARK    4  A    between atoms: C7_8  and  C8_10 
REMARK    5  A    between atoms: C8_10  and  C9_11 
REMARK    6  A    between atoms: C9_11  and  C10_12 
REMARK    7  A    between atoms: C10_12  and  O4_14 
REMARK    8  A    between atoms: C20_24  and  O5_25 
ROOT
HETATM    1  C3  UNL     1      -0.608   0.757   1.100  1.00  0.00    -0.027 C 
HETATM    2  C4  UNL     1      -0.589  -0.617   1.803  1.00  0.00     0.013 C 
HETATM    3  C5  UNL     1       0.877  -0.706   2.177  1.00  0.00     0.034 C 
HETATM    4  C6  UNL     1       1.645   0.133   1.178  1.00  0.00     0.141 C 
HETATM    5  C12 UNL     1       0.556   0.586   0.194  1.00  0.00    -0.009 C 
HETATM    6  C13 UNL     1       1.050   1.792  -0.511  1.00  0.00     0.018 C 
HETATM    7  C14 UNL     1       0.388  -0.556  -0.777  1.00  0.00     0.013 C 
HETATM    8  C15 UNL     1      -0.950  -0.591  -1.434  1.00  0.00     0.006 C 
HETATM    9  C16 UNL     1      -2.109  -0.305  -0.550  1.00  0.00    -0.005 C 
HETATM   10  C17 UNL     1      -3.288   0.077  -1.458  1.00  0.00     0.001 C 
HETATM   11  C18 UNL     1      -3.679  -1.041  -2.370  1.00  0.00     0.008 C 
HETATM   12  C19 UNL     1      -4.562  -1.929  -1.524  1.00  0.00     0.033 C 
HETATM   13  C20 UNL     1      -4.943  -1.122  -0.300  1.00  0.00     0.126 C 
HETATM   14  C21 UNL     1      -4.542   0.276  -0.633  1.00  0.00    -0.014 C 
HETATM   15  C22 UNL     1      -5.581   0.885  -1.557  1.00  0.00     0.018 C 
HETATM   16  C23 UNL     1      -4.348   1.171   0.539  1.00  0.00     0.012 C 
HETATM   17  C24 UNL     1      -3.072   0.915   1.314  1.00  0.00     0.007 C 
HETATM   18  C25 UNL     1      -1.915   0.872   0.377  1.00  0.00    -0.001 C 
ENDROOT
BRANCH   4  19
HETATM   19  O1  UNL     1       2.578  -0.662   0.480  1.00  0.00    -0.315 OA
BRANCH  19  20
HETATM   20  C7  UNL     1       3.930  -0.357   0.408  1.00  0.00     0.259 C 
HETATM   21  O2  UNL     1       4.305   0.683   1.004  1.00  0.00    -0.265 OA
BRANCH  20  22
HETATM   22  C8  UNL     1       4.904  -1.200  -0.329  1.00  0.00     0.121 C 
BRANCH  22  23
HETATM   23  C9  UNL     1       6.260  -0.585  -0.202  1.00  0.00     0.121 C 
BRANCH  23  24
HETATM   24  C10 UNL     1       7.311  -1.343  -0.900  1.00  0.00     0.258 C 
HETATM   25  O3  UNL     1       7.017  -2.395  -1.519  1.00  0.00    -0.265 OA
BRANCH  24  26
HETATM   26  O4  UNL     1       8.620  -0.925  -0.890  1.00  0.00    -0.326 OA
HETATM   27  C11 UNL     1       9.682  -1.575  -1.521  1.00  0.00     0.213 C 
ENDBRANCH  24  26
ENDBRANCH  23  24
ENDBRANCH  22  23
ENDBRANCH  20  22
ENDBRANCH  19  20
ENDBRANCH   4  19
BRANCH   1  28
HETATM   28  C2  UNL     1      -0.388   1.752   2.166  1.00  0.00     0.006 C 
HETATM   29  C1  UNL     1      -0.367   3.185   1.790  1.00  0.00     0.006 C 
ENDBRANCH   1  28
BRANCH  13  30
HETATM   30  O5  UNL     1      -6.328  -1.151  -0.154  1.00  0.00    -0.395 OA
ATOM     31  H5  UNL     1      -6.567  -0.645   0.614  1.00  0.00     0.210 HD
ENDBRANCH  13  30
TORSDOF 8
