REMARK  6 active torsions:
REMARK  status: ('A' for Active; 'I' for Inactive)
REMARK    1  A    between atoms: C2_2  and  C3_4 
REMARK    2  A    between atoms: C3_4  and  C4_5 
REMARK    3  A    between atoms: C3_4  and  C26_30 
REMARK    4  A    between atoms: C5_6  and  C6_7 
REMARK    5  A    between atoms: C6_7  and  O2_8 
REMARK    6  A    between atoms: C26_30  and  O4_31 
ROOT
HETATM    1  C6  UNL     1       2.321  -0.956  -1.044  1.00  0.00     0.076 C 
HETATM    2  C7  UNL     1       2.002  -2.444  -0.899  1.00  0.00     0.043 C 
HETATM    3  C8  UNL     1       1.106  -2.593   0.290  1.00  0.00     0.012 C 
HETATM    4  C9  UNL     1      -0.281  -2.075  -0.120  1.00  0.00    -0.040 C 
HETATM    5  C10 UNL     1      -0.813  -3.086  -1.130  1.00  0.00     0.015 C 
HETATM    6  C11 UNL     1      -1.104  -2.061   1.121  1.00  0.00     0.010 C 
HETATM    7  C12 UNL     1      -2.468  -1.449   0.974  1.00  0.00     0.007 C 
HETATM    8  C13 UNL     1      -2.567  -0.500  -0.183  1.00  0.00     0.003 C 
HETATM    9  C14 UNL     1      -1.262   0.208  -0.476  1.00  0.00    -0.001 C 
HETATM   10  C15 UNL     1      -0.999   1.189   0.646  1.00  0.00     0.033 C 
HETATM   11  C16 UNL     1      -2.074   2.209   0.547  1.00  0.00    -0.022 C 
HETATM   12  C17 UNL     1      -3.283   1.873   0.197  1.00  0.00    -0.068 C 
HETATM   13  C18 UNL     1      -4.324   2.924   0.111  1.00  0.00     0.113 C 
HETATM   14  C19 UNL     1      -5.489   2.432   0.893  1.00  0.00     0.130 C 
HETATM   15  O3  UNL     1      -6.071   3.192   1.634  1.00  0.00    -0.298 OA
HETATM   16  C20 UNL     1      -5.926   1.042   0.767  1.00  0.00     0.079 C 
HETATM   17  C21 UNL     1      -4.799   0.039   0.816  1.00  0.00     0.021 C 
HETATM   18  C22 UNL     1      -3.672   0.491  -0.118  1.00  0.00    -0.016 C 
HETATM   19  C23 UNL     1      -4.369   0.570  -1.493  1.00  0.00     0.020 C 
HETATM   20  C24 UNL     1      -0.129  -0.713  -0.756  1.00  0.00     0.001 C 
HETATM   21  C25 UNL     1       1.216  -0.128  -0.373  1.00  0.00     0.048 C 
ENDROOT
BRANCH   1  22
HETATM   22  C5  UNL     1       3.627  -0.726  -0.377  1.00  0.00     0.007 C 
HETATM   23  C4  UNL     1       3.914   0.408   0.261  1.00  0.00    -0.014 C 
BRANCH  23  24
HETATM   24  C3  UNL     1       5.186   0.680   0.933  1.00  0.00     0.101 C 
BRANCH  24  25
HETATM   25  C2  UNL     1       5.743   1.950   0.421  1.00  0.00     0.132 C 
HETATM   26  C1  UNL     1       4.919   3.182   0.606  1.00  0.00     0.091 C 
HETATM   27  O1  UNL     1       6.812   2.057  -0.133  1.00  0.00    -0.298 OA
ENDBRANCH  24  25
BRANCH  24  28
HETATM   28  C26 UNL     1       6.168  -0.462   0.836  1.00  0.00     0.180 C 
BRANCH  28  29
HETATM   29  O4  UNL     1       7.324  -0.226   1.559  1.00  0.00    -0.400 OA
ATOM     30  H4  UNL     1       7.942  -0.945   1.498  1.00  0.00     0.209 HD
ENDBRANCH  28  29
ENDBRANCH  24  28
ENDBRANCH  23  24
ENDBRANCH   1  22
BRANCH   1  31
HETATM   31  O2  UNL     1       2.412  -0.658  -2.388  1.00  0.00    -0.386 OA
ATOM     32  H2  UNL     1       1.576  -0.805  -2.815  1.00  0.00     0.211 HD
ENDBRANCH   1  31
TORSDOF 6
