REMARK  7 active torsions:
REMARK  status: ('A' for Active; 'I' for Inactive)
REMARK    1  A    between atoms: C2_2  and  O2_4 
REMARK    2  A    between atoms: O2_4  and  C3_5 
REMARK    3  A    between atoms: C3_5  and  C5_7 
REMARK    4  A    between atoms: C5_7  and  O3_8 
REMARK    5  A    between atoms: N1_19  and  C15_21 
REMARK    6  A    between atoms: C15_21  and  C16_22 
REMARK    7  A    between atoms: C16_22  and  O4_23 
ROOT
HETATM    1  C5  UNL     1      -3.755  -1.153  -0.683  1.00  0.00     0.091 C 
HETATM    2  C6  UNL     1      -3.893  -0.216  -1.893  1.00  0.00     0.042 C 
HETATM    3  C7  UNL     1      -2.505   0.385  -2.126  1.00  0.00     0.009 C 
HETATM    4  C8  UNL     1      -1.866   0.224  -0.808  1.00  0.00     0.001 C 
HETATM    5  C9  UNL     1      -0.440   0.469  -0.658  1.00  0.00    -0.005 C 
HETATM    6  C10 UNL     1       0.293   0.886  -1.936  1.00  0.00     0.006 C 
HETATM    7  C11 UNL     1       1.787   0.754  -1.743  1.00  0.00     0.006 C 
HETATM    8  C12 UNL     1       2.166   0.977  -0.293  1.00  0.00    -0.001 C 
HETATM    9  C13 UNL     1       3.646   1.238  -0.160  1.00  0.00     0.057 C 
HETATM   10  C14 UNL     1       4.458   0.008  -0.172  1.00  0.00    -0.018 C 
HETATM   11  N1  UNL     1       5.710   0.073  -0.296  1.00  0.00    -0.394 N 
ATOM     12  H1  UNL     1       6.246  -0.795  -0.301  1.00  0.00     0.159 HD
HETATM   13  C17 UNL     1       3.760  -1.293  -0.036  1.00  0.00     0.053 C 
HETATM   14  C18 UNL     1       2.557  -1.229   0.854  1.00  0.00     0.015 C 
HETATM   15  C19 UNL     1       1.646  -0.080   0.610  1.00  0.00    -0.036 C 
HETATM   16  C20 UNL     1       1.284   0.600   1.936  1.00  0.00     0.016 C 
HETATM   17  C21 UNL     1       0.371  -0.651  -0.043  1.00  0.00    -0.002 C 
HETATM   18  C22 UNL     1      -0.338  -1.446   0.984  1.00  0.00     0.007 C 
HETATM   19  C23 UNL     1      -1.829  -1.439   0.933  1.00  0.00     0.013 C 
HETATM   20  C24 UNL     1      -2.335  -1.184  -0.424  1.00  0.00    -0.006 C 
HETATM   21  C25 UNL     1      -1.687  -2.211  -1.364  1.00  0.00     0.019 C 
ENDROOT
BRANCH   1  22
HETATM   22  C3  UNL     1      -4.734  -0.732   0.324  1.00  0.00     0.163 C 
HETATM   23  C4  UNL     1      -5.063  -1.795   1.381  1.00  0.00     0.043 C 
BRANCH  22  24
HETATM   24  O2  UNL     1      -4.563   0.456   0.997  1.00  0.00    -0.314 OA
BRANCH  24  25
HETATM   25  C2  UNL     1      -5.426   1.543   1.009  1.00  0.00     0.255 C 
HETATM   26  C1  UNL     1      -5.134   2.785   1.779  1.00  0.00     0.126 C 
HETATM   27  O1  UNL     1      -6.483   1.441   0.334  1.00  0.00    -0.266 OA
ENDBRANCH  24  25
ENDBRANCH  22  24
ENDBRANCH   1  22
BRANCH   1  28
HETATM   28  O3  UNL     1      -4.254  -2.400  -1.152  1.00  0.00    -0.386 OA
ATOM     29  H3  UNL     1      -3.620  -2.673  -1.804  1.00  0.00     0.210 HD
ENDBRANCH   1  28
BRANCH  11  30
HETATM   30  C15 UNL     1       6.410   1.307  -0.430  1.00  0.00     0.145 C 
BRANCH  30  31
HETATM   31  C16 UNL     1       7.885   1.068  -0.216  1.00  0.00     0.183 C 
BRANCH  31  32
HETATM   32  O4  UNL     1       8.562   2.286  -0.350  1.00  0.00    -0.399 OA
ATOM     33  H4  UNL     1       9.490   2.136  -0.215  1.00  0.00     0.209 HD
ENDBRANCH  31  32
ENDBRANCH  30  31
ENDBRANCH  11  30
TORSDOF 7
