REMARK  8 active torsions:
REMARK  status: ('A' for Active; 'I' for Inactive)
REMARK    1  A    between atoms: C2_2  and  C3_3 
REMARK    2  A    between atoms: C8_8  and  O1_9 
REMARK    3  A    between atoms: N1_11  and  C9_12 
REMARK    4  A    between atoms: C13_16  and  O2_17 
REMARK    5  A    between atoms: N2_19  and  C14_20 
REMARK    6  A    between atoms: C14_20  and  O3_21 
REMARK    7  A    between atoms: C14_20  and  C15_23 
REMARK    8  A    between atoms: C15_23  and  C16_24 
ROOT
HETATM    1  C3  UNL     1       1.130   3.757   0.126  1.00  0.00     0.070 C 
HETATM    2  C4  UNL     1       2.093   2.976  -0.497  1.00  0.00    -0.172 C 
HETATM    3  C5  UNL     1       2.976   1.967  -0.996  1.00  0.00     0.125 C 
HETATM    4  C6  UNL     1       2.472   0.677  -0.300  1.00  0.00     0.034 A 
HETATM    5  C7  UNL     1       1.279   0.503   0.383  1.00  0.00     0.099 A 
HETATM    6  C8  UNL     1       1.294  -0.792   0.858  1.00  0.00     0.173 A 
HETATM    7  N1  UNL     1       2.439  -1.364   0.475  1.00  0.00    -0.301 N 
HETATM    8  C13 UNL     1       3.190  -0.480  -0.244  1.00  0.00     0.154 A 
HETATM    9  N2  UNL     1       0.227   1.452   0.597  1.00  0.00    -0.326 N 
HETATM   10  C22 UNL     1       0.240   2.829   1.015  1.00  0.00     0.147 C 
ENDROOT
BRANCH   9  11
HETATM   11  C14 UNL     1      -1.045   0.968   0.268  1.00  0.00     0.118 C 
BRANCH  11  12
HETATM   12  O3  UNL     1      -2.009   1.605   0.873  1.00  0.00    -0.349 OA
ATOM     13  H3  UNL     1      -2.872   1.277   0.650  1.00  0.00     0.219 HD
ENDBRANCH  11  12
BRANCH  11  14
HETATM   14  C15 UNL     1      -1.434  -0.111  -0.643  1.00  0.00     0.088 C 
BRANCH  14  15
HETATM   15  C16 UNL     1      -2.936  -0.365  -0.599  1.00  0.00    -0.007 C 
HETATM   16  C17 UNL     1      -3.434  -0.759   0.751  1.00  0.00     0.005 C 
HETATM   17  C18 UNL     1      -4.297  -2.002   0.718  1.00  0.00     0.000 C 
HETATM   18  C19 UNL     1      -5.318  -1.951  -0.393  1.00  0.00     0.000 C 
HETATM   19  C20 UNL     1      -4.747  -1.579  -1.720  1.00  0.00     0.000 C 
HETATM   20  C21 UNL     1      -3.262  -1.377  -1.667  1.00  0.00     0.005 C 
ENDBRANCH  14  15
ENDBRANCH  11  14
ENDBRANCH   9  11
BRANCH   6  21
HETATM   21  O1  UNL     1       0.286  -1.353   1.600  1.00  0.00    -0.344 OA
ATOM     22  H1  UNL     1       0.296  -2.245   1.927  1.00  0.00     0.219 HD
ENDBRANCH   6  21
BRANCH   1  23
HETATM   23  C2  UNL     1       1.657   4.825   1.114  1.00  0.00     0.013 C 
HETATM   24  C1  UNL     1       0.471   5.534   1.658  1.00  0.00     0.006 C 
ENDBRANCH   1  23
BRANCH   8  25
HETATM   25  O2  UNL     1       4.445  -0.744  -0.798  1.00  0.00    -0.345 OA
ATOM     26  H2  UNL     1       4.946  -1.551  -0.759  1.00  0.00     0.219 HD
ENDBRANCH   8  25
BRANCH   7  27
HETATM   27  C9  UNL     1       2.868  -2.704   0.750  1.00  0.00     0.094 C 
HETATM   28  C10 UNL     1       3.757  -3.330  -0.299  1.00  0.00     0.026 C 
HETATM   29  C11 UNL     1       2.939  -4.614  -0.100  1.00  0.00     0.004 C 
HETATM   30  C12 UNL     1       1.799  -3.694   0.340  1.00  0.00     0.026 C 
ENDBRANCH   7  27
TORSDOF 8
