REMARK  9 active torsions:
REMARK  status: ('A' for Active; 'I' for Inactive)
REMARK    1  A    between atoms: C2_7  and  C3_8 
REMARK    2  A    between atoms: C3_8  and  N4_9 
REMARK    3  A    between atoms: C3_8  and  C7_21 
REMARK       I    between atoms: N4_9  and  C4_11 
REMARK       I    between atoms: C4_11  and  N6_15 
REMARK    4  A    between atoms: N6_15  and  C5_17 
REMARK    5  A    between atoms: C5_17  and  C6_18 
REMARK    6  A    between atoms: C6_18  and  O1_19 
REMARK    7  A    between atoms: C8_24  and  C9_25 
REMARK       I    between atoms: C9_25  and  N8_27 
REMARK    8  A    between atoms: N8_27  and  C10_29 
REMARK    9  A    between atoms: C11_35  and  N11_36 
ROOT
HETATM    1  C3  UNL     1       0.042   1.468   0.650  1.00  0.00     0.245 C 
ENDROOT
BRANCH   1   2
HETATM    2  C2  UNL     1       1.127   2.259  -0.014  1.00  0.00     0.145 A 
HETATM    3  N3  UNL     1       1.244   3.594  -0.129  1.00  0.00    -0.270 N 
HETATM    4  N2  UNL     1       2.369   3.835  -0.793  1.00  0.00    -0.225 N 
ATOM      5  H3  UNL     1       0.591   4.291   0.227  1.00  0.00     0.190 HD
HETATM    6  N1  UNL     1       2.964   2.702  -1.098  1.00  0.00    -0.223 N 
ATOM      7  H2  UNL     1       2.720   4.763  -1.031  1.00  0.00     0.210 HD
HETATM    8  C1  UNL     1       4.218   2.505  -1.819  1.00  0.00     0.202 C 
HETATM    9  N13 UNL     1       2.196   1.736  -0.619  1.00  0.00    -0.268 N 
ATOM     10  H13 UNL     1       2.392   0.738  -0.700  1.00  0.00     0.190 HD
ENDBRANCH   1   2
BRANCH   1  11
HETATM   11  N4  UNL     1       0.626   0.418   1.432  1.00  0.00    -0.208 N 
HETATM   12  C4  UNL     1       1.602   0.680   2.418  1.00  0.00     0.668 C 
HETATM   13  N5  UNL     1       1.691   1.817   2.996  1.00  0.00    -0.235 N 
HETATM   14  N6  UNL     1       2.509  -0.356   2.777  1.00  0.00    -0.225 N 
ATOM     15  H52 UNL     1       1.041   2.560   2.739  1.00  0.00     0.174 HD
ATOM     16  H51 UNL     1       2.396   2.006   3.708  1.00  0.00     0.174 HD
ATOM     17  H6  UNL     1       2.158  -1.314   2.788  1.00  0.00     0.177 HD
ATOM     18  H4  UNL     1       0.328  -0.544   1.272  1.00  0.00     0.179 HD
BRANCH  14  19
HETATM   19  C5  UNL     1       3.877  -0.144   3.122  1.00  0.00     0.164 C 
BRANCH  19  20
HETATM   20  C6  UNL     1       4.659   0.331   1.909  1.00  0.00     0.184 C 
BRANCH  20  21
HETATM   21  O1  UNL     1       4.556  -0.654   0.937  1.00  0.00    -0.399 OA
ATOM     22  H1  UNL     1       5.045  -0.357   0.179  1.00  0.00     0.209 HD
ENDBRANCH  20  21
ENDBRANCH  19  20
ENDBRANCH  14  19
ENDBRANCH   1  11
BRANCH   1  23
HETATM   23  C7  UNL     1      -0.779   0.822  -0.433  1.00  0.00     0.157 A 
HETATM   24  N7  UNL     1      -1.594  -0.263  -0.273  1.00  0.00    -0.330 N 
HETATM   25  C8  UNL     1      -2.126  -0.501  -1.498  1.00  0.00     0.151 A 
ATOM     26  H7  UNL     1      -1.766  -0.784   0.587  1.00  0.00     0.168 HD
HETATM   27  C12 UNL     1      -1.625   0.431  -2.343  1.00  0.00     0.191 A 
HETATM   28  N12 UNL     1      -1.934   0.539  -3.745  1.00  0.00    -0.072 NA
HETATM   29  O4  UNL     1      -0.819   1.209  -1.674  1.00  0.00    -0.278 OA
BRANCH  25  30
HETATM   30  C9  UNL     1      -3.054  -1.621  -1.800  1.00  0.00     0.278 C 
HETATM   31  O2  UNL     1      -3.383  -1.690  -3.033  1.00  0.00    -0.265 OA
HETATM   32  N8  UNL     1      -3.496  -2.474  -0.876  1.00  0.00    -0.303 N 
ATOM     33  H8  UNL     1      -2.695  -2.884  -0.396  1.00  0.00     0.171 HD
BRANCH  32  34
HETATM   34  C10 UNL     1      -4.549  -2.952  -0.387  1.00  0.00     0.176 A 
HETATM   35  N9  UNL     1      -4.551  -3.891   0.641  1.00  0.00    -0.222 N 
HETATM   36  O3  UNL     1      -5.750  -4.173   0.918  1.00  0.00    -0.153 OA
ATOM     37  H9  UNL     1      -3.725  -4.284   1.093  1.00  0.00     0.198 HD
HETATM   38  N10 UNL     1      -6.599  -3.536   0.200  1.00  0.00    -0.222 N 
HETATM   39  C11 UNL     1      -5.881  -2.737  -0.654  1.00  0.00     0.167 A 
ATOM     40  H10 UNL     1      -7.615  -3.609   0.253  1.00  0.00     0.198 HD
BRANCH  39  41
HETATM   41  N11 UNL     1      -6.431  -1.951  -1.495  1.00  0.00    -0.381 N 
ATOM     42 2H11 UNL     1      -5.897  -1.357  -2.130  1.00  0.00     0.157 HD
ATOM     43 1H11 UNL     1      -7.419  -1.792  -1.693  1.00  0.00     0.157 HD
ENDBRANCH  39  41
ENDBRANCH  32  34
ENDBRANCH  25  30
ENDBRANCH   1  23
TORSDOF 9
