REMARK  9 active torsions:
REMARK  status: ('A' for Active; 'I' for Inactive)
REMARK       I    between atoms: C1_4  and  N2_5 
REMARK       I    between atoms: C1_4  and  N4_10 
REMARK    1  A    between atoms: N2_5  and  N3_7 
REMARK    2  A    between atoms: N4_10  and  C2_11 
REMARK       I    between atoms: N4_10  and  C4_17 
REMARK    3  A    between atoms: C2_11  and  C3_12 
REMARK    4  A    between atoms: C3_12  and  N5_13 
REMARK       I    between atoms: C4_17  and  N6_18 
REMARK       I    between atoms: C4_17  and  N10_29 
REMARK    5  A    between atoms: N6_18  and  C5_19 
REMARK    6  A    between atoms: C6_25  and  N9_26 
REMARK    7  A    between atoms: N10_29  and  C7_31 
REMARK    8  A    between atoms: C8_32  and  O6_33 
REMARK    9  A    between atoms: N13_41  and  N14_42 
ROOT
HETATM    1  N1  UNL     1      -0.948  -0.862  -2.402  1.00  0.00    -0.233 N 
ATOM      2  H11 UNL     1      -0.308  -0.069  -2.442  1.00  0.00     0.174 HD
ATOM      3  H12 UNL     1      -1.187  -1.391  -3.241  1.00  0.00     0.174 HD
HETATM    4  C1  UNL     1      -1.420  -1.136  -1.236  1.00  0.00     0.701 C 
HETATM    5  N2  UNL     1      -2.309  -2.237  -1.181  1.00  0.00    -0.072 N 
ATOM      6  H2  UNL     1      -2.181  -2.938  -0.452  1.00  0.00     0.212 HD
HETATM    7  N4  UNL     1      -1.088  -0.401  -0.071  1.00  0.00    -0.138 N 
HETATM    8  C4  UNL     1      -0.099   0.658  -0.236  1.00  0.00     0.275 C 
HETATM    9  N6  UNL     1      -0.547   1.740  -0.491  1.00  0.00    -0.346 NA
HETATM   10  N10 UNL     1       1.259   0.317  -0.069  1.00  0.00    -0.322 N 
ATOM     11  H10 UNL     1       1.832   1.074   0.303  1.00  0.00     0.166 HD
ENDROOT
BRANCH   7  12
HETATM   12  C2  UNL     1      -1.702  -0.619   1.220  1.00  0.00     0.179 C 
BRANCH  12  13
HETATM   13  C3  UNL     1      -3.155  -0.191   1.239  1.00  0.00     0.250 C 
BRANCH  13  14
HETATM   14  N5  UNL     1      -3.770  -0.413   2.532  1.00  0.00    -0.078 N 
ATOM     15  H53 UNL     1      -3.666  -1.383   2.829  1.00  0.00     0.274 HD
ATOM     16  H52 UNL     1      -3.241   0.041   3.276  1.00  0.00     0.274 HD
ATOM     17  H51 UNL     1      -4.748  -0.125   2.545  1.00  0.00     0.274 HD
ENDBRANCH  13  14
ENDBRANCH  12  13
ENDBRANCH   7  12
BRANCH   9  18
HETATM   18  C5  UNL     1      -1.033   2.931  -0.771  1.00  0.00     0.257 A 
HETATM   19  N7  UNL     1      -2.397   3.283  -0.927  1.00  0.00    -0.210 N 
HETATM   20  O3  UNL     1      -2.470   4.534  -1.170  1.00  0.00    -0.152 OA
ATOM     21  H7  UNL     1      -3.188   2.643  -0.857  1.00  0.00     0.199 HD
HETATM   22  N8  UNL     1      -1.333   5.113  -1.206  1.00  0.00    -0.216 N 
HETATM   23  C6  UNL     1      -0.410   4.144  -0.961  1.00  0.00     0.255 A 
ATOM     24  H8  UNL     1      -1.153   6.101  -1.383  1.00  0.00     0.199 HD
BRANCH  23  25
HETATM   25  N9  UNL     1       0.999   4.393  -0.914  1.00  0.00    -0.091 N 
HETATM   26  O4  UNL     1       1.783   3.524  -1.305  1.00  0.00    -0.530 OA
HETATM   27  O5  UNL     1       1.501   5.589  -0.462  1.00  0.00    -0.530 OA
ENDBRANCH  23  25
ENDBRANCH   9  18
BRANCH  10  28
HETATM   28  C7  UNL     1       1.975  -0.872  -0.319  1.00  0.00     0.276 C 
HETATM   29  C8  UNL     1       1.680  -2.054   0.561  1.00  0.00     0.279 C 
HETATM   30  N11 UNL     1       2.235  -1.582   1.839  1.00  0.00    -0.195 N 
HETATM   31  C9  UNL     1       3.353  -0.759   1.541  1.00  0.00     0.692 C 
ATOM     32  H11 UNL     1       1.881  -1.805   2.769  1.00  0.00     0.180 HD
HETATM   33  N12 UNL     1       4.138  -0.160   2.370  1.00  0.00    -0.233 N 
HETATM   34  N13 UNL     1       3.401  -0.689   0.103  1.00  0.00    -0.102 N 
ATOM     35 2H12 UNL     1       4.104  -0.210   3.388  1.00  0.00     0.174 HD
ATOM     36 1H12 UNL     1       4.941   0.431   2.156  1.00  0.00     0.174 HD
BRANCH  29  37
HETATM   37  O6  UNL     1       2.525  -3.106   0.182  1.00  0.00    -0.372 OA
ATOM     38  H6  UNL     1       2.339  -3.853   0.738  1.00  0.00     0.212 HD
ENDBRANCH  29  37
BRANCH  34  39
HETATM   39  N14 UNL     1       4.460  -0.498  -0.704  1.00  0.00    -0.327 N 
ATOM     40 2H14 UNL     1       4.494  -0.448  -1.722  1.00  0.00     0.177 HD
ATOM     41 1H14 UNL     1       5.431  -0.373  -0.417  1.00  0.00     0.177 HD
ENDBRANCH  34  39
ENDBRANCH  10  28
BRANCH   5  42
HETATM   42  N3  UNL     1      -3.344  -2.392  -2.083  1.00  0.00    -0.024 N 
HETATM   43  O1  UNL     1      -4.520  -2.350  -1.705  1.00  0.00    -0.516 OA
HETATM   44  O2  UNL     1      -3.081  -2.594  -3.408  1.00  0.00    -0.516 OA
ENDBRANCH   5  42
TORSDOF 9
