REMARK  8 active torsions:
REMARK  status: ('A' for Active; 'I' for Inactive)
REMARK       I    between atoms: C1_4  and  N3_6 
REMARK       I    between atoms: N3_6  and  C2_8 
REMARK    1  A    between atoms: C2_8  and  C3_10 
REMARK    2  A    between atoms: C4_13  and  N5_14 
REMARK    3  A    between atoms: C5_18  and  C6_19 
REMARK    4  A    between atoms: C6_19  and  N8_20 
REMARK    5  A    between atoms: C8_22  and  C9_23 
REMARK    6  A    between atoms: C9_23  and  O2_24 
REMARK    7  A    between atoms: C10_26  and  C11_27 
REMARK    8  A    between atoms: C12_38  and  N14_39 
ROOT
HETATM    1  C3  UNL     1       3.957   1.613  -0.680  1.00  0.00     0.162 A 
HETATM    2  N4  UNL     1       2.963   0.713  -0.628  1.00  0.00    -0.178 N 
ATOM      3  H4  UNL     1       3.059  -0.090  -0.006  1.00  0.00     0.185 HD
HETATM    4  C4  UNL     1       1.829   0.832  -1.376  1.00  0.00     0.732 A 
HETATM    5  N12 UNL     1       1.707   1.885  -2.193  1.00  0.00    -0.128 N 
ATOM      6  H12 UNL     1       0.862   1.982  -2.757  1.00  0.00     0.205 HD
HETATM    7  N13 UNL     1       2.652   2.802  -2.288  1.00  0.00    -0.269 N 
ATOM      8  H13 UNL     1       2.540   3.597  -2.917  1.00  0.00     0.189 HD
HETATM    9  C12 UNL     1       3.785   2.670  -1.529  1.00  0.00     0.147 A 
ENDROOT
BRANCH   4  10
HETATM   10  N5  UNL     1       0.802  -0.160  -1.238  1.00  0.00    -0.002 N 
HETATM   11  N6  UNL     1       0.845  -1.098  -0.277  1.00  0.00     0.018 NA
HETATM   12  N7  UNL     1      -0.251  -1.863  -0.395  1.00  0.00    -0.268 N 
HETATM   13  C5  UNL     1      -0.980  -1.410  -1.419  1.00  0.00     0.131 A 
ATOM     14  H7  UNL     1      -0.488  -2.658   0.198  1.00  0.00     0.185 HD
HETATM   15  N11 UNL     1      -0.293  -0.363  -1.907  1.00  0.00    -0.252 N 
ATOM     16  H11 UNL     1      -0.593   0.201  -2.702  1.00  0.00     0.190 HD
BRANCH  13  17
HETATM   17  C6  UNL     1      -2.294  -1.972  -1.900  1.00  0.00     0.227 C 
BRANCH  17  18
HETATM   18  N8  UNL     1      -3.336  -1.382  -1.088  1.00  0.00    -0.295 N 
HETATM   19  C7  UNL     1      -3.750  -1.941   0.086  1.00  0.00     0.122 A 
HETATM   20  C8  UNL     1      -4.748  -1.147   0.612  1.00  0.00     0.015 A 
HETATM   21  C10 UNL     1      -4.912  -0.114  -0.274  1.00  0.00     0.123 A 
HETATM   22  N10 UNL     1      -4.043  -0.297  -1.279  1.00  0.00    -0.293 N 
ATOM     23  H10 UNL     1      -3.946   0.324  -2.082  1.00  0.00     0.187 HD
BRANCH  20  24
HETATM   24  C9  UNL     1      -5.505  -1.364   1.893  1.00  0.00     0.206 C 
BRANCH  24  25
HETATM   25  O2  UNL     1      -5.068  -2.515   2.545  1.00  0.00    -0.396 OA
ATOM     26  H2  UNL     1      -5.546  -2.652   3.354  1.00  0.00     0.209 HD
ENDBRANCH  24  25
ENDBRANCH  20  24
BRANCH  21  27
HETATM   27  C11 UNL     1      -5.837   0.991  -0.171  1.00  0.00     0.283 C 
HETATM   28  N9  UNL     1      -6.700   1.156   0.956  1.00  0.00    -0.056 NA
HETATM   29  O3  UNL     1      -5.940   1.876  -1.064  1.00  0.00    -0.269 OA
ENDBRANCH  21  27
ENDBRANCH  17  18
ENDBRANCH  13  17
ENDBRANCH   4  10
BRANCH   1  30
HETATM   30  C2  UNL     1       5.163   1.514   0.122  1.00  0.00     0.279 C 
HETATM   31  N3  UNL     1       5.428   0.350   0.958  1.00  0.00    -0.296 N 
HETATM   32  C1  UNL     1       6.588   0.285   1.729  1.00  0.00     0.188 C 
ATOM     33  H3  UNL     1       4.761  -0.422   0.979  1.00  0.00     0.171 HD
HETATM   34  N1  UNL     1       7.564   0.230   2.378  1.00  0.00    -0.373 N 
HETATM   35  N2  UNL     1       6.137  -1.299   2.331  1.00  0.00    -0.064 NA
ATOM     36  H12 UNL     1       8.413   0.182   2.942  1.00  0.00     0.158 HD
ATOM     37  H11 UNL     1       7.826   1.151   2.028  1.00  0.00     0.158 HD
HETATM   38  O1  UNL     1       6.006   2.438   0.108  1.00  0.00    -0.265 OA
ENDBRANCH   1  30
BRANCH   9  39
HETATM   39  N14 UNL     1       4.711   3.560  -1.612  1.00  0.00    -0.382 N 
ATOM     40 2H14 UNL     1       5.554   3.462  -1.047  1.00  0.00     0.157 HD
ATOM     41 1H14 UNL     1       4.583   4.349  -2.246  1.00  0.00     0.157 HD
ENDBRANCH   9  39
TORSDOF 8
