REMARK  14 active torsions:
REMARK  status: ('A' for Active; 'I' for Inactive)
REMARK    1  A    between atoms: C2_2  and  N1_4 
REMARK    2  A    between atoms: C2_2  and  O4_29 
REMARK    3  A    between atoms: N1_4  and  C4_6 
REMARK    4  A    between atoms: C4_6  and  S1_11 
REMARK    5  A    between atoms: S1_11  and  S2_12 
REMARK    6  A    between atoms: S2_12  and  C6_13 
REMARK    7  A    between atoms: C6_13  and  C7_14 
REMARK    8  A    between atoms: C7_14  and  O1_15 
REMARK    9  A    between atoms: C8_18  and  C9_19 
REMARK   10  A    between atoms: C9_19  and  N4_20 
REMARK   11  A    between atoms: C9_19  and  N5_24 
REMARK   12  A    between atoms: O4_29  and  C10_30 
REMARK   13  A    between atoms: C12_35  and  O5_36 
REMARK   14  A    between atoms: C12_35  and  O6_38 
ROOT
HETATM    1  C4  UNL     1      -0.325  -1.435  -2.356  1.00  0.00     0.162 C 
HETATM    2  N2  UNL     1      -0.456  -2.429  -3.082  1.00  0.00    -0.273 N 
ATOM      3  H2  UNL     1       0.253  -2.397  -3.815  1.00  0.00     0.180 HD
HETATM    4  C5  UNL     1      -1.192  -3.522  -3.245  1.00  0.00     0.183 C 
HETATM    5  N3  UNL     1      -1.813  -4.475  -3.406  1.00  0.00    -0.172 NA
ENDROOT
BRANCH   1   6
HETATM    6  N1  UNL     1      -1.015  -0.989  -1.227  1.00  0.00    -0.338 N 
ATOM      7  H1  UNL     1      -0.702  -0.090  -0.861  1.00  0.00     0.164 HD
BRANCH   6   8
HETATM    8  C2  UNL     1      -2.088  -1.590  -0.504  1.00  0.00     0.131 C 
HETATM    9  C1  UNL     1      -3.342  -1.787  -1.299  1.00  0.00     0.070 C 
HETATM   10  C3  UNL     1      -1.633  -2.936   0.021  1.00  0.00     0.070 C 
BRANCH   8  11
HETATM   11  O4  UNL     1      -2.334  -0.821   0.651  1.00  0.00    -0.325 OA
BRANCH  11  12
HETATM   12  C10 UNL     1      -2.826   0.437   0.377  1.00  0.00     0.387 A 
HETATM   13  N6  UNL     1      -2.187   1.517   1.106  1.00  0.00    -0.038 N 
HETATM   14  C11 UNL     1      -3.365   1.792   1.897  1.00  0.00     0.308 A 
ATOM     15  H62 UNL     1      -1.308   1.327   1.588  1.00  0.00     0.280 HD
ATOM     16  H61 UNL     1      -1.765   2.280   0.577  1.00  0.00     0.280 HD
HETATM   17  C12 UNL     1      -4.087   0.710   1.159  1.00  0.00     0.237 A 
BRANCH  17  18
HETATM   18  O5  UNL     1      -4.473  -0.368   1.991  1.00  0.00    -0.361 OA
ATOM     19  H5  UNL     1      -5.267  -0.196   2.483  1.00  0.00     0.213 HD
ENDBRANCH  17  18
BRANCH  17  20
HETATM   20  O6  UNL     1      -5.162   1.147   0.385  1.00  0.00    -0.361 OA
ATOM     21  H6  UNL     1      -5.956   1.319   0.877  1.00  0.00     0.213 HD
ENDBRANCH  17  20
ENDBRANCH  11  12
ENDBRANCH   8  11
ENDBRANCH   6   8
ENDBRANCH   1   6
BRANCH   1  22
HETATM   22  S1  UNL     1       1.080  -0.361  -2.903  1.00  0.00    -0.015 SA
BRANCH  22  23
HETATM   23  S2  UNL     1       1.325   1.209  -1.519  1.00  0.00    -0.019 SA
BRANCH  23  24
HETATM   24  C6  UNL     1       2.487   0.766  -0.226  1.00  0.00     0.253 C 
HETATM   25  O2  UNL     1       2.963   1.873   0.518  1.00  0.00    -0.309 OA
HETATM   26  C8  UNL     1       4.226   1.288   0.449  1.00  0.00     0.326 C 
HETATM   27  O3  UNL     1       3.800   0.587  -0.663  1.00  0.00    -0.309 OA
BRANCH  24  28
HETATM   28  C7  UNL     1       2.061  -0.353   0.701  1.00  0.00     0.246 C 
BRANCH  28  29
HETATM   29  O1  UNL     1       1.039   0.110   1.526  1.00  0.00    -0.395 OA
ATOM     30  H1  UNL     1       0.772  -0.592   2.108  1.00  0.00     0.209 HD
ENDBRANCH  28  29
ENDBRANCH  24  28
BRANCH  26  31
HETATM   31  C9  UNL     1       5.330   2.293   0.189  1.00  0.00     0.432 C 
BRANCH  31  32
HETATM   32  N4  UNL     1       6.592   1.574   0.138  1.00  0.00    -0.045 N 
ATOM     33  H43 UNL     1       6.759   1.012   0.973  1.00  0.00     0.277 HD
ATOM     34  H42 UNL     1       6.584   0.813  -0.541  1.00  0.00     0.277 HD
ATOM     35  H41 UNL     1       7.335   2.250  -0.037  1.00  0.00     0.277 HD
ENDBRANCH  31  32
BRANCH  31  36
HETATM   36  N5  UNL     1       5.149   3.012  -1.029  1.00  0.00    -0.045 N 
ATOM     37  H53 UNL     1       5.044   2.374  -1.817  1.00  0.00     0.277 HD
ATOM     38  H52 UNL     1       4.233   3.461  -1.055  1.00  0.00     0.277 HD
ATOM     39  H51 UNL     1       5.892   3.688  -1.204  1.00  0.00     0.277 HD
ENDBRANCH  31  36
ENDBRANCH  26  31
ENDBRANCH  23  24
ENDBRANCH  22  23
ENDBRANCH   1  22
TORSDOF 14
