REMARK  16 active torsions:
REMARK  status: ('A' for Active; 'I' for Inactive)
REMARK    1  A    between atoms: O1_2  and  C2_3 
REMARK    2  A    between atoms: C2_3  and  C3_4 
REMARK    3  A    between atoms: C3_4  and  C4_5 
REMARK    4  A    between atoms: C4_5  and  C5_6 
REMARK    5  A    between atoms: C5_6  and  C6_7 
REMARK    6  A    between atoms: N1_8  and  O2_10 
REMARK    7  A    between atoms: O2_10  and  C7_11 
REMARK    8  A    between atoms: C7_11  and  C8_12 
REMARK    9  A    between atoms: C8_12  and  C9_13 
REMARK   10  A    between atoms: C8_12  and  C15_21 
REMARK   11  A    between atoms: C10_14  and  C11_15 
REMARK   12  A    between atoms: C11_15  and  C12_16 
REMARK   13  A    between atoms: C15_21  and  C16_22 
REMARK   14  A    between atoms: C16_22  and  O3_23 
REMARK   15  A    between atoms: C16_22  and  N2_25 
REMARK   16  A    between atoms: N2_25  and  O4_26 
ROOT
HETATM    1  C8  UNL     1      -1.147  -1.185   0.363  1.00  0.00     0.038 C 
ENDROOT
BRANCH   1   2
HETATM    2  C7  UNL     1      -0.373   0.110  -0.027  1.00  0.00     0.209 C 
BRANCH   2   3
HETATM    3  O2  UNL     1       0.663  -0.482  -0.696  1.00  0.00    -0.280 OA
BRANCH   3   4
HETATM    4  N1  UNL     1       1.623  -0.988  -1.414  1.00  0.00    -0.282 N 
HETATM    5  C6  UNL     1       2.721  -1.343  -0.837  1.00  0.00     0.087 C 
ATOM      6  H1  UNL     1       1.509  -1.103  -2.421  1.00  0.00     0.193 HD
BRANCH   5   7
HETATM    7  C5  UNL     1       3.145  -1.299   0.494  1.00  0.00     0.046 C 
BRANCH   7   8
HETATM    8  C4  UNL     1       4.669  -1.104   0.560  1.00  0.00     0.007 C 
BRANCH   8   9
HETATM    9  C3  UNL     1       5.097   0.079  -0.334  1.00  0.00     0.027 C 
BRANCH   9  10
HETATM   10  C2  UNL     1       6.575   0.194  -0.233  1.00  0.00     0.167 C 
BRANCH  10  11
HETATM   11  O1  UNL     1       7.162   1.213  -0.907  1.00  0.00    -0.396 OA
HETATM   12  C1  UNL     1       6.738   2.440  -0.416  1.00  0.00     0.201 C 
ENDBRANCH  10  11
ENDBRANCH   9  10
ENDBRANCH   8   9
ENDBRANCH   7   8
ENDBRANCH   5   7
ENDBRANCH   3   4
ENDBRANCH   2   3
ENDBRANCH   1   2
BRANCH   1  13
HETATM   13  C9  UNL     1      -2.119  -0.826   1.547  1.00  0.00    -0.024 C 
HETATM   14  C10 UNL     1      -3.171   0.146   1.504  1.00  0.00    -0.029 C 
BRANCH  14  15
HETATM   15  C11 UNL     1      -2.943   1.608   1.378  1.00  0.00     0.042 C 
BRANCH  15  16
HETATM   16  C12 UNL     1      -4.198   2.373   1.003  1.00  0.00     0.062 C 
HETATM   17  C13 UNL     1      -4.557   1.897  -0.416  1.00  0.00     0.027 C 
HETATM   18  C14 UNL     1      -5.707   2.796  -0.877  1.00  0.00     0.087 C 
HETATM   19  S1  UNL     1      -7.039   2.151   0.225  1.00  0.00    -0.097 SA
HETATM   20  S2  UNL     1      -5.692   1.732   1.878  1.00  0.00    -0.092 SA
ENDBRANCH  15  16
ENDBRANCH  14  15
ENDBRANCH   1  13
BRANCH   1  21
HETATM   21  C15 UNL     1      -2.048  -1.525  -0.934  1.00  0.00     0.062 C 
BRANCH  21  22
HETATM   22  C16 UNL     1      -2.330  -2.875  -1.037  1.00  0.00     0.238 C 
BRANCH  22  23
HETATM   23  O3  UNL     1      -1.123  -3.784  -0.519  1.00  0.00    -0.378 OA
ATOM     24  H3  UNL     1      -1.317  -4.711  -0.590  1.00  0.00     0.211 HD
ENDBRANCH  22  23
BRANCH  22  25
HETATM   25  N2  UNL     1      -3.164  -3.933  -1.361  1.00  0.00    -0.071 NA
BRANCH  25  26
HETATM   26  O4  UNL     1      -4.356  -2.937  -1.887  1.00  0.00    -0.294 OA
ATOM     27  H4  UNL     1      -4.928  -3.662  -2.109  1.00  0.00     0.238 HD
ENDBRANCH  25  26
ENDBRANCH  22  25
ENDBRANCH  21  22
ENDBRANCH   1  21
TORSDOF 16
