REMARK  15 active torsions:
REMARK  status: ('A' for Active; 'I' for Inactive)
REMARK    1  A    between atoms: C2_2  and  C3_3 
REMARK    2  A    between atoms: C3_3  and  N1_4 
REMARK    3  A    between atoms: N1_4  and  C4_6 
REMARK    4  A    between atoms: C4_6  and  C5_7 
REMARK    5  A    between atoms: C4_6  and  C13_18 
REMARK    6  A    between atoms: C5_7  and  C6_8 
REMARK    7  A    between atoms: C6_8  and  C7_9 
REMARK    8  A    between atoms: C9_11  and  C10_12 
REMARK    9  A    between atoms: C10_12  and  C11_13 
REMARK   10  A    between atoms: C13_18  and  C14_19 
REMARK   11  A    between atoms: C14_19  and  S1_20 
REMARK   12  A    between atoms: S1_20  and  S2_21 
REMARK   13  A    between atoms: S2_21  and  C15_22 
REMARK   14  A    between atoms: C15_22  and  C16_23 
REMARK   15  A    between atoms: N3_26  and  O2_28 
ROOT
HETATM    1  C4  UNL     1       0.280  -2.180   1.307  1.00  0.00     0.125 C 
ENDROOT
BRANCH   1   2
HETATM    2  N1  UNL     1       0.224  -3.562   1.065  1.00  0.00    -0.412 N 
ATOM      3  H1  UNL     1       0.353  -4.204   1.847  1.00  0.00     0.153 HD
BRANCH   2   4
HETATM    4  C3  UNL     1      -0.002  -4.088  -0.211  1.00  0.00     0.114 C 
BRANCH   4   5
HETATM    5  C2  UNL     1      -0.100  -5.630  -0.058  1.00  0.00     0.015 C 
HETATM    6  C1  UNL     1       1.209  -6.122   0.513  1.00  0.00     0.006 C 
ENDBRANCH   4   5
ENDBRANCH   2   4
ENDBRANCH   1   2
BRANCH   1   7
HETATM    7  C5  UNL     1      -0.976  -1.425   0.993  1.00  0.00     0.037 C 
BRANCH   7   8
HETATM    8  C6  UNL     1      -0.887   0.036   1.311  1.00  0.00     0.069 C 
BRANCH   8   9
HETATM    9  C7  UNL     1      -2.178   0.737   0.960  1.00  0.00     0.078 A 
HETATM   10  C8  UNL     1      -2.519   1.323  -0.254  1.00  0.00     0.061 A 
HETATM   11  C9  UNL     1      -3.789   1.852  -0.147  1.00  0.00     0.035 A 
HETATM   12  N2  UNL     1      -4.161   1.567   1.114  1.00  0.00    -0.265 N 
HETATM   13  O1  UNL     1      -3.212   0.922   1.734  1.00  0.00    -0.242 OA
ATOM     14  H2  UNL     1      -5.059   1.820   1.527  1.00  0.00     0.194 HD
BRANCH  11  15
HETATM   15  C10 UNL     1      -4.555   2.566  -1.198  1.00  0.00     0.059 C 
BRANCH  15  16
HETATM   16  C11 UNL     1      -5.906   3.021  -0.743  1.00  0.00     0.002 C 
HETATM   17  C12 UNL     1      -5.778   3.969   0.433  1.00  0.00     0.005 C 
ENDBRANCH  15  16
ENDBRANCH  11  15
ENDBRANCH   8   9
ENDBRANCH   7   8
ENDBRANCH   1   7
BRANCH   1  18
HETATM   18  C13 UNL     1       1.519  -1.572   0.814  1.00  0.00     0.042 C 
HETATM   19  N3  UNL     1       2.472  -1.351   1.689  1.00  0.00    -0.275 N 
ATOM     20  H3  UNL     1       3.354  -0.930   1.397  1.00  0.00     0.193 HD
BRANCH  18  21
HETATM   21  C14 UNL     1       1.837  -1.179  -0.567  1.00  0.00     0.142 C 
BRANCH  21  22
HETATM   22  S1  UNL     1       3.588  -0.640  -0.642  1.00  0.00    -0.092 SA
BRANCH  22  23
HETATM   23  S2  UNL     1       3.914   1.112   0.492  1.00  0.00    -0.097 SA
BRANCH  23  24
HETATM   24  C15 UNL     1       3.675   2.620  -0.449  1.00  0.00     0.090 C 
BRANCH  24  25
HETATM   25  C16 UNL     1       4.684   2.785  -1.536  1.00  0.00    -0.004 A 
HETATM   26  C17 UNL     1       4.667   3.972  -2.427  1.00  0.00     0.006 A 
HETATM   27  C18 UNL     1       5.812   3.738  -1.477  1.00  0.00     0.006 A 
ENDBRANCH  24  25
ENDBRANCH  23  24
ENDBRANCH  22  23
ENDBRANCH  21  22
ENDBRANCH  18  21
BRANCH  19  28
HETATM   28  O2  UNL     1       2.267  -1.692   2.993  1.00  0.00    -0.290 OA
ATOM     29  H2  UNL     1       2.957  -1.532   3.626  1.00  0.00     0.244 HD
ENDBRANCH  19  28
ENDBRANCH   1  18
TORSDOF 15
