REMARK  13 active torsions:
REMARK  status: ('A' for Active; 'I' for Inactive)
REMARK    1  A    between atoms: N1_1  and  C1_5 
REMARK    2  A    between atoms: C1_5  and  C2_6 
REMARK    3  A    between atoms: C2_6  and  N2_7 
REMARK    4  A    between atoms: N2_7  and  C3_10 
REMARK    5  A    between atoms: C3_10  and  C4_11 
REMARK    6  A    between atoms: C4_11  and  C5_12 
REMARK    7  A    between atoms: C5_12  and  N3_13 
REMARK       I    between atoms: C6_15  and  N5_17 
REMARK    8  A    between atoms: N5_17  and  C7_19 
REMARK    9  A    between atoms: C7_19  and  C8_20 
REMARK   10  A    between atoms: C8_20  and  C9_21 
REMARK   11  A    between atoms: C9_21  and  C10_22 
REMARK   12  A    between atoms: C10_22  and  N6_23 
REMARK   13  A    between atoms: C12_27  and  N8_28 
ROOT
HETATM    1  C8  UNL     1      -0.391   0.038  -1.451  1.00  0.00     0.021 C 
ENDROOT
BRANCH   1   2
HETATM    2  C7  UNL     1       0.678   1.058  -1.164  1.00  0.00     0.122 C 
BRANCH   2   3
HETATM    3  N5  UNL     1       0.955   1.118   0.252  1.00  0.00    -0.365 N 
HETATM    4  C6  UNL     1       1.908   2.057   0.716  1.00  0.00     0.183 C 
HETATM    5  N3  UNL     1       3.154   1.810   0.617  1.00  0.00    -0.365 N 
HETATM    6  N4  UNL     1       1.497   3.290   1.301  1.00  0.00    -0.064 NA
ATOM      7  H3  UNL     1       3.834   2.492   0.954  1.00  0.00     0.162 HD
ATOM      8  H5  UNL     1       0.475   0.498   0.904  1.00  0.00     0.162 HD
BRANCH   5   9
HETATM    9  C5  UNL     1       3.608   0.575   0.033  1.00  0.00     0.124 C 
BRANCH   9  10
HETATM   10  C4  UNL     1       4.619  -0.012   1.028  1.00  0.00     0.047 C 
BRANCH  10  11
HETATM   11  C3  UNL     1       5.182  -1.312   0.506  1.00  0.00     0.234 C 
BRANCH  11  12
HETATM   12  N2  UNL     1       5.864  -1.151  -0.739  1.00  0.00    -0.073 N 
ATOM     13  H22 UNL     1       5.249  -0.743  -1.443  1.00  0.00     0.277 HD
ATOM     14  H21 UNL     1       6.042  -2.054  -1.179  1.00  0.00     0.277 HD
BRANCH  12  15
HETATM   15  C2  UNL     1       7.072  -0.395  -0.611  1.00  0.00     0.259 C 
BRANCH  15  16
HETATM   16  C1  UNL     1       8.125  -1.155   0.162  1.00  0.00     0.257 C 
BRANCH  16  17
HETATM   17  N1  UNL     1       9.352  -0.350   0.272  1.00  0.00    -0.078 N 
ATOM     18  H13 UNL     1       9.693  -0.047  -0.640  1.00  0.00     0.274 HD
ATOM     19  H12 UNL     1       9.171   0.569   0.676  1.00  0.00     0.274 HD
ATOM     20  H11 UNL     1      10.063  -0.863   0.794  1.00  0.00     0.274 HD
ENDBRANCH  16  17
ENDBRANCH  15  16
ENDBRANCH  12  15
ENDBRANCH  11  12
ENDBRANCH  10  11
ENDBRANCH   9  10
ENDBRANCH   5   9
ENDBRANCH   2   3
ENDBRANCH   1   2
BRANCH   1  21
HETATM   21  C9  UNL     1      -1.680   0.430  -0.747  1.00  0.00     0.024 C 
BRANCH  21  22
HETATM   22  C10 UNL     1      -2.705  -0.635  -1.075  1.00  0.00     0.154 C 
BRANCH  22  23
HETATM   23  N6  UNL     1      -3.998  -0.379  -0.471  1.00  0.00    -0.243 N 
HETATM   24  N7  UNL     1      -4.132  -0.919   0.757  1.00  0.00    -0.306 N 
HETATM   25  C11 UNL     1      -5.243  -1.736   1.021  1.00  0.00     0.134 C 
ATOM     26  H7  UNL     1      -3.438  -0.737   1.482  1.00  0.00     0.186 HD
HETATM   27  C12 UNL     1      -6.487  -1.053   1.500  1.00  0.00     0.324 C 
HETATM   28  N9  UNL     1      -7.423  -0.739   0.435  1.00  0.00    -0.333 N 
HETATM   29  C13 UNL     1      -7.365  -0.144  -0.700  1.00  0.00     0.194 C 
ATOM     30  H9  UNL     1      -8.363  -1.076   0.641  1.00  0.00     0.164 HD
HETATM   31  N10 UNL     1      -8.595  -0.093  -1.396  1.00  0.00    -0.063 NA
HETATM   32  N11 UNL     1      -6.303   0.481  -1.408  1.00  0.00    -0.281 N 
HETATM   33  C14 UNL     1      -4.864   0.402  -1.322  1.00  0.00     0.343 C 
ATOM     34  H11 UNL     1      -6.627   1.123  -2.132  1.00  0.00     0.173 HD
HETATM   35  O1  UNL     1      -4.226   1.118  -2.105  1.00  0.00    -0.245 OA
BRANCH  27  36
HETATM   36  N8  UNL     1      -6.217   0.102   2.332  1.00  0.00    -0.053 N 
ATOM     37  H83 UNL     1      -5.615  -0.148   3.116  1.00  0.00     0.277 HD
ATOM     38  H82 UNL     1      -5.603   0.760   1.852  1.00  0.00     0.277 HD
ATOM     39  H81 UNL     1      -7.064   0.567   2.658  1.00  0.00     0.277 HD
ENDBRANCH  27  36
ENDBRANCH  22  23
ENDBRANCH  21  22
ENDBRANCH   1  21
TORSDOF 13
