REMARK  11 active torsions:
REMARK  status: ('A' for Active; 'I' for Inactive)
REMARK    1  A    between atoms: C4_6  and  S1_7 
REMARK    2  A    between atoms: S1_7  and  S2_8 
REMARK    3  A    between atoms: S2_8  and  C5_9 
REMARK    4  A    between atoms: C5_9  and  C6_10 
REMARK    5  A    between atoms: C6_10  and  N2_11 
REMARK    6  A    between atoms: N2_11  and  C7_14 
REMARK    7  A    between atoms: C7_14  and  C8_15 
REMARK    8  A    between atoms: C8_15  and  C9_16 
REMARK    9  A    between atoms: C9_16  and  C10_17 
REMARK   10  A    between atoms: C10_17  and  N3_18 
REMARK   11  A    between atoms: C12_26  and  N7_27 
ROOT
HETATM    1  S1  UNL     1      -2.259   1.911   1.580  1.00  0.00    -0.062 SA
ENDROOT
BRANCH   1   2
HETATM    2  C4  UNL     1      -3.667   1.319   0.579  1.00  0.00     0.277 C 
HETATM    3  C3  UNL     1      -3.245   0.637  -0.667  1.00  0.00     0.159 C 
HETATM    4  N1  UNL     1      -3.357  -0.775  -0.718  1.00  0.00    -0.411 N 
HETATM    5  C2  UNL     1      -4.183  -1.415   0.241  1.00  0.00     0.122 C 
ATOM      6  H1  UNL     1      -2.858  -1.316  -1.424  1.00  0.00     0.153 HD
HETATM    7  C1  UNL     1      -4.748  -2.687  -0.360  1.00  0.00     0.036 C 
HETATM    8  C12 UNL     1      -5.272  -0.463   0.664  1.00  0.00     0.309 C 
HETATM    9  N6  UNL     1      -4.617   0.602   1.397  1.00  0.00    -0.037 N 
ATOM     10  H62 UNL     1      -4.180   0.250   2.249  1.00  0.00     0.281 HD
ATOM     11  H61 UNL     1      -5.298   1.236   1.815  1.00  0.00     0.281 HD
BRANCH   8  12
HETATM   12  N7  UNL     1      -6.028   0.040  -0.447  1.00  0.00    -0.338 N 
HETATM   13  C13 UNL     1      -7.216   0.552  -0.326  1.00  0.00     0.198 C 
HETATM   14  N8  UNL     1      -7.930   1.036  -1.439  1.00  0.00    -0.067 NA
HETATM   15  N9  UNL     1      -7.748   0.593   1.006  1.00  0.00    -0.067 NA
ATOM     16  H7  UNL     1      -5.612  -0.007  -1.377  1.00  0.00     0.164 HD
ENDBRANCH   8  12
ENDBRANCH   1   2
BRANCH   1  17
HETATM   17  S2  UNL     1      -1.125   0.304   2.335  1.00  0.00    -0.094 SA
BRANCH  17  18
HETATM   18  C5  UNL     1       0.209  -0.177   1.207  1.00  0.00     0.113 C 
BRANCH  18  19
HETATM   19  C6  UNL     1       1.253   0.900   1.088  1.00  0.00     0.243 C 
BRANCH  19  20
HETATM   20  N2  UNL     1       2.301   0.518   0.204  1.00  0.00    -0.074 N 
ATOM     21  H22 UNL     1       2.703  -0.380   0.471  1.00  0.00     0.277 HD
ATOM     22  H21 UNL     1       1.938   0.264  -0.715  1.00  0.00     0.277 HD
BRANCH  20  23
HETATM   23  C7  UNL     1       3.303   1.528   0.106  1.00  0.00     0.232 C 
BRANCH  23  24
HETATM   24  C8  UNL     1       4.448   1.203  -0.791  1.00  0.00     0.029 C 
BRANCH  24  25
HETATM   25  C9  UNL     1       5.231  -0.024  -0.393  1.00  0.00     0.021 C 
BRANCH  25  26
HETATM   26  C10 UNL     1       6.336  -0.190  -1.415  1.00  0.00     0.122 C 
BRANCH  26  27
HETATM   27  N3  UNL     1       7.096  -1.368  -1.042  1.00  0.00    -0.367 N 
HETATM   28  C11 UNL     1       8.113  -1.227  -0.279  1.00  0.00     0.196 C 
HETATM   29  N4  UNL     1       8.864  -2.366   0.094  1.00  0.00    -0.067 NA
HETATM   30  N5  UNL     1       8.477   0.053   0.186  1.00  0.00    -0.067 NA
ATOM     31  H3  UNL     1       6.825  -2.291  -1.382  1.00  0.00     0.161 HD
ENDBRANCH  26  27
ENDBRANCH  25  26
ENDBRANCH  24  25
ENDBRANCH  23  24
ENDBRANCH  20  23
ENDBRANCH  19  20
ENDBRANCH  18  19
ENDBRANCH  17  18
ENDBRANCH   1  17
TORSDOF 11
