REMARK  2 active torsions:
REMARK  status: ('A' for Active; 'I' for Inactive)
REMARK    1  A    between atoms: C1_2  and  N1_3 
REMARK    2  A    between atoms: N1_3  and  C2_5 
ROOT
HETATM    1  C2  UNL     1       0.232   0.400  -0.195  1.00  0.00     0.191 A 
HETATM    2  N2  UNL     1      -0.854   1.176  -0.360  1.00  0.00    -0.265 N 
ATOM      3  H2  UNL     1      -0.847   2.127  -0.728  1.00  0.00     0.186 HD
HETATM    4  N3  UNL     1      -1.949   0.506   0.034  1.00  0.00    -0.018 NA
HETATM    5  N4  UNL     1      -1.585  -0.694   0.452  1.00  0.00    -0.247 N 
ATOM      6  H4  UNL     1      -2.206  -1.420   0.808  1.00  0.00     0.187 HD
HETATM    7  C3  UNL     1      -0.247  -0.786   0.323  1.00  0.00     0.303 A 
HETATM    8  O2  UNL     1       0.456  -1.794   0.625  1.00  0.00    -0.263 OA
ENDROOT
BRANCH   1   9
HETATM    9  N1  UNL     1       1.451   0.718  -0.468  1.00  0.00    -0.315 N 
ATOM     10  H1  UNL     1       1.650   1.643  -0.850  1.00  0.00     0.170 HD
BRANCH   9  11
HETATM   11  C1  UNL     1       2.520  -0.182  -0.252  1.00  0.00     0.354 C 
HETATM   12  O1  UNL     1       3.520   0.214   0.408  1.00  0.00    -0.283 OA
ENDBRANCH   9  11
ENDBRANCH   1   9
TORSDOF 2
