REMARK  3 active torsions:
REMARK  status: ('A' for Active; 'I' for Inactive)
REMARK    1  A    between atoms: N1_1  and  N2_4 
REMARK       I    between atoms: N2_4  and  C1_6 
REMARK    2  A    between atoms: C1_6  and  C2_8 
REMARK    3  A    between atoms: N5_12  and  O2_13 
ROOT
HETATM    1  C2  UNL     1      -0.780  -0.178   0.128  1.00  0.00     0.232 A 
HETATM    2  N3  UNL     1      -1.513   0.436  -0.816  1.00  0.00    -0.260 N 
ATOM      3  H3  UNL     1      -1.286   1.086  -1.569  1.00  0.00     0.186 HD
HETATM    4  N4  UNL     1      -2.638  -0.119  -0.401  1.00  0.00     0.010 NA
HETATM    5  N5  UNL     1      -1.930  -0.734   0.538  1.00  0.00    -0.123 N 
ENDROOT
BRANCH   1   6
HETATM    6  C1  UNL     1       0.635  -0.225   0.533  1.00  0.00     0.308 C 
HETATM    7  N2  UNL     1       1.577   0.538  -0.184  1.00  0.00    -0.270 N 
ATOM      8  H2  UNL     1       1.284   1.115  -0.972  1.00  0.00     0.189 HD
HETATM    9  O1  UNL     1       0.931  -0.955   1.515  1.00  0.00    -0.262 OA
BRANCH   7  10
HETATM   10  N1  UNL     1       2.906   0.493   0.197  1.00  0.00    -0.342 N 
ATOM     11  H12 UNL     1       3.183  -0.089   0.987  1.00  0.00     0.176 HD
ATOM     12  H11 UNL     1       3.588   1.046  -0.322  1.00  0.00     0.176 HD
ENDBRANCH   7  10
ENDBRANCH   1   6
BRANCH   5  13
HETATM   13  O2  UNL     1      -2.193  -1.621   1.578  1.00  0.00    -0.268 OA
ATOM     14  H2  UNL     1      -3.007  -2.015   1.868  1.00  0.00     0.246 HD
ENDBRANCH   5  13
TORSDOF 3
