REMARK  13 active torsions:
REMARK  status: ('A' for Active; 'I' for Inactive)
REMARK    1  A    between atoms: C2_2  and  C3_3 
REMARK    2  A    between atoms: C3_3  and  O1_4 
REMARK    3  A    between atoms: O1_4  and  C4_5 
REMARK    4  A    between atoms: C4_5  and  C5_7 
REMARK    5  A    between atoms: N2_13  and  C8_14 
REMARK    6  A    between atoms: C9_16  and  C10_17 
REMARK    7  A    between atoms: C10_17  and  C11_18 
REMARK    8  A    between atoms: C11_18  and  C12_19 
REMARK    9  A    between atoms: C13_20  and  C15_22 
REMARK   10  A    between atoms: C17_25  and  C18_26 
REMARK   11  A    between atoms: C18_26  and  O5_27 
REMARK   12  A    between atoms: C19_29  and  O6_30 
REMARK   13  A    between atoms: C20_32  and  O7_33 
ROOT
HETATM    1  C8  UNL     1      -1.403  -0.929  -0.894  1.00  0.00     0.265 C 
HETATM    2  O3  UNL     1      -0.318  -1.067  -1.742  1.00  0.00    -0.334 OA
HETATM    3  C9  UNL     1       0.897  -1.038  -1.082  1.00  0.00     0.263 C 
HETATM    4  O4  UNL     1       0.827  -1.676   0.160  1.00  0.00    -0.351 OA
HETATM    5  C17 UNL     1       0.582  -3.015   0.005  1.00  0.00     0.179 C 
HETATM    6  C19 UNL     1      -0.869  -3.287  -0.105  1.00  0.00     0.182 C 
HETATM    7  C20 UNL     1      -1.713  -2.070  -0.021  1.00  0.00     0.198 C 
ENDROOT
BRANCH   1   8
HETATM    8  N2  UNL     1      -2.550  -0.592  -1.752  1.00  0.00    -0.287 N 
HETATM    9  C5  UNL     1      -3.640   0.105  -1.410  1.00  0.00     0.130 A 
HETATM   10  C6  UNL     1      -4.477   0.181  -2.527  1.00  0.00     0.126 A 
HETATM   11  N1  UNL     1      -3.846  -0.480  -3.501  1.00  0.00    -0.341 N 
HETATM   12  C7  UNL     1      -2.677  -0.956  -3.054  1.00  0.00     0.180 A 
ATOM     13  H1  UNL     1      -4.203  -0.604  -4.448  1.00  0.00     0.167 HD
HETATM   14  S1  UNL     1      -1.570  -1.821  -3.932  1.00  0.00    -0.040 SA
BRANCH   9  15
HETATM   15  C4  UNL     1      -3.971   0.724  -0.114  1.00  0.00     0.311 C 
HETATM   16  O2  UNL     1      -5.068   1.329  -0.024  1.00  0.00    -0.258 OA
BRANCH  15  17
HETATM   17  O1  UNL     1      -3.155   0.679   0.993  1.00  0.00    -0.316 OA
BRANCH  17  18
HETATM   18  C3  UNL     1      -3.397   1.240   2.243  1.00  0.00     0.178 C 
BRANCH  18  19
HETATM   19  C2  UNL     1      -3.541   2.732   2.156  1.00  0.00     0.022 C 
HETATM   20  C1  UNL     1      -3.797   3.318   3.550  1.00  0.00     0.007 C 
ENDBRANCH  18  19
ENDBRANCH  17  18
ENDBRANCH  15  17
ENDBRANCH   9  15
ENDBRANCH   1   8
BRANCH   7  21
HETATM   21  O7  UNL     1      -3.040  -2.477  -0.203  1.00  0.00    -0.388 OA
ATOM     22  H7  UNL     1      -3.240  -3.215   0.361  1.00  0.00     0.210 HD
ENDBRANCH   7  21
BRANCH   3  23
HETATM   23  C10 UNL     1       1.448   0.348  -0.858  1.00  0.00     0.065 C 
BRANCH  23  24
HETATM   24  C11 UNL     1       2.766   0.196  -0.129  1.00  0.00     0.032 C 
BRANCH  24  25
HETATM   25  C12 UNL     1       3.427   1.463   0.162  1.00  0.00    -0.024 C 
HETATM   26  C13 UNL     1       4.625   1.700  -0.322  1.00  0.00    -0.088 C 
HETATM   27  C14 UNL     1       5.312   0.694  -1.159  1.00  0.00     0.043 C 
BRANCH  26  28
HETATM   28  C15 UNL     1       5.296   2.985  -0.025  1.00  0.00     0.029 C 
HETATM   29  C16 UNL     1       5.606   3.762  -1.299  1.00  0.00     0.010 C 
ENDBRANCH  26  28
ENDBRANCH  24  25
ENDBRANCH  23  24
ENDBRANCH   3  23
BRANCH   6  30
HETATM   30  O6  UNL     1      -1.179  -4.151  -1.157  1.00  0.00    -0.390 OA
ATOM     31  H6  UNL     1      -2.110  -4.326  -1.228  1.00  0.00     0.210 HD
ENDBRANCH   6  30
BRANCH   5  32
HETATM   32  C18 UNL     1       1.244  -3.826   1.103  1.00  0.00     0.198 C 
BRANCH  32  33
HETATM   33  O5  UNL     1       0.937  -5.174   0.862  1.00  0.00    -0.398 OA
ATOM     34  H5  UNL     1       1.352  -5.682   1.550  1.00  0.00     0.209 HD
ENDBRANCH  32  33
ENDBRANCH   5  32
TORSDOF 13
