REMARK  12 active torsions:
REMARK  status: ('A' for Active; 'I' for Inactive)
REMARK    1  A    between atoms: C2_2  and  C3_4 
REMARK    2  A    between atoms: C6_8  and  O3_9 
REMARK    3  A    between atoms: N1_11  and  O4_12 
REMARK    4  A    between atoms: O4_12  and  C7_13 
REMARK    5  A    between atoms: C7_13  and  C8_14 
REMARK    6  A    between atoms: C8_14  and  C9_15 
REMARK    7  A    between atoms: C9_15  and  C10_16 
REMARK    8  A    between atoms: C10_16  and  C11_17 
REMARK    9  A    between atoms: C11_17  and  C12_18 
REMARK   10  A    between atoms: C18_24  and  O5_25 
REMARK   11  A    between atoms: C20_29  and  O7_30 
REMARK   12  A    between atoms: C21_32  and  O8_34 
ROOT
HETATM    1  C3  UNL     1      -5.673  -0.561  -1.034  1.00  0.00     0.266 C 
HETATM    2  O2  UNL     1      -4.372  -1.106  -1.127  1.00  0.00    -0.299 OA
HETATM    3  C4  UNL     1      -3.319  -0.304  -0.645  1.00  0.00     0.139 A 
HETATM    4  C5  UNL     1      -3.586   1.000  -0.274  1.00  0.00     0.064 A 
HETATM    5  C6  UNL     1      -2.418   1.589   0.162  1.00  0.00     0.182 A 
HETATM    6  N1  UNL     1      -1.448   0.662   0.061  1.00  0.00    -0.173 N 
HETATM    7  C18 UNL     1      -1.977  -0.494  -0.427  1.00  0.00     0.204 A 
HETATM    8  C19 UNL     1      -4.978   1.469  -0.411  1.00  0.00     0.198 C 
HETATM    9  O6  UNL     1      -5.552   0.777  -1.476  1.00  0.00    -0.333 OA
HETATM   10  C20 UNL     1      -5.764   0.956   0.757  1.00  0.00     0.192 C 
HETATM   11  C21 UNL     1      -6.139  -0.463   0.381  1.00  0.00     0.147 C 
HETATM   12  C22 UNL     1      -5.380  -1.382   1.314  1.00  0.00     0.055 C 
ENDROOT
BRANCH   6  13
HETATM   13  O4  UNL     1      -0.115   0.776   0.376  1.00  0.00    -0.269 OA
BRANCH  13  14
HETATM   14  C7  UNL     1       0.391   1.555   1.422  1.00  0.00     0.202 C 
BRANCH  14  15
HETATM   15  C8  UNL     1       1.919   1.375   1.393  1.00  0.00     0.029 C 
BRANCH  15  16
HETATM   16  C9  UNL     1       2.284  -0.063   1.586  1.00  0.00     0.002 C 
BRANCH  16  17
HETATM   17  C10 UNL     1       3.774  -0.238   1.573  1.00  0.00     0.000 C 
BRANCH  17  18
HETATM   18  C11 UNL     1       4.342   0.214   0.271  1.00  0.00     0.004 C 
BRANCH  18  19
HETATM   19  C12 UNL     1       5.856   0.036   0.218  1.00  0.00    -0.014 C 
HETATM   20  C13 UNL     1       6.258  -1.399   0.394  1.00  0.00     0.004 C 
HETATM   21  C14 UNL     1       7.193  -1.875  -0.684  1.00  0.00     0.000 C 
HETATM   22  C15 UNL     1       8.324  -0.874  -0.877  1.00  0.00     0.000 C 
HETATM   23  C16 UNL     1       7.813   0.476  -1.269  1.00  0.00     0.000 C 
HETATM   24  C17 UNL     1       6.310   0.588  -1.117  1.00  0.00     0.004 C 
ENDBRANCH  18  19
ENDBRANCH  17  18
ENDBRANCH  16  17
ENDBRANCH  15  16
ENDBRANCH  14  15
ENDBRANCH  13  14
ENDBRANCH   6  13
BRANCH   5  25
HETATM   25  O3  UNL     1      -2.253   2.908   0.628  1.00  0.00    -0.344 OA
ATOM     26  H3  UNL     1      -1.448   3.314   0.928  1.00  0.00     0.219 HD
ENDBRANCH   5  25
BRANCH   7  27
HETATM   27  O5  UNL     1      -1.294  -1.692  -0.677  1.00  0.00    -0.342 OA
ATOM     28  H5  UNL     1      -0.365  -1.823  -0.526  1.00  0.00     0.219 HD
ENDBRANCH   7  27
BRANCH  10  29
HETATM   29  O7  UNL     1      -6.881   1.760   0.952  1.00  0.00    -0.389 OA
ATOM     30  H7  UNL     1      -7.379   1.435   1.693  1.00  0.00     0.210 HD
ENDBRANCH  10  29
BRANCH   1  31
HETATM   31  C2  UNL     1      -6.571  -1.234  -1.956  1.00  0.00     0.188 C 
HETATM   32  C1  UNL     1      -8.016  -0.920  -2.126  1.00  0.00     0.097 C 
HETATM   33  O1  UNL     1      -6.115  -2.127  -2.650  1.00  0.00    -0.292 OA
ENDBRANCH   1  31
BRANCH  11  34
HETATM   34  O8  UNL     1      -7.484  -0.615   0.563  1.00  0.00    -0.381 OA
ATOM     35  H8  UNL     1      -7.781  -0.553   1.463  1.00  0.00     0.211 HD
ENDBRANCH  11  34
TORSDOF 12
