REMARK  11 active torsions:
REMARK  status: ('A' for Active; 'I' for Inactive)
REMARK    1  A    between atoms: C2_2  and  C3_3 
REMARK    2  A    between atoms: C2_2  and  O6_29 
REMARK    3  A    between atoms: C3_3  and  C4_4 
REMARK    4  A    between atoms: C4_4  and  O1_5 
REMARK    5  A    between atoms: C4_4  and  C5_7 
REMARK    6  A    between atoms: C11_13  and  O2_14 
REMARK    7  A    between atoms: C12_16  and  C13_17 
REMARK    8  A    between atoms: C13_17  and  C14_18 
REMARK    9  A    between atoms: C13_17  and  C17_21 
REMARK   10  A    between atoms: C20_25  and  O4_26 
REMARK   11  A    between atoms: O6_29  and  C21_30 
ROOT
HETATM    1  C5  UNL     1       1.714  -0.185   1.280  1.00  0.00     0.158 C 
HETATM    2  C6  UNL     1       1.492  -1.677   1.064  1.00  0.00     0.040 C 
HETATM    3  C7  UNL     1       0.152  -1.986   0.505  1.00  0.00     0.047 C 
HETATM    4  C8  UNL     1      -0.618  -0.847  -0.042  1.00  0.00     0.009 A 
HETATM    5  C9  UNL     1       0.004   0.352  -0.275  1.00  0.00     0.081 A 
HETATM    6  C10 UNL     1      -0.695   1.434  -0.717  1.00  0.00     0.074 A 
HETATM    7  C11 UNL     1      -2.039   1.298  -0.914  1.00  0.00     0.081 A 
HETATM    8  C12 UNL     1      -2.738   0.115  -0.687  1.00  0.00     0.037 A 
HETATM    9  C20 UNL     1      -1.973  -0.974  -0.246  1.00  0.00     0.088 A 
HETATM   10  O5  UNL     1       1.379   0.367  -0.021  1.00  0.00    -0.343 OA
ENDROOT
BRANCH   1  11
HETATM   11  C4  UNL     1       3.079   0.168   1.654  1.00  0.00     0.150 C 
BRANCH  11  12
HETATM   12  C3  UNL     1       4.179  -0.782   1.637  1.00  0.00     0.066 C 
BRANCH  12  13
HETATM   13  C2  UNL     1       5.094  -0.848   0.469  1.00  0.00     0.129 C 
HETATM   14  C1  UNL     1       6.124  -1.982   0.837  1.00  0.00     0.040 C 
BRANCH  13  15
HETATM   15  O6  UNL     1       5.877   0.303   0.328  1.00  0.00    -0.325 OA
BRANCH  15  16
HETATM   16  C21 UNL     1       6.653   0.628  -0.770  1.00  0.00     0.236 A 
HETATM   17  N1  UNL     1       6.887  -0.013  -1.897  1.00  0.00    -0.215 N 
HETATM   18  O7  UNL     1       7.714   0.681  -2.683  1.00  0.00    -0.152 OA
ATOM     19  H1  UNL     1       6.489  -0.921  -2.138  1.00  0.00     0.199 HD
HETATM   20  N2  UNL     1       7.990   1.781  -2.007  1.00  0.00    -0.202 N 
HETATM   21  C22 UNL     1       7.381   1.810  -0.848  1.00  0.00     0.319 A 
ATOM     22  H2  UNL     1       8.605   2.521  -2.347  1.00  0.00     0.200 HD
HETATM   23  O8  UNL     1       7.383   2.688   0.092  1.00  0.00    -0.261 OA
ENDBRANCH  15  16
ENDBRANCH  13  15
ENDBRANCH  12  13
ENDBRANCH  11  12
BRANCH  11  24
HETATM   24  O1  UNL     1       3.470   1.488   1.537  1.00  0.00    -0.393 OA
ATOM     25  H1  UNL     1       2.751   2.109   1.548  1.00  0.00     0.210 HD
ENDBRANCH  11  24
ENDBRANCH   1  11
BRANCH   9  26
HETATM   26  O4  UNL     1      -2.578  -2.228  -0.008  1.00  0.00    -0.359 OA
ATOM     27  H4  UNL     1      -3.513  -2.316  -0.149  1.00  0.00     0.217 HD
ENDBRANCH   9  26
BRANCH   7  28
HETATM   28  O2  UNL     1      -2.691   2.452  -1.382  1.00  0.00    -0.360 OA
ATOM     29  H2  UNL     1      -3.626   2.357  -1.519  1.00  0.00     0.217 HD
ENDBRANCH   7  28
BRANCH   8  30
HETATM   30  C13 UNL     1      -4.177   0.082  -0.608  1.00  0.00    -0.025 C 
BRANCH  30  31
HETATM   31  C14 UNL     1      -5.062  -0.481  -1.621  1.00  0.00     0.010 C 
HETATM   32  C15 UNL     1      -5.041   0.183  -2.990  1.00  0.00     0.014 C 
HETATM   33  C16 UNL     1      -6.496  -0.516  -1.149  1.00  0.00     0.014 C 
ENDBRANCH  30  31
BRANCH  30  34
HETATM   34  C17 UNL     1      -4.801   0.929   0.473  1.00  0.00     0.103 A 
HETATM   35  C18 UNL     1      -4.388   0.496   1.941  1.00  0.00     0.053 C 
HETATM   36  C19 UNL     1      -5.664   2.051   0.381  1.00  0.00     0.211 A 
HETATM   37  O3  UNL     1      -4.336   2.388   0.459  1.00  0.00    -0.370 OA
ENDBRANCH  30  34
ENDBRANCH   8  30
TORSDOF 11
