REMARK  3 active torsions:
REMARK  status: ('A' for Active; 'I' for Inactive)
REMARK    1  A    between atoms: O1_1  and  C1_3 
REMARK    2  A    between atoms: C1_3  and  C2_4 
REMARK    3  A    between atoms: C1_3  and  C8_10 
ROOT
HETATM    1  C1  UNL     1       0.810   0.605  -0.763  1.00  0.00     0.154 C 
ENDROOT
BRANCH   1   2
HETATM    2  O1  UNL     1       0.631  -0.151  -1.921  1.00  0.00    -0.393 OA
ATOM      3  H1  UNL     1       1.427  -0.099  -2.437  1.00  0.00     0.210 HD
ENDBRANCH   1   2
BRANCH   1   4
HETATM    4  C2  UNL     1      -0.438   0.524   0.047  1.00  0.00     0.017 C 
HETATM    5  C3  UNL     1      -0.828  -0.836   0.469  1.00  0.00     0.007 C 
HETATM    6  C4  UNL     1      -2.298  -1.089   0.622  1.00  0.00     0.000 C 
HETATM    7  C5  UNL     1      -3.099   0.191   0.731  1.00  0.00     0.000 C 
HETATM    8  C6  UNL     1      -2.883   0.877  -0.577  1.00  0.00     0.000 C 
HETATM    9  C7  UNL     1      -1.483   1.318  -0.699  1.00  0.00     0.007 C 
ENDBRANCH   1   4
BRANCH   1  10
HETATM   10  C8  UNL     1       2.089   0.309  -0.167  1.00  0.00     0.191 C 
HETATM   11  C9  UNL     1       2.448  -1.084   0.188  1.00  0.00     0.067 C 
HETATM   12  C10 UNL     1       3.796  -0.731   0.859  1.00  0.00     0.212 C 
HETATM   13  O2  UNL     1       3.430   0.392   1.552  1.00  0.00    -0.240 OA
HETATM   14  O3  UNL     1       2.426   0.972   1.000  1.00  0.00    -0.233 OA
ENDBRANCH   1  10
TORSDOF 3
