REMARK  3 active torsions:
REMARK  status: ('A' for Active; 'I' for Inactive)
REMARK    1  A    between atoms: C2_2  and  C4_4 
REMARK    2  A    between atoms: C7_9  and  C8_10 
REMARK    3  A    between atoms: C8_10  and  O3_11 
ROOT
HETATM    1  C4  UNL     1      -0.546   0.049   0.264  1.00  0.00     0.105 C 
HETATM    2  C5  UNL     1      -0.226  -1.078   1.254  1.00  0.00     0.077 C 
HETATM    3  C6  UNL     1       1.135  -0.442   1.614  1.00  0.00     0.170 C 
HETATM    4  O1  UNL     1       0.710   0.857   1.860  1.00  0.00    -0.234 OA
HETATM    5  O2  UNL     1      -0.296   1.135   1.092  1.00  0.00    -0.228 OA
HETATM    6  C7  UNL     1       1.780  -0.440   0.249  1.00  0.00     0.048 C 
HETATM    7  C9  UNL     1       0.600  -0.087  -0.671  1.00  0.00     0.028 C 
HETATM    8  C10 UNL     1       0.478  -1.191  -1.667  1.00  0.00     0.014 C 
ENDROOT
BRANCH   1   9
HETATM    9  C2  UNL     1      -1.886  -0.006  -0.318  1.00  0.00     0.016 C 
HETATM   10  C1  UNL     1      -2.006   1.197  -1.270  1.00  0.00     0.012 C 
HETATM   11  C3  UNL     1      -3.023   0.098   0.641  1.00  0.00     0.012 C 
ENDBRANCH   1   9
BRANCH   6  12
HETATM   12  C8  UNL     1       2.788   0.659   0.106  1.00  0.00     0.172 C 
BRANCH  12  13
HETATM   13  O3  UNL     1       3.823   0.567   1.025  1.00  0.00    -0.400 OA
ATOM     14  H3  UNL     1       4.462   1.264   0.934  1.00  0.00     0.209 HD
ENDBRANCH  12  13
ENDBRANCH   6  12
TORSDOF 3
