REMARK  4 active torsions:
REMARK  status: ('A' for Active; 'I' for Inactive)
REMARK    1  A    between atoms: O1_1  and  C1_3 
REMARK    2  A    between atoms: C1_3  and  C2_4 
REMARK    3  A    between atoms: C1_3  and  C8_12 
REMARK    4  A    between atoms: C2_4  and  C3_5 
ROOT
HETATM    1  C3  UNL     1      -1.051  -0.595  -0.108  1.00  0.00     0.101 C 
HETATM    2  C4  UNL     1      -1.229   0.611   0.756  1.00  0.00     0.044 C 
HETATM    3  C5  UNL     1      -2.749   0.742   0.976  1.00  0.00     0.038 C 
HETATM    4  C6  UNL     1      -3.210  -0.596   0.410  1.00  0.00     0.163 C 
HETATM    5  C7  UNL     1      -2.385  -0.570  -0.893  1.00  0.00     0.076 C 
HETATM    6  O2  UNL     1      -2.582  -1.615   1.077  1.00  0.00    -0.235 OA
HETATM    7  O3  UNL     1      -1.349  -1.695   0.706  1.00  0.00    -0.229 OA
ENDROOT
BRANCH   1   8
HETATM    8  C2  UNL     1       0.108  -0.721  -0.951  1.00  0.00     0.073 C 
BRANCH   8   9
HETATM    9  C1  UNL     1       1.474  -0.749  -0.398  1.00  0.00     0.125 C 
BRANCH   9  10
HETATM   10  O1  UNL     1       2.344  -0.901  -1.528  1.00  0.00    -0.395 OA
ATOM     11  H1  UNL     1       3.224  -0.919  -1.172  1.00  0.00     0.210 HD
ENDBRANCH   9  10
BRANCH   9  12
HETATM   12  C8  UNL     1       1.967   0.485   0.285  1.00  0.00     0.014 A 
HETATM   13  C9  UNL     1       3.430   0.360   0.727  1.00  0.00     0.007 A 
HETATM   14  C10 UNL     1       3.067   1.322  -0.353  1.00  0.00     0.007 A 
ENDBRANCH   9  12
ENDBRANCH   8   9
ENDBRANCH   1   8
TORSDOF 4
