REMARK  6 active torsions:
REMARK  status: ('A' for Active; 'I' for Inactive)
REMARK    1  A    between atoms: N3_4  and  S1_6 
REMARK    2  A    between atoms: S1_6  and  C2_9 
REMARK    3  A    between atoms: C5_12  and  C6_13 
REMARK    4  A    between atoms: C6_13  and  N4_14 
REMARK    5  A    between atoms: C6_13  and  O3_18 
REMARK    6  A    between atoms: N5_20  and  O4_21 
ROOT
HETATM    1  C2  UNL     1       0.071   0.420   0.740  1.00  0.00     0.097 A 
HETATM    2  C3  UNL     1      -0.551   1.008  -0.347  1.00  0.00     0.029 A 
HETATM    3  C4  UNL     1      -1.902   0.822  -0.558  1.00  0.00     0.034 A 
HETATM    4  C5  UNL     1      -2.673   0.057   0.291  1.00  0.00     0.095 A 
HETATM    5  N5  UNL     1      -2.050  -0.507   1.342  1.00  0.00    -0.234 N 
HETATM    6  C7  UNL     1      -0.722  -0.341   1.574  1.00  0.00     0.148 A 
ENDROOT
BRANCH   1   7
HETATM    7  S1  UNL     1       1.794   0.635   1.041  1.00  0.00     0.266 S 
HETATM    8  O1  UNL     1       2.231   2.016   0.606  1.00  0.00    -0.200 OA
HETATM    9  O2  UNL     1       2.087   0.541   2.522  1.00  0.00    -0.200 OA
BRANCH   7  10
HETATM   10  N3  UNL     1       2.698  -0.599   0.254  1.00  0.00    -0.256 N 
HETATM   11  C1  UNL     1       3.889  -0.439  -0.179  1.00  0.00     0.210 C 
HETATM   12  N1  UNL     1       4.531   0.803  -0.023  1.00  0.00    -0.066 NA
HETATM   13  N2  UNL     1       4.559  -1.505  -0.813  1.00  0.00    -0.066 NA
ATOM     14  H3  UNL     1       2.258  -1.510   0.126  1.00  0.00     0.181 HD
ENDBRANCH   7  10
ENDBRANCH   1   7
BRANCH   5  15
HETATM   15  O4  UNL     1      -2.821  -1.275   2.196  1.00  0.00    -0.283 OA
ATOM     16  H4  UNL     1      -2.381  -1.673   2.938  1.00  0.00     0.245 HD
ENDBRANCH   5  15
BRANCH   4  17
HETATM   17  C6  UNL     1      -4.140  -0.132   0.043  1.00  0.00     0.369 C 
BRANCH  17  18
HETATM   18  N4  UNL     1      -4.392  -0.424  -1.356  1.00  0.00    -0.047 N 
ATOM     19  H43 UNL     1      -3.994   0.288  -1.968  1.00  0.00     0.277 HD
ATOM     20  H42 UNL     1      -3.848  -1.224  -1.679  1.00  0.00     0.277 HD
ATOM     21  H41 UNL     1      -5.390  -0.553  -1.525  1.00  0.00     0.277 HD
ENDBRANCH  17  18
BRANCH  17  22
HETATM   22  O3  UNL     1      -4.638  -1.197   0.778  1.00  0.00    -0.365 OA
ATOM     23  H3  UNL     1      -5.567  -1.317   0.621  1.00  0.00     0.212 HD
ENDBRANCH  17  22
ENDBRANCH   4  17
TORSDOF 6
