REMARK  5 active torsions:
REMARK  status: ('A' for Active; 'I' for Inactive)
REMARK    1  A    between atoms: N1_2  and  C4_5 
REMARK    2  A    between atoms: C4_5  and  C5_6 
REMARK    3  A    between atoms: C6_8  and  O2_9 
REMARK    4  A    between atoms: C7_11  and  O3_12 
REMARK    5  A    between atoms: C8_14  and  C9_15 
REMARK       I    between atoms: C9_15  and  N2_17 
ROOT
HETATM    1  C5  UNL     1      -0.724  -1.034   0.637  1.00  0.00     0.166 C 
HETATM    2  O1  UNL     1      -1.019  -2.093  -0.199  1.00  0.00    -0.351 OA
HETATM    3  C6  UNL     1       0.076  -2.902  -0.293  1.00  0.00     0.286 C 
HETATM    4  C7  UNL     1       1.258  -2.177   0.292  1.00  0.00     0.188 C 
HETATM    5  C8  UNL     1       0.703  -0.730   0.309  1.00  0.00     0.142 C 
ENDROOT
BRANCH   5   6
HETATM    6  C9  UNL     1       1.420   0.050   1.354  1.00  0.00     0.233 C 
HETATM    7  O4  UNL     1       0.871   0.419   2.423  1.00  0.00    -0.273 OA
HETATM    8  N2  UNL     1       2.783   0.355   1.064  1.00  0.00    -0.303 N 
HETATM    9  C10 UNL     1       3.187   1.180   0.183  1.00  0.00     0.203 C 
ATOM     10  H2  UNL     1       3.495  -0.130   1.610  1.00  0.00     0.171 HD
HETATM   11  N3  UNL     1       4.567   1.392  -0.007  1.00  0.00    -0.066 NA
HETATM   12  N4  UNL     1       2.265   1.889  -0.610  1.00  0.00    -0.066 NA
ENDBRANCH   5   6
BRANCH   1  13
HETATM   13  C4  UNL     1      -1.671   0.056   0.697  1.00  0.00     0.268 C 
BRANCH  13  14
HETATM   14  N1  UNL     1      -2.056   0.822  -0.410  1.00  0.00    -0.076 N 
HETATM   15  C1  UNL     1      -1.772   2.237  -0.063  1.00  0.00     0.271 C 
HETATM   16  C2  UNL     1      -3.525   0.867  -0.588  1.00  0.00     0.271 C 
HETATM   17  C3  UNL     1      -1.399   0.616  -1.658  1.00  0.00     0.271 C 
ENDBRANCH  13  14
ENDBRANCH   1  13
BRANCH   4  18
HETATM   18  O3  UNL     1       1.483  -2.498   1.627  1.00  0.00    -0.390 OA
ATOM     19  H3  UNL     1       2.229  -2.040   1.996  1.00  0.00     0.210 HD
ENDBRANCH   4  18
BRANCH   3  20
HETATM   20  O2  UNL     1      -0.121  -4.150   0.299  1.00  0.00    -0.369 OA
ATOM     21  H2  UNL     1       0.641  -4.713   0.234  1.00  0.00     0.212 HD
ENDBRANCH   3  20
TORSDOF 5
