REMARK  6 active torsions:
REMARK  status: ('A' for Active; 'I' for Inactive)
REMARK    1  A    between atoms: C6_8  and  N2_9 
REMARK    2  A    between atoms: N2_9  and  S1_11 
REMARK    3  A    between atoms: S1_11  and  N3_12 
REMARK    4  A    between atoms: C7_17  and  C8_18 
REMARK    5  A    between atoms: C8_18  and  O3_19 
REMARK    6  A    between atoms: C9_21  and  O4_22 
ROOT
HETATM    1  C1  UNL     1       4.286  -1.084   1.483  1.00  0.00     0.012 C 
HETATM    2  C2  UNL     1       3.208  -0.598   1.237  1.00  0.00    -0.108 C 
HETATM    3  C3  UNL     1       1.898   0.018   0.928  1.00  0.00     0.111 C 
HETATM    4  C4  UNL     1       2.158   1.495   0.761  1.00  0.00     0.138 C 
HETATM    5  N1  UNL     1       0.936   2.246   0.734  1.00  0.00    -0.399 N 
ATOM      6  H1  UNL     1       1.060   3.234   0.953  1.00  0.00     0.158 HD
HETATM    7  C5  UNL     1      -0.278   1.924   0.490  1.00  0.00     0.082 C 
HETATM    8  C6  UNL     1      -0.752   0.551   0.143  1.00  0.00     0.141 C 
HETATM    9  C7  UNL     1       0.164   0.023  -0.906  1.00  0.00     0.068 C 
HETATM   10  C9  UNL     1       1.434  -0.574  -0.352  1.00  0.00     0.143 C 
ENDROOT
BRANCH  10  11
HETATM   11  O4  UNL     1       1.258  -1.962  -0.220  1.00  0.00    -0.394 OA
ATOM     12  H4  UNL     1       0.961  -2.341  -1.039  1.00  0.00     0.210 HD
ENDBRANCH  10  11
BRANCH   9  13
HETATM   13  C8  UNL     1      -0.486  -0.963  -1.845  1.00  0.00     0.173 C 
BRANCH  13  14
HETATM   14  O3  UNL     1      -1.554  -0.379  -2.501  1.00  0.00    -0.400 OA
ATOM     15  H3  UNL     1      -1.963  -1.000  -3.092  1.00  0.00     0.209 HD
ENDBRANCH  13  14
ENDBRANCH   9  13
BRANCH   8  16
HETATM   16  N2  UNL     1      -2.108   0.506  -0.247  1.00  0.00    -0.293 N 
ATOM     17  H2  UNL     1      -2.418   0.978  -1.097  1.00  0.00     0.174 HD
BRANCH  16  18
HETATM   18  S1  UNL     1      -3.205  -0.336   0.709  1.00  0.00     0.313 S 
HETATM   19  O1  UNL     1      -2.738  -0.483   2.152  1.00  0.00    -0.183 OA
HETATM   20  O2  UNL     1      -4.580   0.272   0.663  1.00  0.00    -0.183 OA
BRANCH  18  21
HETATM   21  N3  UNL     1      -3.362  -1.949   0.115  1.00  0.00    -0.312 N 
ATOM     22  H32 UNL     1      -2.860  -2.319  -0.692  1.00  0.00     0.170 HD
ATOM     23  H31 UNL     1      -4.028  -2.460   0.695  1.00  0.00     0.170 HD
ENDBRANCH  18  21
ENDBRANCH  16  18
ENDBRANCH   8  16
TORSDOF 6
