REMARK  6 active torsions:
REMARK  status: ('A' for Active; 'I' for Inactive)
REMARK    1  A    between atoms: C2_2  and  C3_3 
REMARK    2  A    between atoms: C3_3  and  N1_4 
REMARK    3  A    between atoms: C4_5  and  N2_6 
REMARK    4  A    between atoms: C6_12  and  N4_13 
REMARK    5  A    between atoms: N4_13  and  C7_15 
REMARK    6  A    between atoms: N6_24  and  C14_26 
ROOT
HETATM    1  N1  UNL     1      -2.419   1.806   0.488  1.00  0.00    -0.166 N 
HETATM    2  C4  UNL     1      -1.588   2.836   0.763  1.00  0.00     0.680 A 
HETATM    3  N3  UNL     1      -0.320   2.414   0.802  1.00  0.00    -0.184 N 
ATOM      4  H3  UNL     1       0.493   3.001   0.990  1.00  0.00     0.184 HD
HETATM    5  C5  UNL     1      -0.287   1.106   0.556  1.00  0.00     0.138 A 
HETATM    6  C6  UNL     1       0.739   0.188   0.484  1.00  0.00     0.148 A 
HETATM    7  N5  UNL     1       0.402  -1.069   0.219  1.00  0.00    -0.175 N 
ATOM      8  H5  UNL     1       1.143  -1.767   0.161  1.00  0.00     0.186 HD
HETATM    9  C13 UNL     1      -0.912  -1.482   0.017  1.00  0.00     0.681 A 
HETATM   10  N6  UNL     1      -1.189  -2.632  -0.217  1.00  0.00    -0.222 N 
ATOM     11  H6  UNL     1      -0.268  -3.070  -0.208  1.00  0.00     0.178 HD
HETATM   12  N7  UNL     1      -1.916  -0.553   0.092  1.00  0.00    -0.173 N 
ATOM     13  H7  UNL     1      -2.886  -0.832  -0.054  1.00  0.00     0.186 HD
HETATM   14  C17 UNL     1      -1.614   0.726   0.359  1.00  0.00     0.170 A 
ENDROOT
BRANCH   6  15
HETATM   15  N4  UNL     1       1.926   0.569   0.671  1.00  0.00    -0.369 N 
ATOM     16  H4  UNL     1       2.015   1.566   0.866  1.00  0.00     0.161 HD
BRANCH  15  17
HETATM   17  C7  UNL     1       3.153  -0.123   0.661  1.00  0.00     0.083 C 
HETATM   18  C8  UNL     1       3.745  -0.070  -0.729  1.00  0.00     0.025 C 
HETATM   19  C9  UNL     1       5.153   0.489  -0.731  1.00  0.00     0.002 C 
HETATM   20  C10 UNL     1       6.043  -0.327   0.187  1.00  0.00     0.000 C 
HETATM   21  C11 UNL     1       5.388  -0.532   1.540  1.00  0.00     0.002 C 
HETATM   22  C12 UNL     1       4.156   0.376   1.676  1.00  0.00     0.025 C 
ENDBRANCH  15  17
ENDBRANCH   6  15
BRANCH   2  23
HETATM   23  N2  UNL     1      -1.937   4.064   0.978  1.00  0.00    -0.234 N 
ATOM     24  H22 UNL     1      -2.904   4.386   0.948  1.00  0.00     0.174 HD
ATOM     25  H21 UNL     1      -1.310   4.841   1.186  1.00  0.00     0.174 HD
ENDBRANCH   2  23
BRANCH   1  26
HETATM   26  C3  UNL     1      -3.838   1.907   0.376  1.00  0.00     0.149 C 
BRANCH  26  27
HETATM   27  C2  UNL     1      -4.367   2.184  -0.992  1.00  0.00     0.016 C 
HETATM   28  C1  UNL     1      -3.881   3.460  -1.608  1.00  0.00     0.006 C 
ENDBRANCH  26  27
ENDBRANCH   1  26
BRANCH  10  29
HETATM   29  C14 UNL     1      -1.976  -3.671  -0.480  1.00  0.00     0.091 C 
HETATM   30  C15 UNL     1      -3.141  -3.834   0.512  1.00  0.00     0.032 C 
HETATM   31  C16 UNL     1      -2.579  -3.576  -1.903  1.00  0.00     0.032 C 
ENDBRANCH  10  29
TORSDOF 6
