REMARK  3 active torsions:
REMARK  status: ('A' for Active; 'I' for Inactive)
REMARK    1  A    between atoms: C3_4  and  N1_5 
REMARK    2  A    between atoms: N1_5  and  C4_7 
REMARK    3  A    between atoms: C8_13  and  C9_14 
ROOT
HETATM    1  C9  UNL     1      -0.513   0.391  -0.228  1.00  0.00     0.249 C 
HETATM    2  C10 UNL     1      -0.637   1.818  -0.572  1.00  0.00     0.027 C 
HETATM    3  C11 UNL     1      -1.801   2.618  -0.866  1.00  0.00     0.081 C 
HETATM    4  N3  UNL     1      -2.966   2.254  -1.501  1.00  0.00    -0.399 N 
ATOM      5  H3  UNL     1      -3.037   2.267  -2.518  1.00  0.00     0.158 HD
HETATM    6  C12 UNL     1      -4.111   1.844  -0.660  1.00  0.00     0.123 C 
HETATM    7  C13 UNL     1      -3.871   0.492  -0.284  1.00  0.00     0.006 C 
HETATM    8  C14 UNL     1      -4.785  -0.642  -0.029  1.00  0.00     0.011 C 
HETATM    9  C15 UNL     1      -3.886  -1.832   0.280  1.00  0.00    -0.009 C 
HETATM   10  C16 UNL     1      -2.467  -1.672  -0.239  1.00  0.00     0.043 C 
HETATM   11  C17 UNL     1      -2.253  -0.708   0.830  1.00  0.00     0.128 C 
HETATM   12  C18 UNL     1      -3.114   0.504   0.974  1.00  0.00     0.045 C 
HETATM   13  C19 UNL     1      -3.036  -1.702   1.566  1.00  0.00     0.043 C 
HETATM   14  N4  UNL     1      -0.947  -0.232   0.945  1.00  0.00    -0.054 N 
ATOM     15  H41 UNL     1      -0.847   0.385   1.751  1.00  0.00     0.279 HD
ATOM     16  H42 UNL     1      -0.306  -0.973   1.230  1.00  0.00     0.279 HD
ENDROOT
BRANCH   1  17
HETATM   17  C8  UNL     1       0.970   0.057  -0.397  1.00  0.00     0.042 A 
HETATM   18  C1  UNL     1       1.878   0.229   0.618  1.00  0.00     0.185 A 
HETATM   19  O1  UNL     1       1.570   0.645   1.736  1.00  0.00    -0.288 OA
HETATM   20  C2  UNL     1       3.229  -0.073   0.396  1.00  0.00     0.103 A 
HETATM   21  C3  UNL     1       3.676  -0.547  -0.817  1.00  0.00     0.104 A 
HETATM   22  N2  UNL     1       2.739  -0.717  -1.811  1.00  0.00    -0.352 N 
HETATM   23  C7  UNL     1       1.458  -0.425  -1.598  1.00  0.00     0.103 A 
ATOM     24  H2  UNL     1       3.030  -1.071  -2.722  1.00  0.00     0.166 HD
BRANCH  21  25
HETATM   25  N1  UNL     1       5.051  -0.692  -1.148  1.00  0.00    -0.372 N 
ATOM     26  H1  UNL     1       5.304  -1.064  -2.064  1.00  0.00     0.161 HD
BRANCH  25  27
HETATM   27  C4  UNL     1       6.085  -0.333  -0.237  1.00  0.00     0.083 A 
HETATM   28  C5  UNL     1       6.323  -1.126   1.043  1.00  0.00     0.027 A 
HETATM   29  C6  UNL     1       7.344  -1.097  -0.076  1.00  0.00     0.027 A 
ENDBRANCH  25  27
ENDBRANCH  21  25
ENDBRANCH   1  17
TORSDOF 3
