REMARK  5 active torsions:
REMARK  status: ('A' for Active; 'I' for Inactive)
REMARK    1  A    between atoms: C2_2  and  N1_3 
REMARK       I    between atoms: N1_3  and  C3_5 
REMARK    2  A    between atoms: C3_5  and  C4_7 
REMARK    3  A    between atoms: C8_11  and  O2_12 
REMARK    4  A    between atoms: C13_18  and  C14_19 
REMARK    5  A    between atoms: C20_25  and  O3_26 
ROOT
HETATM    1  C4  UNL     1       2.191   0.518   0.766  1.00  0.00     0.071 C 
HETATM    2  C5  UNL     1       2.769   0.015   2.094  1.00  0.00     0.029 C 
HETATM    3  C6  UNL     1       1.969   2.006   0.983  1.00  0.00     0.025 C 
HETATM    4  C7  UNL     1       0.707   2.018   1.781  1.00  0.00     0.043 C 
HETATM    5  C8  UNL     1      -0.094   0.819   1.363  1.00  0.00     0.097 C 
HETATM    6  C9  UNL     1      -1.362   1.174   0.646  1.00  0.00    -0.006 C 
HETATM    7  C10 UNL     1      -1.282   2.320  -0.286  1.00  0.00     0.019 C 
HETATM    8  C11 UNL     1      -2.496   1.426   1.637  1.00  0.00     0.013 C 
HETATM    9  C12 UNL     1      -3.705   1.137   0.825  1.00  0.00     0.006 C 
HETATM   10  C13 UNL     1      -3.257   0.380  -0.436  1.00  0.00    -0.005 C 
HETATM   11  C17 UNL     1      -1.897  -0.077  -0.054  1.00  0.00     0.001 C 
HETATM   12  C18 UNL     1      -0.969  -0.424  -1.160  1.00  0.00     0.009 C 
HETATM   13  C19 UNL     1       0.482  -0.084  -0.899  1.00  0.00     0.042 C 
HETATM   14  C20 UNL     1       0.821  -0.080   0.564  1.00  0.00     0.105 C 
ENDROOT
BRANCH   1  15
HETATM   15  C3  UNL     1       3.124   0.298  -0.343  1.00  0.00     0.229 C 
HETATM   16  N1  UNL     1       3.596  -1.011  -0.614  1.00  0.00    -0.361 N 
ATOM     17  H1  UNL     1       3.278  -1.786  -0.032  1.00  0.00     0.162 HD
HETATM   18  O1  UNL     1       3.528   1.237  -1.072  1.00  0.00    -0.273 OA
BRANCH  16  19
HETATM   19  C2  UNL     1       4.528  -1.275  -1.709  1.00  0.00     0.118 C 
HETATM   20  C1  UNL     1       4.869  -2.728  -1.783  1.00  0.00     0.026 C 
ENDBRANCH  16  19
ENDBRANCH   1  15
BRANCH  14  21
HETATM   21  O3  UNL     1       0.829  -1.385   1.016  1.00  0.00    -0.385 OA
ATOM     22  H3  UNL     1      -0.034  -1.762   0.889  1.00  0.00     0.210 HD
ENDBRANCH  14  21
BRANCH   5  23
HETATM   23  O2  UNL     1      -0.460   0.112   2.510  1.00  0.00    -0.386 OA
ATOM     24  H2  UNL     1      -0.967  -0.647   2.245  1.00  0.00     0.210 HD
ENDBRANCH   5  23
BRANCH  10  25
HETATM   25  C14 UNL     1      -4.277  -0.656  -0.695  1.00  0.00    -0.010 A 
HETATM   26  C15 UNL     1      -4.021  -1.518  -1.945  1.00  0.00     0.005 A 
HETATM   27  C16 UNL     1      -4.043  -2.105  -0.596  1.00  0.00     0.005 A 
ENDBRANCH  10  25
TORSDOF 5
