REMARK  10 active torsions:
REMARK  status: ('A' for Active; 'I' for Inactive)
REMARK    1  A    between atoms: C2_2  and  C3_3 
REMARK    2  A    between atoms: C3_3  and  C4_4 
REMARK    3  A    between atoms: C4_4  and  C5_5 
REMARK    4  A    between atoms: C6_6  and  C8_8 
REMARK    5  A    between atoms: C9_9  and  C10_10 
REMARK    6  A    between atoms: C11_11  and  C12_12 
REMARK    7  A    between atoms: C13_13  and  C14_14 
REMARK    8  A    between atoms: C19_20  and  C20_21 
REMARK    9  A    between atoms: C20_21  and  C21_22 
REMARK   10  A    between atoms: C22_24  and  O3_25 
ROOT
HETATM    1  C3  UNL     1      -1.658   0.059   1.081  1.00  0.00    -0.009 C 
HETATM    2  C16 UNL     1      -1.923   1.473   1.698  1.00  0.00     0.093 C 
HETATM    3  C17 UNL     1      -3.212   1.373   2.266  1.00  0.00    -0.182 C 
HETATM    4  C18 UNL     1      -4.486   1.248   2.814  1.00  0.00     0.087 C 
HETATM    5  C19 UNL     1      -4.787  -0.322   2.745  1.00  0.00     0.031 C 
HETATM    6  C22 UNL     1      -4.050  -0.918   1.619  1.00  0.00     0.127 C 
HETATM    7  C24 UNL     1      -2.584  -0.995   1.598  1.00  0.00     0.047 C 
ENDROOT
BRANCH   1   8
HETATM    8  C2  UNL     1      -1.598   0.174  -0.368  1.00  0.00    -0.026 C 
HETATM    9  C1  UNL     1      -1.067   1.130  -1.101  1.00  0.00     0.008 C 
ENDBRANCH   1   8
BRANCH   1  10
HETATM   10  C4  UNL     1      -0.262  -0.389   1.565  1.00  0.00     0.042 C 
BRANCH  10  11
HETATM   11  C5  UNL     1       0.774   0.545   1.205  1.00  0.00    -0.019 C 
HETATM   12  C6  UNL     1       1.801   0.233   0.408  1.00  0.00    -0.066 C 
HETATM   13  C7  UNL     1       1.947  -1.119  -0.174  1.00  0.00     0.048 C 
BRANCH  12  14
HETATM   14  C8  UNL     1       2.768   1.270   0.133  1.00  0.00     0.006 C 
HETATM   15  C9  UNL     1       3.848   1.342  -0.551  1.00  0.00     0.001 C 
BRANCH  15  16
HETATM   16  C10 UNL     1       4.513   0.345  -1.331  1.00  0.00     0.000 C 
HETATM   17  C11 UNL     1       5.670   0.669  -1.983  1.00  0.00     0.000 C 
BRANCH  17  18
HETATM   18  C12 UNL     1       6.363  -0.319  -2.778  1.00  0.00     0.004 C 
HETATM   19  C13 UNL     1       7.463  -0.099  -3.427  1.00  0.00     0.049 C 
BRANCH  19  20
HETATM   20  C14 UNL     1       8.257   1.086  -3.544  1.00  0.00     0.145 C 
HETATM   21  C15 UNL     1       9.514   1.078  -4.375  1.00  0.00     0.096 C 
HETATM   22  O1  UNL     1       7.985   2.158  -2.997  1.00  0.00    -0.294 OA
ENDBRANCH  19  20
ENDBRANCH  17  18
ENDBRANCH  15  16
ENDBRANCH  12  14
ENDBRANCH  10  11
ENDBRANCH   1  10
BRANCH   6  23
HETATM   23  O3  UNL     1      -4.489  -2.231   1.480  1.00  0.00    -0.390 OA
HETATM   24  C23 UNL     1      -4.966  -2.519   0.194  1.00  0.00     0.202 C 
ENDBRANCH   6  23
BRANCH   5  25
HETATM   25  C20 UNL     1      -6.263  -0.414   2.635  1.00  0.00     0.077 C 
BRANCH  25  26
HETATM   26  C21 UNL     1      -6.869  -1.741   2.635  1.00  0.00     0.231 C 
HETATM   27  O2  UNL     1      -8.040  -1.860   2.253  1.00  0.00    -0.307 OA
ENDBRANCH  25  26
ENDBRANCH   5  25
TORSDOF 10
