REMARK  11 active torsions:
REMARK  status: ('A' for Active; 'I' for Inactive)
REMARK    1  A    between atoms: C2_2  and  C3_3 
REMARK    2  A    between atoms: C3_3  and  C4_4 
REMARK    3  A    between atoms: C7_8  and  C9_10 
REMARK    4  A    between atoms: C9_10  and  C10_11 
REMARK    5  A    between atoms: C10_11  and  C11_12 
REMARK    6  A    between atoms: C11_12  and  C12_13 
REMARK    7  A    between atoms: C11_12  and  N1_17 
REMARK    8  A    between atoms: C12_13  and  O3_15 
REMARK    9  A    between atoms: N1_17  and  C15_19 
REMARK   10  A    between atoms: C15_19  and  C16_20 
REMARK   11  A    between atoms: C16_20  and  C17_21 
ROOT
HETATM    1  C4  UNL     1      -3.849  -0.784   0.353  1.00  0.00    -0.000 C 
HETATM    2  C5  UNL     1      -3.550  -0.589  -1.112  1.00  0.00     0.084 C 
HETATM    3  C6  UNL     1      -2.390   0.296  -1.243  1.00  0.00     0.139 C 
HETATM    4  O1  UNL     1      -2.418   1.210  -2.038  1.00  0.00    -0.297 OA
HETATM    5  C7  UNL     1      -1.107   0.153  -0.433  1.00  0.00     0.038 C 
HETATM    6  C8  UNL     1      -0.507   1.529  -0.395  1.00  0.00     0.028 C 
HETATM    7  C19 UNL     1      -1.498  -0.268   0.955  1.00  0.00     0.005 C 
HETATM    8  C20 UNL     1      -1.281  -1.680   1.333  1.00  0.00     0.012 C 
HETATM    9  C21 UNL     1      -2.989   0.028   1.246  1.00  0.00    -0.009 C 
HETATM   10  C22 UNL     1      -3.276   1.471   1.376  1.00  0.00     0.011 C 
ENDROOT
BRANCH   5  11
HETATM   11  C9  UNL     1      -0.287  -0.801  -1.201  1.00  0.00    -0.011 C 
BRANCH  11  12
HETATM   12  C10 UNL     1       1.052  -1.206  -0.779  1.00  0.00     0.016 C 
BRANCH  12  13
HETATM   13  C11 UNL     1       2.193  -0.282  -0.762  1.00  0.00     0.343 C 
BRANCH  13  14
HETATM   14  C12 UNL     1       2.622   0.251  -2.067  1.00  0.00     0.296 C 
HETATM   15  O2  UNL     1       1.909   0.734  -2.947  1.00  0.00    -0.262 OA
BRANCH  14  16
HETATM   16  O3  UNL     1       4.001   0.220  -2.381  1.00  0.00    -0.325 OA
HETATM   17  C13 UNL     1       4.493   0.712  -3.614  1.00  0.00     0.213 C 
ENDBRANCH  14  16
ENDBRANCH  13  14
BRANCH  13  18
HETATM   18  N1  UNL     1       3.323  -0.864  -0.037  1.00  0.00     0.102 N 
HETATM   19  C14 UNL     1       3.814  -2.056  -0.652  1.00  0.00     0.311 C 
BRANCH  18  20
HETATM   20  C15 UNL     1       3.166  -1.011   1.348  1.00  0.00     0.273 C 
BRANCH  20  21
HETATM   21  C16 UNL     1       3.135   0.205   2.206  1.00  0.00     0.030 C 
BRANCH  21  22
HETATM   22  C17 UNL     1       4.419   0.952   2.212  1.00  0.00    -0.003 C 
HETATM   23  C18 UNL     1       4.819   1.479   0.890  1.00  0.00     0.005 C 
ENDBRANCH  21  22
ENDBRANCH  20  21
ENDBRANCH  18  20
ENDBRANCH  13  18
ENDBRANCH  12  13
ENDBRANCH  11  12
ENDBRANCH   5  11
BRANCH   1  24
HETATM   24  C3  UNL     1      -5.285  -0.798   0.709  1.00  0.00     0.031 C 
BRANCH  24  25
HETATM   25  C2  UNL     1      -6.077   0.390   0.382  1.00  0.00    -0.037 C 
HETATM   26  C1  UNL     1      -7.100   0.302  -0.444  1.00  0.00     0.007 C 
ENDBRANCH  24  25
ENDBRANCH   1  24
TORSDOF 11
