REMARK  11 active torsions:
REMARK  status: ('A' for Active; 'I' for Inactive)
REMARK    1  A    between atoms: C2_2  and  C3_3 
REMARK    2  A    between atoms: C4_4  and  C5_5 
REMARK    3  A    between atoms: C5_5  and  C6_6 
REMARK    4  A    between atoms: C6_6  and  C7_7 
REMARK    5  A    between atoms: C8_8  and  C9_9 
REMARK    6  A    between atoms: C13_14  and  O2_15 
REMARK    7  A    between atoms: O2_15  and  C14_16 
REMARK    8  A    between atoms: C14_16  and  C15_17 
REMARK    9  A    between atoms: C15_17  and  C16_18 
REMARK   10  A    between atoms: C16_18  and  C17_19 
REMARK   11  A    between atoms: C17_19  and  C18_20 
ROOT
HETATM    1  C9  UNL     1       0.299  -1.449  -0.636  1.00  0.00     0.174 C 
HETATM    2  O1  UNL     1       0.061  -2.756  -1.120  1.00  0.00    -0.371 OA
HETATM    3  C10 UNL     1      -0.393  -3.491  -0.024  1.00  0.00     0.165 C 
HETATM    4  C11 UNL     1       0.825  -3.683   0.863  1.00  0.00     0.164 C 
HETATM    5  C12 UNL     1       1.083  -2.351   1.513  1.00  0.00     0.070 C 
HETATM    6  C13 UNL     1       1.431  -1.419   0.342  1.00  0.00     0.156 C 
HETATM    7  O3  UNL     1       0.406  -4.705   1.701  1.00  0.00    -0.313 OA
HETATM    8  C20 UNL     1      -0.177  -5.648   0.824  1.00  0.00     0.265 C 
HETATM    9  O4  UNL     1      -0.209  -6.907   0.973  1.00  0.00    -0.265 OA
HETATM   10  C21 UNL     1      -0.761  -4.906  -0.330  1.00  0.00     0.113 C 
HETATM   11  C22 UNL     1      -2.258  -5.117  -0.414  1.00  0.00     0.023 C 
ENDROOT
BRANCH   1  12
HETATM   12  C8  UNL     1      -0.924  -0.837  -0.113  1.00  0.00     0.015 C 
HETATM   13  C7  UNL     1      -1.828  -0.182  -0.907  1.00  0.00     0.054 C 
BRANCH  13  14
HETATM   14  C6  UNL     1      -2.961   0.376  -0.389  1.00  0.00    -0.128 C 
BRANCH  14  15
HETATM   15  C5  UNL     1      -4.000   0.888   0.085  1.00  0.00     0.055 C 
BRANCH  15  16
HETATM   16  C4  UNL     1      -5.080   1.618  -0.556  1.00  0.00     0.004 C 
HETATM   17  C3  UNL     1      -6.122   2.109   0.076  1.00  0.00    -0.026 C 
BRANCH  17  18
HETATM   18  C2  UNL     1      -7.196   2.841  -0.597  1.00  0.00     0.022 C 
HETATM   19  C1  UNL     1      -7.305   4.225  -0.045  1.00  0.00     0.009 C 
ENDBRANCH  17  18
ENDBRANCH  15  16
ENDBRANCH  14  15
ENDBRANCH  13  14
ENDBRANCH   1  12
BRANCH   6  20
HETATM   20  O2  UNL     1       1.676  -0.135   0.732  1.00  0.00    -0.383 OA
BRANCH  20  21
HETATM   21  C14 UNL     1       2.971   0.294   0.463  1.00  0.00     0.168 C 
BRANCH  21  22
HETATM   22  C15 UNL     1       3.182   1.723   0.916  1.00  0.00     0.026 C 
BRANCH  22  23
HETATM   23  C16 UNL     1       4.587   2.190   0.648  1.00  0.00     0.002 C 
BRANCH  23  24
HETATM   24  C17 UNL     1       4.998   2.167  -0.783  1.00  0.00    -0.000 C 
BRANCH  24  25
HETATM   25  C18 UNL     1       6.426   2.638  -0.885  1.00  0.00    -0.005 C 
HETATM   26  C19 UNL     1       6.668   4.019  -0.379  1.00  0.00     0.005 C 
ENDBRANCH  24  25
ENDBRANCH  23  24
ENDBRANCH  22  23
ENDBRANCH  21  22
ENDBRANCH  20  21
ENDBRANCH   6  20
TORSDOF 11
