REMARK  11 active torsions:
REMARK  status: ('A' for Active; 'I' for Inactive)
REMARK    1  A    between atoms: C5_6  and  C6_7 
REMARK    2  A    between atoms: C6_7  and  N1_8 
REMARK    3  A    between atoms: N1_8  and  C9_11 
REMARK    4  A    between atoms: C9_11  and  C10_12 
REMARK    5  A    between atoms: C10_12  and  C11_13 
REMARK    6  A    between atoms: C11_13  and  C12_14 
REMARK    7  A    between atoms: C12_14  and  C13_15 
REMARK    8  A    between atoms: C13_15  and  C14_16 
REMARK    9  A    between atoms: C14_16  and  C15_17 
REMARK   10  A    between atoms: C15_17  and  O1_18 
REMARK   11  A    between atoms: O1_18  and  C16_19 
REMARK       I    between atoms: C16_19  and  N2_21 
ROOT
HETATM    1  C9  UNL     1      -1.187   0.010   0.010  1.00  0.00     0.242 C 
ENDROOT
BRANCH   1   2
HETATM    2  N1  UNL     1      -2.560  -0.702   0.114  1.00  0.00    -0.054 N 
HETATM    3  C7  UNL     1      -2.633  -1.184   1.481  1.00  0.00     0.277 C 
HETATM    4  C8  UNL     1      -2.456  -1.835  -0.734  1.00  0.00     0.277 C 
BRANCH   2   5
HETATM    5  C6  UNL     1      -3.391   0.360  -0.127  1.00  0.00     0.214 C 
BRANCH   5   6
HETATM    6  C5  UNL     1      -4.761   0.651   0.341  1.00  0.00     0.007 A 
HETATM    7  C3  UNL     1      -4.922   2.013   0.834  1.00  0.00    -0.009 A 
HETATM    8  S1  UNL     1      -6.539   2.270   0.966  1.00  0.00    -0.099 SA
HETATM    9  C4  UNL     1      -3.707   2.800   1.266  1.00  0.00     0.057 C 
HETATM   10  C2  UNL     1      -7.107   0.718   0.467  1.00  0.00    -0.014 A 
HETATM   11  C1  UNL     1      -8.532   0.309   0.354  1.00  0.00     0.057 C 
HETATM   12  C19 UNL     1      -5.931   0.019   0.173  1.00  0.00    -0.037 A 
HETATM   13  C20 UNL     1      -6.076  -1.394  -0.342  1.00  0.00     0.050 C 
ENDBRANCH   5   6
ENDBRANCH   2   5
ENDBRANCH   1   2
BRANCH   1  14
HETATM   14  C10 UNL     1      -0.139  -0.771  -0.672  1.00  0.00     0.028 C 
BRANCH  14  15
HETATM   15  C11 UNL     1       0.899  -1.425   0.231  1.00  0.00     0.002 C 
BRANCH  15  16
HETATM   16  C12 UNL     1       1.904  -0.345   0.691  1.00  0.00     0.000 C 
BRANCH  16  17
HETATM   17  C13 UNL     1       2.811   0.052  -0.505  1.00  0.00     0.002 C 
BRANCH  17  18
HETATM   18  C14 UNL     1       3.818  -1.059  -0.732  1.00  0.00     0.027 C 
BRANCH  18  19
HETATM   19  C15 UNL     1       4.897  -1.186   0.267  1.00  0.00     0.180 C 
BRANCH  19  20
HETATM   20  O1  UNL     1       6.116  -0.581   0.080  1.00  0.00    -0.304 OA
BRANCH  20  21
HETATM   21  C16 UNL     1       6.590   0.685  -0.005  1.00  0.00     0.362 C 
HETATM   22  O2  UNL     1       5.772   1.614   0.097  1.00  0.00    -0.238 OA
HETATM   23  N2  UNL     1       7.982   1.036  -0.229  1.00  0.00    -0.337 N 
HETATM   24  C17 UNL     1       8.201   2.508  -0.177  1.00  0.00     0.154 C 
HETATM   25  C18 UNL     1       9.101   0.233  -0.480  1.00  0.00     0.154 C 
ENDBRANCH  20  21
ENDBRANCH  19  20
ENDBRANCH  18  19
ENDBRANCH  17  18
ENDBRANCH  16  17
ENDBRANCH  15  16
ENDBRANCH  14  15
ENDBRANCH   1  14
TORSDOF 11
