REMARK  11 active torsions:
REMARK  status: ('A' for Active; 'I' for Inactive)
REMARK    1  A    between atoms: C3_3  and  C4_4 
REMARK    2  A    between atoms: C6_6  and  N1_7 
REMARK    3  A    between atoms: C12_14  and  C13_15 
REMARK    4  A    between atoms: C14_16  and  C15_17 
REMARK    5  A    between atoms: C15_17  and  C16_18 
REMARK    6  A    between atoms: C16_18  and  C17_19 
REMARK    7  A    between atoms: C17_19  and  C18_20 
REMARK    8  A    between atoms: C18_20  and  O2_21 
REMARK    9  A    between atoms: O2_21  and  C19_22 
REMARK   10  A    between atoms: C19_22  and  C20_24 
REMARK   11  A    between atoms: C20_24  and  C21_25 
ROOT
HETATM    1  C4  UNL     1      -2.462   0.120  -1.331  1.00  0.00     0.073 C 
HETATM    2  C5  UNL     1      -3.359   0.183  -0.099  1.00  0.00    -0.018 C 
HETATM    3  C6  UNL     1      -4.203   1.178   0.110  1.00  0.00     0.207 C 
HETATM    4  C10 UNL     1      -3.013  -1.029   0.643  1.00  0.00     0.149 C 
HETATM    5  C11 UNL     1      -4.071  -2.101   0.641  1.00  0.00     0.044 C 
HETATM    6  O1  UNL     1      -1.868  -1.597   0.087  1.00  0.00    -0.372 OA
HETATM    7  C12 UNL     1      -1.279  -0.626  -0.736  1.00  0.00     0.156 C 
ENDROOT
BRANCH   7   8
HETATM    8  C13 UNL     1      -0.419   0.283   0.031  1.00  0.00     0.002 C 
HETATM    9  C14 UNL     1       0.792   0.628  -0.326  1.00  0.00    -0.028 C 
BRANCH   9  10
HETATM   10  C15 UNL     1       1.560   0.232  -1.498  1.00  0.00     0.027 C 
BRANCH  10  11
HETATM   11  C16 UNL     1       2.815  -0.512  -1.353  1.00  0.00     0.006 C 
BRANCH  11  12
HETATM   12  C17 UNL     1       4.006   0.025  -0.687  1.00  0.00     0.027 C 
BRANCH  12  13
HETATM   13  C18 UNL     1       3.950   0.400   0.750  1.00  0.00     0.178 C 
BRANCH  13  14
HETATM   14  O2  UNL     1       5.217   0.838   1.235  1.00  0.00    -0.321 OA
BRANCH  14  15
HETATM   15  C19 UNL     1       6.332   0.066   1.290  1.00  0.00     0.258 C 
HETATM   16  O3  UNL     1       6.339  -1.119   0.920  1.00  0.00    -0.265 OA
BRANCH  15  17
HETATM   17  C20 UNL     1       7.633   0.631   1.810  1.00  0.00     0.111 C 
BRANCH  17  18
HETATM   18  C21 UNL     1       8.742   0.479   0.780  1.00  0.00     0.005 C 
HETATM   19  C22 UNL     1       8.993  -0.968   0.428  1.00  0.00     0.005 C 
ENDBRANCH  17  18
ENDBRANCH  15  17
ENDBRANCH  14  15
ENDBRANCH  13  14
ENDBRANCH  12  13
ENDBRANCH  11  12
ENDBRANCH  10  11
ENDBRANCH   9  10
ENDBRANCH   7   8
BRANCH   1  20
HETATM   20  C3  UNL     1      -3.200  -0.708  -2.306  1.00  0.00    -0.019 C 
HETATM   21  C2  UNL     1      -2.856  -1.948  -2.609  1.00  0.00    -0.034 C 
HETATM   22  C1  UNL     1      -3.659  -2.737  -3.616  1.00  0.00     0.036 C 
ENDBRANCH   1  20
BRANCH   3  23
HETATM   23  N1  UNL     1      -5.063   1.306   1.225  1.00  0.00    -0.058 N 
HETATM   24  C7  UNL     1      -5.514   2.708   1.270  1.00  0.00     0.277 C 
HETATM   25  C8  UNL     1      -4.427   1.061   2.500  1.00  0.00     0.277 C 
HETATM   26  C9  UNL     1      -6.241   0.507   1.063  1.00  0.00     0.277 C 
ENDBRANCH   3  23
TORSDOF 11
