REMARK  12 active torsions:
REMARK  status: ('A' for Active; 'I' for Inactive)
REMARK    1  A    between atoms: C2_2  and  C4_4 
REMARK    2  A    between atoms: C4_4  and  O1_5 
REMARK    3  A    between atoms: C4_4  and  C5_7 
REMARK    4  A    between atoms: C5_7  and  C6_8 
REMARK    5  A    between atoms: C6_8  and  C8_10 
REMARK    6  A    between atoms: C8_10  and  C9_11 
REMARK       I    between atoms: C9_11  and  N1_13 
REMARK    7  A    between atoms: C14_18  and  C15_19 
REMARK    8  A    between atoms: C15_19  and  C16_20 
REMARK    9  A    between atoms: C18_22  and  C19_23 
REMARK   10  A    between atoms: C19_23  and  C20_24 
REMARK   11  A    between atoms: C20_24  and  C21_25 
REMARK   12  A    between atoms: C21_25  and  C22_26 
ROOT
HETATM    1  C9  UNL     1       1.879   0.590  -0.807  1.00  0.00     0.220 C 
HETATM    2  O2  UNL     1       2.846   1.391  -1.119  1.00  0.00    -0.273 OA
HETATM    3  N1  UNL     1       0.761   0.592  -1.668  1.00  0.00    -0.343 N 
HETATM    4  C10 UNL     1       0.659   1.451  -2.858  1.00  0.00     0.083 C 
HETATM    5  C11 UNL     1       1.962   1.640  -3.575  1.00  0.00     0.032 C 
HETATM    6  C12 UNL     1      -0.292   0.612  -3.725  1.00  0.00     0.027 C 
HETATM    7  C13 UNL     1      -1.339   0.273  -2.697  1.00  0.00     0.028 C 
HETATM    8  C14 UNL     1      -0.418  -0.216  -1.561  1.00  0.00     0.091 C 
ENDROOT
BRANCH   1   9
HETATM    9  C8  UNL     1       2.065  -0.222   0.399  1.00  0.00     0.107 C 
BRANCH   9  10
HETATM   10  C6  UNL     1       3.522  -0.090   0.920  1.00  0.00    -0.004 C 
HETATM   11  C7  UNL     1       4.426  -0.645  -0.164  1.00  0.00     0.011 C 
BRANCH  10  12
HETATM   12  C5  UNL     1       3.656  -0.933   2.145  1.00  0.00     0.069 C 
BRANCH  12  13
HETATM   13  C4  UNL     1       4.965  -1.043   2.750  1.00  0.00     0.048 C 
BRANCH  13  14
HETATM   14  C2  UNL     1       6.179  -0.302   2.702  1.00  0.00    -0.042 C 
HETATM   15  C1  UNL     1       7.205  -0.783   3.442  1.00  0.00     0.021 C 
HETATM   16  C3  UNL     1       6.487   0.942   1.969  1.00  0.00     0.050 C 
ENDBRANCH  13  14
BRANCH  13  17
HETATM   17  O1  UNL     1       5.045  -2.103   3.550  1.00  0.00    -0.364 OA
ATOM     18  H1  UNL     1       4.235  -2.598   3.582  1.00  0.00     0.217 HD
ENDBRANCH  13  17
ENDBRANCH  12  13
ENDBRANCH  10  12
ENDBRANCH   9  10
ENDBRANCH   1   9
BRANCH   8  19
HETATM   19  C15 UNL     1      -1.149  -0.190  -0.263  1.00  0.00     0.058 C 
BRANCH  19  20
HETATM   20  C16 UNL     1      -2.377  -1.063  -0.313  1.00  0.00    -0.086 C 
HETATM   21  C17 UNL     1      -2.259  -2.512  -0.582  1.00  0.00     0.043 C 
HETATM   22  C18 UNL     1      -3.553  -0.513  -0.110  1.00  0.00    -0.024 C 
BRANCH  22  23
HETATM   23  C19 UNL     1      -4.816  -1.322  -0.146  1.00  0.00     0.028 C 
BRANCH  23  24
HETATM   24  C20 UNL     1      -5.548  -1.271   1.149  1.00  0.00     0.011 C 
BRANCH  24  25
HETATM   25  C21 UNL     1      -5.958   0.102   1.592  1.00  0.00     0.078 C 
BRANCH  25  26
HETATM   26  C22 UNL     1      -6.885   0.771   0.667  1.00  0.00     0.123 C 
HETATM   27  C23 UNL     1      -7.264   2.185   1.022  1.00  0.00     0.091 C 
HETATM   28  O3  UNL     1      -7.365   0.297  -0.341  1.00  0.00    -0.298 OA
ENDBRANCH  25  26
ENDBRANCH  24  25
ENDBRANCH  23  24
ENDBRANCH  22  23
ENDBRANCH  19  20
ENDBRANCH   8  19
TORSDOF 12
