REMARK  3 active torsions:
REMARK  status: ('A' for Active; 'I' for Inactive)
REMARK    1  A    between atoms: N1_2  and  N2_4 
REMARK    2  A    between atoms: N2_4  and  C2_6 
REMARK    3  A    between atoms: C4_11  and  N5_12 
ROOT
HETATM    1  C2  UNL     1       0.711  -0.045  -0.773  1.00  0.00     0.700 A 
HETATM    2  N3  UNL     1       0.054   0.495   0.267  1.00  0.00    -0.175 N 
ATOM      3  H3  UNL     1       0.561   1.094   0.918  1.00  0.00     0.185 HD
HETATM    4  C3  UNL     1      -1.264   0.264   0.472  1.00  0.00     0.170 A 
HETATM    5  N4  UNL     1      -1.958   0.838   1.577  1.00  0.00    -0.079 NA
HETATM    6  C4  UNL     1      -2.004  -0.538  -0.376  1.00  0.00     0.212 A 
HETATM    7  C5  UNL     1      -1.321  -1.088  -1.442  1.00  0.00     0.296 A 
HETATM    8  O3  UNL     1      -1.978  -1.824  -2.230  1.00  0.00    -0.265 OA
HETATM    9  N6  UNL     1      -0.017  -0.832  -1.606  1.00  0.00    -0.152 N 
ATOM     10  H6  UNL     1       0.458  -1.253  -2.404  1.00  0.00     0.187 HD
ENDROOT
BRANCH   1  11
HETATM   11  N2  UNL     1       1.941   0.124  -1.026  1.00  0.00    -0.137 N 
ATOM     12  H2  UNL     1       2.278  -0.362  -1.857  1.00  0.00     0.205 HD
BRANCH  11  13
HETATM   13  N1  UNL     1       2.882   0.848  -0.369  1.00  0.00    -0.327 N 
HETATM   14  C1  UNL     1       3.563   0.259   0.752  1.00  0.00     0.168 C 
ATOM     15  H1  UNL     1       3.103   1.798  -0.667  1.00  0.00     0.180 HD
ENDBRANCH  11  13
ENDBRANCH   1  11
BRANCH   6  16
HETATM   16  N5  UNL     1      -3.380  -0.762  -0.136  1.00  0.00    -0.106 N 
HETATM   17  O1  UNL     1      -4.168   0.166  -0.372  1.00  0.00    -0.531 OA
HETATM   18  O2  UNL     1      -3.903  -1.933   0.338  1.00  0.00    -0.531 OA
ENDBRANCH   6  16
TORSDOF 3
