REMARK  3 active torsions:
REMARK  status: ('A' for Active; 'I' for Inactive)
REMARK    1  A    between atoms: C3_5  and  N2_6 
REMARK    2  A    between atoms: N2_6  and  N3_8 
REMARK       I    between atoms: N3_8  and  C4_10 
REMARK    3  A    between atoms: C5_17  and  O1_18 
ROOT
HETATM    1  N1  UNL     1       5.088   2.081   0.071  1.00  0.00    -0.191 NA
HETATM    2  C1  UNL     1       4.143   1.417   0.100  1.00  0.00     0.111 C 
HETATM    3  C2  UNL     1       2.935   0.599   0.138  1.00  0.00     0.139 A 
HETATM    4  S1  UNL     1       1.302   1.073   0.267  1.00  0.00    -0.037 SA
HETATM    5  C3  UNL     1       0.586  -0.477   0.238  1.00  0.00     0.166 A 
HETATM    6  N6  UNL     1       1.640  -1.290   0.130  1.00  0.00    -0.315 N 
ATOM      7  H6  UNL     1       1.517  -2.302   0.089  1.00  0.00     0.170 HD
HETATM    8  C5  UNL     1       2.832  -0.760   0.078  1.00  0.00     0.170 A 
ENDROOT
BRANCH   8   9
HETATM    9  O1  UNL     1       4.015  -1.546  -0.037  1.00  0.00    -0.344 OA
ATOM     10  H1  UNL     1       3.943  -2.492  -0.079  1.00  0.00     0.219 HD
ENDBRANCH   8   9
BRANCH   5  11
HETATM   11  N2  UNL     1      -0.686  -0.816   0.304  1.00  0.00    -0.277 N 
ATOM     12  H2  UNL     1      -0.994  -1.788   0.277  1.00  0.00     0.189 HD
BRANCH  11  13
HETATM   13  N3  UNL     1      -1.590   0.257   0.415  1.00  0.00    -0.272 N 
HETATM   14  C4  UNL     1      -2.926   0.187  -0.022  1.00  0.00     0.200 C 
HETATM   15  N4  UNL     1      -3.876   0.377   0.807  1.00  0.00    -0.372 N 
HETATM   16  N5  UNL     1      -3.205  -0.094  -1.372  1.00  0.00    -0.062 NA
ATOM     17  H42 UNL     1      -3.674   0.581   1.786  1.00  0.00     0.158 HD
ATOM     18  H41 UNL     1      -4.844   0.326   0.490  1.00  0.00     0.158 HD
ATOM     19  H3  UNL     1      -1.261   1.128   0.832  1.00  0.00     0.189 HD
ENDBRANCH  11  13
ENDBRANCH   5  11
TORSDOF 3
