REMARK  4 active torsions:
REMARK  status: ('A' for Active; 'I' for Inactive)
REMARK    1  A    between atoms: N1_2  and  C2_4 
REMARK    2  A    between atoms: C3_7  and  N3_8 
REMARK    3  A    between atoms: N3_8  and  N4_10 
REMARK    4  A    between atoms: C5_17  and  N7_18 
ROOT
HETATM    1  C2  UNL     1      -0.708  -0.103   0.355  1.00  0.00     0.153 A 
HETATM    2  N2  UNL     1       0.311  -0.916   0.025  1.00  0.00    -0.173 N 
ATOM      3  H2  UNL     1       0.259  -1.912   0.240  1.00  0.00     0.186 HD
HETATM    4  C3  UNL     1       1.398  -0.418  -0.588  1.00  0.00     0.699 A 
HETATM    5  N5  UNL     1       1.434   0.891  -0.855  1.00  0.00    -0.175 N 
ATOM      6  H5  UNL     1       2.261   1.264  -1.321  1.00  0.00     0.185 HD
HETATM    7  C4  UNL     1       0.445   1.742  -0.546  1.00  0.00     0.168 A 
HETATM    8  N6  UNL     1       0.509   3.134  -0.843  1.00  0.00    -0.079 NA
HETATM    9  C5  UNL     1      -0.689   1.271   0.084  1.00  0.00     0.188 A 
ENDROOT
BRANCH   4  10
HETATM   10  N3  UNL     1       2.383  -1.216  -0.906  1.00  0.00    -0.138 N 
ATOM     11  H3  UNL     1       3.212  -0.847  -1.372  1.00  0.00     0.205 HD
BRANCH  10  12
HETATM   12  N4  UNL     1       2.294  -2.573  -0.604  1.00  0.00    -0.331 N 
ATOM     13  H42 UNL     1       1.458  -2.926  -0.137  1.00  0.00     0.177 HD
ATOM     14  H41 UNL     1       3.063  -3.196  -0.852  1.00  0.00     0.177 HD
ENDBRANCH  10  12
ENDBRANCH   4  10
BRANCH   1  15
HETATM   15  N1  UNL     1      -1.781  -0.526   0.947  1.00  0.00    -0.378 N 
HETATM   16  C1  UNL     1      -1.849  -1.959   1.253  1.00  0.00     0.147 C 
ATOM     17  H1  UNL     1      -2.542   0.108   1.189  1.00  0.00     0.160 HD
ENDBRANCH   1  15
BRANCH   9  18
HETATM   18  N7  UNL     1      -1.774   2.109   0.441  1.00  0.00    -0.108 N 
HETATM   19  O1  UNL     1      -2.788   1.684   1.005  1.00  0.00    -0.532 OA
HETATM   20  O2  UNL     1      -1.694   3.440   0.148  1.00  0.00    -0.532 OA
ENDBRANCH   9  18
TORSDOF 4
