REMARK  2 active torsions:
REMARK  status: ('A' for Active; 'I' for Inactive)
REMARK    1  A    between atoms: N1_1  and  C1_4 
REMARK    2  A    between atoms: C5_15  and  N5_16 
ROOT
HETATM    1  C1  UNL     1       0.733   1.183   0.169  1.00  0.00     0.138 C 
HETATM    2  N2  UNL     1       1.895   0.495   0.321  1.00  0.00    -0.293 N 
ATOM      3  H2  UNL     1       2.703   1.024   0.650  1.00  0.00     0.172 HD
HETATM    4  C2  UNL     1       2.086  -0.814   0.081  1.00  0.00     0.328 C 
HETATM    5  O1  UNL     1       3.204  -1.291   0.398  1.00  0.00    -0.247 OA
HETATM    6  N3  UNL     1       1.243  -1.708  -0.460  1.00  0.00    -0.274 N 
ATOM      7  H3  UNL     1       1.686  -2.544  -0.841  1.00  0.00     0.173 HD
HETATM    8  C3  UNL     1      -0.118  -1.668  -0.578  1.00  0.00     0.276 C 
HETATM    9  O2  UNL     1      -0.703  -2.621  -1.107  1.00  0.00    -0.266 OA
HETATM   10  C4  UNL     1      -0.947  -0.636  -0.153  1.00  0.00     0.151 C 
HETATM   11  N4  UNL     1      -2.309  -0.967   0.044  1.00  0.00    -0.094 NA
HETATM   12  C5  UNL     1      -0.571   0.680   0.097  1.00  0.00     0.176 C 
ENDROOT
BRANCH   1  13
HETATM   13  N1  UNL     1       0.829   2.463   0.077  1.00  0.00    -0.383 N 
ATOM     14  H12 UNL     1       1.779   2.830   0.129  1.00  0.00     0.157 HD
ATOM     15  H11 UNL     1      -0.043   2.979  -0.037  1.00  0.00     0.157 HD
ENDBRANCH   1  13
BRANCH  12  16
HETATM   16  N5  UNL     1      -1.614   1.600   0.299  1.00  0.00    -0.110 N 
HETATM   17  O3  UNL     1      -1.896   2.071   1.420  1.00  0.00    -0.532 OA
HETATM   18  O4  UNL     1      -2.370   2.014  -0.772  1.00  0.00    -0.532 OA
ENDBRANCH  12  16
TORSDOF 2
