REMARK  2 active torsions:
REMARK  status: ('A' for Active; 'I' for Inactive)
REMARK    1  A    between atoms: C2_2  and  N1_3 
REMARK    2  A    between atoms: N1_3  and  N2_5 
ROOT
HETATM    1  N2  UNL     1      -0.219  -0.730  -0.104  1.00  0.00    -0.288 N 
ATOM      2  H2  UNL     1       0.078  -1.667  -0.375  1.00  0.00     0.188 HD
HETATM    3  C3  UNL     1      -1.443  -0.444  -0.247  1.00  0.00     0.110 A 
HETATM    4  C4  UNL     1      -2.636   0.403  -0.186  1.00  0.00     0.198 A 
HETATM    5  N3  UNL     1      -2.759  -0.971  -0.695  1.00  0.00    -0.370 N 
ATOM      6  H3  UNL     1      -3.328  -1.728  -1.075  1.00  0.00     0.161 HD
ENDROOT
BRANCH   1   7
HETATM    7  N1  UNL     1       0.743   0.121   0.387  1.00  0.00    -0.311 N 
ATOM      8  H1  UNL     1       0.613   0.721   1.201  1.00  0.00     0.186 HD
BRANCH   7   9
HETATM    9  C2  UNL     1       1.944   0.064  -0.378  1.00  0.00     0.097 C 
HETATM   10  C1  UNL     1       3.111   0.202   0.237  1.00  0.00     0.031 C 
ENDBRANCH   7   9
ENDBRANCH   1   7
TORSDOF 2
