REMARK  2 active torsions:
REMARK  status: ('A' for Active; 'I' for Inactive)
REMARK    1  A    between atoms: C2_2  and  N1_3 
REMARK    2  A    between atoms: N1_3  and  N2_4 
ROOT
HETATM    1  N1  UNL     1       0.207   0.383  -0.280  1.00  0.00     0.011 N 
HETATM    2  C4  UNL     1      -0.389   1.472   0.458  1.00  0.00     0.294 A 
HETATM    3  C5  UNL     1       0.085   1.713  -0.947  1.00  0.00     0.294 A 
ENDROOT
BRANCH   1   4
HETATM    4  C2  UNL     1      -0.629  -0.651  -0.841  1.00  0.00     0.260 C 
HETATM    5  C1  UNL     1      -1.783  -1.034   0.024  1.00  0.00     0.037 C 
ENDBRANCH   1   4
BRANCH   1   6
HETATM    6  N2  UNL     1       1.523   0.047   0.009  1.00  0.00    -0.257 N 
HETATM    7  C3  UNL     1       1.699  -0.781   1.143  1.00  0.00     0.175 C 
ATOM      8  H2  UNL     1       2.307   0.374  -0.556  1.00  0.00     0.186 HD
ENDBRANCH   1   6
TORSDOF 2
