REMARK  2 active torsions:
REMARK  status: ('A' for Active; 'I' for Inactive)
REMARK    1  A    between atoms: N1_2  and  N2_4 
REMARK    2  A    between atoms: C2_6  and  N3_7 
ROOT
HETATM    1  N2  UNL     1       0.452  -0.748   0.763  1.00  0.00    -0.300 N 
ATOM      2  H2  UNL     1       0.795  -1.690   0.951  1.00  0.00     0.187 HD
HETATM    3  C2  UNL     1       1.268   0.162   0.347  1.00  0.00     0.212 C 
ENDROOT
BRANCH   3   4
HETATM    4  N3  UNL     1       2.650  -0.086   0.134  1.00  0.00    -0.301 N 
HETATM    5  N4  UNL     1       3.551   0.648   0.618  1.00  0.00    -0.344 N 
ATOM      6  H42 UNL     1       3.260   1.447   1.182  1.00  0.00     0.176 HD
ATOM      7  H41 UNL     1       4.544   0.470   0.465  1.00  0.00     0.176 HD
ATOM      8  H3  UNL     1       2.923  -0.889  -0.433  1.00  0.00     0.187 HD
ENDBRANCH   3   4
BRANCH   1   9
HETATM    9  N1  UNL     1      -0.896  -0.448   0.956  1.00  0.00    -0.340 N 
HETATM   10  C1  UNL     1      -1.665   0.285  -0.027  1.00  0.00     0.167 C 
ATOM     11  H1  UNL     1      -1.353  -0.754   1.815  1.00  0.00     0.179 HD
ENDBRANCH   1   9
TORSDOF 2
