REMARK  4 active torsions:
REMARK  status: ('A' for Active; 'I' for Inactive)
REMARK    1  A    between atoms: N1_2  and  C2_4 
REMARK    2  A    between atoms: C2_4  and  N2_5 
REMARK    3  A    between atoms: N2_5  and  C3_7 
REMARK    4  A    between atoms: C3_7  and  N3_8 
ROOT
HETATM    1  N2  UNL     1       1.606   0.557   0.112  1.00  0.00    -0.304 N 
ATOM      2  H2  UNL     1       1.750   1.564   0.035  1.00  0.00     0.177 HD
ENDROOT
BRANCH   1   3
HETATM    3  C2  UNL     1       0.335   0.038   0.567  1.00  0.00     0.184 C 
BRANCH   3   4
HETATM    4  N1  UNL     1      -0.611   0.151  -0.472  1.00  0.00    -0.390 N 
HETATM    5  C1  UNL     1      -1.926  -0.308  -0.219  1.00  0.00     0.147 C 
ATOM      6  H1  UNL     1      -0.357   0.550  -1.376  1.00  0.00     0.159 HD
ENDBRANCH   3   4
ENDBRANCH   1   3
BRANCH   1   7
HETATM    7  C3  UNL     1       2.534  -0.238  -0.189  1.00  0.00     0.045 C 
BRANCH   7   8
HETATM    8  N3  UNL     1       3.372  -1.130  -0.587  1.00  0.00    -0.352 N 
ATOM      9  H32 UNL     1       2.578  -1.513  -1.100  1.00  0.00     0.167 HD
ATOM     10  H31 UNL     1       4.124  -1.774  -0.831  1.00  0.00     0.167 HD
ENDBRANCH   7   8
ENDBRANCH   1   7
TORSDOF 4
