REMARK  20 active torsions:
REMARK  status: ('A' for Active; 'I' for Inactive)
REMARK    1  A    between atoms: N1_2  and  O1_3 
REMARK    2  A    between atoms: N1_2  and  C2_5 
REMARK    3  A    between atoms: C2_5  and  C3_6 
REMARK    4  A    between atoms: C3_6  and  N2_7 
REMARK    5  A    between atoms: C3_6  and  C4_11 
REMARK    6  A    between atoms: C4_11  and  C5_12 
REMARK    7  A    between atoms: C5_12  and  C6_13 
REMARK    8  A    between atoms: C9_16  and  C10_17 
REMARK    9  A    between atoms: C10_17  and  C11_18 
REMARK   10  A    between atoms: C11_18  and  N3_19 
REMARK   11  A    between atoms: N3_19  and  C12_21 
REMARK   12  A    between atoms: C13_24  and  N5_25 
REMARK   13  A    between atoms: N5_25  and  C14_27 
REMARK   14  A    between atoms: C14_27  and  C15_28 
REMARK   15  A    between atoms: C15_28  and  O2_29 
REMARK   16  A    between atoms: C16_33  and  N7_34 
REMARK   17  A    between atoms: N7_34  and  C17_36 
REMARK   18  A    between atoms: C20_39  and  C21_40 
REMARK   19  A    between atoms: C21_40  and  C22_41 
REMARK   20  A    between atoms: C22_41  and  C23_42 
ROOT
HETATM    1  C12 UNL     1       1.641   1.732   0.386  1.00  0.00     0.707 A 
HETATM    2  N4  UNL     1       1.434   0.477   0.787  1.00  0.00    -0.022 N 
ATOM      3  H4  UNL     1       0.486   0.185   1.023  1.00  0.00     0.203 HD
HETATM    4  C13 UNL     1       2.450  -0.430   0.892  1.00  0.00     0.707 A 
HETATM    5  N6  UNL     1       3.698  -0.004   0.571  1.00  0.00    -0.021 N 
ATOM      6  H6  UNL     1       4.473  -0.663   0.642  1.00  0.00     0.203 HD
HETATM    7  C16 UNL     1       3.952   1.244   0.165  1.00  0.00     0.711 A 
HETATM    8  N8  UNL     1       2.928   2.094   0.077  1.00  0.00    -0.021 N 
ATOM      9  H8  UNL     1       3.108   3.049  -0.232  1.00  0.00     0.203 HD
ENDROOT
BRANCH   1  10
HETATM   10  N3  UNL     1       0.696   2.561   0.305  1.00  0.00    -0.225 N 
ATOM     11  H3  UNL     1       0.926   3.504  -0.009  1.00  0.00     0.177 HD
BRANCH  10  12
HETATM   12  C11 UNL     1      -0.659   2.291   0.614  1.00  0.00     0.142 C 
BRANCH  12  13
HETATM   13  C10 UNL     1      -1.388   1.901  -0.680  1.00  0.00     0.058 C 
BRANCH  13  14
HETATM   14  C9  UNL     1      -2.803   1.645  -0.275  1.00  0.00    -0.057 A 
HETATM   15  C8  UNL     1      -3.712   2.682  -0.233  1.00  0.00     0.007 A 
HETATM   16  C7  UNL     1      -5.023   2.495   0.125  1.00  0.00     0.007 A 
HETATM   17  C6  UNL     1      -5.516   1.227   0.472  1.00  0.00    -0.058 A 
HETATM   18  C27 UNL     1      -4.615   0.196   0.431  1.00  0.00     0.007 A 
HETATM   19  C26 UNL     1      -3.276   0.397   0.064  1.00  0.00     0.007 A 
BRANCH  17  20
HETATM   20  C5  UNL     1      -6.891   1.025   0.890  1.00  0.00     0.040 C 
BRANCH  20  21
HETATM   21  C4  UNL     1      -7.949   0.890  -0.114  1.00  0.00     0.038 C 
BRANCH  21  22
HETATM   22  C3  UNL     1      -7.858  -0.274  -1.051  1.00  0.00     0.199 C 
BRANCH  22  23
HETATM   23  C2  UNL     1      -7.911  -1.593  -0.315  1.00  0.00     0.152 C 
BRANCH  23  24
HETATM   24  N1  UNL     1      -9.126  -1.538   0.510  1.00  0.00    -0.202 NA
HETATM   25  C1  UNL     1     -10.324  -1.554  -0.296  1.00  0.00     0.143 C 
BRANCH  24  26
HETATM   26  O1  UNL     1      -9.177  -2.593   1.349  1.00  0.00    -0.313 OA
ATOM     27  H1  UNL     1      -8.389  -2.582   1.879  1.00  0.00     0.237 HD
ENDBRANCH  24  26
ENDBRANCH  23  24
ENDBRANCH  22  23
BRANCH  22  28
HETATM   28  N2  UNL     1      -6.680  -0.210  -1.925  1.00  0.00    -0.074 N 
ATOM     29  H23 UNL     1      -5.818  -0.389  -1.410  1.00  0.00     0.274 HD
ATOM     30  H22 UNL     1      -6.643  -1.002  -2.567  1.00  0.00     0.274 HD
ATOM     31  H21 UNL     1      -6.644   0.680  -2.422  1.00  0.00     0.274 HD
ENDBRANCH  22  28
ENDBRANCH  21  22
ENDBRANCH  20  21
ENDBRANCH  17  20
ENDBRANCH  13  14
ENDBRANCH  12  13
ENDBRANCH  10  12
ENDBRANCH   1  10
BRANCH   4  32
HETATM   32  N5  UNL     1       2.274  -1.640   1.282  1.00  0.00    -0.223 N 
ATOM     33  H5  UNL     1       3.098  -2.240   1.327  1.00  0.00     0.177 HD
BRANCH  32  34
HETATM   34  C14 UNL     1       1.024  -2.220   1.659  1.00  0.00     0.164 C 
BRANCH  34  35
HETATM   35  C15 UNL     1       0.180  -2.671   0.488  1.00  0.00     0.184 C 
BRANCH  35  36
HETATM   36  O2  UNL     1       0.838  -3.638  -0.278  1.00  0.00    -0.399 OA
ATOM     37  H2  UNL     1       0.308  -3.921  -1.014  1.00  0.00     0.209 HD
ENDBRANCH  35  36
ENDBRANCH  34  35
ENDBRANCH  32  34
ENDBRANCH   4  32
BRANCH   7  38
HETATM   38  N7  UNL     1       5.111   1.656  -0.127  1.00  0.00    -0.191 N 
ATOM     39  H7  UNL     1       5.175   2.630  -0.424  1.00  0.00     0.184 HD
BRANCH  38  40
HETATM   40  C17 UNL     1       6.324   0.945  -0.095  1.00  0.00     0.049 A 
HETATM   41  C18 UNL     1       7.071   0.814   1.080  1.00  0.00     0.030 A 
HETATM   42  C19 UNL     1       8.261   0.122   1.114  1.00  0.00     0.009 A 
HETATM   43  C20 UNL     1       8.778  -0.482  -0.026  1.00  0.00    -0.058 A 
HETATM   44  C24 UNL     1       8.039  -0.351  -1.182  1.00  0.00     0.009 A 
HETATM   45  C25 UNL     1       6.847   0.341  -1.218  1.00  0.00     0.030 A 
BRANCH  43  46
HETATM   46  C21 UNL     1      10.062  -1.220   0.068  1.00  0.00     0.049 C 
BRANCH  46  47
HETATM   47  C22 UNL     1      11.275  -0.386  -0.162  1.00  0.00     0.117 C 
BRANCH  47  48
HETATM   48  C23 UNL     1      11.368   0.270  -1.463  1.00  0.00     0.172 C 
HETATM   49  O3  UNL     1      10.624   1.249  -1.727  1.00  0.00    -0.648 OA
HETATM   50  O4  UNL     1      12.245  -0.113  -2.471  1.00  0.00    -0.648 OA
ENDBRANCH  47  48
ENDBRANCH  46  47
ENDBRANCH  43  46
ENDBRANCH  38  40
ENDBRANCH   7  38
TORSDOF 20
