REMARK  20 active torsions:
REMARK  status: ('A' for Active; 'I' for Inactive)
REMARK    1  A    between atoms: C4_4  and  N1_5 
REMARK    2  A    between atoms: N1_5  and  C5_7 
REMARK    3  A    between atoms: C5_7  and  C6_8 
REMARK    4  A    between atoms: C6_8  and  C7_9 
REMARK    5  A    between atoms: C7_9  and  C8_10 
REMARK    6  A    between atoms: C8_10  and  N2_11 
REMARK    7  A    between atoms: N2_11  and  C9_13 
REMARK    8  A    between atoms: C10_16  and  N4_17 
REMARK    9  A    between atoms: N4_17  and  C11_19 
REMARK   10  A    between atoms: C11_19  and  C12_20 
REMARK   11  A    between atoms: C12_20  and  O1_21 
REMARK   12  A    between atoms: C13_25  and  N6_26 
REMARK   13  A    between atoms: N6_26  and  C14_27 
REMARK   14  A    between atoms: C16_29  and  C17_30 
REMARK   15  A    between atoms: C17_30  and  N7_31 
REMARK   16  A    between atoms: N7_31  and  C18_33 
REMARK   17  A    between atoms: C18_33  and  C19_34 
REMARK   18  A    between atoms: C18_33  and  C20_36 
REMARK   19  A    between atoms: C20_36  and  C21_37 
REMARK   20  A    between atoms: C21_37  and  N8_38 
ROOT
HETATM    1  C9  UNL     1      -0.957   0.935   1.058  1.00  0.00     0.696 A 
HETATM    2  N3  UNL     1      -1.803   1.523   0.213  1.00  0.00    -0.022 N 
ATOM      3  H3  UNL     1      -2.798   1.488   0.435  1.00  0.00     0.203 HD
HETATM    4  C10 UNL     1      -1.438   2.155  -0.904  1.00  0.00     0.696 A 
HETATM    5  N5  UNL     1      -0.128   2.187  -1.174  1.00  0.00    -0.148 N 
ATOM      6  H5  UNL     1       0.179   2.664  -2.022  1.00  0.00     0.188 HD
HETATM    7  C13 UNL     1       0.827   1.610  -0.367  1.00  0.00     0.288 A 
HETATM    8  N9  UNL     1       0.342   0.982   0.764  1.00  0.00    -0.148 N 
ATOM      9  H9  UNL     1       1.004   0.537   1.399  1.00  0.00     0.188 HD
ENDROOT
BRANCH   7  10
HETATM   10  N6  UNL     1       1.985   1.660  -0.656  1.00  0.00    -0.370 NA
BRANCH  10  11
HETATM   11  C14 UNL     1       3.280   1.678  -0.916  1.00  0.00     0.117 A 
HETATM   12  C15 UNL     1       4.122   0.689  -0.364  1.00  0.00     0.054 A 
HETATM   13  C16 UNL     1       5.462   0.637  -0.595  1.00  0.00    -0.038 A 
HETATM   14  C22 UNL     1       6.003   1.605  -1.409  1.00  0.00     0.009 A 
HETATM   15  C23 UNL     1       5.250   2.594  -1.979  1.00  0.00     0.011 A 
HETATM   16  C24 UNL     1       3.910   2.629  -1.735  1.00  0.00    -0.021 A 
HETATM   17  C25 UNL     1       3.091   3.720  -2.360  1.00  0.00     0.052 C 
BRANCH  13  18
HETATM   18  C17 UNL     1       6.359  -0.429   0.012  1.00  0.00     0.153 C 
BRANCH  18  19
HETATM   19  N7  UNL     1       7.464  -0.540  -0.860  1.00  0.00    -0.407 N 
ATOM     20  H7  UNL     1       7.531   0.020  -1.710  1.00  0.00     0.154 HD
BRANCH  19  21
HETATM   21  C18 UNL     1       8.501  -1.489  -0.492  1.00  0.00     0.140 C 
BRANCH  21  22
HETATM   22  C19 UNL     1       9.189  -1.137   0.739  1.00  0.00     0.255 C 
HETATM   23  O2  UNL     1       8.878  -0.151   1.435  1.00  0.00    -0.305 OA
ENDBRANCH  21  22
BRANCH  21  24
HETATM   24  C20 UNL     1       7.957  -2.876  -0.547  1.00  0.00     0.059 C 
BRANCH  24  25
HETATM   25  C21 UNL     1       8.863  -4.004  -0.217  1.00  0.00     0.232 C 
BRANCH  25  26
HETATM   26  N8  UNL     1       9.398  -4.039   1.106  1.00  0.00    -0.079 N 
ATOM     27  H83 UNL     1       9.867  -3.156   1.307  1.00  0.00     0.274 HD
ATOM     28  H82 UNL     1       8.635  -4.006   1.783  1.00  0.00     0.274 HD
ATOM     29  H81 UNL     1      10.021  -4.814   1.333  1.00  0.00     0.274 HD
ENDBRANCH  25  26
ENDBRANCH  24  25
ENDBRANCH  21  24
ENDBRANCH  19  21
ENDBRANCH  18  19
ENDBRANCH  13  18
ENDBRANCH  10  11
ENDBRANCH   7  10
BRANCH   4  30
HETATM   30  N4  UNL     1      -2.240   2.709  -1.716  1.00  0.00    -0.223 N 
ATOM     31  H4  UNL     1      -1.799   3.153  -2.522  1.00  0.00     0.177 HD
BRANCH  30  32
HETATM   32  C11 UNL     1      -3.658   2.807  -1.677  1.00  0.00     0.164 C 
BRANCH  32  33
HETATM   33  C12 UNL     1      -4.168   4.085  -1.035  1.00  0.00     0.184 C 
BRANCH  33  34
HETATM   34  O1  UNL     1      -3.752   4.226   0.282  1.00  0.00    -0.399 OA
ATOM     35  H1  UNL     1      -4.071   5.026   0.684  1.00  0.00     0.209 HD
ENDBRANCH  33  34
ENDBRANCH  32  33
ENDBRANCH  30  32
ENDBRANCH   4  30
BRANCH   1  36
HETATM   36  N2  UNL     1      -1.309   0.334   2.148  1.00  0.00    -0.225 N 
ATOM     37  H2  UNL     1      -0.558  -0.075   2.704  1.00  0.00     0.177 HD
BRANCH  36  38
HETATM   38  C8  UNL     1      -2.632   0.181   2.657  1.00  0.00     0.138 C 
BRANCH  38  39
HETATM   39  C7  UNL     1      -3.157  -1.214   2.572  1.00  0.00     0.022 C 
BRANCH  39  40
HETATM   40  C6  UNL     1      -4.543  -1.322   3.132  1.00  0.00     0.021 C 
BRANCH  40  41
HETATM   41  C5  UNL     1      -5.567  -0.466   2.412  1.00  0.00     0.120 C 
BRANCH  41  42
HETATM   42  N1  UNL     1      -5.683  -0.786   1.035  1.00  0.00    -0.390 N 
ATOM     43  H1  UNL     1      -4.834  -0.673   0.481  1.00  0.00     0.159 HD
BRANCH  42  44
HETATM   44  C4  UNL     1      -6.703  -1.194   0.403  1.00  0.00     0.031 A 
HETATM   45  C3  UNL     1      -7.939  -1.415   0.945  1.00  0.00     0.053 A 
HETATM   46  C2  UNL     1      -8.963  -1.859   0.140  1.00  0.00     0.007 A 
HETATM   47  C1  UNL     1     -10.314  -2.092   0.753  1.00  0.00     0.068 C 
HETATM   48  N10 UNL     1      -8.804  -2.091  -1.175  1.00  0.00    -0.369 N 
HETATM   49  C27 UNL     1      -7.591  -1.875  -1.712  1.00  0.00     0.090 A 
ATOM     50  H10 UNL     1      -9.581  -2.421  -1.748  1.00  0.00     0.165 HD
HETATM   51  C26 UNL     1      -6.550  -1.439  -0.968  1.00  0.00     0.046 A 
ENDBRANCH  42  44
ENDBRANCH  41  42
ENDBRANCH  40  41
ENDBRANCH  39  40
ENDBRANCH  38  39
ENDBRANCH  36  38
ENDBRANCH   1  36
TORSDOF 20
