REMARK  19 active torsions:
REMARK  status: ('A' for Active; 'I' for Inactive)
REMARK       I    between atoms: C1_2  and  N6_41 
REMARK    1  A    between atoms: N2_3  and  C2_5 
REMARK    2  A    between atoms: C2_5  and  C3_6 
REMARK    3  A    between atoms: C3_6  and  C4_7 
REMARK    4  A    between atoms: C4_7  and  C5_8 
REMARK    5  A    between atoms: C5_8  and  C6_9 
REMARK    6  A    between atoms: C6_9  and  C7_10 
REMARK    7  A    between atoms: C7_10  and  C8_11 
REMARK    8  A    between atoms: C8_11  and  C9_12 
REMARK    9  A    between atoms: C9_12  and  C10_13 
REMARK   10  A    between atoms: C10_13  and  C11_14 
REMARK   11  A    between atoms: C11_14  and  C12_15 
REMARK   12  A    between atoms: C12_15  and  C13_16 
REMARK   13  A    between atoms: C13_16  and  C14_17 
REMARK   14  A    between atoms: C15_20  and  O1_21 
REMARK   15  A    between atoms: C16_23  and  C17_24 
REMARK   16  A    between atoms: C17_24  and  C18_25 
REMARK   17  A    between atoms: C18_25  and  C19_26 
REMARK   18  A    between atoms: C23_38  and  O6_39 
REMARK       I    between atoms: N6_41  and  C24_42 
REMARK   19  A    between atoms: C24_42  and  C25_44 
ROOT
HETATM    1  C12 UNL     1      -2.737  -1.664   0.962  1.00  0.00    -0.025 C 
ENDROOT
BRANCH   1   2
HETATM    2  C11 UNL     1      -1.962  -0.764   1.802  1.00  0.00    -0.030 C 
BRANCH   2   3
HETATM    3  C10 UNL     1      -0.849   0.049   1.292  1.00  0.00     0.027 C 
BRANCH   3   4
HETATM    4  C9  UNL     1       0.277  -0.738   0.625  1.00  0.00     0.004 C 
BRANCH   4   5
HETATM    5  C8  UNL     1       1.391   0.196   0.219  1.00  0.00     0.000 C 
BRANCH   5   6
HETATM    6  C7  UNL     1       2.064   0.867   1.353  1.00  0.00     0.000 C 
BRANCH   6   7
HETATM    7  C6  UNL     1       2.740   0.108   2.402  1.00  0.00     0.000 C 
BRANCH   7   8
HETATM    8  C5  UNL     1       3.931  -0.747   2.149  1.00  0.00     0.000 C 
BRANCH   8   9
HETATM    9  C4  UNL     1       3.729  -1.826   1.187  1.00  0.00     0.002 C 
BRANCH   9  10
HETATM   10  C3  UNL     1       4.889  -2.723   0.880  1.00  0.00     0.020 C 
BRANCH  10  11
HETATM   11  C2  UNL     1       6.125  -1.955   0.363  1.00  0.00     0.123 C 
BRANCH  11  12
HETATM   12  N2  UNL     1       6.948  -2.994  -0.264  1.00  0.00    -0.353 N 
HETATM   13  C1  UNL     1       7.474  -2.602  -1.456  1.00  0.00     0.266 C 
HETATM   14  N1  UNL     1       8.242  -3.709  -2.015  1.00  0.00    -0.049 NA
HETATM   15  N6  UNL     1       7.479  -1.349  -1.873  1.00  0.00    -0.336 NA
HETATM   16  C24 UNL     1       7.487  -0.025  -2.323  1.00  0.00     0.325 C 
HETATM   17  O7  UNL     1       7.616   0.409  -3.489  1.00  0.00    -0.255 OA
ATOM     18  H2  UNL     1       7.109  -3.913   0.149  1.00  0.00     0.163 HD
BRANCH  16  19
HETATM   19  C25 UNL     1       7.356   1.075  -1.281  1.00  0.00     0.292 C 
HETATM   20  C26 UNL     1       8.802   1.041  -0.656  1.00  0.00     0.045 C 
HETATM   21  C27 UNL     1       9.289   2.463  -0.725  1.00  0.00     0.030 C 
HETATM   22  C28 UNL     1       8.007   3.262  -0.959  1.00  0.00     0.233 C 
HETATM   23  N7  UNL     1       7.257   2.374  -1.868  1.00  0.00    -0.061 N 
ATOM     24  H72 UNL     1       7.571   2.414  -2.837  1.00  0.00     0.278 HD
ATOM     25  H71 UNL     1       6.299   2.676  -2.043  1.00  0.00     0.278 HD
ENDBRANCH  16  19
ENDBRANCH  11  12
ENDBRANCH  10  11
ENDBRANCH   9  10
ENDBRANCH   8   9
ENDBRANCH   7   8
ENDBRANCH   6   7
ENDBRANCH   5   6
ENDBRANCH   4   5
ENDBRANCH   3   4
ENDBRANCH   2   3
ENDBRANCH   1   2
BRANCH   1  26
HETATM   26  C13 UNL     1      -3.515  -1.265  -0.200  1.00  0.00     0.087 C 
BRANCH  26  27
HETATM   27  C14 UNL     1      -4.618  -0.226   0.014  1.00  0.00     0.053 C 
HETATM   28  N3  UNL     1      -5.543  -0.601   1.011  1.00  0.00    -0.340 N 
HETATM   29  C15 UNL     1      -6.732  -0.116   1.512  1.00  0.00     0.139 C 
ATOM     30  H3  UNL     1      -5.256  -1.457   1.486  1.00  0.00     0.167 HD
HETATM   31  C16 UNL     1      -8.067   0.084   1.027  1.00  0.00     0.159 C 
HETATM   32  N4  UNL     1      -8.549   1.432   1.232  1.00  0.00    -0.348 N 
HETATM   33  C20 UNL     1      -7.736   2.582   1.222  1.00  0.00     0.236 C 
ATOM     34  H4  UNL     1      -9.548   1.559   1.395  1.00  0.00     0.163 HD
HETATM   35  O4  UNL     1      -7.960   3.467   2.101  1.00  0.00    -0.272 OA
HETATM   36  C21 UNL     1      -6.636   2.847   0.269  1.00  0.00     0.225 C 
HETATM   37  N5  UNL     1      -5.371   3.030   0.943  1.00  0.00    -0.346 N 
HETATM   38  C22 UNL     1      -4.178   2.331   0.566  1.00  0.00     0.277 C 
ATOM     39  H5  UNL     1      -5.325   3.686   1.722  1.00  0.00     0.163 HD
HETATM   40  O5  UNL     1      -3.114   2.961   0.937  1.00  0.00    -0.265 OA
HETATM   41  C23 UNL     1      -4.068   1.088  -0.131  1.00  0.00     0.157 C 
BRANCH  29  42
HETATM   42  O1  UNL     1      -6.658   0.289   2.769  1.00  0.00    -0.348 OA
ATOM     43  H1  UNL     1      -7.477   0.623   3.114  1.00  0.00     0.219 HD
ENDBRANCH  29  42
BRANCH  31  44
HETATM   44  C17 UNL     1      -8.437  -0.451  -0.327  1.00  0.00     0.044 C 
BRANCH  44  45
HETATM   45  C18 UNL     1      -9.933  -0.101  -0.561  1.00  0.00     0.116 C 
BRANCH  45  46
HETATM   46  C19 UNL     1     -10.414  -0.604  -1.859  1.00  0.00     0.172 C 
HETATM   47  O2  UNL     1     -11.546  -0.378  -2.288  1.00  0.00    -0.648 OA
HETATM   48  O3  UNL     1      -9.549  -1.383  -2.658  1.00  0.00    -0.648 OA
ENDBRANCH  45  46
ENDBRANCH  44  45
ENDBRANCH  31  44
BRANCH  41  49
HETATM   49  O6  UNL     1      -3.266   1.148  -1.168  1.00  0.00    -0.354 OA
ATOM     50  H6  UNL     1      -2.901   2.020  -1.264  1.00  0.00     0.218 HD
ENDBRANCH  41  49
ENDBRANCH  26  27
ENDBRANCH   1  26
TORSDOF 19
