REMARK  19 active torsions:
REMARK  status: ('A' for Active; 'I' for Inactive)
REMARK       I    between atoms: C2_2  and  N1_4 
REMARK    1  A    between atoms: N1_4  and  C3_5 
REMARK    2  A    between atoms: C3_5  and  C4_6 
REMARK    3  A    between atoms: C4_6  and  C5_7 
REMARK    4  A    between atoms: C5_7  and  C6_8 
REMARK    5  A    between atoms: C6_8  and  C7_9 
REMARK    6  A    between atoms: C7_9  and  N2_10 
REMARK    7  A    between atoms: C7_9  and  C8_14 
REMARK    8  A    between atoms: C8_14  and  C9_15 
REMARK       I    between atoms: C9_15  and  N3_17 
REMARK    9  A    between atoms: N3_17  and  C10_19 
REMARK   10  A    between atoms: C10_19  and  C11_20 
REMARK   11  A    between atoms: C11_20  and  C12_21 
REMARK   12  A    between atoms: C12_21  and  C13_22 
REMARK   13  A    between atoms: C13_22  and  C15_24 
REMARK   14  A    between atoms: C16_27  and  O3_28 
REMARK   15  A    between atoms: C17_30  and  C18_31 
REMARK   16  A    between atoms: C19_32  and  C20_33 
REMARK   17  A    between atoms: C20_33  and  C21_34 
REMARK   18  A    between atoms: C21_34  and  N5_35 
REMARK   19  A    between atoms: C25_46  and  C26_47 
ROOT
HETATM    1  C15 UNL     1      -1.982  -0.398   0.931  1.00  0.00     0.204 C 
HETATM    2  N4  UNL     1      -2.007   0.453  -0.304  1.00  0.00    -0.357 N 
ATOM      3  H4  UNL     1      -1.155   0.982  -0.493  1.00  0.00     0.162 HD
HETATM    4  C16 UNL     1      -3.026   0.617  -1.218  1.00  0.00     0.127 C 
HETATM    5  C17 UNL     1      -4.472   0.339  -1.382  1.00  0.00     0.157 C 
HETATM    6  C22 UNL     1      -5.394   1.386  -1.008  1.00  0.00     0.180 C 
HETATM    7  O4  UNL     1      -5.378   2.359  -1.792  1.00  0.00    -0.291 OA
HETATM    8  C23 UNL     1      -6.335   1.509   0.126  1.00  0.00     0.142 C 
HETATM    9  N6  UNL     1      -6.770   0.381   0.850  1.00  0.00    -0.332 N 
ATOM     10  H6  UNL     1      -7.229  -0.317   0.265  1.00  0.00     0.168 HD
HETATM   11  C24 UNL     1      -6.707   0.007   2.217  1.00  0.00     0.244 C 
HETATM   12  O5  UNL     1      -7.713  -0.323   2.877  1.00  0.00    -0.271 OA
HETATM   13  C25 UNL     1      -5.398  -0.028   3.019  1.00  0.00     0.180 C 
HETATM   14  N7  UNL     1      -4.307   0.071   2.100  1.00  0.00    -0.345 N 
ATOM     15  H7  UNL     1      -4.211   1.055   1.847  1.00  0.00     0.163 HD
HETATM   16  C29 UNL     1      -3.349  -0.613   1.429  1.00  0.00     0.245 C 
HETATM   17  O6  UNL     1      -3.584  -1.823   1.055  1.00  0.00    -0.271 OA
ENDROOT
BRANCH   1  18
HETATM   18  C13 UNL     1      -1.191  -1.645   0.768  1.00  0.00    -0.056 C 
HETATM   19  C14 UNL     1      -1.480  -2.797   1.681  1.00  0.00     0.046 C 
BRANCH  18  20
HETATM   20  C12 UNL     1       0.263  -1.576   0.572  1.00  0.00    -0.020 C 
BRANCH  20  21
HETATM   21  C11 UNL     1       0.922  -0.520  -0.208  1.00  0.00     0.047 C 
BRANCH  21  22
HETATM   22  C10 UNL     1       2.446  -0.813  -0.205  1.00  0.00     0.126 C 
BRANCH  22  23
HETATM   23  N3  UNL     1       3.203   0.219  -0.835  1.00  0.00    -0.361 N 
HETATM   24  C9  UNL     1       4.628   0.038  -0.911  1.00  0.00     0.219 C 
HETATM   25  O2  UNL     1       5.117  -1.017  -0.439  1.00  0.00    -0.274 OA
ATOM     26  H3  UNL     1       2.752   1.051  -1.216  1.00  0.00     0.162 HD
BRANCH  24  27
HETATM   27  C8  UNL     1       5.526   1.039  -1.510  1.00  0.00     0.135 C 
BRANCH  27  28
HETATM   28  C7  UNL     1       6.918   0.476  -1.646  1.00  0.00     0.192 C 
BRANCH  28  29
HETATM   29  C6  UNL     1       7.814   1.586  -2.184  1.00  0.00     0.033 C 
BRANCH  29  30
HETATM   30  C5  UNL     1       9.207   1.077  -2.447  1.00  0.00     0.008 C 
BRANCH  30  31
HETATM   31  C4  UNL     1       9.829   0.515  -1.242  1.00  0.00     0.060 C 
BRANCH  31  32
HETATM   32  C3  UNL     1      10.031   1.495  -0.098  1.00  0.00     0.159 C 
BRANCH  32  33
HETATM   33  N1  UNL     1      10.587   0.897   1.009  1.00  0.00    -0.388 NA
HETATM   34  C2  UNL     1      11.134   0.310   2.097  1.00  0.00     0.286 C 
HETATM   35  C1  UNL     1      10.348   0.346   3.420  1.00  0.00     0.135 C 
HETATM   36  O1  UNL     1      12.234  -0.292   2.218  1.00  0.00    -0.258 OA
ENDBRANCH  32  33
ENDBRANCH  31  32
ENDBRANCH  30  31
ENDBRANCH  29  30
ENDBRANCH  28  29
BRANCH  28  37
HETATM   37  N2  UNL     1       6.927  -0.580  -2.663  1.00  0.00    -0.075 N 
ATOM     38  H23 UNL     1       6.657  -0.253  -3.591  1.00  0.00     0.274 HD
ATOM     39  H22 UNL     1       7.864  -0.898  -2.911  1.00  0.00     0.274 HD
ATOM     40  H21 UNL     1       6.328  -1.323  -2.303  1.00  0.00     0.274 HD
ENDBRANCH  28  37
ENDBRANCH  27  28
ENDBRANCH  24  27
ENDBRANCH  22  23
ENDBRANCH  21  22
ENDBRANCH  20  21
ENDBRANCH  18  20
ENDBRANCH   1  18
BRANCH   4  41
HETATM   41  O3  UNL     1      -2.630   1.213  -2.314  1.00  0.00    -0.349 OA
ATOM     42  H3  UNL     1      -3.332   1.326  -2.944  1.00  0.00     0.219 HD
ENDBRANCH   4  41
BRANCH   5  43
HETATM   43  C18 UNL     1      -4.740  -0.069  -2.806  1.00  0.00    -0.010 C 
HETATM   44  C19 UNL     1      -6.049  -0.475  -3.272  1.00  0.00    -0.028 C 
BRANCH  44  45
HETATM   45  C20 UNL     1      -7.224   0.426  -3.307  1.00  0.00     0.054 C 
BRANCH  45  46
HETATM   46  C21 UNL     1      -8.403  -0.412  -3.904  1.00  0.00     0.233 C 
BRANCH  46  47
HETATM   47  N5  UNL     1      -9.574   0.410  -3.975  1.00  0.00    -0.079 N 
ATOM     48  H53 UNL     1      -9.811   0.826  -3.074  1.00  0.00     0.274 HD
ATOM     49  H52 UNL     1      -9.411   1.273  -4.493  1.00  0.00     0.274 HD
ATOM     50  H51 UNL     1     -10.343  -0.136  -4.364  1.00  0.00     0.274 HD
ENDBRANCH  46  47
ENDBRANCH  45  46
ENDBRANCH  44  45
ENDBRANCH   5  43
BRANCH  13  51
HETATM   51  C26 UNL     1      -5.386  -1.023   4.106  1.00  0.00     0.009 C 
HETATM   52  C27 UNL     1      -4.023  -0.909   4.771  1.00  0.00     0.012 C 
HETATM   53  C28 UNL     1      -6.385  -0.600   5.167  1.00  0.00     0.012 C 
ENDBRANCH  13  51
TORSDOF 19
