REMARK  23 active torsions:
REMARK  status: ('A' for Active; 'I' for Inactive)
REMARK    1  A    between atoms: C2_2  and  C3_4 
REMARK    2  A    between atoms: C3_4  and  N1_5 
REMARK    3  A    between atoms: C3_4  and  C19_42 
REMARK    4  A    between atoms: N1_5  and  C4_7 
REMARK    5  A    between atoms: C4_7  and  N2_8 
REMARK    6  A    between atoms: C4_7  and  C11_26 
REMARK       I    between atoms: N2_8  and  C5_10 
REMARK    7  A    between atoms: C5_10  and  C6_12 
REMARK    8  A    between atoms: C6_12  and  C7_13 
REMARK    9  A    between atoms: C7_13  and  C8_14 
REMARK   10  A    between atoms: C8_14  and  N3_15 
REMARK   11  A    between atoms: C9_17  and  N4_19 
REMARK   12  A    between atoms: N4_19  and  N5_21 
REMARK   13  A    between atoms: N5_21  and  N6_23 
REMARK   14  A    between atoms: C11_26  and  N7_27 
REMARK   15  A    between atoms: C11_26  and  C12_31 
REMARK   16  A    between atoms: C12_31  and  C13_32 
REMARK   17  A    between atoms: C13_32  and  N8_33 
REMARK       I    between atoms: N8_33  and  C14_35 
REMARK   18  A    between atoms: C14_35  and  O4_37 
REMARK   19  A    between atoms: O4_37  and  C15_38 
REMARK       I    between atoms: C19_42  and  N9_44 
REMARK   20  A    between atoms: N9_44  and  C20_46 
REMARK   21  A    between atoms: C20_46  and  C21_47 
REMARK   22  A    between atoms: C20_46  and  C25_51 
REMARK   23  A    between atoms: C21_47  and  C22_48 
ROOT
HETATM    1  C4  UNL     1      -1.006   1.315   0.184  1.00  0.00     0.211 C 
ENDROOT
BRANCH   1   2
HETATM    2  N1  UNL     1      -0.099   1.699   1.174  1.00  0.00    -0.381 N 
ATOM      3  H1  UNL     1      -0.454   2.360   1.865  1.00  0.00     0.156 HD
BRANCH   2   4
HETATM    4  C3  UNL     1       1.207   1.307   1.343  1.00  0.00     0.241 C 
BRANCH   4   5
HETATM    5  C2  UNL     1       2.111   1.751   0.217  1.00  0.00     0.154 C 
HETATM    6  C1  UNL     1       3.432   2.380   0.496  1.00  0.00     0.093 C 
HETATM    7  O1  UNL     1       1.795   1.623  -0.947  1.00  0.00    -0.296 OA
ENDBRANCH   4   5
BRANCH   4   8
HETATM    8  C19 UNL     1       1.544  -0.078   1.750  1.00  0.00     0.247 C 
HETATM    9  O5  UNL     1       0.892  -0.638   2.642  1.00  0.00    -0.271 OA
HETATM   10  N9  UNL     1       2.611  -0.690   1.079  1.00  0.00    -0.354 N 
ATOM     11  H9  UNL     1       3.090  -0.149   0.359  1.00  0.00     0.162 HD
BRANCH  10  12
HETATM   12  C20 UNL     1       3.092  -2.062   1.339  1.00  0.00     0.088 C 
BRANCH  12  13
HETATM   13  C21 UNL     1       4.282  -1.864   2.237  1.00  0.00     0.029 C 
BRANCH  13  14
HETATM   14  C22 UNL     1       4.999  -3.077   2.686  1.00  0.00    -0.021 C 
HETATM   15  C23 UNL     1       4.177  -4.062   3.473  1.00  0.00     0.009 C 
HETATM   16  C24 UNL     1       6.067  -2.566   3.686  1.00  0.00     0.009 C 
ENDBRANCH  13  14
ENDBRANCH  12  13
BRANCH  12  17
HETATM   17  C25 UNL     1       3.339  -2.690   0.032  1.00  0.00     0.000 C 
HETATM   18  C26 UNL     1       4.378  -2.005  -0.821  1.00  0.00     0.011 C 
HETATM   19  C27 UNL     1       3.511  -4.168  -0.021  1.00  0.00     0.011 C 
ENDBRANCH  12  17
ENDBRANCH  10  12
ENDBRANCH   4   8
ENDBRANCH   2   4
ENDBRANCH   1   2
BRANCH   1  20
HETATM   20  N2  UNL     1      -2.123   2.284   0.209  1.00  0.00    -0.338 N 
HETATM   21  C5  UNL     1      -1.914   3.617  -0.242  1.00  0.00     0.219 C 
HETATM   22  O2  UNL     1      -0.830   4.078  -0.660  1.00  0.00    -0.274 OA
ATOM     23  H2  UNL     1      -3.041   1.997   0.549  1.00  0.00     0.164 HD
BRANCH  21  24
HETATM   24  C6  UNL     1      -3.069   4.582  -0.228  1.00  0.00     0.104 C 
BRANCH  24  25
HETATM   25  C7  UNL     1      -2.559   5.949   0.070  1.00  0.00     0.029 C 
BRANCH  25  26
HETATM   26  C8  UNL     1      -3.711   6.936  -0.032  1.00  0.00     0.121 C 
BRANCH  26  27
HETATM   27  N3  UNL     1      -4.157   6.947  -1.402  1.00  0.00    -0.379 N 
HETATM   28  C9  UNL     1      -4.454   8.053  -1.966  1.00  0.00     0.089 C 
HETATM   29  C10 UNL     1      -4.346   9.328  -1.227  1.00  0.00     0.090 C 
ATOM     30  H3  UNL     1      -4.235   6.072  -1.921  1.00  0.00     0.160 HD
BRANCH  28  31
HETATM   31  N4  UNL     1      -4.872   8.078  -3.316  1.00  0.00    -0.276 N 
ATOM     32  H4  UNL     1      -4.454   7.422  -3.975  1.00  0.00     0.189 HD
BRANCH  31  33
HETATM   33  N5  UNL     1      -5.833   8.967  -3.771  1.00  0.00    -0.248 N 
ATOM     34  H5  UNL     1      -6.820   8.736  -3.657  1.00  0.00     0.207 HD
BRANCH  33  35
HETATM   35  N6  UNL     1      -5.507  10.079  -4.335  1.00  0.00    -0.331 N 
ATOM     36  H62 UNL     1      -4.516  10.294  -4.441  1.00  0.00     0.178 HD
ATOM     37  H61 UNL     1      -6.214  10.733  -4.670  1.00  0.00     0.178 HD
ENDBRANCH  33  35
ENDBRANCH  31  33
ENDBRANCH  28  31
ENDBRANCH  26  27
ENDBRANCH  25  26
ENDBRANCH  24  25
ENDBRANCH  21  24
ENDBRANCH   1  20
BRANCH   1  38
HETATM   38  C11 UNL     1      -1.591  -0.035   0.354  1.00  0.00     0.230 C 
BRANCH  38  39
HETATM   39  N7  UNL     1      -2.330  -0.209   1.564  1.00  0.00    -0.071 N 
ATOM     40  H73 UNL     1      -1.755   0.034   2.370  1.00  0.00     0.274 HD
ATOM     41  H72 UNL     1      -3.054   0.505   1.645  1.00  0.00     0.274 HD
ATOM     42  H71 UNL     1      -2.733  -1.139   1.681  1.00  0.00     0.274 HD
ENDBRANCH  38  39
BRANCH  38  43
HETATM   43  C12 UNL     1      -2.524  -0.455  -0.782  1.00  0.00     0.081 C 
BRANCH  43  44
HETATM   44  C13 UNL     1      -3.228  -1.717  -0.491  1.00  0.00     0.068 C 
BRANCH  44  45
HETATM   45  N8  UNL     1      -2.651  -2.944  -0.265  1.00  0.00    -0.316 N 
HETATM   46  C14 UNL     1      -1.931  -3.777  -1.146  1.00  0.00     0.365 C 
HETATM   47  O3  UNL     1      -1.722  -3.447  -2.373  1.00  0.00    -0.238 OA
ATOM     48  H8  UNL     1      -2.760  -3.306   0.682  1.00  0.00     0.170 HD
BRANCH  46  49
HETATM   49  O4  UNL     1      -1.419  -4.992  -0.776  1.00  0.00    -0.294 OA
BRANCH  49  50
HETATM   50  C15 UNL     1      -0.741  -5.946  -1.515  1.00  0.00     0.061 C 
HETATM   51  C16 UNL     1       0.511  -5.498  -2.190  1.00  0.00     0.046 C 
HETATM   52  C17 UNL     1      -1.671  -6.536  -2.561  1.00  0.00     0.046 C 
HETATM   53  C18 UNL     1      -0.350  -7.131  -0.605  1.00  0.00     0.046 C 
ENDBRANCH  49  50
ENDBRANCH  46  49
ENDBRANCH  44  45
ENDBRANCH  43  44
ENDBRANCH  38  43
ENDBRANCH   1  38
TORSDOF 23
