REMARK  9 active torsions:
REMARK  status: ('A' for Active; 'I' for Inactive)
REMARK    1  A    between atoms: C2_2  and  C3_3 
REMARK    2  A    between atoms: C3_3  and  C4_4 
REMARK    3  A    between atoms: C4_4  and  N1_5 
REMARK       I    between atoms: N1_5  and  C5_7 
REMARK    4  A    between atoms: C5_7  and  C6_9 
REMARK    5  A    between atoms: C9_12  and  C10_13 
REMARK       I    between atoms: C10_13  and  N2_15 
REMARK    6  A    between atoms: N2_15  and  C11_17 
REMARK    7  A    between atoms: N3_22  and  C15_23 
REMARK    8  A    between atoms: C15_23  and  O4_24 
REMARK    9  A    between atoms: C15_23  and  C16_26 
ROOT
HETATM    1  C6  UNL     1       0.853   0.262   0.539  1.00  0.00     0.061 A 
HETATM    2  C7  UNL     1       0.103   1.422   0.477  1.00  0.00    -0.023 A 
HETATM    3  C8  UNL     1       0.755   2.750   0.659  1.00  0.00     0.050 C 
HETATM    4  C9  UNL     1      -1.233   1.354   0.160  1.00  0.00     0.107 A 
HETATM    5  C14 UNL     1      -1.775   0.081  -0.097  1.00  0.00     0.270 A 
HETATM    6  O3  UNL     1      -2.984   0.130  -0.372  1.00  0.00    -0.266 OA
HETATM    7  N3  UNL     1      -1.082  -1.068  -0.051  1.00  0.00    -0.264 N 
HETATM    8  C20 UNL     1       0.235  -0.950   0.276  1.00  0.00     0.034 A 
HETATM    9  C21 UNL     1       1.047  -2.148   0.466  1.00  0.00     0.070 C 
ENDROOT
BRANCH   1  10
HETATM   10  C5  UNL     1       2.239   0.418   0.934  1.00  0.00     0.254 C 
HETATM   11  N1  UNL     1       3.376  -0.092   0.305  1.00  0.00    -0.357 N 
ATOM     12  H1  UNL     1       3.249  -0.652  -0.538  1.00  0.00     0.162 HD
HETATM   13  O1  UNL     1       2.454   1.119   1.988  1.00  0.00    -0.268 OA
BRANCH  11  14
HETATM   14  C4  UNL     1       4.711   0.126   0.775  1.00  0.00     0.123 C 
BRANCH  14  15
HETATM   15  C3  UNL     1       5.732  -0.552  -0.114  1.00  0.00     0.019 C 
BRANCH  15  16
HETATM   16  C2  UNL     1       7.137  -0.314   0.393  1.00  0.00    -0.003 C 
HETATM   17  C1  UNL     1       7.337  -0.844   1.785  1.00  0.00     0.005 C 
ENDBRANCH  15  16
ENDBRANCH  14  15
ENDBRANCH  11  14
ENDBRANCH   1  10
BRANCH   4  18
HETATM   18  C10 UNL     1      -2.053   2.556   0.186  1.00  0.00     0.258 C 
HETATM   19  O2  UNL     1      -1.635   3.505   0.965  1.00  0.00    -0.267 OA
HETATM   20  N2  UNL     1      -3.229   2.821  -0.520  1.00  0.00    -0.352 N 
ATOM     21  H2  UNL     1      -3.593   2.107  -1.151  1.00  0.00     0.163 HD
BRANCH  20  22
HETATM   22  C11 UNL     1      -3.958   4.081  -0.391  1.00  0.00     0.084 A 
HETATM   23  C12 UNL     1      -5.408   4.140  -0.618  1.00  0.00     0.027 A 
HETATM   24  C13 UNL     1      -4.479   4.648  -1.723  1.00  0.00     0.027 A 
ENDBRANCH  20  22
ENDBRANCH   4  18
BRANCH   7  25
HETATM   25  C15 UNL     1      -1.653  -2.310  -0.344  1.00  0.00     0.133 C 
BRANCH  25  26
HETATM   26  O4  UNL     1      -0.810  -3.304  -0.313  1.00  0.00    -0.348 OA
ATOM     27  H4  UNL     1      -1.198  -4.148  -0.512  1.00  0.00     0.219 HD
ENDBRANCH  25  26
BRANCH  25  28
HETATM   28  C16 UNL     1      -2.989  -2.754  -0.680  1.00  0.00     0.014 C 
HETATM   29  C17 UNL     1      -3.580  -2.244  -1.964  1.00  0.00     0.023 C 
HETATM   30  C18 UNL     1      -2.922  -4.321  -0.785  1.00  0.00     0.023 C 
HETATM   31  C19 UNL     1      -3.984  -2.526   0.433  1.00  0.00     0.023 C 
ENDBRANCH  25  28
ENDBRANCH   7  25
TORSDOF 9
