REMARK  7 active torsions:
REMARK  status: ('A' for Active; 'I' for Inactive)
REMARK    1  A    between atoms: N1_4  and  C4_5 
REMARK    2  A    between atoms: C7_8  and  C8_9 
REMARK    3  A    between atoms: C8_9  and  C9_10 
REMARK    4  A    between atoms: C9_10  and  N2_11 
REMARK    5  A    between atoms: C12_14  and  C13_15 
REMARK    6  A    between atoms: C13_15  and  C14_16 
REMARK    7  A    between atoms: C19_21  and  O1_22 
ROOT
HETATM    1  C4  UNL     1       3.779  -1.308  -0.130  1.00  0.00     0.096 C 
HETATM    2  C5  UNL     1       3.072  -0.822   1.138  1.00  0.00     0.026 C 
HETATM    3  C6  UNL     1       1.569  -0.967   0.988  1.00  0.00     0.009 C 
HETATM    4  C7  UNL     1       1.015  -0.179  -0.158  1.00  0.00     0.016 C 
HETATM    5  C19 UNL     1       2.137   0.320  -1.073  1.00  0.00     0.124 C 
HETATM    6  C20 UNL     1       3.117  -0.809  -1.359  1.00  0.00     0.057 C 
ENDROOT
BRANCH   4   7
HETATM    7  C8  UNL     1       0.318   1.067   0.394  1.00  0.00     0.037 C 
BRANCH   7   8
HETATM    8  C9  UNL     1      -0.799   0.725   1.336  1.00  0.00     0.273 C 
BRANCH   8   9
HETATM    9  N2  UNL     1      -1.786  -0.093   0.639  1.00  0.00     0.088 N 
HETATM   10  C10 UNL     1      -2.761  -0.601   1.596  1.00  0.00     0.272 C 
HETATM   11  C11 UNL     1      -4.191  -0.293   1.230  1.00  0.00     0.035 C 
HETATM   12  C12 UNL     1      -4.408  -0.853  -0.151  1.00  0.00    -0.011 C 
HETATM   13  C17 UNL     1      -3.424  -0.239  -1.115  1.00  0.00     0.035 C 
HETATM   14  C18 UNL     1      -2.398   0.649  -0.445  1.00  0.00     0.272 C 
BRANCH  12  15
HETATM   15  C13 UNL     1      -5.794  -0.970  -0.591  1.00  0.00     0.008 C 
BRANCH  15  16
HETATM   16  C14 UNL     1      -6.696   0.183  -0.686  1.00  0.00    -0.022 C 
HETATM   17  C15 UNL     1      -6.937   0.929   0.628  1.00  0.00     0.009 C 
HETATM   18  C16 UNL     1      -6.456   1.164  -1.780  1.00  0.00     0.009 C 
ENDBRANCH  15  16
ENDBRANCH  12  15
ENDBRANCH   8   9
ENDBRANCH   7   8
ENDBRANCH   4   7
BRANCH   5  19
HETATM   19  O1  UNL     1       1.553   0.691  -2.275  1.00  0.00    -0.395 OA
ATOM     20  H1  UNL     1       2.249   1.001  -2.843  1.00  0.00     0.210 HD
ENDBRANCH   5  19
BRANCH   1  21
HETATM   21  N1  UNL     1       5.140  -0.881  -0.018  1.00  0.00    -0.304 N 
HETATM   22  C3  UNL     1       5.619   0.170  -0.666  1.00  0.00     0.108 A 
HETATM   23  C2  UNL     1       6.958   0.553  -0.520  1.00  0.00     0.022 A 
HETATM   24  C1  UNL     1       7.514   1.719  -1.245  1.00  0.00     0.056 C 
HETATM   25  C22 UNL     1       7.789  -0.161   0.299  1.00  0.00     0.256 A 
HETATM   26  N3  UNL     1       7.288  -1.232   0.955  1.00  0.00    -0.275 N 
HETATM   27  O3  UNL     1       8.997   0.187   0.430  1.00  0.00    -0.267 OA
HETATM   28  C21 UNL     1       5.998  -1.563   0.785  1.00  0.00     0.329 A 
ATOM     29  H3  UNL     1       7.884  -1.783   1.573  1.00  0.00     0.173 HD
HETATM   30  O2  UNL     1       5.519  -2.564   1.392  1.00  0.00    -0.246 OA
ENDBRANCH   1  21
TORSDOF 7
