REMARK  6 active torsions:
REMARK  status: ('A' for Active; 'I' for Inactive)
REMARK    1  A    between atoms: C7_7  and  C8_8 
REMARK    2  A    between atoms: C8_8  and  N1_9 
REMARK    3  A    between atoms: C8_8  and  C19_27 
REMARK    4  A    between atoms: N1_9  and  S1_11 
REMARK    5  A    between atoms: S1_11  and  C9_14 
REMARK    6  A    between atoms: C12_17  and  N2_18 
ROOT
HETATM    1  S1  UNL     1      -0.943  -1.807  -2.068  1.00  0.00     0.261 S 
HETATM    2  O1  UNL     1      -1.589  -2.887  -1.236  1.00  0.00    -0.200 OA
HETATM    3  O2  UNL     1      -0.526  -2.398  -3.413  1.00  0.00    -0.200 OA
ENDROOT
BRANCH   1   4
HETATM    4  N1  UNL     1      -1.969  -0.495  -2.353  1.00  0.00    -0.300 N 
ATOM      5  H1  UNL     1      -1.732   0.264  -2.991  1.00  0.00     0.173 HD
BRANCH   4   6
HETATM    6  C8  UNL     1      -3.231  -0.541  -1.604  1.00  0.00     0.198 C 
BRANCH   6   7
HETATM    7  C7  UNL     1      -3.474   0.686  -0.816  1.00  0.00     0.023 C 
HETATM    8  C2  UNL     1      -2.432   1.011   0.228  1.00  0.00    -0.012 C 
HETATM    9  C1  UNL     1      -2.525   2.529   0.468  1.00  0.00     0.010 C 
HETATM   10  C3  UNL     1      -2.624   0.338   1.524  1.00  0.00     0.005 C 
HETATM   11  C4  UNL     1      -3.771  -0.602   1.660  1.00  0.00     0.000 C 
HETATM   12  C5  UNL     1      -5.023  -0.194   0.944  1.00  0.00     0.000 C 
HETATM   13  C6  UNL     1      -4.799   0.807  -0.142  1.00  0.00     0.007 C 
ENDBRANCH   6   7
BRANCH   6  14
HETATM   14  C19 UNL     1      -4.261  -0.778  -2.660  1.00  0.00     0.197 C 
HETATM   15  O3  UNL     1      -3.926  -0.823  -3.863  1.00  0.00    -0.646 OA
HETATM   16  O4  UNL     1      -5.597  -0.958  -2.382  1.00  0.00    -0.646 OA
ENDBRANCH   6  14
ENDBRANCH   4   6
ENDBRANCH   1   4
BRANCH   1  17
HETATM   17  C9  UNL     1       0.525  -1.309  -1.287  1.00  0.00     0.095 A 
HETATM   18  C10 UNL     1       0.682  -1.379   0.074  1.00  0.00     0.030 A 
HETATM   19  C11 UNL     1       1.887  -0.963   0.638  1.00  0.00     0.050 A 
HETATM   20  C12 UNL     1       2.912  -0.486  -0.150  1.00  0.00     0.102 A 
HETATM   21  N3  UNL     1       2.717  -0.433  -1.476  1.00  0.00    -0.351 N 
HETATM   22  C18 UNL     1       1.566  -0.827  -2.047  1.00  0.00     0.115 A 
ATOM     23  H3  UNL     1       3.467  -0.082  -2.071  1.00  0.00     0.166 HD
BRANCH  20  24
HETATM   24  N2  UNL     1       4.132  -0.066   0.448  1.00  0.00    -0.367 N 
HETATM   25  C13 UNL     1       5.198   0.420  -0.405  1.00  0.00     0.124 C 
HETATM   26  C14 UNL     1       6.568   0.046   0.108  1.00  0.00     0.020 C 
HETATM   27  C15 UNL     1       6.753   0.414   1.561  1.00  0.00     0.003 C 
HETATM   28  C16 UNL     1       5.469   0.788   2.234  1.00  0.00     0.020 C 
HETATM   29  C17 UNL     1       4.313  -0.118   1.869  1.00  0.00     0.124 C 
ENDBRANCH  20  24
ENDBRANCH   1  17
TORSDOF 6
