REMARK  7 active torsions:
REMARK  status: ('A' for Active; 'I' for Inactive)
REMARK    1  A    between atoms: O1_1  and  C1_3 
REMARK    2  A    between atoms: C1_3  and  C2_4 
REMARK    3  A    between atoms: C2_4  and  C3_5 
REMARK    4  A    between atoms: C3_5  and  O2_6 
REMARK    5  A    between atoms: C18_22  and  O3_23 
REMARK    6  A    between atoms: C19_25  and  C20_26 
REMARK    7  A    between atoms: C20_26  and  O4_27 
ROOT
HETATM    1  C2  UNL     1       2.796   0.461   0.516  1.00  0.00     0.006 C 
HETATM    2  C4  UNL     1       3.288  -0.095  -0.764  1.00  0.00     0.014 C 
HETATM    3  C5  UNL     1       2.358   0.074  -1.900  1.00  0.00     0.001 C 
HETATM    4  C6  UNL     1       1.049   0.701  -1.615  1.00  0.00     0.006 C 
HETATM    5  C7  UNL     1       0.416   0.426  -0.295  1.00  0.00     0.004 C 
HETATM    6  C8  UNL     1       1.355   0.104   0.822  1.00  0.00     0.003 C 
HETATM    7  C9  UNL     1       1.359  -1.309   1.306  1.00  0.00     0.006 C 
HETATM    8  C10 UNL     1       0.012  -1.900   1.499  1.00  0.00     0.006 C 
HETATM    9  C11 UNL     1      -1.090  -1.005   1.005  1.00  0.00    -0.001 C 
HETATM   10  C12 UNL     1      -2.342  -1.821   1.092  1.00  0.00     0.006 C 
HETATM   11  C13 UNL     1      -3.582  -1.086   0.645  1.00  0.00     0.008 C 
HETATM   12  C14 UNL     1      -3.179   0.309   0.364  1.00  0.00     0.021 C 
HETATM   13  C15 UNL     1      -4.245   1.139  -0.340  1.00  0.00     0.008 C 
HETATM   14  C16 UNL     1      -3.440   2.247  -0.988  1.00  0.00     0.004 C 
HETATM   15  C17 UNL     1      -1.961   1.895  -0.726  1.00  0.00     0.039 C 
HETATM   16  C18 UNL     1      -2.077   0.410  -0.669  1.00  0.00     0.072 C 
HETATM   17  C19 UNL     1      -0.844  -0.390  -0.344  1.00  0.00     0.020 C 
ENDROOT
BRANCH   1  18
HETATM   18  C1  UNL     1       3.683  -0.157   1.610  1.00  0.00     0.176 C 
BRANCH  18  19
HETATM   19  O1  UNL     1       5.016   0.259   1.380  1.00  0.00    -0.400 OA
ATOM     20  H1  UNL     1       5.564  -0.123   2.056  1.00  0.00     0.209 HD
ENDBRANCH  18  19
ENDBRANCH   1  18
BRANCH   1  21
HETATM   21  C3  UNL     1       2.969   1.955   0.675  1.00  0.00     0.176 C 
BRANCH  21  22
HETATM   22  O2  UNL     1       4.278   2.340   0.510  1.00  0.00    -0.400 OA
ATOM     23  H2  UNL     1       4.387   3.278   0.610  1.00  0.00     0.209 HD
ENDBRANCH  21  22
ENDBRANCH   1  21
BRANCH  17  24
HETATM   24  C20 UNL     1      -0.863  -1.493  -1.372  1.00  0.00     0.177 C 
BRANCH  24  25
HETATM   25  O4  UNL     1       0.058  -2.461  -1.315  1.00  0.00    -0.400 OA
ATOM     26  H4  UNL     1       0.046  -3.156  -1.963  1.00  0.00     0.209 HD
ENDBRANCH  24  25
ENDBRANCH  17  24
BRANCH  16  27
HETATM   27  O3  UNL     1      -2.677   0.055  -1.899  1.00  0.00    -0.389 OA
ATOM     28  H3  UNL     1      -1.985   0.118  -2.547  1.00  0.00     0.210 HD
ENDBRANCH  16  27
TORSDOF 7
