REMARK  5 active torsions:
REMARK  status: ('A' for Active; 'I' for Inactive)
REMARK    1  A    between atoms: C2_2  and  C4_4 
REMARK    2  A    between atoms: C14_17  and  O1_19 
REMARK    3  A    between atoms: C16_21  and  C17_22 
REMARK    4  A    between atoms: C17_22  and  C18_23 
REMARK    5  A    between atoms: C19_26  and  O4_27 
ROOT
HETATM    1  C4  UNL     1      -2.358  -0.224   0.412  1.00  0.00     0.014 C 
HETATM    2  C5  UNL     1      -2.726  -1.163  -0.712  1.00  0.00     0.009 C 
HETATM    3  C6  UNL     1      -2.060  -0.935  -2.005  1.00  0.00     0.001 C 
HETATM    4  C7  UNL     1      -0.632  -1.320  -2.122  1.00  0.00     0.003 C 
HETATM    5  C8  UNL     1      -0.017  -2.064  -1.015  1.00  0.00     0.043 C 
HETATM    6  C9  UNL     1       0.673  -1.349   0.059  1.00  0.00     0.164 A 
HETATM    7  N1  UNL     1       0.499  -2.110   1.313  1.00  0.00    -0.058 N 
ATOM      8  H11 UNL     1       1.251  -2.697   1.674  1.00  0.00     0.278 HD
ATOM      9  H12 UNL     1      -0.128  -2.914   1.352  1.00  0.00     0.278 HD
HETATM   10  C10 UNL     1       0.145  -0.848   1.981  1.00  0.00     0.197 A 
HETATM   11  C11 UNL     1       1.023  -0.690   3.146  1.00  0.00     0.041 C 
HETATM   12  C12 UNL     1       0.213  -0.167   0.703  1.00  0.00     0.055 A 
HETATM   13  C13 UNL     1      -1.085   0.460   0.322  1.00  0.00     0.026 C 
HETATM   14  C14 UNL     1       1.304   0.890   0.441  1.00  0.00     0.073 C 
HETATM   15  C15 UNL     1       1.451   1.815   1.665  1.00  0.00     0.047 C 
HETATM   16  C16 UNL     1       2.558   0.195   0.158  1.00  0.00     0.062 C 
HETATM   17  C19 UNL     1       2.182  -1.222  -0.200  1.00  0.00     0.162 C 
ENDROOT
BRANCH  16  18
HETATM   18  C17 UNL     1       3.626   0.765  -0.660  1.00  0.00     0.123 C 
BRANCH  18  19
HETATM   19  C18 UNL     1       3.466   1.143  -2.032  1.00  0.00     0.173 C 
HETATM   20  O2  UNL     1       2.455   1.045  -2.760  1.00  0.00    -0.648 OA
HETATM   21  O3  UNL     1       4.577   1.710  -2.702  1.00  0.00    -0.648 OA
ENDBRANCH  18  19
ENDBRANCH  16  18
BRANCH  14  22
HETATM   22  O1  UNL     1       0.842   1.765  -0.551  1.00  0.00    -0.389 OA
ATOM     23  H1  UNL     1       1.514   2.416  -0.712  1.00  0.00     0.210 HD
ENDBRANCH  14  22
BRANCH  17  24
HETATM   24  O4  UNL     1       2.471  -1.552  -1.526  1.00  0.00    -0.393 OA
ATOM     25  H4  UNL     1       3.404  -1.473  -1.686  1.00  0.00     0.210 HD
ENDBRANCH  17  24
BRANCH   1  26
HETATM   26  C2  UNL     1      -3.414   0.875   0.448  1.00  0.00    -0.089 C 
HETATM   27  C1  UNL     1      -4.250   1.015   1.468  1.00  0.00     0.014 C 
HETATM   28  C3  UNL     1      -3.532   1.833  -0.683  1.00  0.00     0.043 C 
ENDBRANCH   1  26
TORSDOF 5
