REMARK  6 active torsions:
REMARK  status: ('A' for Active; 'I' for Inactive)
REMARK    1  A    between atoms: C2_2  and  N1_4 
REMARK    2  A    between atoms: N1_4  and  C4_6 
REMARK    3  A    between atoms: C4_6  and  O1_7 
REMARK    4  A    between atoms: C9_13  and  O2_14 
REMARK    5  A    between atoms: C10_16  and  C11_17 
REMARK    6  A    between atoms: C19_25  and  N2_26 
ROOT
HETATM    1  C4  UNL     1      -2.439   0.489   0.081  1.00  0.00     0.128 C 
HETATM    2  C5  UNL     1      -1.958  -0.277   1.217  1.00  0.00     0.061 C 
HETATM    3  C6  UNL     1      -0.529  -0.736   1.221  1.00  0.00     0.010 C 
HETATM    4  C7  UNL     1       0.450   0.225   0.692  1.00  0.00    -0.003 C 
HETATM    5  C8  UNL     1       1.828   0.196   1.240  1.00  0.00     0.024 A 
HETATM    6  C9  UNL     1       2.572  -1.087   1.212  1.00  0.00     0.127 A 
HETATM    7  C10 UNL     1       3.412  -0.570   0.096  1.00  0.00     0.022 A 
HETATM    8  C14 UNL     1       2.666   0.748   0.089  1.00  0.00    -0.000 A 
HETATM    9  C15 UNL     1       1.737   0.828  -1.116  1.00  0.00     0.011 C 
HETATM   10  C16 UNL     1       0.726  -0.201  -0.757  1.00  0.00     0.001 C 
HETATM   11  C17 UNL     1      -0.558  -0.191  -1.467  1.00  0.00    -0.002 A 
HETATM   12  C18 UNL     1      -1.061  -1.442  -2.048  1.00  0.00     0.045 A 
HETATM   13  C19 UNL     1      -0.448  -0.475  -2.979  1.00  0.00     0.193 A 
HETATM   14  C20 UNL     1      -1.491   0.875  -1.009  1.00  0.00     0.072 C 
ENDROOT
BRANCH   1  15
HETATM   15  N1  UNL     1      -3.606  -0.034  -0.506  1.00  0.00    -0.388 N 
ATOM     16  H1  UNL     1      -3.511  -0.510  -1.403  1.00  0.00     0.156 HD
BRANCH  15  17
HETATM   17  C2  UNL     1      -4.861   0.049   0.038  1.00  0.00     0.071 C 
HETATM   18  C1  UNL     1      -5.582  -1.274  -0.124  1.00  0.00     0.031 C 
HETATM   19  C3  UNL     1      -5.052   0.461   1.459  1.00  0.00     0.031 C 
ENDBRANCH  15  17
ENDBRANCH   1  15
BRANCH   1  20
HETATM   20  O1  UNL     1      -2.839   1.774   0.590  1.00  0.00    -0.371 OA
ATOM     21  H1  UNL     1      -2.051   2.127   0.986  1.00  0.00     0.212 HD
ENDBRANCH   1  20
BRANCH  13  22
HETATM   22  N2  UNL     1      -1.237   0.432  -3.774  1.00  0.00    -0.074 N 
ATOM     23  H23 UNL     1      -2.211   0.431  -3.471  1.00  0.00     0.274 HD
ATOM     24  H22 UNL     1      -1.000   1.402  -3.566  1.00  0.00     0.274 HD
ATOM     25  H21 UNL     1      -1.164   0.244  -4.774  1.00  0.00     0.274 HD
ENDBRANCH  13  22
BRANCH   6  26
HETATM   26  O2  UNL     1       3.336  -1.341   2.367  1.00  0.00    -0.395 OA
ATOM     27  H2  UNL     1       3.812  -2.163   2.349  1.00  0.00     0.210 HD
ENDBRANCH   6  26
BRANCH   7  28
HETATM   28  C11 UNL     1       4.875  -0.363   0.363  1.00  0.00    -0.016 C 
HETATM   29  C12 UNL     1       5.146   0.764   1.330  1.00  0.00     0.010 C 
HETATM   30  C13 UNL     1       5.538  -1.644   0.855  1.00  0.00     0.010 C 
ENDBRANCH   7  28
TORSDOF 6
