REMARK  6 active torsions:
REMARK  status: ('A' for Active; 'I' for Inactive)
REMARK    1  A    between atoms: C7_8  and  C8_9 
REMARK    2  A    between atoms: C8_9  and  O2_10 
REMARK    3  A    between atoms: C8_9  and  C9_12 
REMARK    4  A    between atoms: C9_12  and  O3_13 
REMARK    5  A    between atoms: C9_12  and  C10_15 
REMARK    6  A    between atoms: C10_15  and  O4_16 
ROOT
HETATM    1  C1  UNL     1       5.408  -1.215  -0.254  1.00  0.00     0.010 C 
HETATM    2  C2  UNL     1       3.958  -1.578  -0.491  1.00  0.00    -0.014 C 
HETATM    3  C3  UNL     1       3.438  -2.226   0.762  1.00  0.00     0.034 C 
HETATM    4  C4  UNL     1       1.980  -2.009   0.945  1.00  0.00     0.006 C 
HETATM    5  C5  UNL     1       1.358  -0.910   0.553  1.00  0.00     0.051 C 
HETATM    6  O1  UNL     1       0.009  -0.701   0.718  1.00  0.00    -0.348 OA
HETATM    7  C6  UNL     1      -0.766   0.023  -0.253  1.00  0.00     0.143 C 
HETATM    8  C7  UNL     1      -2.142   0.125   0.260  1.00  0.00     0.048 C 
HETATM    9  C11 UNL     1      -2.699   1.531   0.298  1.00  0.00     0.014 C 
HETATM   10  C12 UNL     1      -1.765   2.536   0.843  1.00  0.00    -0.017 C 
HETATM   11  C13 UNL     1      -2.286   3.923   0.442  1.00  0.00     0.010 C 
HETATM   12  C14 UNL     1      -0.349   2.399   0.426  1.00  0.00     0.016 C 
HETATM   13  C15 UNL     1      -0.090   1.310  -0.592  1.00  0.00    -0.015 C 
HETATM   14  C16 UNL     1      -0.669   1.802  -1.904  1.00  0.00     0.018 C 
HETATM   15  C17 UNL     1       1.390   1.225  -0.752  1.00  0.00     0.027 C 
HETATM   16  C18 UNL     1       2.137   0.144  -0.090  1.00  0.00     0.006 C 
HETATM   17  C19 UNL     1       3.012   0.758   1.017  1.00  0.00     0.022 C 
HETATM   18  C20 UNL     1       3.114  -0.507  -1.044  1.00  0.00     0.020 C 
ENDROOT
BRANCH   8  19
HETATM   19  C8  UNL     1      -3.161  -0.671  -0.524  1.00  0.00     0.155 C 
BRANCH  19  20
HETATM   20  O2  UNL     1      -4.394  -0.468   0.076  1.00  0.00    -0.392 OA
ATOM     21  H2  UNL     1      -5.034  -0.968  -0.417  1.00  0.00     0.210 HD
ENDBRANCH  19  20
BRANCH  19  22
HETATM   22  C9  UNL     1      -2.826  -2.116  -0.708  1.00  0.00     0.170 C 
BRANCH  22  23
HETATM   23  O3  UNL     1      -3.847  -2.636  -1.544  1.00  0.00    -0.391 OA
ATOM     24  H3  UNL     1      -3.634  -3.554  -1.661  1.00  0.00     0.210 HD
ENDBRANCH  22  23
BRANCH  22  25
HETATM   25  C10 UNL     1      -2.876  -2.914   0.552  1.00  0.00     0.198 C 
BRANCH  25  26
HETATM   26  O4  UNL     1      -4.097  -2.833   1.214  1.00  0.00    -0.398 OA
ATOM     27  H4  UNL     1      -4.129  -3.341   2.016  1.00  0.00     0.209 HD
ENDBRANCH  25  26
ENDBRANCH  22  25
ENDBRANCH  19  22
ENDBRANCH   8  19
TORSDOF 6
