REMARK  1 active torsions:
REMARK  status: ('A' for Active; 'I' for Inactive)
REMARK    1  A    between atoms: C9_12  and  N2_13 
ROOT
HETATM    1  N1  UNL     1       1.775  -1.621  -1.102  1.00  0.00    -0.404 N 
ATOM      2  H11 UNL     1       2.469  -1.250  -1.751  1.00  0.00     0.155 HD
ATOM      3  H12 UNL     1       1.401  -2.568  -1.160  1.00  0.00     0.155 HD
HETATM    4  C1  UNL     1       1.384  -0.798  -0.175  1.00  0.00     0.010 C 
HETATM    5  C2  UNL     1       0.369  -1.340   0.773  1.00  0.00     0.054 C 
HETATM    6  C3  UNL     1      -0.800  -1.964   0.069  1.00  0.00     0.006 C 
HETATM    7  C4  UNL     1      -2.102  -1.300   0.353  1.00  0.00     0.000 C 
HETATM    8  C5  UNL     1      -2.076   0.186   0.317  1.00  0.00     0.000 C 
HETATM    9  C6  UNL     1      -1.285   0.752  -0.845  1.00  0.00     0.000 C 
HETATM   10  C7  UNL     1      -0.294   1.728  -0.316  1.00  0.00     0.002 C 
HETATM   11  C8  UNL     1       1.086   1.586  -0.829  1.00  0.00     0.039 C 
HETATM   12  C9  UNL     1       1.921   0.563  -0.091  1.00  0.00     0.228 C 
ENDROOT
BRANCH  12  13
HETATM   13  N2  UNL     1       2.204   0.918   1.259  1.00  0.00    -0.070 N 
ATOM     14  H23 UNL     1       1.388   0.798   1.858  1.00  0.00     0.275 HD
ATOM     15  H22 UNL     1       2.824   0.241   1.704  1.00  0.00     0.275 HD
ATOM     16  H21 UNL     1       2.578   1.865   1.317  1.00  0.00     0.275 HD
ENDBRANCH  12  13
TORSDOF 1
