REMARK  2 active torsions:
REMARK  status: ('A' for Active; 'I' for Inactive)
REMARK    1  A    between atoms: N1_1  and  O1_4 
REMARK    2  A    between atoms: O1_4  and  C1_5 
ROOT
HETATM    1  C1  UNL     1      -1.540   0.027  -0.164  1.00  0.00     0.156 C 
HETATM    2  C2  UNL     1      -1.681  -1.477  -0.283  1.00  0.00     0.035 C 
HETATM    3  C3  UNL     1      -0.326  -2.066  -0.065  1.00  0.00     0.007 C 
HETATM    4  C4  UNL     1       0.576  -0.984   0.456  1.00  0.00    -0.008 C 
HETATM    5  C5  UNL     1       1.814  -0.833  -0.402  1.00  0.00     0.005 C 
HETATM    6  C6  UNL     1       2.644   0.273   0.200  1.00  0.00     0.000 C 
HETATM    7  C7  UNL     1       1.912   1.567   0.315  1.00  0.00     0.000 C 
HETATM    8  C8  UNL     1       0.450   1.479  -0.024  1.00  0.00     0.007 C 
HETATM    9  C9  UNL     1      -0.231   0.276   0.534  1.00  0.00     0.021 C 
ENDROOT
BRANCH   1  10
HETATM   10  O1  UNL     1      -2.595   0.516   0.607  1.00  0.00    -0.281 OA
BRANCH  10  11
HETATM   11  N1  UNL     1      -3.395   1.353  -0.074  1.00  0.00    -0.311 N 
ATOM     12  H12 UNL     1      -3.235   1.596  -1.052  1.00  0.00     0.184 HD
ATOM     13  H11 UNL     1      -4.166   1.710   0.490  1.00  0.00     0.184 HD
ENDBRANCH  10  11
ENDBRANCH   1  10
TORSDOF 2
