REMARK  0 active torsions:
REMARK  status: ('A' for Active; 'I' for Inactive)
ROOT
HETATM    1  C1  UNL     1       0.419   2.395   0.887  1.00  0.00     0.010 C 
HETATM    2  C2  UNL     1       0.039   1.461  -0.274  1.00  0.00    -0.013 C 
HETATM    3  C3  UNL     1       1.206   0.734  -0.827  1.00  0.00     0.028 C 
HETATM    4  C4  UNL     1       1.263  -0.726  -0.596  1.00  0.00     0.074 C 
HETATM    5  C5  UNL     1       2.108  -1.035   0.649  1.00  0.00     0.032 C 
HETATM    6  N1  UNL     1       0.062  -1.434  -0.492  1.00  0.00    -0.398 N 
ATOM      7  H1  UNL     1       0.071  -2.453  -0.525  1.00  0.00     0.155 HD
HETATM    8  C6  UNL     1      -1.147  -0.757  -0.344  1.00  0.00     0.113 C 
HETATM    9  C7  UNL     1      -2.014  -1.576   0.628  1.00  0.00     0.055 C 
HETATM   10  C8  UNL     1      -1.873  -0.775  -1.632  1.00  0.00     0.090 C 
HETATM   11  N2  UNL     1      -2.445  -0.808  -2.641  1.00  0.00    -0.195 NA
HETATM   12  C9  UNL     1      -1.096   0.629   0.182  1.00  0.00     0.050 C 
ENDROOT
TORSDOF 0
