REMARK  8 active torsions:
REMARK  status: ('A' for Active; 'I' for Inactive)
REMARK    1  A    between atoms: C2_2  and  C3_3 
REMARK    2  A    between atoms: C3_3  and  C4_4 
REMARK    3  A    between atoms: C4_4  and  N1_5 
REMARK       I    between atoms: N1_5  and  C5_7 
REMARK       I    between atoms: C5_7  and  N3_11 
REMARK       I    between atoms: N3_11  and  C6_13 
REMARK    4  A    between atoms: C6_13  and  O2_15 
REMARK    5  A    between atoms: O2_15  and  C7_16 
REMARK    6  A    between atoms: C7_16  and  C9_18 
REMARK    7  A    between atoms: C7_16  and  C19_32 
REMARK    8  A    between atoms: C12_21  and  C13_22 
ROOT
HETATM    1  C7  UNL     1      -0.660  -0.947   0.580  1.00  0.00     0.193 C 
HETATM    2  C8  UNL     1      -0.301  -0.584   2.036  1.00  0.00     0.062 C 
ENDROOT
BRANCH   1   3
HETATM    3  O2  UNL     1      -0.011  -0.138  -0.315  1.00  0.00    -0.278 OA
BRANCH   3   4
HETATM    4  C6  UNL     1       1.291   0.085  -0.584  1.00  0.00     0.380 C 
HETATM    5  N3  UNL     1       1.796   0.991  -1.555  1.00  0.00    -0.136 N 
HETATM    6  C5  UNL     1       3.175   1.170  -1.837  1.00  0.00     0.676 C 
ATOM      7  H3  UNL     1       1.124   1.548  -2.083  1.00  0.00     0.189 HD
HETATM    8  N1  UNL     1       4.196   0.409  -1.268  1.00  0.00    -0.226 N 
HETATM    9  N2  UNL     1       3.521   2.061  -2.721  1.00  0.00    -0.235 N 
ATOM     10  H1  UNL     1       4.109  -0.605  -1.336  1.00  0.00     0.177 HD
ATOM     11  H22 UNL     1       4.512   2.190  -2.924  1.00  0.00     0.174 HD
ATOM     12  H21 UNL     1       2.774   2.618  -3.137  1.00  0.00     0.174 HD
HETATM   13  O1  UNL     1       2.145  -0.556   0.070  1.00  0.00    -0.238 OA
BRANCH   8  14
HETATM   14  C4  UNL     1       5.360   0.920  -0.594  1.00  0.00     0.138 C 
BRANCH  14  15
HETATM   15  C3  UNL     1       6.311  -0.221  -0.250  1.00  0.00     0.020 C 
BRANCH  15  16
HETATM   16  C2  UNL     1       7.551   0.249   0.433  1.00  0.00    -0.003 C 
HETATM   17  C1  UNL     1       7.329   0.947   1.740  1.00  0.00     0.005 C 
ENDBRANCH  15  16
ENDBRANCH  14  15
ENDBRANCH   8  14
ENDBRANCH   3   4
ENDBRANCH   1   3
BRANCH   1  18
HETATM   18  C9  UNL     1      -2.127  -0.663   0.440  1.00  0.00    -0.015 A 
HETATM   19  C10 UNL     1      -2.841  -0.273   1.539  1.00  0.00     0.011 A 
HETATM   20  C11 UNL     1      -4.210  -0.026   1.402  1.00  0.00     0.016 A 
HETATM   21  C12 UNL     1      -4.847  -0.165   0.198  1.00  0.00     0.008 A 
HETATM   22  C17 UNL     1      -4.135  -0.560  -0.928  1.00  0.00     0.016 A 
HETATM   23  C18 UNL     1      -2.792  -0.796  -0.769  1.00  0.00     0.011 A 
BRANCH  21  24
HETATM   24  C13 UNL     1      -6.287   0.092   0.110  1.00  0.00     0.115 A 
HETATM   25  N4  UNL     1      -7.043   0.446   1.153  1.00  0.00    -0.352 N 
HETATM   26  C14 UNL     1      -8.376   0.687   1.032  1.00  0.00     0.091 A 
ATOM     27  H4  UNL     1      -6.606   0.539   2.070  1.00  0.00     0.166 HD
HETATM   28  C15 UNL     1      -9.017   0.579  -0.175  1.00  0.00     0.034 A 
HETATM   29  C16 UNL     1      -8.228   0.209  -1.264  1.00  0.00     0.091 A 
HETATM   30  N5  UNL     1      -6.922  -0.017  -1.092  1.00  0.00    -0.352 N 
ATOM     31  H5  UNL     1      -6.369  -0.286  -1.906  1.00  0.00     0.166 HD
ENDBRANCH  21  24
ENDBRANCH   1  18
BRANCH   1  32
HETATM   32  C19 UNL     1      -0.511  -2.427   0.459  1.00  0.00     0.423 C 
HETATM   33  F1  UNL     1       0.776  -2.904   0.592  1.00  0.00    -0.167 F 
HETATM   34  F2  UNL     1      -1.223  -3.038   1.507  1.00  0.00    -0.167 F 
HETATM   35  F3  UNL     1      -1.080  -2.971  -0.689  1.00  0.00    -0.167 F 
ENDBRANCH   1  32
TORSDOF 8
