REMARK  6 active torsions:
REMARK  status: ('A' for Active; 'I' for Inactive)
REMARK    1  A    between atoms: C2_2  and  N1_4 
REMARK    2  A    between atoms: C4_6  and  C5_8 
REMARK    3  A    between atoms: C7_10  and  O1_11 
REMARK    4  A    between atoms: O1_11  and  C8_12 
REMARK    5  A    between atoms: C11_15  and  N3_16 
REMARK       I    between atoms: N3_16  and  C12_18 
REMARK       I    between atoms: C12_18  and  N5_25 
REMARK    6  A    between atoms: N4_19  and  C13_21 
ROOT
HETATM    1  N3  UNL     1       4.494  -0.958   1.594  1.00  0.00    -0.191 N 
ATOM      2  H3  UNL     1       4.402  -1.254   2.566  1.00  0.00     0.184 HD
HETATM    3  C12 UNL     1       5.735  -0.434   1.153  1.00  0.00     0.694 C 
HETATM    4  N4  UNL     1       6.563  -1.167   0.491  1.00  0.00    -0.130 N 
ATOM      5  H4  UNL     1       6.302  -2.133   0.292  1.00  0.00     0.186 HD
HETATM    6  N5  UNL     1       6.121   0.907   1.419  1.00  0.00    -0.126 N 
ATOM      7  H5  UNL     1       6.924   1.076   2.024  1.00  0.00     0.197 HD
HETATM    8  C14 UNL     1       5.431   2.018   0.874  1.00  0.00     0.196 C 
HETATM    9  N6  UNL     1       4.857   2.926   0.445  1.00  0.00    -0.171 NA
ENDROOT
BRANCH   1  10
HETATM   10  C11 UNL     1       3.378  -1.085   0.734  1.00  0.00     0.049 A 
HETATM   11  C10 UNL     1       2.187  -1.594   1.190  1.00  0.00     0.033 A 
HETATM   12  C9  UNL     1       1.081  -1.723   0.348  1.00  0.00     0.039 A 
HETATM   13  C8  UNL     1       1.187  -1.330  -0.971  1.00  0.00     0.076 A 
HETATM   14  C16 UNL     1       2.370  -0.816  -1.456  1.00  0.00     0.039 A 
HETATM   15  C15 UNL     1       3.460  -0.699  -0.590  1.00  0.00     0.033 A 
BRANCH  13  16
HETATM   16  O1  UNL     1       0.085  -1.461  -1.801  1.00  0.00    -0.311 OA
BRANCH  16  17
HETATM   17  C7  UNL     1      -0.859  -0.459  -1.958  1.00  0.00     0.079 A 
HETATM   18  C6  UNL     1      -1.985  -0.378  -1.137  1.00  0.00     0.070 A 
HETATM   19  C5  UNL     1      -2.917   0.626  -1.305  1.00  0.00     0.076 A 
HETATM   20  N7  UNL     1      -2.687   1.514  -2.289  1.00  0.00    -0.363 N 
HETATM   21  C18 UNL     1      -1.603   1.455  -3.096  1.00  0.00     0.091 A 
ATOM     22  H7  UNL     1      -3.361   2.266  -2.433  1.00  0.00     0.165 HD
HETATM   23  C17 UNL     1      -0.648   0.468  -2.962  1.00  0.00     0.054 A 
BRANCH  19  24
HETATM   24  C4  UNL     1      -4.105   0.733  -0.458  1.00  0.00     0.139 C 
HETATM   25  N1  UNL     1      -4.304  -0.121   0.472  1.00  0.00    -0.373 N 
ATOM     26  H1  UNL     1      -3.610  -0.860   0.588  1.00  0.00     0.161 HD
HETATM   27  N2  UNL     1      -5.019   1.785  -0.683  1.00  0.00    -0.081 NA
BRANCH  25  28
HETATM   28  C2  UNL     1      -5.422  -0.122   1.361  1.00  0.00     0.074 C 
HETATM   29  C1  UNL     1      -6.657  -0.768   0.762  1.00  0.00     0.031 C 
HETATM   30  C3  UNL     1      -5.790   1.235   1.885  1.00  0.00     0.031 C 
ENDBRANCH  25  28
ENDBRANCH  19  24
ENDBRANCH  16  17
ENDBRANCH  13  16
ENDBRANCH   1  10
BRANCH   4  31
HETATM   31  C13 UNL     1       7.833  -0.695   0.019  1.00  0.00     0.498 C 
HETATM   32  F1  UNL     1       8.687  -0.439   1.060  1.00  0.00    -0.150 F 
HETATM   33  F2  UNL     1       7.594   0.451  -0.749  1.00  0.00    -0.150 F 
HETATM   34  F3  UNL     1       8.435  -1.609  -0.839  1.00  0.00    -0.150 F 
ENDBRANCH   4  31
TORSDOF 6
