REMARK  10 active torsions:
REMARK  status: ('A' for Active; 'I' for Inactive)
REMARK    1  A    between atoms: C3_3  and  C6_6 
REMARK    2  A    between atoms: C6_6  and  C7_7 
REMARK    3  A    between atoms: C7_7  and  O1_8 
REMARK    4  A    between atoms: C7_7  and  C19_29 
REMARK    5  A    between atoms: O1_8  and  C8_9 
REMARK    6  A    between atoms: C11_12  and  N1_13 
REMARK    7  A    between atoms: N1_13  and  C12_15 
REMARK    8  A    between atoms: C13_18  and  C14_19 
REMARK    9  A    between atoms: C19_29  and  O2_30 
REMARK   10  A    between atoms: N4_32  and  O3_34 
ROOT
HETATM    1  C1  UNL     1      -6.509  -0.430   1.098  1.00  0.00     0.013 C 
HETATM    2  C2  UNL     1      -5.774   0.310   0.477  1.00  0.00    -0.108 C 
HETATM    3  C3  UNL     1      -4.928   1.181  -0.303  1.00  0.00     0.018 C 
HETATM    4  C4  UNL     1      -4.708   2.434   0.511  1.00  0.00     0.029 C 
HETATM    5  C5  UNL     1      -5.719   1.657  -1.542  1.00  0.00     0.029 C 
ENDROOT
BRANCH   3   6
HETATM    6  C6  UNL     1      -3.672   0.586  -0.807  1.00  0.00     0.062 C 
BRANCH   6   7
HETATM    7  C7  UNL     1      -2.646   0.076   0.118  1.00  0.00     0.206 C 
BRANCH   7   8
HETATM    8  O1  UNL     1      -1.609  -0.457  -0.683  1.00  0.00    -0.338 OA
BRANCH   8   9
HETATM    9  C8  UNL     1      -0.321  -0.713  -0.427  1.00  0.00     0.070 A 
HETATM   10  C9  UNL     1       0.358  -0.537   0.750  1.00  0.00     0.039 A 
HETATM   11  C10 UNL     1       1.709  -0.866   0.868  1.00  0.00     0.033 A 
HETATM   12  C11 UNL     1       2.438  -1.384  -0.182  1.00  0.00     0.049 A 
HETATM   13  C17 UNL     1       1.748  -1.569  -1.414  1.00  0.00     0.033 A 
HETATM   14  C18 UNL     1       0.422  -1.236  -1.497  1.00  0.00     0.039 A 
BRANCH  12  15
HETATM   15  N1  UNL     1       3.759  -1.791  -0.135  1.00  0.00    -0.192 N 
ATOM     16  H1  UNL     1       3.840  -2.807  -0.103  1.00  0.00     0.184 HD
BRANCH  15  17
HETATM   17  C12 UNL     1       4.869  -1.241  -0.122  1.00  0.00     0.683 A 
HETATM   18  N2  UNL     1       5.159   0.069  -0.152  1.00  0.00    -0.186 N 
HETATM   19  C13 UNL     1       6.366   0.586  -0.154  1.00  0.00     0.133 A 
ATOM     20  H2  UNL     1       4.374   0.719  -0.175  1.00  0.00     0.184 HD
HETATM   21  C15 UNL     1       7.456  -0.269  -0.127  1.00  0.00     0.052 A 
HETATM   22  C16 UNL     1       7.214  -1.624  -0.094  1.00  0.00     0.108 A 
HETATM   23  N3  UNL     1       5.958  -2.076  -0.091  1.00  0.00    -0.202 N 
ATOM     24  H3  UNL     1       5.801  -3.083  -0.065  1.00  0.00     0.183 HD
BRANCH  19  25
HETATM   25  C14 UNL     1       6.638   2.034  -0.186  1.00  0.00     0.433 C 
HETATM   26  F1  UNL     1       7.920   2.326   0.297  1.00  0.00    -0.165 F 
HETATM   27  F2  UNL     1       6.594   2.472  -1.525  1.00  0.00    -0.165 F 
HETATM   28  F3  UNL     1       5.702   2.785   0.502  1.00  0.00    -0.165 F 
ENDBRANCH  19  25
ENDBRANCH  15  17
ENDBRANCH  12  15
ENDBRANCH   8   9
ENDBRANCH   7   8
BRANCH   7  29
HETATM   29  C19 UNL     1      -3.069  -1.120   0.938  1.00  0.00     0.165 C 
HETATM   30  N4  UNL     1      -3.085  -1.015   2.211  1.00  0.00    -0.249 N 
ATOM     31  H4  UNL     1      -3.371  -1.837   2.743  1.00  0.00     0.196 HD
BRANCH  29  32
HETATM   32  O2  UNL     1      -3.421  -2.276   0.304  1.00  0.00    -0.346 OA
ATOM     33  H2  UNL     1      -3.687  -3.028   0.820  1.00  0.00     0.219 HD
ENDBRANCH  29  32
BRANCH  30  34
HETATM   34  O3  UNL     1      -2.755   0.094   2.915  1.00  0.00    -0.288 OA
ATOM     35  H3  UNL     1      -2.767   0.172   3.862  1.00  0.00     0.244 HD
ENDBRANCH  30  34
ENDBRANCH   7  29
ENDBRANCH   6   7
ENDBRANCH   3   6
TORSDOF 10
