REMARK  9 active torsions:
REMARK  status: ('A' for Active; 'I' for Inactive)
REMARK    1  A    between atoms: C3_3  and  O1_4 
REMARK    2  A    between atoms: C4_6  and  C5_7 
REMARK    3  A    between atoms: C5_7  and  O2_8 
REMARK    4  A    between atoms: C6_11  and  C7_12 
REMARK    5  A    between atoms: C11_16  and  O4_17 
REMARK    6  A    between atoms: O4_17  and  C12_18 
REMARK    7  A    between atoms: C12_18  and  C13_19 
REMARK    8  A    between atoms: C12_18  and  C19_25 
REMARK    9  A    between atoms: C21_30  and  O5_31 
ROOT
HETATM    1  C7  UNL     1      -0.759  -0.953  -0.478  1.00  0.00    -0.024 A 
HETATM    2  C8  UNL     1      -1.005  -1.488  -1.715  1.00  0.00     0.010 A 
HETATM    3  C9  UNL     1       0.040  -1.946  -2.497  1.00  0.00     0.003 A 
HETATM    4  C10 UNL     1       1.325  -1.863  -2.032  1.00  0.00     0.037 A 
HETATM    5  C11 UNL     1       1.626  -1.323  -0.773  1.00  0.00     0.070 A 
HETATM    6  C20 UNL     1       0.541  -0.882  -0.037  1.00  0.00     0.046 A 
ENDROOT
BRANCH   1   7
HETATM    7  C6  UNL     1      -1.923  -0.478   0.309  1.00  0.00     0.184 C 
HETATM    8  O3  UNL     1      -2.915  -1.379   0.228  1.00  0.00    -0.369 OA
HETATM    9  C4  UNL     1      -4.181  -1.046  -0.041  1.00  0.00     0.175 C 
HETATM   10  C3  UNL     1      -4.445   0.095  -0.972  1.00  0.00     0.155 C 
HETATM   11  C2  UNL     1      -3.228   0.960  -1.195  1.00  0.00     0.045 C 
HETATM   12  C1  UNL     1      -3.679   2.420  -1.345  1.00  0.00     0.015 C 
HETATM   13  C21 UNL     1      -2.343   0.901   0.002  1.00  0.00     0.158 C 
BRANCH   9  14
HETATM   14  C5  UNL     1      -4.961  -0.909   1.269  1.00  0.00     0.198 C 
BRANCH  14  15
HETATM   15  O2  UNL     1      -4.937  -2.142   1.961  1.00  0.00    -0.398 OA
ATOM     16  H2  UNL     1      -5.421  -2.057   2.774  1.00  0.00     0.209 HD
ENDBRANCH  14  15
ENDBRANCH   9  14
BRANCH  10  17
HETATM   17  O1  UNL     1      -5.415   0.904  -0.379  1.00  0.00    -0.392 OA
ATOM     18  H1  UNL     1      -6.181   0.360  -0.239  1.00  0.00     0.210 HD
ENDBRANCH  10  17
BRANCH  13  19
HETATM   19  O5  UNL     1      -1.280   1.808  -0.072  1.00  0.00    -0.392 OA
ATOM     20  H5  UNL     1      -0.716   1.770   0.691  1.00  0.00     0.210 HD
ENDBRANCH  13  19
ENDBRANCH   1   7
BRANCH   5  21
HETATM   21  O4  UNL     1       2.933  -1.276  -0.380  1.00  0.00    -0.332 OA
BRANCH  21  22
HETATM   22  C12 UNL     1       3.461  -0.792   0.803  1.00  0.00     0.269 C 
BRANCH  22  23
HETATM   23  C13 UNL     1       4.434   0.294   0.533  1.00  0.00    -0.020 A 
HETATM   24  C14 UNL     1       4.390   1.439   1.289  1.00  0.00     0.010 A 
HETATM   25  C15 UNL     1       5.287   2.492   1.071  1.00  0.00     0.001 A 
HETATM   26  C16 UNL     1       6.241   2.387   0.076  1.00  0.00     0.000 A 
HETATM   27  C17 UNL     1       6.289   1.241  -0.683  1.00  0.00     0.001 A 
HETATM   28  C18 UNL     1       5.389   0.200  -0.456  1.00  0.00     0.010 A 
ENDBRANCH  22  23
BRANCH  22  29
HETATM   29  C19 UNL     1       4.231  -1.851   1.580  1.00  0.00     0.417 C 
HETATM   30  F1  UNL     1       5.283  -2.335   0.834  1.00  0.00    -0.168 F 
HETATM   31  F2  UNL     1       4.788  -1.204   2.675  1.00  0.00    -0.168 F 
HETATM   32  F3  UNL     1       3.419  -2.839   2.064  1.00  0.00    -0.168 F 
ENDBRANCH  22  29
ENDBRANCH  21  22
ENDBRANCH   5  21
TORSDOF 9
