REMARK  10 active torsions:
REMARK  status: ('A' for Active; 'I' for Inactive)
REMARK    1  A    between atoms: C2_2  and  O1_4 
REMARK    2  A    between atoms: C2_2  and  C13_19 
REMARK    3  A    between atoms: O1_4  and  C4_5 
REMARK    4  A    between atoms: C4_5  and  C5_6 
REMARK       I    between atoms: C5_6  and  N1_8 
REMARK    5  A    between atoms: C6_10  and  C7_11 
REMARK    6  A    between atoms: C12_16  and  O3_17 
REMARK    7  A    between atoms: C13_19  and  O4_20 
REMARK    8  A    between atoms: C13_19  and  C14_22 
REMARK    9  A    between atoms: C13_19  and  C20_30 
REMARK   10  A    between atoms: C19_27  and  O5_28 
ROOT
HETATM    1  C1  UNL     1      -1.719   1.361   0.894  1.00  0.00     0.049 C 
HETATM    2  C2  UNL     1      -1.681   0.126  -0.029  1.00  0.00     0.098 C 
HETATM    3  C3  UNL     1      -1.544   0.690  -1.402  1.00  0.00     0.049 C 
ENDROOT
BRANCH   2   4
HETATM    4  O1  UNL     1      -0.475  -0.553   0.277  1.00  0.00    -0.368 OA
BRANCH   4   5
HETATM    5  C4  UNL     1       0.650   0.182   0.034  1.00  0.00     0.271 C 
BRANCH   5   6
HETATM    6  C5  UNL     1       1.850  -0.586   0.434  1.00  0.00     0.245 C 
HETATM    7  O2  UNL     1       1.743  -1.732   0.895  1.00  0.00    -0.271 OA
HETATM    8  N1  UNL     1       3.136  -0.007   0.289  1.00  0.00    -0.334 N 
HETATM    9  C6  UNL     1       4.214  -0.714   0.293  1.00  0.00     0.105 C 
ATOM     10  H1  UNL     1       3.211   1.004   0.178  1.00  0.00     0.168 HD
BRANCH   9  11
HETATM   11  C7  UNL     1       5.530  -0.129   0.145  1.00  0.00     0.012 A 
HETATM   12  C8  UNL     1       5.636   1.238  -0.006  1.00  0.00     0.015 A 
HETATM   13  C9  UNL     1       6.856   1.826  -0.148  1.00  0.00     0.001 A 
HETATM   14  C10 UNL     1       8.025   1.106  -0.148  1.00  0.00     0.003 A 
HETATM   15  C11 UNL     1       7.932  -0.256   0.002  1.00  0.00     0.037 A 
HETATM   16  C12 UNL     1       6.691  -0.865   0.147  1.00  0.00     0.077 A 
BRANCH  16  17
HETATM   17  O3  UNL     1       6.669  -2.240   0.294  1.00  0.00    -0.360 OA
ATOM     18  H3  UNL     1       7.471  -2.749   0.295  1.00  0.00     0.217 HD
ENDBRANCH  16  17
ENDBRANCH   9  11
ENDBRANCH   5   6
ENDBRANCH   4   5
ENDBRANCH   2   4
BRANCH   2  19
HETATM   19  C13 UNL     1      -2.770  -0.795   0.222  1.00  0.00     0.216 C 
BRANCH  19  20
HETATM   20  O4  UNL     1      -2.632  -1.979  -0.521  1.00  0.00    -0.374 OA
ATOM     21  H4  UNL     1      -3.346  -2.583  -0.356  1.00  0.00     0.211 HD
ENDBRANCH  19  20
BRANCH  19  22
HETATM   22  C14 UNL     1      -4.180  -0.391   0.017  1.00  0.00     0.021 A 
HETATM   23  C15 UNL     1      -4.986  -0.002   1.097  1.00  0.00     0.013 A 
HETATM   24  C16 UNL     1      -6.264   0.489   0.912  1.00  0.00     0.001 A 
HETATM   25  C17 UNL     1      -6.829   0.628  -0.333  1.00  0.00     0.003 A 
HETATM   26  C18 UNL     1      -6.052   0.250  -1.397  1.00  0.00     0.037 A 
HETATM   27  C19 UNL     1      -4.760  -0.249  -1.223  1.00  0.00     0.075 A 
BRANCH  27  28
HETATM   28  O5  UNL     1      -4.047  -0.627  -2.384  1.00  0.00    -0.360 OA
ATOM     29  H5  UNL     1      -4.447  -0.529  -3.240  1.00  0.00     0.217 HD
ENDBRANCH  27  28
ENDBRANCH  19  22
BRANCH  19  30
HETATM   30  C20 UNL     1      -2.641  -1.413   1.659  1.00  0.00     0.425 C 
HETATM   31  F1  UNL     1      -3.710  -2.238   1.808  1.00  0.00    -0.167 F 
HETATM   32  F2  UNL     1      -1.484  -2.226   1.605  1.00  0.00    -0.167 F 
HETATM   33  F3  UNL     1      -2.421  -0.537   2.629  1.00  0.00    -0.167 F 
ENDBRANCH  19  30
ENDBRANCH   2  19
TORSDOF 10
