REMARK  10 active torsions:
REMARK  status: ('A' for Active; 'I' for Inactive)
REMARK    1  A    between atoms: O1_1  and  C1_3 
REMARK    2  A    between atoms: C1_3  and  C2_4 
REMARK    3  A    between atoms: C1_3  and  C16_33 
REMARK    4  A    between atoms: C2_4  and  N1_5 
REMARK    5  A    between atoms: C6_9  and  N2_10 
REMARK    6  A    between atoms: N2_10  and  C7_11 
REMARK    7  A    between atoms: C7_11  and  C8_12 
REMARK    8  A    between atoms: C8_12  and  N3_13 
REMARK    9  A    between atoms: N3_13  and  C9_15 
REMARK   10  A    between atoms: C10_18  and  C11_19 
ROOT
HETATM    1  N1  UNL     1      -2.664   0.287  -0.044  1.00  0.00    -0.340 N 
HETATM    2  C3  UNL     1      -2.069   0.648   1.161  1.00  0.00     0.094 A 
HETATM    3  C4  UNL     1      -0.759   0.302   1.154  1.00  0.00     0.037 A 
HETATM    4  C5  UNL     1      -0.516  -0.292  -0.073  1.00  0.00     0.068 A 
HETATM    5  C6  UNL     1       0.659  -0.769  -0.616  1.00  0.00     0.193 A 
HETATM    6  N6  UNL     1       0.658  -1.260  -1.870  1.00  0.00    -0.327 N 
ATOM      7  H6  UNL     1       1.513  -1.622  -2.293  1.00  0.00     0.169 HD
HETATM    8  C14 UNL     1      -0.500  -1.259  -2.545  1.00  0.00     0.184 A 
HETATM    9  N7  UNL     1      -1.669  -0.782  -2.007  1.00  0.00    -0.338 N 
ATOM     10  H7  UNL     1      -2.528  -0.805  -2.556  1.00  0.00     0.168 HD
HETATM   11  C15 UNL     1      -1.685  -0.287  -0.763  1.00  0.00     0.123 A 
ENDROOT
BRANCH   5  12
HETATM   12  N2  UNL     1       1.680  -0.723   0.039  1.00  0.00    -0.401 NA
BRANCH  12  13
HETATM   13  C7  UNL     1       2.936  -0.803   0.510  1.00  0.00     0.177 C 
BRANCH  13  14
HETATM   14  C8  UNL     1       3.908  -1.616  -0.358  1.00  0.00     0.197 C 
BRANCH  14  15
HETATM   15  N3  UNL     1       5.192  -1.602   0.289  1.00  0.00    -0.220 N 
ATOM     16  H3  UNL     1       5.445  -2.339   0.947  1.00  0.00     0.178 HD
BRANCH  15  17
HETATM   17  C9  UNL     1       6.029  -0.640   0.028  1.00  0.00     0.678 A 
HETATM   18  N4  UNL     1       7.232  -0.677   0.665  1.00  0.00    -0.187 N 
HETATM   19  C10 UNL     1       8.143   0.241   0.490  1.00  0.00     0.133 A 
ATOM     20  H4  UNL     1       7.428  -1.450   1.301  1.00  0.00     0.184 HD
HETATM   21  C12 UNL     1       7.892   1.279  -0.366  1.00  0.00     0.052 A 
HETATM   22  C13 UNL     1       6.683   1.336  -1.026  1.00  0.00     0.108 A 
HETATM   23  N5  UNL     1       5.764   0.366  -0.809  1.00  0.00    -0.202 N 
ATOM     24  H5  UNL     1       4.864   0.404  -1.288  1.00  0.00     0.183 HD
BRANCH  19  25
HETATM   25  C11 UNL     1       9.490   0.213   1.140  1.00  0.00     0.433 C 
HETATM   26  F1  UNL     1       9.775  -1.019   1.620  1.00  0.00    -0.165 F 
HETATM   27  F2  UNL     1      10.496   0.617   0.318  1.00  0.00    -0.165 F 
HETATM   28  F3  UNL     1       9.454   1.098   2.245  1.00  0.00    -0.165 F 
ENDBRANCH  19  25
ENDBRANCH  15  17
ENDBRANCH  14  15
ENDBRANCH  13  14
ENDBRANCH  12  13
ENDBRANCH   5  12
BRANCH   1  29
HETATM   29  C2  UNL     1      -4.016   0.661  -0.290  1.00  0.00     0.166 C 
BRANCH  29  30
HETATM   30  C1  UNL     1      -4.998  -0.309   0.183  1.00  0.00     0.169 C 
BRANCH  30  31
HETATM   31  O1  UNL     1      -4.948  -1.515  -0.452  1.00  0.00    -0.389 OA
ATOM     32  H1  UNL     1      -5.587  -2.147  -0.144  1.00  0.00     0.210 HD
ENDBRANCH  30  31
BRANCH  30  33
HETATM   33  C16 UNL     1      -6.370   0.208   0.360  1.00  0.00    -0.028 A 
HETATM   34  C17 UNL     1      -6.714   1.497   0.094  1.00  0.00     0.010 A 
HETATM   35  C18 UNL     1      -8.006   1.940   0.401  1.00  0.00     0.001 A 
HETATM   36  C19 UNL     1      -8.915   1.095   0.966  1.00  0.00     0.000 A 
HETATM   37  C20 UNL     1      -8.591  -0.193   1.236  1.00  0.00     0.001 A 
HETATM   38  C21 UNL     1      -7.303  -0.632   0.926  1.00  0.00     0.010 A 
ENDBRANCH  30  33
ENDBRANCH  29  30
ENDBRANCH   1  29
TORSDOF 10
