REMARK  10 active torsions:
REMARK  status: ('A' for Active; 'I' for Inactive)
REMARK    1  A    between atoms: C2_2  and  O1_3 
REMARK    2  A    between atoms: C2_2  and  C3_5 
REMARK    3  A    between atoms: C2_2  and  C20_32 
REMARK    4  A    between atoms: N1_9  and  C7_10 
REMARK    5  A    between atoms: C8_12  and  C9_13 
REMARK    6  A    between atoms: C9_13  and  S1_14 
REMARK    7  A    between atoms: S1_14  and  C10_15 
REMARK    8  A    between atoms: C10_15  and  C11_16 
REMARK    9  A    between atoms: C17_22  and  O3_23 
REMARK   10  A    between atoms: C18_25  and  O4_26 
ROOT
HETATM    1  C7  UNL     1      -1.731  -0.538  -0.049  1.00  0.00     0.277 C 
HETATM    2  O2  UNL     1      -0.432  -0.585  -0.641  1.00  0.00    -0.352 OA
HETATM    3  C8  UNL     1       0.515  -0.407   0.360  1.00  0.00     0.165 C 
HETATM    4  C17 UNL     1       0.626  -1.739   1.072  1.00  0.00     0.182 C 
HETATM    5  C18 UNL     1      -0.713  -1.970   1.790  1.00  0.00     0.199 C 
HETATM    6  C19 UNL     1      -1.598  -0.841   1.406  1.00  0.00     0.061 C 
HETATM    7  N2  UNL     1      -2.210  -0.161   2.338  1.00  0.00    -0.400 N 
ATOM      8  H21 UNL     1      -2.119  -0.368   3.333  1.00  0.00     0.155 HD
ATOM      9  H22 UNL     1      -2.818   0.614   2.074  1.00  0.00     0.155 HD
ENDROOT
BRANCH   1  10
HETATM   10  N1  UNL     1      -2.347   0.736  -0.317  1.00  0.00    -0.325 N 
HETATM   11  C3  UNL     1      -3.661   0.919  -0.581  1.00  0.00     0.057 A 
HETATM   12  C4  UNL     1      -3.845   2.293  -0.795  1.00  0.00     0.030 A 
HETATM   13  C5  UNL     1      -2.642   2.937  -0.661  1.00  0.00     0.019 A 
HETATM   14  C6  UNL     1      -1.720   1.935  -0.360  1.00  0.00     0.094 A 
BRANCH  11  15
HETATM   15  C2  UNL     1      -4.779  -0.034  -0.687  1.00  0.00     0.194 C 
HETATM   16  C1  UNL     1      -5.981   0.654  -0.020  1.00  0.00     0.062 C 
BRANCH  15  17
HETATM   17  O1  UNL     1      -4.621  -1.229  -0.036  1.00  0.00    -0.375 OA
ATOM     18  H1  UNL     1      -3.878  -1.654  -0.448  1.00  0.00     0.211 HD
ENDBRANCH  15  17
BRANCH  15  19
HETATM   19  C20 UNL     1      -5.111  -0.314  -2.150  1.00  0.00     0.423 C 
HETATM   20  F1  UNL     1      -6.225  -1.137  -2.229  1.00  0.00    -0.167 F 
HETATM   21  F2  UNL     1      -4.072  -0.967  -2.763  1.00  0.00    -0.167 F 
HETATM   22  F3  UNL     1      -5.364   0.894  -2.787  1.00  0.00    -0.167 F 
ENDBRANCH  15  19
ENDBRANCH  11  15
ENDBRANCH   1  10
BRANCH   3  23
HETATM   23  C9  UNL     1       1.794   0.089  -0.246  1.00  0.00     0.109 C 
BRANCH  23  24
HETATM   24  S1  UNL     1       2.532  -1.032  -1.441  1.00  0.00    -0.162 SA
BRANCH  24  25
HETATM   25  C10 UNL     1       3.937  -0.232  -2.235  1.00  0.00     0.112 C 
BRANCH  25  26
HETATM   26  C11 UNL     1       5.043   0.097  -1.329  1.00  0.00    -0.049 A 
HETATM   27  C12 UNL     1       6.070  -0.780  -1.089  1.00  0.00     0.008 A 
HETATM   28  C13 UNL     1       7.118  -0.439  -0.219  1.00  0.00     0.001 A 
HETATM   29  C14 UNL     1       7.124   0.791   0.406  1.00  0.00     0.000 A 
HETATM   30  C15 UNL     1       6.086   1.665   0.162  1.00  0.00     0.001 A 
HETATM   31  C16 UNL     1       5.073   1.303  -0.693  1.00  0.00     0.008 A 
ENDBRANCH  25  26
ENDBRANCH  24  25
ENDBRANCH  23  24
ENDBRANCH   3  23
BRANCH   5  32
HETATM   32  O4  UNL     1      -1.330  -3.148   1.339  1.00  0.00    -0.387 OA
ATOM     33  H4  UNL     1      -2.158  -3.291   1.783  1.00  0.00     0.210 HD
ENDBRANCH   5  32
BRANCH   4  34
HETATM   34  O3  UNL     1       1.685  -1.803   1.957  1.00  0.00    -0.390 OA
ATOM     35  H3  UNL     1       1.755  -2.639   2.404  1.00  0.00     0.210 HD
ENDBRANCH   4  34
TORSDOF 10
