REMARK  10 active torsions:
REMARK  status: ('A' for Active; 'I' for Inactive)
REMARK    1  A    between atoms: C2_2  and  C3_3 
REMARK    2  A    between atoms: C3_3  and  N1_4 
REMARK    3  A    between atoms: N1_4  and  C4_6 
REMARK    4  A    between atoms: C5_9  and  N3_10 
REMARK    5  A    between atoms: N3_10  and  C6_12 
REMARK    6  A    between atoms: C6_12  and  C7_13 
REMARK    7  A    between atoms: C7_13  and  N4_14 
REMARK    8  A    between atoms: C10_19  and  N6_20 
REMARK    9  A    between atoms: N6_20  and  C11_22 
REMARK   10  A    between atoms: C17_28  and  C18_29 
ROOT
HETATM    1  C4  UNL     1      -1.635   1.754  -0.269  1.00  0.00     0.707 A 
HETATM    2  N2  UNL     1      -1.869   0.559   0.323  1.00  0.00    -0.022 N 
ATOM      3  H2  UNL     1      -2.804   0.336   0.663  1.00  0.00     0.203 HD
HETATM    4  C5  UNL     1      -0.875  -0.334   0.465  1.00  0.00     0.707 A 
HETATM    5  N5  UNL     1       0.351  -0.021   0.010  1.00  0.00    -0.021 N 
ATOM      6  H5  UNL     1       1.106  -0.698   0.116  1.00  0.00     0.203 HD
HETATM    7  C10 UNL     1       0.612   1.164  -0.584  1.00  0.00     0.711 A 
HETATM    8  N9  UNL     1      -0.410   2.060  -0.720  1.00  0.00    -0.021 N 
ATOM      9  H9  UNL     1      -0.241   2.962  -1.165  1.00  0.00     0.203 HD
ENDROOT
BRANCH   7  10
HETATM   10  N6  UNL     1       1.794   1.447  -1.013  1.00  0.00    -0.191 N 
ATOM     11  H6  UNL     1       1.959   2.350  -1.457  1.00  0.00     0.184 HD
BRANCH  10  12
HETATM   12  C11 UNL     1       2.872   0.534  -0.883  1.00  0.00     0.050 A 
HETATM   13  C12 UNL     1       3.260  -0.212  -1.981  1.00  0.00     0.032 A 
HETATM   14  C13 UNL     1       4.309  -1.087  -1.820  1.00  0.00     0.034 A 
HETATM   15  C14 UNL     1       4.940  -1.204  -0.601  1.00  0.00     0.063 A 
HETATM   16  C15 UNL     1       4.555  -0.462   0.495  1.00  0.00     0.027 A 
HETATM   17  N8  UNL     1       5.981  -1.970  -0.159  1.00  0.00    -0.295 N 
HETATM   18  C16 UNL     1       3.510   0.411   0.340  1.00  0.00     0.046 A 
HETATM   19  C17 UNL     1       5.369  -0.791   1.583  1.00  0.00     0.145 A 
HETATM   20  N7  UNL     1       6.213  -1.713   1.114  1.00  0.00    -0.293 N 
ATOM     21  H7  UNL     1       6.943  -2.161   1.668  1.00  0.00     0.187 HD
HETATM   22  C19 UNL     1       6.658  -2.896  -1.047  1.00  0.00     0.178 C 
BRANCH  19  23
HETATM   23  C18 UNL     1       5.251  -0.192   2.938  1.00  0.00     0.434 C 
HETATM   24  F1  UNL     1       5.436   1.183   2.902  1.00  0.00    -0.165 F 
HETATM   25  F2  UNL     1       6.237  -0.742   3.722  1.00  0.00    -0.165 F 
HETATM   26  F3  UNL     1       3.995  -0.403   3.478  1.00  0.00    -0.165 F 
ENDBRANCH  19  23
ENDBRANCH  10  12
ENDBRANCH   7  10
BRANCH   4  27
HETATM   27  N3  UNL     1      -1.070  -1.458   1.016  1.00  0.00    -0.223 N 
ATOM     28  H3  UNL     1      -0.260  -2.075   1.082  1.00  0.00     0.177 HD
BRANCH  27  29
HETATM   29  C6  UNL     1      -2.301  -1.964   1.559  1.00  0.00     0.168 C 
BRANCH  29  30
HETATM   30  C7  UNL     1      -3.021  -2.715   0.474  1.00  0.00     0.291 C 
BRANCH  30  31
HETATM   31  N4  UNL     1      -4.279  -3.266   0.923  1.00  0.00     0.081 N 
HETATM   32  C8  UNL     1      -4.974  -3.983  -0.101  1.00  0.00     0.309 C 
HETATM   33  C9  UNL     1      -5.074  -2.344   1.665  1.00  0.00     0.309 C 
ENDBRANCH  30  31
ENDBRANCH  29  30
ENDBRANCH  27  29
ENDBRANCH   4  27
BRANCH   1  34
HETATM   34  N1  UNL     1      -2.586   2.608  -0.404  1.00  0.00    -0.225 N 
ATOM     35  H1  UNL     1      -3.516   2.371  -0.059  1.00  0.00     0.177 HD
BRANCH  34  36
HETATM   36  C3  UNL     1      -2.377   3.886  -1.026  1.00  0.00     0.137 C 
BRANCH  36  37
HETATM   37  C2  UNL     1      -3.537   4.830  -0.788  1.00  0.00     0.016 C 
HETATM   38  C1  UNL     1      -3.228   6.145  -1.477  1.00  0.00     0.006 C 
ENDBRANCH  36  37
ENDBRANCH  34  36
ENDBRANCH   1  34
TORSDOF 10
