REMARK  16 active torsions:
REMARK  status: ('A' for Active; 'I' for Inactive)
REMARK    1  A    between atoms: C2_2  and  O1_3 
REMARK    2  A    between atoms: C3_5  and  C4_6 
REMARK    3  A    between atoms: C4_6  and  O3_8 
REMARK    4  A    between atoms: O3_8  and  C5_9 
REMARK    5  A    between atoms: C6_11  and  O5_13 
REMARK    6  A    between atoms: C9_16  and  O6_17 
REMARK    7  A    between atoms: C9_16  and  C10_19 
REMARK    8  A    between atoms: C11_20  and  C12_21 
REMARK    9  A    between atoms: C12_21  and  O8_23 
REMARK   10  A    between atoms: O8_23  and  C13_24 
REMARK   11  A    between atoms: C16_30  and  O9_31 
REMARK   12  A    between atoms: C18_34  and  O10_35 
REMARK   13  A    between atoms: C18_34  and  C19_37 
REMARK   14  A    between atoms: C20_40  and  C21_41 
REMARK   15  A    between atoms: C21_41  and  C22_42 
REMARK   16  A    between atoms: C22_42  and  O13_43 
ROOT
HETATM    1  C12 UNL     1       0.010  -0.472   1.293  1.00  0.00     0.284 C 
HETATM    2  O7  UNL     1      -0.139  -0.240   2.498  1.00  0.00    -0.260 OA
ENDROOT
BRANCH   1   3
HETATM    3  C11 UNL     1       1.298  -0.974   0.820  1.00  0.00     0.081 C 
HETATM    4  C10 UNL     1       2.298  -1.183   1.657  1.00  0.00     0.022 C 
BRANCH   4   5
HETATM    5  C9  UNL     1       3.592  -1.690   1.172  1.00  0.00     0.131 C 
HETATM    6  C5  UNL     1       3.995  -0.910  -0.058  1.00  0.00     0.311 C 
HETATM    7  O4  UNL     1       4.108  -1.813  -1.105  1.00  0.00    -0.322 OA
HETATM    8  C6  UNL     1       4.416  -3.050  -0.552  1.00  0.00     0.164 C 
HETATM    9  C7  UNL     1       3.985  -4.148  -1.472  1.00  0.00     0.079 C 
HETATM   10  C8  UNL     1       3.521  -3.100   0.681  1.00  0.00     0.115 C 
BRANCH   6  11
HETATM   11  O3  UNL     1       5.195  -0.209   0.167  1.00  0.00    -0.283 OA
BRANCH  11  12
HETATM   12  C4  UNL     1       5.242   1.194   0.026  1.00  0.00     0.287 C 
HETATM   13  O2  UNL     1       4.152   1.717  -0.304  1.00  0.00    -0.260 OA
BRANCH  12  14
HETATM   14  C3  UNL     1       6.479   1.916   0.259  1.00  0.00     0.113 C 
HETATM   15  C2  UNL     1       6.544   3.207   0.135  1.00  0.00     0.045 C 
HETATM   16  C1  UNL     1       5.393   4.028  -0.243  1.00  0.00     0.076 C 
BRANCH  15  17
HETATM   17  O1  UNL     1       7.779   3.841   0.376  1.00  0.00    -0.365 OA
ATOM     18  H1  UNL     1       8.526   3.308   0.621  1.00  0.00     0.217 HD
ENDBRANCH  15  17
ENDBRANCH  12  14
ENDBRANCH  11  12
ENDBRANCH   6  11
BRANCH   8  19
HETATM   19  O5  UNL     1       5.731  -3.152  -0.140  1.00  0.00    -0.365 OA
ATOM     20  H5  UNL     1       5.942  -3.998   0.238  1.00  0.00     0.213 HD
ENDBRANCH   8  19
BRANCH   5  21
HETATM   21  O6  UNL     1       4.601  -1.555   2.127  1.00  0.00    -0.381 OA
ATOM     22  H6  UNL     1       4.348  -2.045   2.900  1.00  0.00     0.211 HD
ENDBRANCH   5  21
ENDBRANCH   4   5
ENDBRANCH   1   3
BRANCH   1  23
HETATM   23  O8  UNL     1      -1.030  -0.255   0.419  1.00  0.00    -0.283 OA
BRANCH  23  24
HETATM   24  C13 UNL     1      -2.289   0.232   0.854  1.00  0.00     0.340 C 
HETATM   25  N1  UNL     1      -2.519   1.478   0.137  1.00  0.00    -0.043 N 
HETATM   26  C14 UNL     1      -3.287   1.264  -1.047  1.00  0.00     0.199 C 
ATOM     27  H12 UNL     1      -2.948   2.182   0.738  1.00  0.00     0.280 HD
ATOM     28  H11 UNL     1      -1.643   1.959  -0.068  1.00  0.00     0.280 HD
HETATM   29  C15 UNL     1      -2.710   0.092  -1.807  1.00  0.00     0.066 C 
HETATM   30  C20 UNL     1      -4.745   0.901  -0.714  1.00  0.00     0.064 C 
HETATM   31  C16 UNL     1      -3.019  -1.163  -1.012  1.00  0.00     0.132 C 
HETATM   32  C17 UNL     1      -3.344  -0.728   0.397  1.00  0.00     0.117 C 
HETATM   33  C18 UNL     1      -4.742  -0.072   0.392  1.00  0.00     0.161 C 
BRANCH  31  34
HETATM   34  O9  UNL     1      -4.065  -1.809  -1.639  1.00  0.00    -0.395 OA
ATOM     35  H9  UNL     1      -4.258  -2.595  -1.141  1.00  0.00     0.210 HD
ENDBRANCH  31  34
BRANCH  33  36
HETATM   36  O10 UNL     1      -5.596  -1.165   0.098  1.00  0.00    -0.378 OA
ATOM     37  H10 UNL     1      -6.456  -0.761   0.095  1.00  0.00     0.211 HD
ENDBRANCH  33  36
BRANCH  33  38
HETATM   38  C19 UNL     1      -5.089   0.394   1.727  1.00  0.00     0.210 C 
HETATM   39  O11 UNL     1      -4.576   1.397   2.309  1.00  0.00    -0.646 OA
HETATM   40  O12 UNL     1      -6.061  -0.253   2.524  1.00  0.00    -0.646 OA
ENDBRANCH  33  38
BRANCH  30  41
HETATM   41  C21 UNL     1      -5.463   2.182  -0.536  1.00  0.00     0.036 C 
BRANCH  41  42
HETATM   42  C22 UNL     1      -6.916   2.107  -0.217  1.00  0.00     0.164 C 
BRANCH  42  43
HETATM   43  O13 UNL     1      -7.651   1.447  -1.204  1.00  0.00    -0.401 OA
ATOM     44  H13 UNL     1      -8.578   1.399  -1.001  1.00  0.00     0.209 HD
ENDBRANCH  42  43
ENDBRANCH  41  42
ENDBRANCH  30  41
ENDBRANCH  23  24
ENDBRANCH   1  23
TORSDOF 16
