REMARK  12 active torsions:
REMARK  status: ('A' for Active; 'I' for Inactive)
REMARK    1  A    between atoms: O1_2  and  N1_3 
REMARK    2  A    between atoms: N1_3  and  C2_5 
REMARK    3  A    between atoms: C2_5  and  C16_41 
REMARK    4  A    between atoms: C3_6  and  O2_7 
REMARK    5  A    between atoms: C3_6  and  N2_9 
REMARK       I    between atoms: N2_9  and  C4_11 
REMARK    6  A    between atoms: C4_11  and  C5_13 
REMARK    7  A    between atoms: C7_15  and  C8_16 
REMARK    8  A    between atoms: C8_16  and  O4_17 
REMARK    9  A    between atoms: C8_16  and  C9_19 
REMARK   10  A    between atoms: C10_22  and  C11_23 
REMARK   11  A    between atoms: C12_32  and  N9_33 
REMARK   12  A    between atoms: C18_44  and  N12_45 
ROOT
HETATM    1  C5  UNL     1       0.302   2.125  -0.394  1.00  0.00     0.103 A 
HETATM    2  C6  UNL     1      -0.545   1.620  -1.390  1.00  0.00     0.047 A 
HETATM    3  C7  UNL     1      -1.648   1.057  -0.798  1.00  0.00    -0.006 A 
HETATM    4  C14 UNL     1      -1.473   1.219   0.555  1.00  0.00     0.101 A 
HETATM    5  N11 UNL     1      -0.296   1.863   0.784  1.00  0.00    -0.356 N 
HETATM    6  C15 UNL     1       0.201   2.210   2.116  1.00  0.00     0.156 C 
ENDROOT
BRANCH   3   7
HETATM    7  C8  UNL     1      -2.781   0.416  -1.489  1.00  0.00     0.204 C 
BRANCH   7   8
HETATM    8  O4  UNL     1      -2.326  -0.440  -2.521  1.00  0.00    -0.385 OA
ATOM      9  H4  UNL     1      -3.056  -0.853  -2.966  1.00  0.00     0.211 HD
ENDBRANCH   7   8
BRANCH   7  10
HETATM   10  C9  UNL     1      -3.615  -0.398  -0.557  1.00  0.00     0.072 A 
HETATM   11  N3  UNL     1      -4.859  -0.041  -0.195  1.00  0.00    -0.339 N 
HETATM   12  C10 UNL     1      -5.622  -0.754   0.638  1.00  0.00     0.154 A 
ATOM     13  H3  UNL     1      -5.242   0.823  -0.578  1.00  0.00     0.167 HD
HETATM   14  N8  UNL     1      -5.090  -1.890   1.128  1.00  0.00    -0.324 N 
HETATM   15  C12 UNL     1      -3.856  -2.326   0.822  1.00  0.00     0.127 A 
ATOM     16  H8  UNL     1      -5.655  -2.450   1.766  1.00  0.00     0.169 HD
HETATM   17  C13 UNL     1      -3.085  -1.564  -0.046  1.00  0.00     0.115 A 
HETATM   18  N10 UNL     1      -1.770  -2.001  -0.389  1.00  0.00    -0.096 NA
BRANCH  12  19
HETATM   19  C11 UNL     1      -6.972  -0.342   1.015  1.00  0.00     0.176 A 
HETATM   20  N4  UNL     1      -7.625   0.758   0.607  1.00  0.00    -0.267 N 
HETATM   21  N5  UNL     1      -8.836   0.784   1.171  1.00  0.00    -0.007 NA
ATOM     22  H4  UNL     1      -7.255   1.462  -0.032  1.00  0.00     0.185 HD
HETATM   23  N6  UNL     1      -8.957  -0.301   1.939  1.00  0.00    -0.007 NA
HETATM   24  N7  UNL     1      -7.813  -0.985   1.839  1.00  0.00    -0.267 N 
ATOM     25  H7  UNL     1      -7.610  -1.863   2.317  1.00  0.00     0.185 HD
ENDBRANCH  12  19
BRANCH  15  26
HETATM   26  N9  UNL     1      -3.386  -3.421   1.315  1.00  0.00    -0.384 N 
ATOM     27  H92 UNL     1      -3.952  -3.981   1.953  1.00  0.00     0.157 HD
ATOM     28  H91 UNL     1      -2.450  -3.752   1.083  1.00  0.00     0.157 HD
ENDBRANCH  15  26
ENDBRANCH   7  10
ENDBRANCH   3   7
BRANCH   1  29
HETATM   29  C4  UNL     1       1.554   2.813  -0.627  1.00  0.00     0.274 C 
HETATM   30  N2  UNL     1       2.853   2.173  -0.607  1.00  0.00    -0.300 N 
ATOM     31  H2  UNL     1       3.682   2.748  -0.757  1.00  0.00     0.171 HD
HETATM   32  O3  UNL     1       1.556   4.058  -0.867  1.00  0.00    -0.266 OA
BRANCH  30  33
HETATM   33  C3  UNL     1       3.018   0.812  -0.393  1.00  0.00     0.174 C 
HETATM   34  C2  UNL     1       4.196  -0.003  -0.286  1.00  0.00     0.132 C 
BRANCH  34  35
HETATM   35  N1  UNL     1       3.962  -1.285  -0.164  1.00  0.00    -0.261 N 
ATOM     36  H1  UNL     1       2.991  -1.596  -0.159  1.00  0.00     0.194 HD
BRANCH  35  37
HETATM   37  O1  UNL     1       4.913  -2.207  -0.046  1.00  0.00    -0.285 OA
HETATM   38  C1  UNL     1       4.681  -3.325   0.805  1.00  0.00     0.237 C 
ENDBRANCH  35  37
ENDBRANCH  34  35
BRANCH  34  39
HETATM   39  C16 UNL     1       5.591   0.508  -0.386  1.00  0.00     0.074 A 
HETATM   40  C17 UNL     1       5.920   1.773   0.026  1.00  0.00     0.085 A 
HETATM   41  S1  UNL     1       7.565   1.897  -0.421  1.00  0.00    -0.064 SA
HETATM   42  C18 UNL     1       7.751   0.353  -1.100  1.00  0.00     0.142 A 
HETATM   43  N13 UNL     1       6.545  -0.193  -0.957  1.00  0.00    -0.335 N 
ATOM     44  H13 UNL     1       6.364  -1.141  -1.286  1.00  0.00     0.168 HD
BRANCH  42  45
HETATM   45  N12 UNL     1       8.826  -0.189  -1.642  1.00  0.00    -0.380 N 
ATOM     46 2H12 UNL     1       9.750   0.229  -1.752  1.00  0.00     0.158 HD
ATOM     47 1H12 UNL     1       8.938  -1.117  -2.050  1.00  0.00     0.158 HD
ENDBRANCH  42  45
ENDBRANCH  34  39
BRANCH  33  48
HETATM   48  O2  UNL     1       1.907   0.138  -0.272  1.00  0.00    -0.344 OA
ATOM     49  H2  UNL     1       1.128   0.677  -0.343  1.00  0.00     0.219 HD
ENDBRANCH  33  48
ENDBRANCH  30  33
ENDBRANCH   1  29
TORSDOF 12
