REMARK  14 active torsions:
REMARK  status: ('A' for Active; 'I' for Inactive)
REMARK    1  A    between atoms: C2_2  and  N1_3 
REMARK    2  A    between atoms: N1_3  and  C3_5 
REMARK    3  A    between atoms: C4_8  and  N3_9 
REMARK    4  A    between atoms: C6_15  and  C7_16 
REMARK    5  A    between atoms: C8_19  and  O1_20 
REMARK    6  A    between atoms: C9_22  and  C10_23 
REMARK    7  A    between atoms: C10_23  and  C11_24 
REMARK    8  A    between atoms: C13_27  and  C14_28 
REMARK    9  A    between atoms: C14_28  and  N6_30 
REMARK   10  A    between atoms: N6_30  and  C16_33 
REMARK   11  A    between atoms: C16_33  and  C17_34 
REMARK   12  A    between atoms: C17_34  and  N7_35 
REMARK   13  A    between atoms: N8_39  and  N9_40 
REMARK   14  A    between atoms: N10_44  and  N11_46 
ROOT
HETATM    1  C7  UNL     1      -2.599  -0.544  -0.433  1.00  0.00     0.097 A 
HETATM    2  N5  UNL     1      -2.573  -1.938  -0.171  1.00  0.00    -0.331 N 
ATOM      3  H5  UNL     1      -3.368  -2.367   0.303  1.00  0.00     0.168 HD
HETATM    4  C8  UNL     1      -1.458  -2.767  -0.554  1.00  0.00     0.166 A 
HETATM    5  C9  UNL     1      -0.388  -2.301  -1.168  1.00  0.00     0.090 A 
HETATM    6  N8  UNL     1      -0.350  -0.922  -1.459  1.00  0.00    -0.243 N 
HETATM    7  C21 UNL     1      -1.428  -0.010  -1.112  1.00  0.00     0.169 A 
HETATM    8  N10 UNL     1      -1.330   1.204  -1.428  1.00  0.00    -0.289 N 
ATOM      9  H10 UNL     1      -2.111   1.815  -1.190  1.00  0.00     0.188 HD
ENDROOT
BRANCH   1  10
HETATM   10  C6  UNL     1      -3.629   0.235  -0.069  1.00  0.00     0.059 A 
HETATM   11  C5  UNL     1      -4.779  -0.215   0.598  1.00  0.00     0.174 A 
HETATM   12  N4  UNL     1      -5.241  -1.386   1.050  1.00  0.00    -0.173 N 
HETATM   13  N13 UNL     1      -5.579   0.872   0.801  1.00  0.00    -0.068 N 
HETATM   14  C4  UNL     1      -6.412  -1.524   1.669  1.00  0.00     0.692 A 
ATOM     15  H4  UNL     1      -4.666  -2.217   0.913  1.00  0.00     0.186 HD
HETATM   16  N2  UNL     1      -7.160  -0.439   1.846  1.00  0.00    -0.021 N 
HETATM   17  C3  UNL     1      -6.781   0.790   1.425  1.00  0.00     0.719 A 
ATOM     18  H2  UNL     1      -8.058  -0.537   2.319  1.00  0.00     0.203 HD
HETATM   19  N12 UNL     1      -5.011   1.933   0.315  1.00  0.00    -0.288 N 
HETATM   20  C22 UNL     1      -3.806   1.586  -0.231  1.00  0.00     0.126 A 
ATOM     21  H12 UNL     1      -5.401   2.875   0.337  1.00  0.00     0.187 HD
BRANCH  14  22
HETATM   22  N3  UNL     1      -6.823  -2.697   2.095  1.00  0.00    -0.234 N 
ATOM     23  H32 UNL     1      -7.720  -2.803   2.569  1.00  0.00     0.174 HD
ATOM     24  H31 UNL     1      -6.249  -3.529   1.959  1.00  0.00     0.174 HD
ENDBRANCH  14  22
BRANCH  17  25
HETATM   25  N1  UNL     1      -7.536   1.782   1.627  1.00  0.00    -0.203 N 
ATOM     26  H1  UNL     1      -8.403   1.551   2.112  1.00  0.00     0.183 HD
BRANCH  25  27
HETATM   27  C2  UNL     1      -7.406   3.149   1.308  1.00  0.00     0.074 C 
HETATM   28  C1  UNL     1      -6.566   3.874   2.352  1.00  0.00     0.055 C 
ENDBRANCH  25  27
ENDBRANCH  17  25
ENDBRANCH   1  10
BRANCH   4  29
HETATM   29  O1  UNL     1      -1.574  -4.123  -0.233  1.00  0.00    -0.345 OA
ATOM     30  H1  UNL     1      -0.839  -4.669  -0.485  1.00  0.00     0.219 HD
ENDBRANCH   4  29
BRANCH   6  31
HETATM   31  N9  UNL     1       0.743  -0.332  -2.112  1.00  0.00    -0.337 N 
ATOM     32  H92 UNL     1       1.499  -0.972  -2.355  1.00  0.00     0.177 HD
ATOM     33  H91 UNL     1       0.770   0.666  -2.323  1.00  0.00     0.177 HD
ENDBRANCH   6  31
BRANCH   8  34
HETATM   34  N11 UNL     1      -0.263   1.770  -2.064  1.00  0.00    -0.344 N 
ATOM     35 2H11 UNL     1       0.509   1.144  -2.295  1.00  0.00     0.176 HD
ATOM     36 1H11 UNL     1      -0.184   2.754  -2.320  1.00  0.00     0.176 HD
ENDBRANCH   8  34
BRANCH   5  37
HETATM   37  C10 UNL     1       0.654  -3.250  -1.494  1.00  0.00     0.103 C 
BRANCH  37  38
HETATM   38  C11 UNL     1       1.960  -2.977  -0.759  1.00  0.00    -0.045 A 
HETATM   39  C12 UNL     1       2.076  -3.159   0.604  1.00  0.00     0.057 A 
HETATM   40  S1  UNL     1       3.694  -2.776   0.923  1.00  0.00    -0.104 SA
HETATM   41  C13 UNL     1       4.207  -2.391  -0.655  1.00  0.00     0.013 A 
HETATM   42  C20 UNL     1       3.079  -2.576  -1.402  1.00  0.00     0.024 A 
BRANCH  41  43
HETATM   43  C14 UNL     1       5.572  -1.947  -1.131  1.00  0.00     0.221 C 
HETATM   44  C15 UNL     1       5.453  -1.564  -2.573  1.00  0.00     0.046 C 
BRANCH  43  45
HETATM   45  N6  UNL     1       6.089  -0.903  -0.280  1.00  0.00    -0.065 N 
ATOM     46  H62 UNL     1       6.267  -1.246   0.664  1.00  0.00     0.278 HD
ATOM     47  H61 UNL     1       7.042  -0.650  -0.539  1.00  0.00     0.278 HD
BRANCH  45  48
HETATM   48  C16 UNL     1       5.217   0.259  -0.266  1.00  0.00     0.263 C 
BRANCH  48  49
HETATM   49  C17 UNL     1       5.847   1.284   0.652  1.00  0.00     0.298 C 
BRANCH  49  50
HETATM   50  N7  UNL     1       5.049   2.489   0.734  1.00  0.00     0.081 N 
HETATM   51  C18 UNL     1       5.724   3.404   1.632  1.00  0.00     0.309 C 
HETATM   52  C19 UNL     1       3.719   2.265   1.229  1.00  0.00     0.309 C 
ENDBRANCH  49  50
ENDBRANCH  48  49
ENDBRANCH  45  48
ENDBRANCH  43  45
ENDBRANCH  41  43
ENDBRANCH  37  38
ENDBRANCH   5  37
TORSDOF 14
