REMARK  10 active torsions:
REMARK  status: ('A' for Active; 'I' for Inactive)
REMARK    1  A    between atoms: C2_5  and  N2_6 
REMARK       I    between atoms: N2_6  and  C3_8 
REMARK    2  A    between atoms: C4_11  and  O2_12 
REMARK    3  A    between atoms: C5_17  and  O3_18 
REMARK    4  A    between atoms: O3_18  and  N5_19 
REMARK    5  A    between atoms: C6_21  and  C7_22 
REMARK    6  A    between atoms: C9_25  and  N6_26 
REMARK    7  A    between atoms: C10_31  and  N8_32 
REMARK       I    between atoms: N8_32  and  C11_34 
REMARK    8  A    between atoms: C11_34  and  C12_36 
REMARK    9  A    between atoms: C14_38  and  N9_39 
REMARK   10  A    between atoms: C16_43  and  N10_44 
ROOT
HETATM    1  N1  UNL     1      -1.198   3.002  -0.823  1.00  0.00    -0.402 N 
ATOM      2  H11 UNL     1      -1.874   2.264  -1.023  1.00  0.00     0.155 HD
ATOM      3  H12 UNL     1      -1.332   3.932  -1.221  1.00  0.00     0.155 HD
HETATM    4  C1  UNL     1      -0.164   2.838  -0.088  1.00  0.00     0.035 C 
HETATM    5  C2  UNL     1       0.805   3.896   0.199  1.00  0.00     0.189 C 
HETATM    6  C4  UNL     1       2.190   3.421   0.501  1.00  0.00     0.350 C 
HETATM    7  N4  UNL     1       2.276   2.066   0.958  1.00  0.00    -0.015 N 
ATOM      8  H41 UNL     1       2.031   2.006   1.946  1.00  0.00     0.283 HD
ATOM      9  H42 UNL     1       3.249   1.765   1.002  1.00  0.00     0.283 HD
HETATM   10  C5  UNL     1       1.500   1.142   0.193  1.00  0.00     0.381 C 
HETATM   11  C10 UNL     1       0.032   1.481   0.493  1.00  0.00     0.191 C 
ENDROOT
BRANCH  11  12
HETATM   12  N8  UNL     1      -0.825   0.486  -0.051  1.00  0.00    -0.343 N 
HETATM   13  C11 UNL     1      -1.655  -0.287   0.783  1.00  0.00     0.252 C 
HETATM   14  O4  UNL     1      -1.601  -0.051   2.045  1.00  0.00    -0.268 OA
ATOM     15  H8  UNL     1      -0.839   0.330  -1.059  1.00  0.00     0.163 HD
BRANCH  13  16
HETATM   16  C12 UNL     1      -2.549  -1.316   0.279  1.00  0.00     0.036 A 
HETATM   17  C13 UNL     1      -2.560  -1.625  -1.051  1.00  0.00     0.053 A 
HETATM   18  C14 UNL     1      -3.421  -2.613  -1.524  1.00  0.00     0.106 A 
HETATM   19  C15 UNL     1      -4.227  -3.238  -0.620  1.00  0.00     0.072 A 
HETATM   20  C16 UNL     1      -4.241  -2.953   0.721  1.00  0.00     0.106 A 
HETATM   21  C17 UNL     1      -3.385  -1.976   1.161  1.00  0.00     0.053 A 
BRANCH  18  22
HETATM   22  N9  UNL     1      -3.451  -2.951  -2.891  1.00  0.00    -0.116 N 
HETATM   23  O5  UNL     1      -2.716  -2.380  -3.702  1.00  0.00    -0.532 OA
HETATM   24  O6  UNL     1      -4.309  -3.925  -3.320  1.00  0.00    -0.532 OA
ENDBRANCH  18  22
BRANCH  20  25
HETATM   25  N10 UNL     1      -5.106  -3.636   1.632  1.00  0.00    -0.116 N 
HETATM   26  O7  UNL     1      -5.075  -3.336   2.833  1.00  0.00    -0.532 OA
HETATM   27  O8  UNL     1      -5.935  -4.599   1.131  1.00  0.00    -0.532 OA
ENDBRANCH  20  25
ENDBRANCH  13  16
ENDBRANCH  11  12
BRANCH  10  28
HETATM   28  O3  UNL     1       1.706  -0.175   0.580  1.00  0.00    -0.244 OA
BRANCH  28  29
HETATM   29  N5  UNL     1       2.071  -1.205  -0.207  1.00  0.00    -0.273 N 
HETATM   30  C6  UNL     1       2.991  -2.014   0.117  1.00  0.00     0.144 C 
ATOM     31  H5  UNL     1       1.589  -1.339  -1.096  1.00  0.00     0.193 HD
BRANCH  30  32
HETATM   32  C7  UNL     1       3.353  -3.139  -0.796  1.00  0.00     0.058 A 
HETATM   33  C8  UNL     1       2.691  -3.298  -1.984  1.00  0.00     0.084 A 
HETATM   34  S1  UNL     1       3.445  -4.678  -2.644  1.00  0.00    -0.064 SA
HETATM   35  C9  UNL     1       4.554  -4.978  -1.385  1.00  0.00     0.142 A 
HETATM   36  N7  UNL     1       4.299  -4.008  -0.513  1.00  0.00    -0.335 N 
ATOM     37  H7  UNL     1       4.826  -3.939   0.358  1.00  0.00     0.168 HD
BRANCH  35  38
HETATM   38  N6  UNL     1       5.454  -5.936  -1.285  1.00  0.00    -0.380 N 
ATOM     39  H62 UNL     1       5.650  -6.680  -1.954  1.00  0.00     0.158 HD
ATOM     40  H61 UNL     1       6.118  -6.116  -0.532  1.00  0.00     0.158 HD
ENDBRANCH  35  38
ENDBRANCH  30  32
ENDBRANCH  28  29
ENDBRANCH  10  28
BRANCH   5  41
HETATM   41  N2  UNL     1       0.292   4.701   1.297  1.00  0.00    -0.331 N 
HETATM   42  C3  UNL     1      -0.041   6.069   1.147  1.00  0.00     0.329 C 
HETATM   43  N3  UNL     1      -0.535   6.830   2.225  1.00  0.00    -0.040 NA
HETATM   44  O1  UNL     1       0.098   6.659   0.022  1.00  0.00    -0.251 OA
ATOM     45  H2  UNL     1       0.167   4.263   2.210  1.00  0.00     0.164 HD
ENDBRANCH   5  41
BRANCH   6  46
HETATM   46  O2  UNL     1       3.066   3.571  -0.573  1.00  0.00    -0.368 OA
ATOM     47  H2  UNL     1       3.946   3.269  -0.381  1.00  0.00     0.212 HD
ENDBRANCH   6  46
TORSDOF 10
