REMARK  2 active torsions:
REMARK  status: ('A' for Active; 'I' for Inactive)
REMARK    1  A    between atoms: C1_2  and  O2_3 
REMARK       I    between atoms: C1_2  and  N1_10 
REMARK    2  A    between atoms: O2_3  and  C2_4 
ROOT
HETATM    1  O1  UNL     1      -0.230  -2.041   1.092  1.00  0.00    -0.238 OA
HETATM    2  C1  UNL     1      -0.100  -0.997   0.403  1.00  0.00     0.363 C 
HETATM    3  N1  UNL     1       1.215  -0.519   0.178  1.00  0.00    -0.328 N 
HETATM    4  C8  UNL     1       2.312  -1.268   0.759  1.00  0.00     0.128 C 
HETATM    5  C9  UNL     1       3.160  -0.288   1.532  1.00  0.00     0.020 C 
HETATM    6  C10 UNL     1       4.264   0.307   0.705  1.00  0.00     0.002 C 
HETATM    7  C11 UNL     1       3.764   1.322  -0.292  1.00  0.00     0.002 C 
HETATM    8  C12 UNL     1       2.753   0.740  -1.249  1.00  0.00     0.020 C 
HETATM    9  C13 UNL     1       1.376   0.691  -0.619  1.00  0.00     0.128 C 
ENDROOT
BRANCH   2  10
HETATM   10  O2  UNL     1      -1.232  -0.403  -0.077  1.00  0.00    -0.298 OA
BRANCH  10  11
HETATM   11  C2  UNL     1      -2.505  -0.941   0.191  1.00  0.00     0.142 C 
HETATM   12  C3  UNL     1      -3.468   0.059   0.809  1.00  0.00     0.016 C 
HETATM   13  C4  UNL     1      -3.348   1.226  -0.110  1.00  0.00     0.007 C 
HETATM   14  C7  UNL     1      -4.559  -0.769   0.116  1.00  0.00     0.014 C 
HETATM   15  C5  UNL     1      -3.370   0.489  -1.465  1.00  0.00     0.007 C 
HETATM   16  C6  UNL     1      -3.473  -0.921  -0.961  1.00  0.00     0.016 C 
ENDBRANCH  10  11
ENDBRANCH   2  10
TORSDOF 2
