REMARK  0 active torsions:
REMARK  status: ('A' for Active; 'I' for Inactive)
ROOT
HETATM    1  C1  UNL     1       3.254   0.904   1.273  1.00  0.00     0.001 C 
HETATM    2  C2  UNL     1       3.821  -0.230   0.438  1.00  0.00     0.002 C 
HETATM    3  C3  UNL     1       2.731  -1.247   0.216  1.00  0.00     0.036 C 
HETATM    4  C4  UNL     1       1.775  -0.721  -0.830  1.00  0.00     0.229 C 
HETATM    5  C5  UNL     1       1.677   0.805  -0.681  1.00  0.00     0.052 C 
HETATM    6  C6  UNL     1       1.858   1.199   0.769  1.00  0.00     0.009 C 
HETATM    7  C7  UNL     1       0.258   0.562  -1.042  1.00  0.00     0.232 C 
HETATM    8  C8  UNL     1      -0.818   1.228  -0.267  1.00  0.00     0.068 C 
HETATM    9  C9  UNL     1      -2.151   0.785  -0.760  1.00  0.00     0.127 C 
HETATM   10  O1  UNL     1      -3.092   1.698  -0.274  1.00  0.00    -0.385 OA
HETATM   11  C10 UNL     1      -3.750   1.138   0.779  1.00  0.00     0.168 C 
HETATM   12  C11 UNL     1      -3.090  -0.183   1.121  1.00  0.00     0.033 C 
HETATM   13  C12 UNL     1      -2.618  -0.529  -0.302  1.00  0.00     0.018 C 
HETATM   14  C13 UNL     1      -1.765  -1.687  -0.343  1.00  0.00     0.037 C 
HETATM   15  C14 UNL     1      -0.498  -1.612  -1.137  1.00  0.00     0.274 C 
HETATM   16  N1  UNL     1       0.416  -0.775  -0.436  1.00  0.00     0.098 N 
ENDROOT
TORSDOF 0
