REMARK  1 active torsions:
REMARK  status: ('A' for Active; 'I' for Inactive)
REMARK    1  A    between atoms: N1_3  and  C3_4 
ROOT
HETATM    1  C3  UNL     1       0.359  -0.073  -0.053  1.00  0.00     0.037 C 
HETATM    2  C4  UNL     1      -0.225  -1.370   0.452  1.00  0.00     0.036 C 
HETATM    3  C5  UNL     1      -1.724  -1.334   0.413  1.00  0.00    -0.012 C 
HETATM    4  C6  UNL     1      -2.263  -1.076  -0.969  1.00  0.00     0.009 C 
HETATM    5  C7  UNL     1      -1.712   0.235  -1.456  1.00  0.00    -0.012 C 
HETATM    6  C8  UNL     1      -2.119   1.360  -0.570  1.00  0.00     0.009 C 
HETATM    7  C9  UNL     1      -1.693   1.061   0.841  1.00  0.00    -0.012 C 
HETATM    8  C10 UNL     1      -2.261  -0.260   1.323  1.00  0.00     0.009 C 
HETATM    9  C11 UNL     1      -0.175   1.020   0.852  1.00  0.00     0.036 C 
HETATM   10  C12 UNL     1      -0.203   0.141  -1.455  1.00  0.00     0.036 C 
ENDROOT
BRANCH   1  11
HETATM   11  N1  UNL     1       1.748  -0.017  -0.112  1.00  0.00    -0.354 N 
HETATM   12  C2  UNL     1       2.532  -0.126   1.007  1.00  0.00     0.075 C 
HETATM   13  C1  UNL     1       3.962  -0.278   0.757  1.00  0.00     0.124 C 
HETATM   14  S1  UNL     1       4.049  -0.403  -1.055  1.00  0.00    -0.119 SA
HETATM   15  C13 UNL     1       2.397   0.373  -1.289  1.00  0.00     0.136 C 
ENDBRANCH   1  11
TORSDOF 1
