REMARK  1 active torsions:
REMARK  status: ('A' for Active; 'I' for Inactive)
REMARK    1  A    between atoms: N1_6  and  C6_7 
ROOT
HETATM    1  C6  UNL     1      -0.703  -0.089   0.210  1.00  0.00     0.359 C 
HETATM    2  C7  UNL     1       0.231  -1.207   0.551  1.00  0.00     0.065 C 
HETATM    3  C8  UNL     1       1.556  -0.645   0.966  1.00  0.00     0.016 C 
HETATM    4  C9  UNL     1       2.113   0.338  -0.046  1.00  0.00    -0.019 C 
HETATM    5  C10 UNL     1       3.291   1.065   0.522  1.00  0.00     0.011 C 
HETATM    6  C11 UNL     1       4.531   0.503  -0.139  1.00  0.00     0.001 C 
HETATM    7  C12 UNL     1       4.061  -0.762  -0.803  1.00  0.00     0.001 C 
HETATM    8  C13 UNL     1       2.663  -0.405  -1.232  1.00  0.00     0.011 C 
HETATM    9  C14 UNL     1       1.012   1.288  -0.407  1.00  0.00     0.180 C 
HETATM   10  O1  UNL     1      -0.113   0.630  -0.848  1.00  0.00    -0.356 OA
ENDROOT
BRANCH   1  11
HETATM   11  N1  UNL     1      -1.993  -0.514  -0.246  1.00  0.00     0.121 N 
HETATM   12  C2  UNL     1      -2.767   0.668  -0.555  1.00  0.00     0.222 C 
HETATM   13  C1  UNL     1      -3.420   0.407  -1.909  1.00  0.00     0.043 C 
HETATM   14  C3  UNL     1      -3.843   0.801   0.466  1.00  0.00     0.037 C 
HETATM   15  C4  UNL     1      -4.046  -0.610   0.940  1.00  0.00     0.032 C 
HETATM   16  C5  UNL     1      -2.730  -1.317   0.661  1.00  0.00     0.276 C 
ENDBRANCH   1  11
TORSDOF 1
