REMARK  1 active torsions:
REMARK  status: ('A' for Active; 'I' for Inactive)
REMARK    1  A    between atoms: C2_2  and  C3_3 
ROOT
HETATM    1  C3  UNL     1       1.137   0.136  -0.591  1.00  0.00     0.054 C 
HETATM    2  C4  UNL     1       0.810  -1.116   0.195  1.00  0.00     0.015 C 
HETATM    3  C5  UNL     1      -0.635  -1.511   0.165  1.00  0.00    -0.014 C 
HETATM    4  C6  UNL     1      -1.436  -1.173   1.366  1.00  0.00     0.005 C 
HETATM    5  C7  UNL     1      -2.558  -0.213   1.184  1.00  0.00     0.008 C 
HETATM    6  C8  UNL     1      -2.324   1.064   0.495  1.00  0.00     0.024 C 
HETATM    7  C9  UNL     1      -2.849   0.921  -0.942  1.00  0.00     0.015 C 
HETATM    8  C10 UNL     1      -1.406   0.454  -1.182  1.00  0.00     0.024 C 
HETATM    9  C11 UNL     1      -1.247  -0.986  -1.124  1.00  0.00     0.012 C 
HETATM   10  C12 UNL     1      -0.996   1.302  -0.064  1.00  0.00     0.095 A 
HETATM   11  O1  UNL     1      -0.233   1.094   1.070  1.00  0.00    -0.368 OA
HETATM   12  C13 UNL     1       0.341   1.358  -0.078  1.00  0.00     0.165 A 
ENDROOT
BRANCH   1  13
HETATM   13  C2  UNL     1       2.594   0.432  -0.285  1.00  0.00     0.085 A 
HETATM   14  C1  UNL     1       3.648  -0.567  -0.623  1.00  0.00     0.049 C 
HETATM   15  C14 UNL     1       2.916   1.351   0.849  1.00  0.00     0.207 A 
HETATM   16  O2  UNL     1       3.015   1.774  -0.453  1.00  0.00    -0.375 OA
ENDBRANCH   1  13
TORSDOF 1
