REMARK  7 active torsions:
REMARK  status: ('A' for Active; 'I' for Inactive)
REMARK    1  A    between atoms: C1_2  and  C2_3 
REMARK       I    between atoms: C1_2  and  N1_6 
REMARK    2  A    between atoms: C2_3  and  O2_4 
REMARK    3  A    between atoms: C5_9  and  C6_10 
REMARK       I    between atoms: C6_10  and  N2_12 
REMARK    4  A    between atoms: C9_15  and  C10_16 
REMARK    5  A    between atoms: C10_16  and  N3_17 
REMARK    6  A    between atoms: C15_22  and  C16_23 
REMARK    7  A    between atoms: C16_23  and  O4_24 
ROOT
HETATM    1  C6  UNL     1       1.737  -0.528  -1.076  1.00  0.00     0.225 C 
HETATM    2  O3  UNL     1       1.837  -1.185  -2.172  1.00  0.00    -0.273 OA
HETATM    3  N2  UNL     1       0.528   0.169  -0.837  1.00  0.00    -0.351 N 
HETATM    4  C7  UNL     1       0.354   0.896   0.379  1.00  0.00     0.126 C 
HETATM    5  C8  UNL     1      -0.984   0.772   1.035  1.00  0.00     0.027 C 
HETATM    6  C9  UNL     1      -2.068   0.389  -0.011  1.00  0.00     0.023 C 
HETATM    7  C15 UNL     1      -1.633   1.051  -1.257  1.00  0.00     0.033 C 
HETATM    8  C17 UNL     1      -0.519   0.152  -1.832  1.00  0.00     0.132 C 
ENDROOT
BRANCH   1   9
HETATM    9  C5  UNL     1       2.899  -0.570  -0.184  1.00  0.00     0.097 C 
HETATM   10  C4  UNL     1       3.632   0.713  -0.011  1.00  0.00     0.035 C 
HETATM   11  C3  UNL     1       5.033   0.307   0.361  1.00  0.00     0.127 C 
HETATM   12  N1  UNL     1       5.206  -1.040  -0.099  1.00  0.00    -0.349 N 
HETATM   13  C1  UNL     1       6.380  -1.858  -0.014  1.00  0.00     0.243 C 
HETATM   14  C18 UNL     1       3.965  -1.503  -0.693  1.00  0.00     0.139 C 
HETATM   15  O1  UNL     1       6.346  -3.049  -0.493  1.00  0.00    -0.271 OA
BRANCH  13  16
HETATM   16  C2  UNL     1       7.614  -1.374   0.603  1.00  0.00     0.267 C 
BRANCH  16  17
HETATM   17  O2  UNL     1       7.549  -0.105   1.098  1.00  0.00    -0.392 OA
ATOM     18  H2  UNL     1       8.351   0.209   1.499  1.00  0.00     0.210 HD
ENDBRANCH  16  17
ENDBRANCH  13  16
ENDBRANCH   1   9
BRANCH   7  19
HETATM   19  C16 UNL     1      -2.606   1.434  -2.292  1.00  0.00     0.170 C 
BRANCH  19  20
HETATM   20  O4  UNL     1      -3.512   2.360  -1.830  1.00  0.00    -0.400 OA
ATOM     21  H4  UNL     1      -4.140   2.607  -2.498  1.00  0.00     0.209 HD
ENDBRANCH  19  20
ENDBRANCH   7  19
BRANCH   6  22
HETATM   22  C10 UNL     1      -3.361   0.711   0.600  1.00  0.00     0.277 C 
BRANCH  22  23
HETATM   23  N3  UNL     1      -4.556   0.422  -0.107  1.00  0.00     0.088 N 
HETATM   24  C11 UNL     1      -5.683   0.834   0.710  1.00  0.00     0.272 C 
HETATM   25  C12 UNL     1      -6.164  -0.367   1.455  1.00  0.00     0.032 C 
HETATM   26  C13 UNL     1      -5.330  -1.536   0.929  1.00  0.00     0.032 C 
HETATM   27  C14 UNL     1      -4.811  -0.952  -0.367  1.00  0.00     0.272 C 
ENDBRANCH  22  23
ENDBRANCH   6  22
TORSDOF 7
