REMARK  6 active torsions:
REMARK  status: ('A' for Active; 'I' for Inactive)
REMARK    1  A    between atoms: N1_2  and  N2_3 
REMARK       I    between atoms: N1_2  and  C2_6 
REMARK    2  A    between atoms: C2_6  and  C3_8 
REMARK       I    between atoms: N3_12  and  C7_13 
REMARK    3  A    between atoms: C7_13  and  C8_15 
REMARK    4  A    between atoms: C12_19  and  C13_20 
REMARK    5  A    between atoms: C13_20  and  N4_21 
REMARK    6  A    between atoms: N4_21  and  S1_23 
ROOT
HETATM    1  C3  UNL     1       2.418  -0.012   0.344  1.00  0.00     0.181 C 
HETATM    2  C4  UNL     1       2.433  -1.383   0.953  1.00  0.00     0.037 C 
HETATM    3  C5  UNL     1       1.339  -1.312   1.990  1.00  0.00     0.022 C 
HETATM    4  C6  UNL     1       0.553  -0.065   1.691  1.00  0.00     0.127 C 
HETATM    5  N3  UNL     1       1.013   0.331   0.387  1.00  0.00    -0.338 N 
HETATM    6  C7  UNL     1       0.285   0.950  -0.644  1.00  0.00     0.225 C 
HETATM    7  O2  UNL     1       0.933   1.263  -1.704  1.00  0.00    -0.273 OA
ENDROOT
BRANCH   6   8
HETATM    8  C8  UNL     1      -1.169   1.260  -0.594  1.00  0.00     0.083 C 
HETATM    9  C9  UNL     1      -1.422   2.630  -1.254  1.00  0.00     0.014 C 
HETATM   10  C10 UNL     1      -2.665   2.505  -2.081  1.00  0.00     0.001 C 
HETATM   11  C11 UNL     1      -3.262   1.186  -1.550  1.00  0.00     0.007 C 
HETATM   12  C12 UNL     1      -1.970   0.388  -1.513  1.00  0.00     0.013 C 
BRANCH  12  13
HETATM   13  C13 UNL     1      -2.095  -1.032  -1.204  1.00  0.00     0.115 C 
BRANCH  13  14
HETATM   14  N4  UNL     1      -2.707  -1.444   0.008  1.00  0.00    -0.196 NA
HETATM   15  C14 UNL     1      -2.031  -2.688   0.425  1.00  0.00     0.132 C 
BRANCH  14  16
HETATM   16  S1  UNL     1      -4.348  -1.885  -0.260  1.00  0.00     0.184 S 
HETATM   17  O3  UNL     1      -4.780  -2.976   0.710  1.00  0.00    -0.582 OA
HETATM   18  O4  UNL     1      -4.534  -2.480  -1.636  1.00  0.00    -0.582 OA
HETATM   19  O5  UNL     1      -5.419  -0.622  -0.043  1.00  0.00    -0.582 OA
ENDBRANCH  14  16
ENDBRANCH  13  14
ENDBRANCH  12  13
ENDBRANCH   6   8
BRANCH   1  20
HETATM   20  C2  UNL     1       3.258   0.966   1.039  1.00  0.00     0.260 C 
HETATM   21  N1  UNL     1       4.672   0.845   1.057  1.00  0.00    -0.271 N 
HETATM   22  C1  UNL     1       5.355  -0.230   0.397  1.00  0.00     0.180 C 
HETATM   23  O1  UNL     1       2.731   1.934   1.632  1.00  0.00    -0.269 OA
BRANCH  21  24
HETATM   24  N2  UNL     1       5.467   1.800   1.740  1.00  0.00    -0.341 N 
ATOM     25  H22 UNL     1       6.483   1.713   1.753  1.00  0.00     0.177 HD
ATOM     26  H21 UNL     1       4.981   2.564   2.209  1.00  0.00     0.177 HD
ENDBRANCH  21  24
ENDBRANCH   1  20
TORSDOF 6
