REMARK  7 active torsions:
REMARK  status: ('A' for Active; 'I' for Inactive)
REMARK    1  A    between atoms: C4_4  and  C5_5 
REMARK    2  A    between atoms: C5_5  and  O1_6 
REMARK    3  A    between atoms: C5_5  and  C6_8 
REMARK    4  A    between atoms: C6_8  and  N1_9 
REMARK    5  A    between atoms: N2_16  and  S1_17 
REMARK    6  A    between atoms: S1_17  and  C13_20 
REMARK    7  A    between atoms: C13_20  and  C14_21 
ROOT
HETATM    1  C1  UNL     1       6.063   4.182  -0.688  1.00  0.00     0.027 C 
HETATM    2  C2  UNL     1       5.693   3.083  -0.375  1.00  0.00    -0.026 C 
HETATM    3  C3  UNL     1       5.266   1.793   0.012  1.00  0.00    -0.013 C 
HETATM    4  C4  UNL     1       4.913   0.667   0.353  1.00  0.00    -0.055 C 
ENDROOT
BRANCH   4   5
HETATM    5  C5  UNL     1       4.537  -0.706   0.756  1.00  0.00     0.236 C 
BRANCH   5   6
HETATM    6  O1  UNL     1       5.410  -1.576  -0.000  1.00  0.00    -0.378 OA
ATOM      7  H1  UNL     1       5.169  -2.458   0.259  1.00  0.00     0.211 HD
ENDBRANCH   5   6
BRANCH   5   8
HETATM    8  C6  UNL     1       3.163  -1.060   0.298  1.00  0.00     0.107 C 
BRANCH   8   9
HETATM    9  N1  UNL     1       2.056  -0.441   0.895  1.00  0.00    -0.368 N 
HETATM   10  C7  UNL     1       1.773   0.918   0.686  1.00  0.00     0.063 C 
HETATM   11  C8  UNL     1       1.462   1.154  -0.778  1.00  0.00     0.047 C 
HETATM   12  C9  UNL     1       0.651   0.051  -1.373  1.00  0.00     0.040 C 
HETATM   13  C10 UNL     1       0.004  -0.866  -0.381  1.00  0.00     0.068 C 
HETATM   14  C11 UNL     1       0.828  -1.213   0.807  1.00  0.00     0.159 C 
HETATM   15  C12 UNL     1      -1.349  -0.296  -0.027  1.00  0.00     0.179 C 
HETATM   16  N3  UNL     1      -0.375  -2.097  -1.055  1.00  0.00    -0.330 N 
HETATM   17  N2  UNL     1      -2.218  -1.438   0.207  1.00  0.00    -0.225 N 
HETATM   18  C16 UNL     1      -1.662  -2.480  -0.558  1.00  0.00     0.332 C 
HETATM   19  O4  UNL     1      -2.254  -3.597  -0.753  1.00  0.00    -0.246 OA
ATOM     20  H3  UNL     1       0.175  -2.596  -1.754  1.00  0.00     0.165 HD
BRANCH  17  21
HETATM   21  S1  UNL     1      -3.600  -1.400   1.222  1.00  0.00     0.236 S 
HETATM   22  O2  UNL     1      -3.245  -1.553   2.666  1.00  0.00    -0.205 OA
HETATM   23  O3  UNL     1      -4.550  -2.506   0.768  1.00  0.00    -0.205 OA
BRANCH  21  24
HETATM   24  C13 UNL     1      -4.476   0.129   1.053  1.00  0.00     0.163 C 
BRANCH  24  25
HETATM   25  C14 UNL     1      -4.934   0.263  -0.391  1.00  0.00     0.012 C 
HETATM   26  C15 UNL     1      -5.667   1.581  -0.510  1.00  0.00     0.006 C 
ENDBRANCH  24  25
ENDBRANCH  21  24
ENDBRANCH  17  21
ENDBRANCH   8   9
ENDBRANCH   5   8
ENDBRANCH   4   5
TORSDOF 7
