REMARK  5 active torsions:
REMARK  status: ('A' for Active; 'I' for Inactive)
REMARK    1  A    between atoms: N1_1  and  S1_4 
REMARK    2  A    between atoms: S1_4  and  C1_7 
REMARK    3  A    between atoms: C1_7  and  C2_8 
REMARK       I    between atoms: C2_8  and  N2_10 
REMARK    4  A    between atoms: N2_10  and  C3_12 
REMARK       I    between atoms: N3_15  and  C6_16 
REMARK    5  A    between atoms: C6_16  and  C7_18 
ROOT
HETATM    1  C2  UNL     1      -2.268  -0.106   0.845  1.00  0.00     0.243 C 
HETATM    2  O3  UNL     1      -2.006  -0.070   2.073  1.00  0.00    -0.272 OA
HETATM    3  N2  UNL     1      -1.212  -0.165  -0.136  1.00  0.00    -0.353 N 
ATOM      4  H2  UNL     1      -1.424  -0.194  -1.133  1.00  0.00     0.163 HD
ENDROOT
BRANCH   3   5
HETATM    5  C3  UNL     1       0.137  -0.181   0.327  1.00  0.00     0.104 C 
HETATM    6  C4  UNL     1       0.832  -1.386  -0.261  1.00  0.00     0.046 C 
HETATM    7  C5  UNL     1       2.124  -0.889  -0.881  1.00  0.00     0.128 C 
HETATM    8  N3  UNL     1       2.295   0.393  -0.198  1.00  0.00    -0.348 N 
HETATM    9  C6  UNL     1       3.488   0.938   0.340  1.00  0.00     0.248 C 
HETATM   10  C11 UNL     1       0.960   0.970  -0.205  1.00  0.00     0.151 C 
HETATM   11  O4  UNL     1       3.414   2.062   0.893  1.00  0.00    -0.270 OA
BRANCH   9  12
HETATM   12  C7  UNL     1       4.786   0.272   0.290  1.00  0.00     0.213 C 
HETATM   13  C8  UNL     1       5.348   0.169  -1.113  1.00  0.00     0.043 C 
HETATM   14  C9  UNL     1       6.799  -0.213  -0.787  1.00  0.00     0.029 C 
HETATM   15  C10 UNL     1       6.950   0.322   0.617  1.00  0.00     0.168 C 
HETATM   16  O5  UNL     1       5.799   1.029   0.907  1.00  0.00    -0.376 OA
ENDBRANCH   9  12
ENDBRANCH   3   5
BRANCH   1  17
HETATM   17  C1  UNL     1      -3.692  -0.085   0.439  1.00  0.00     0.162 C 
HETATM   18  C12 UNL     1      -3.997   1.061  -0.500  1.00  0.00     0.037 C 
HETATM   19  C13 UNL     1      -5.016   0.558  -1.474  1.00  0.00     0.002 C 
HETATM   20  C14 UNL     1      -5.193  -0.911  -1.244  1.00  0.00     0.002 C 
HETATM   21  C15 UNL     1      -4.062  -1.340  -0.334  1.00  0.00     0.037 C 
BRANCH  17  22
HETATM   22  S1  UNL     1      -4.708  -0.013   1.868  1.00  0.00     0.242 S 
HETATM   23  O1  UNL     1      -4.488  -1.210   2.731  1.00  0.00    -0.205 OA
HETATM   24  O2  UNL     1      -6.165   0.008   1.486  1.00  0.00    -0.205 OA
BRANCH  22  25
HETATM   25  N1  UNL     1      -4.400   1.394   2.811  1.00  0.00    -0.327 N 
ATOM     26  H12 UNL     1      -4.116   1.393   3.791  1.00  0.00     0.168 HD
ATOM     27  H11 UNL     1      -4.550   2.212   2.221  1.00  0.00     0.168 HD
ENDBRANCH  22  25
ENDBRANCH  17  22
ENDBRANCH   1  17
TORSDOF 5
