REMARK  10 active torsions:
REMARK  status: ('A' for Active; 'I' for Inactive)
REMARK    1  A    between atoms: O1_2  and  N1_3 
REMARK       I    between atoms: C2_5  and  N2_6 
REMARK       I    between atoms: C2_5  and  N9_27 
REMARK    2  A    between atoms: N2_6  and  N3_8 
REMARK    3  A    between atoms: N4_10  and  C3_12 
REMARK    4  A    between atoms: C4_17  and  N7_18 
REMARK    5  A    between atoms: N7_18  and  O2_20 
REMARK    6  A    between atoms: O2_20  and  S1_21 
REMARK    7  A    between atoms: C5_28  and  O6_29 
REMARK    8  A    between atoms: C6_31  and  N10_32 
REMARK    9  A    between atoms: N11_34  and  N12_36 
REMARK   10  A    between atoms: N14_42  and  N15_44 
ROOT
HETATM    1  N1  UNL     1      -1.332   1.316  -1.148  1.00  0.00    -0.094 N 
ATOM      2  H1  UNL     1      -2.067   1.973  -0.885  1.00  0.00     0.213 HD
HETATM    3  C2  UNL     1      -1.464   0.101  -0.767  1.00  0.00     0.741 C 
HETATM    4  N2  UNL     1      -0.473  -0.848  -1.104  1.00  0.00    -0.114 N 
ATOM      5  H2  UNL     1      -0.272  -1.575  -0.417  1.00  0.00     0.207 HD
HETATM    6  N9  UNL     1      -2.604  -0.266  -0.006  1.00  0.00     0.052 N 
HETATM    7  C5  UNL     1      -2.675  -0.317   1.362  1.00  0.00     0.228 A 
HETATM    8  C6  UNL     1      -3.919  -0.708   1.759  1.00  0.00     0.189 A 
HETATM    9  N13 UNL     1      -4.631  -0.903   0.661  1.00  0.00    -0.168 N 
ATOM     10  H13 UNL     1      -5.606  -1.201   0.626  1.00  0.00     0.186 HD
HETATM   11  C7  UNL     1      -3.838  -0.637  -0.415  1.00  0.00     0.721 A 
HETATM   12  N14 UNL     1      -4.236  -0.733  -1.627  1.00  0.00    -0.137 N 
ATOM     13  H14 UNL     1      -5.197  -1.024  -1.807  1.00  0.00     0.205 HD
ENDROOT
BRANCH   1  14
HETATM   14  O1  UNL     1      -0.295   1.799  -1.872  1.00  0.00    -0.271 OA
HETATM   15  C1  UNL     1       0.249   3.114  -1.683  1.00  0.00     0.238 C 
ENDBRANCH   1  14
BRANCH   4  16
HETATM   16  N3  UNL     1       0.245  -0.878  -2.277  1.00  0.00    -0.214 N 
HETATM   17  N4  UNL     1       1.486  -0.830  -2.400  1.00  0.00    -0.115 N 
ATOM     18  H4  UNL     1       1.851  -0.863  -3.352  1.00  0.00     0.207 HD
ATOM     19  H3  UNL     1      -0.295  -0.947  -3.139  1.00  0.00     0.209 HD
BRANCH  17  20
HETATM   20  C3  UNL     1       2.432  -0.735  -1.370  1.00  0.00     0.727 A 
HETATM   21  N5  UNL     1       2.767   0.416  -0.723  1.00  0.00    -0.116 N 
HETATM   22  N6  UNL     1       3.678   0.178   0.187  1.00  0.00    -0.115 N 
ATOM     23  H5  UNL     1       2.365   1.333  -0.919  1.00  0.00     0.206 HD
HETATM   24  C4  UNL     1       3.934  -1.141   0.125  1.00  0.00     0.732 A 
ATOM     25  H6  UNL     1       4.107   0.856   0.816  1.00  0.00     0.206 HD
HETATM   26  N8  UNL     1       3.184  -1.709  -0.816  1.00  0.00    -0.017 N 
ATOM     27  H8  UNL     1       3.179  -2.697  -1.071  1.00  0.00     0.203 HD
BRANCH  24  28
HETATM   28  N7  UNL     1       4.781  -1.774   0.866  1.00  0.00    -0.075 N 
ATOM     29  H7  UNL     1       4.905  -2.779   0.744  1.00  0.00     0.214 HD
BRANCH  28  30
HETATM   30  O2  UNL     1       5.522  -1.104   1.824  1.00  0.00    -0.117 OA
BRANCH  30  31
HETATM   31  S1  UNL     1       7.066  -0.471   1.435  1.00  0.00     0.274 S 
HETATM   32  O3  UNL     1       7.036  -0.078  -0.009  1.00  0.00    -0.571 OA
HETATM   33  O4  UNL     1       8.124  -1.528   1.695  1.00  0.00    -0.571 OA
HETATM   34  O5  UNL     1       7.365   0.855   2.416  1.00  0.00    -0.571 OA
ENDBRANCH  30  31
ENDBRANCH  28  30
ENDBRANCH  24  28
ENDBRANCH  17  20
ENDBRANCH   4  16
BRANCH   7  35
HETATM   35  O6  UNL     1      -1.581   0.003   2.167  1.00  0.00    -0.342 OA
ATOM     36  H6  UNL     1      -1.630  -0.032   3.115  1.00  0.00     0.219 HD
ENDBRANCH   7  35
BRANCH   8  37
HETATM   37  N10 UNL     1      -4.306  -0.856   3.118  1.00  0.00    -0.267 N 
HETATM   38  N11 UNL     1      -5.406  -0.414   3.556  1.00  0.00    -0.248 N 
ATOM     39  H11 UNL     1      -5.654  -0.537   4.538  1.00  0.00     0.207 HD
ATOM     40  H10 UNL     1      -3.675  -1.335   3.761  1.00  0.00     0.190 HD
BRANCH  38  41
HETATM   41  N12 UNL     1      -6.277   0.241   2.691  1.00  0.00    -0.331 N 
ATOM     42 2H12 UNL     1      -6.014   0.355   1.712  1.00  0.00     0.178 HD
ATOM     43 1H12 UNL     1      -7.165   0.598   3.045  1.00  0.00     0.178 HD
ENDBRANCH  38  41
ENDBRANCH   8  37
BRANCH  12  44
HETATM   44  N15 UNL     1      -3.409  -0.456  -2.704  1.00  0.00    -0.331 N 
ATOM     45 2H15 UNL     1      -2.451  -0.166  -2.506  1.00  0.00     0.177 HD
ATOM     46 1H15 UNL     1      -3.726  -0.533  -3.670  1.00  0.00     0.177 HD
ENDBRANCH  12  44
TORSDOF 10
