REMARK  9 active torsions:
REMARK  status: ('A' for Active; 'I' for Inactive)
REMARK    1  A    between atoms: N1_1  and  C1_4 
REMARK    2  A    between atoms: C2_7  and  O1_8 
REMARK    3  A    between atoms: C3_10  and  N3_11 
REMARK    4  A    between atoms: N3_11  and  C4_13 
REMARK    5  A    between atoms: C4_13  and  C5_14 
REMARK    6  A    between atoms: N6_19  and  C6_20 
REMARK    7  A    between atoms: N8_23  and  C7_24 
REMARK    8  A    between atoms: C9_34  and  O4_35 
REMARK    9  A    between atoms: C10_37  and  C11_38 
ROOT
HETATM    1  C5  UNL     1      -0.957  -0.924  -0.480  1.00  0.00     0.099 A 
HETATM    2  N4  UNL     1      -0.938   0.288  -1.045  1.00  0.00    -0.282 N 
ATOM      3  H4  UNL     1      -1.772   0.816  -1.303  1.00  0.00     0.188 HD
HETATM    4  N5  UNL     1       0.278   0.707  -1.223  1.00  0.00    -0.233 N 
ATOM      5  H5  UNL     1       0.556   1.597  -1.635  1.00  0.00     0.209 HD
HETATM    6  N6  UNL     1       1.091  -0.238  -0.769  1.00  0.00    -0.213 N 
HETATM    7  C10 UNL     1       0.390  -1.259  -0.303  1.00  0.00     0.154 A 
ENDROOT
BRANCH   1   8
HETATM    8  C4  UNL     1      -2.082  -1.746  -0.096  1.00  0.00     0.122 C 
BRANCH   8   9
HETATM    9  N3  UNL     1      -3.404  -1.269  -0.359  1.00  0.00    -0.356 N 
ATOM     10  H3  UNL     1      -4.004  -1.885  -0.908  1.00  0.00     0.165 HD
BRANCH   9  11
HETATM   11  C3  UNL     1      -3.972  -0.057   0.048  1.00  0.00     0.153 A 
HETATM   12  C2  UNL     1      -4.275   1.024  -0.733  1.00  0.00     0.188 A 
HETATM   13  N2  UNL     1      -4.789   2.182  -0.235  1.00  0.00    -0.168 N 
HETATM   14  C1  UNL     1      -5.019   2.289   1.086  1.00  0.00     0.680 A 
ATOM     15  H2  UNL     1      -4.998   2.962  -0.858  1.00  0.00     0.186 HD
HETATM   16  N13 UNL     1      -4.738   1.254   1.894  1.00  0.00    -0.154 N 
HETATM   17  C12 UNL     1      -4.229   0.103   1.417  1.00  0.00     0.290 A 
ATOM     18  H13 UNL     1      -4.915   1.342   2.895  1.00  0.00     0.187 HD
HETATM   19  O6  UNL     1      -3.996  -0.816   2.242  1.00  0.00    -0.265 OA
BRANCH  12  20
HETATM   20  O1  UNL     1      -4.078   1.002  -2.105  1.00  0.00    -0.344 OA
ATOM     21  H1  UNL     1      -3.719   0.194  -2.453  1.00  0.00     0.219 HD
ENDBRANCH  12  20
BRANCH  14  22
HETATM   22  N1  UNL     1      -5.509   3.385   1.584  1.00  0.00    -0.234 N 
ATOM     23  H12 UNL     1      -5.722   4.171   0.970  1.00  0.00     0.174 HD
ATOM     24  H11 UNL     1      -5.683   3.466   2.586  1.00  0.00     0.174 HD
ENDBRANCH  14  22
ENDBRANCH   9  11
ENDBRANCH   8   9
ENDBRANCH   1   8
BRANCH   7  25
HETATM   25  C11 UNL     1       0.869  -2.487   0.271  1.00  0.00     0.285 C 
HETATM   26  N12 UNL     1       0.056  -3.557   0.734  1.00  0.00    -0.056 NA
HETATM   27  O5  UNL     1       2.125  -2.709   0.409  1.00  0.00    -0.269 OA
ENDBRANCH   7  25
BRANCH   6  28
HETATM   28  C6  UNL     1       2.526  -0.184  -0.773  1.00  0.00     0.198 A 
HETATM   29  N7  UNL     1       3.360   0.434   0.081  1.00  0.00    -0.257 N 
HETATM   30  N8  UNL     1       4.617   0.257  -0.249  1.00  0.00    -0.168 N 
ATOM     31  H7  UNL     1       3.052   0.976   0.889  1.00  0.00     0.191 HD
HETATM   32  N11 UNL     1       4.614  -0.494  -1.343  1.00  0.00    -0.253 N 
HETATM   33  C9  UNL     1       3.345  -0.791  -1.703  1.00  0.00     0.205 A 
ATOM     34  H11 UNL     1       5.449  -0.803  -1.841  1.00  0.00     0.191 HD
BRANCH  30  35
HETATM   35  C7  UNL     1       5.744   0.781   0.451  1.00  0.00     0.237 A 
HETATM   36  N9  UNL     1       6.798   0.107   0.950  1.00  0.00    -0.217 N 
HETATM   37  O2  UNL     1       7.625   0.958   1.526  1.00  0.00    -0.152 OA
ATOM     38  H9  UNL     1       6.935  -0.902   0.892  1.00  0.00     0.199 HD
HETATM   39  N10 UNL     1       7.162   2.172   1.430  1.00  0.00    -0.203 N 
HETATM   40  C8  UNL     1       5.995   2.098   0.767  1.00  0.00     0.316 A 
ATOM     41  H10 UNL     1       7.602   3.019   1.790  1.00  0.00     0.200 HD
HETATM   42  O3  UNL     1       5.271   3.076   0.492  1.00  0.00    -0.262 OA
ENDBRANCH  30  35
BRANCH  33  43
HETATM   43  O4  UNL     1       3.018  -1.556  -2.800  1.00  0.00    -0.342 OA
ATOM     44  H4  UNL     1       3.582  -1.974  -3.440  1.00  0.00     0.219 HD
ENDBRANCH  33  43
ENDBRANCH   6  28
TORSDOF 9
