REMARK  4 active torsions:
REMARK  status: ('A' for Active; 'I' for Inactive)
REMARK    1  A    between atoms: C3_3  and  C4_4 
REMARK    2  A    between atoms: C5_5  and  O1_6 
REMARK    3  A    between atoms: C6_8  and  O2_9 
REMARK    4  A    between atoms: C7_11  and  O3_12 
ROOT
HETATM    1  C4  UNL     1       0.011  -0.287  -1.082  1.00  0.00     0.071 C 
HETATM    2  C5  UNL     1       0.441  -1.700  -0.679  1.00  0.00     0.159 C 
HETATM    3  C6  UNL     1       1.195  -1.078   0.470  1.00  0.00     0.177 C 
HETATM    4  C7  UNL     1       1.141   0.228  -0.292  1.00  0.00     0.162 C 
ENDROOT
BRANCH   1   5
HETATM    5  C3  UNL     1      -1.373  -0.072  -0.707  1.00  0.00    -0.021 C 
HETATM    6  C2  UNL     1      -1.904   0.563   0.301  1.00  0.00    -0.034 C 
HETATM    7  C1  UNL     1      -3.374   0.667   0.505  1.00  0.00     0.036 C 
ENDBRANCH   1   5
BRANCH   2   8
HETATM    8  O1  UNL     1       1.348  -2.219  -1.603  1.00  0.00    -0.392 OA
ATOM      9  H1  UNL     1       1.615  -3.096  -1.353  1.00  0.00     0.210 HD
ENDBRANCH   2   8
BRANCH   4  10
HETATM   10  O3  UNL     1       1.024   1.329   0.497  1.00  0.00    -0.387 OA
HETATM   11  C8  UNL     1       2.094   2.184   0.255  1.00  0.00     0.202 C 
ENDBRANCH   4  10
BRANCH   3  12
HETATM   12  O2  UNL     1       0.491  -1.105   1.672  1.00  0.00    -0.390 OA
ATOM     13  H2  UNL     1       0.966  -0.713   2.396  1.00  0.00     0.210 HD
ENDBRANCH   3  12
TORSDOF 4
