REMARK  2 active torsions:
REMARK  status: ('A' for Active; 'I' for Inactive)
REMARK    1  A    between atoms: N1_2  and  N2_4 
REMARK    2  A    between atoms: C3_6  and  C4_7 
ROOT
HETATM    1  C4  UNL     1       0.821  -0.368  -0.101  1.00  0.00     0.251 C 
HETATM    2  C5  UNL     1       1.581  -1.318   0.793  1.00  0.00     0.270 C 
HETATM    3  N3  UNL     1       2.899  -1.477   0.160  1.00  0.00    -0.071 N 
ATOM      4  H31 UNL     1       2.846  -2.115  -0.634  1.00  0.00     0.277 HD
ATOM      5  H32 UNL     1       3.529  -2.009   0.761  1.00  0.00     0.277 HD
HETATM    6  C6  UNL     1       3.486  -0.247  -0.221  1.00  0.00     0.260 C 
HETATM    7  C7  UNL     1       2.776   0.986   0.191  1.00  0.00     0.260 C 
HETATM    8  N4  UNL     1       1.358   0.950   0.136  1.00  0.00    -0.063 N 
ATOM      9  H41 UNL     1       0.954   1.357   0.980  1.00  0.00     0.278 HD
ATOM     10  H42 UNL     1       1.008   1.612  -0.557  1.00  0.00     0.278 HD
ENDROOT
BRANCH   1  11
HETATM   11  C3  UNL     1      -0.621  -0.408   0.087  1.00  0.00     0.114 C 
HETATM   12  N2  UNL     1      -1.423   0.587  -0.088  1.00  0.00    -0.317 N 
ATOM     13  H2  UNL     1      -1.030   1.481  -0.382  1.00  0.00     0.185 HD
BRANCH  12  14
HETATM   14  N1  UNL     1      -2.797   0.501   0.105  1.00  0.00    -0.337 N 
HETATM   15  C1  UNL     1      -3.524   1.738   0.404  1.00  0.00     0.170 C 
HETATM   16  C2  UNL     1      -3.463  -0.778   0.009  1.00  0.00     0.170 C 
ENDBRANCH  12  14
ENDBRANCH   1  11
TORSDOF 2
