REMARK  2 active torsions:
REMARK  status: ('A' for Active; 'I' for Inactive)
REMARK    1  A    between atoms: N1_2  and  C3_4 
REMARK    2  A    between atoms: C3_4  and  C4_5 
ROOT
HETATM    1  C4  UNL     1      -0.034   0.285   0.617  1.00  0.00     0.075 C 
HETATM    2  C5  UNL     1       1.057   1.327   0.600  1.00  0.00     0.243 C 
HETATM    3  N2  UNL     1       1.968   1.215  -0.494  1.00  0.00    -0.073 N 
ATOM      4  H21 UNL     1       2.192   2.137  -0.869  1.00  0.00     0.277 HD
ATOM      5  H22 UNL     1       1.505   0.807  -1.306  1.00  0.00     0.277 HD
HETATM    6  C6  UNL     1       3.177   0.487  -0.180  1.00  0.00     0.259 C 
HETATM    7  C7  UNL     1       2.914  -0.993  -0.010  1.00  0.00     0.259 C 
HETATM    8  N3  UNL     1       1.764  -1.250   0.822  1.00  0.00    -0.073 N 
ATOM      9  H31 UNL     1       1.811  -0.714   1.689  1.00  0.00     0.277 HD
ATOM     10  H32 UNL     1       1.795  -2.193   1.211  1.00  0.00     0.277 HD
HETATM   11  C8  UNL     1       0.509  -1.012   0.126  1.00  0.00     0.243 C 
ENDROOT
BRANCH   1  12
HETATM   12  C3  UNL     1      -1.250   0.795  -0.089  1.00  0.00     0.065 C 
BRANCH  12  13
HETATM   13  N1  UNL     1      -2.363  -0.056  -0.157  1.00  0.00    -0.401 N 
HETATM   14  C1  UNL     1      -2.341  -1.212  -0.950  1.00  0.00     0.148 C 
HETATM   15  C2  UNL     1      -3.619   0.453   0.274  1.00  0.00     0.148 C 
ENDBRANCH  12  13
ENDBRANCH   1  12
TORSDOF 2
