REMARK  1 active torsions:
REMARK  status: ('A' for Active; 'I' for Inactive)
REMARK    1  A    between atoms: N3_16  and  O2_17 
ROOT
HETATM    1  C1  UNL     1      -2.224   1.556  -0.914  1.00  0.00     0.043 C 
HETATM    2  C2  UNL     1      -1.617   0.262  -0.464  1.00  0.00     0.092 C 
HETATM    3  C3  UNL     1      -2.263  -0.875  -1.237  1.00  0.00     0.043 C 
HETATM    4  C4  UNL     1      -1.810  -0.015   0.969  1.00  0.00     0.098 C 
HETATM    5  N1  UNL     1      -2.865   0.220   1.712  1.00  0.00    -0.387 N 
ATOM      6  H11 UNL     1      -2.999   0.028   2.705  1.00  0.00     0.157 HD
ATOM      7  H12 UNL     1      -3.733   0.644   1.386  1.00  0.00     0.157 HD
HETATM    8  N2  UNL     1      -0.598  -0.607   1.424  1.00  0.00    -0.344 N 
ATOM      9  H2  UNL     1      -0.484  -1.243   2.214  1.00  0.00     0.163 HD
HETATM   10  C5  UNL     1       0.440  -0.124   0.539  1.00  0.00     0.183 C 
HETATM   11  C6  UNL     1       1.484  -1.216   0.263  1.00  0.00     0.229 C 
HETATM   12  O1  UNL     1       2.374  -0.680  -0.632  1.00  0.00    -0.386 OA
HETATM   13  C7  UNL     1       3.418   0.006  -0.088  1.00  0.00     0.178 C 
HETATM   14  C8  UNL     1       3.142   0.683   1.207  1.00  0.00     0.104 C 
HETATM   15  S1  UNL     1       1.394   1.228   1.327  1.00  0.00    -0.116 SA
HETATM   16  N3  UNL     1      -0.200   0.315  -0.661  1.00  0.00    -0.142 NA
ENDROOT
BRANCH  16  17
HETATM   17  O2  UNL     1       0.233  -0.292  -1.770  1.00  0.00    -0.309 OA
ATOM     18  H2  UNL     1       1.173  -0.257  -1.901  1.00  0.00     0.237 HD
ENDBRANCH  16  17
TORSDOF 1
