REMARK  2 active torsions:
REMARK  status: ('A' for Active; 'I' for Inactive)
REMARK    1  A    between atoms: C2_2  and  C4_4 
REMARK    2  A    between atoms: C7_10  and  O1_12 
ROOT
HETATM    1  C4  UNL     1      -1.605  -0.414   0.530  1.00  0.00     0.211 C 
HETATM    2  N1  UNL     1      -0.724   0.256   1.414  1.00  0.00    -0.386 N 
ATOM      3  H1  UNL     1      -1.048   0.636   2.303  1.00  0.00     0.156 HD
HETATM    4  C5  UNL     1       0.623   0.375   1.009  1.00  0.00     0.158 C 
HETATM    5  S1  UNL     1       0.960   1.270  -0.514  1.00  0.00    -0.104 SA
HETATM    6  C6  UNL     1       2.264   0.082  -0.212  1.00  0.00     0.039 C 
HETATM    7  C7  UNL     1       3.569   0.036  -0.374  1.00  0.00     0.163 C 
HETATM    8  N2  UNL     1       4.229   1.158  -0.919  1.00  0.00    -0.074 NA
HETATM    9  C8  UNL     1       1.186  -0.835   0.308  1.00  0.00     0.110 C 
HETATM   10  C9  UNL     1       0.246  -1.222  -0.786  1.00  0.00     0.260 A 
HETATM   11  O2  UNL     1      -0.629  -2.285  -0.612  1.00  0.00    -0.275 OA
HETATM   12  N3  UNL     1      -1.059  -0.897  -0.678  1.00  0.00    -0.136 NA
ENDROOT
BRANCH   7  13
HETATM   13  O1  UNL     1       4.296  -1.070  -0.026  1.00  0.00    -0.348 OA
ATOM     14  H1  UNL     1       5.238  -1.103  -0.143  1.00  0.00     0.219 HD
ENDBRANCH   7  13
BRANCH   1  15
HETATM   15  C2  UNL     1      -2.808   0.428   0.190  1.00  0.00    -0.055 C 
HETATM   16  C1  UNL     1      -2.920   1.636   0.715  1.00  0.00     0.017 C 
HETATM   17  C3  UNL     1      -3.866  -0.068  -0.720  1.00  0.00     0.046 C 
ENDBRANCH   1  15
TORSDOF 2
