REMARK  0 active torsions:
REMARK  status: ('A' for Active; 'I' for Inactive)
ROOT
HETATM    1  C1  UNL     1       1.467  -0.122   1.583  1.00  0.00     0.041 C 
HETATM    2  C2  UNL     1       1.216  -0.433   0.151  1.00  0.00     0.079 C 
HETATM    3  C3  UNL     1       1.186  -1.923  -0.031  1.00  0.00     0.041 C 
HETATM    4  N1  UNL     1       2.349   0.095  -0.632  1.00  0.00    -0.113 NA
HETATM    5  N2  UNL     1       2.649   1.396  -0.284  1.00  0.00    -0.238 N 
ATOM      6  H2  UNL     1       3.378   1.628   0.391  1.00  0.00     0.200 HD
HETATM    7  N3  UNL     1       1.893   2.359  -0.914  1.00  0.00    -0.049 NA
HETATM    8  S1  UNL     1       0.383   1.632  -1.499  1.00  0.00    -0.002 SA
HETATM    9  C4  UNL     1       0.035   0.248  -0.418  1.00  0.00     0.026 C 
HETATM   10  C5  UNL     1      -1.231  -0.070  -0.202  1.00  0.00    -0.054 C 
HETATM   11  C6  UNL     1      -2.361   0.618  -0.776  1.00  0.00     0.046 C 
HETATM   12  C7  UNL     1      -3.568   0.529   0.063  1.00  0.00     0.078 C 
HETATM   13  S2  UNL     1      -3.194  -0.648   1.365  1.00  0.00    -0.164 SA
HETATM   14  C8  UNL     1      -1.583  -1.207   0.684  1.00  0.00     0.109 C 
ENDROOT
TORSDOF 0
