REMARK  3 active torsions:
REMARK  status: ('A' for Active; 'I' for Inactive)
REMARK    1  A    between atoms: C2_2  and  N1_5 
REMARK    2  A    between atoms: N1_5  and  C5_7 
REMARK    3  A    between atoms: C6_11  and  N3_12 
ROOT
HETATM    1  C5  UNL     1       0.538   0.005   0.148  1.00  0.00     0.134 A 
HETATM    2  N2  UNL     1       0.763   0.499   1.380  1.00  0.00    -0.309 N 
ATOM      3  H2  UNL     1      -0.003   0.849   1.955  1.00  0.00     0.176 HD
HETATM    4  S1  UNL     1       2.349   0.519   1.939  1.00  0.00     0.006 SA
HETATM    5  C6  UNL     1       3.450  -0.112   0.810  1.00  0.00     0.107 A 
HETATM    6  C7  UNL     1       2.872  -0.538  -0.377  1.00  0.00     0.107 A 
HETATM    7  C8  UNL     1       3.809  -1.086  -1.366  1.00  0.00     0.104 C 
HETATM    8  N4  UNL     1       4.566  -1.516  -2.133  1.00  0.00    -0.191 NA
HETATM    9  C9  UNL     1       1.544  -0.482  -0.674  1.00  0.00     0.114 A 
HETATM   10  N5  UNL     1       1.179  -0.989  -1.984  1.00  0.00    -0.097 NA
ENDROOT
BRANCH   5  11
HETATM   11  N3  UNL     1       4.717  -0.184   1.047  1.00  0.00    -0.391 N 
ATOM     12  H32 UNL     1       5.142   0.129   1.920  1.00  0.00     0.157 HD
ATOM     13  H31 UNL     1       5.378  -0.563   0.369  1.00  0.00     0.157 HD
ENDBRANCH   5  11
BRANCH   1  14
HETATM   14  N1  UNL     1      -0.639  -0.049  -0.359  1.00  0.00    -0.366 N 
ATOM     15  H1  UNL     1      -0.671  -0.444  -1.299  1.00  0.00     0.162 HD
BRANCH  14  16
HETATM   16  C2  UNL     1      -1.889   0.337   0.145  1.00  0.00     0.021 C 
HETATM   17  C1  UNL     1      -2.066   1.808   0.403  1.00  0.00     0.037 C 
HETATM   18  C3  UNL     1      -2.911  -0.011  -0.959  1.00  0.00     0.037 C 
HETATM   19  C4  UNL     1      -2.360  -0.446   1.359  1.00  0.00     0.037 C 
ENDBRANCH  14  16
ENDBRANCH   1  14
TORSDOF 3
