REMARK  1 active torsions:
REMARK  status: ('A' for Active; 'I' for Inactive)
REMARK    1  A    between atoms: C7_16  and  O1_17 
ROOT
HETATM    1  C1  UNL     1      -2.994   0.938   1.324  1.00  0.00     0.043 C 
HETATM    2  C2  UNL     1      -1.975   0.251   0.469  1.00  0.00     0.136 C 
HETATM    3  N1  UNL     1      -0.671   0.320   1.022  1.00  0.00    -0.388 N 
ATOM      4  H1  UNL     1      -0.522   0.728   1.945  1.00  0.00     0.156 HD
HETATM    5  C3  UNL     1       0.399  -0.174   0.293  1.00  0.00     0.128 C 
HETATM    6  C4  UNL     1       0.377  -1.443  -0.397  1.00  0.00     0.057 C 
HETATM    7  C5  UNL     1      -0.914  -2.104  -0.716  1.00  0.00     0.079 C 
HETATM    8  S1  UNL     1      -2.284  -1.555   0.367  1.00  0.00    -0.144 SA
HETATM    9  S2  UNL     1       1.890  -0.133   1.391  1.00  0.00    -0.059 SA
HETATM   10  C6  UNL     1       3.044   0.436   0.109  1.00  0.00     0.138 C 
HETATM   11  N2  UNL     1       4.298   0.653   0.212  1.00  0.00    -0.380 N 
ATOM     12  H21 UNL     1       4.946   0.973  -0.508  1.00  0.00     0.158 HD
ATOM     13  H22 UNL     1       4.888   0.548   1.037  1.00  0.00     0.158 HD
HETATM   14  N3  UNL     1       2.221   0.582  -1.042  1.00  0.00    -0.342 N 
ATOM     15  H3  UNL     1       2.541   0.455  -2.002  1.00  0.00     0.164 HD
HETATM   16  C7  UNL     1       0.867   0.936  -0.667  1.00  0.00     0.258 C 
ENDROOT
BRANCH  16  17
HETATM   17  O1  UNL     1       0.084   1.019  -1.786  1.00  0.00    -0.373 OA
ATOM     18  H1  UNL     1       0.373   1.704  -2.378  1.00  0.00     0.212 HD
ENDBRANCH  16  17
TORSDOF 1
