REMARK  7 active torsions:
REMARK  status: ('A' for Active; 'I' for Inactive)
REMARK    1  A    between atoms: N1_1  and  S1_4 
REMARK    2  A    between atoms: S1_4  and  N2_7 
REMARK    3  A    between atoms: N2_7  and  C1_9 
REMARK    4  A    between atoms: C4_12  and  N3_13 
REMARK    5  A    between atoms: C6_18  and  C7_19 
REMARK    6  A    between atoms: N7_32  and  C16_33 
REMARK    7  A    between atoms: C16_33  and  C17_34 
ROOT
HETATM    1  N3  UNL     1       1.252   1.468   0.380  1.00  0.00    -0.370 N 
ATOM      2  H3  UNL     1       1.549   2.402   0.098  1.00  0.00     0.161 HD
HETATM    3  C5  UNL     1       0.060   1.089   0.086  1.00  0.00     0.134 A 
HETATM    4  N4  UNL     1      -0.420  -0.116   0.413  1.00  0.00    -0.326 N 
ATOM      5  H4  UNL     1       0.186  -0.763   0.918  1.00  0.00     0.169 HD
HETATM    6  C6  UNL     1      -1.685  -0.516   0.099  1.00  0.00     0.114 A 
HETATM    7  N5  UNL     1      -2.477   0.342  -0.566  1.00  0.00    -0.326 N 
ATOM      8  H5  UNL     1      -3.424   0.047  -0.803  1.00  0.00     0.169 HD
HETATM    9  C13 UNL     1      -2.072   1.583  -0.936  1.00  0.00     0.141 A 
HETATM   10  C14 UNL     1      -0.768   1.954  -0.595  1.00  0.00     0.122 A 
HETATM   11  N6  UNL     1      -0.630   3.207  -1.072  1.00  0.00    -0.346 N 
ATOM     12  H6  UNL     1       0.217   3.769  -0.986  1.00  0.00     0.167 HD
HETATM   13  C15 UNL     1      -1.759   3.615  -1.676  1.00  0.00     0.185 A 
HETATM   14  N7  UNL     1      -2.650   2.599  -1.586  1.00  0.00    -0.327 N 
ENDROOT
BRANCH   1  15
HETATM   15  C4  UNL     1       2.195   0.630   1.094  1.00  0.00     0.083 C 
HETATM   16  C3  UNL     1       2.769  -0.357   0.098  1.00  0.00     0.027 C 
HETATM   17  C2  UNL     1       3.996   0.292  -0.518  1.00  0.00     0.028 C 
HETATM   18  C1  UNL     1       5.118   0.308   0.500  1.00  0.00     0.094 C 
HETATM   19  C21 UNL     1       4.578   0.598   1.873  1.00  0.00     0.028 C 
HETATM   20  C20 UNL     1       3.312   1.416   1.699  1.00  0.00     0.027 C 
BRANCH  18  21
HETATM   21  N2  UNL     1       5.951  -0.848   0.430  1.00  0.00    -0.298 N 
ATOM     22  H2  UNL     1       5.609  -1.787   0.635  1.00  0.00     0.174 HD
BRANCH  21  23
HETATM   23  S1  UNL     1       7.564  -0.533  -0.025  1.00  0.00     0.313 S 
HETATM   24  O1  UNL     1       8.500  -1.582   0.497  1.00  0.00    -0.183 OA
HETATM   25  O2  UNL     1       8.034   0.819   0.363  1.00  0.00    -0.183 OA
BRANCH  23  26
HETATM   26  N1  UNL     1       7.639  -0.637  -1.768  1.00  0.00    -0.312 N 
ATOM     27  H12 UNL     1       8.210  -1.287  -2.308  1.00  0.00     0.170 HD
ATOM     28  H11 UNL     1       7.002   0.076  -2.123  1.00  0.00     0.170 HD
ENDBRANCH  23  26
ENDBRANCH  21  23
ENDBRANCH  18  21
ENDBRANCH   1  15
BRANCH   6  29
HETATM   29  C7  UNL     1      -2.130  -1.845   0.492  1.00  0.00    -0.018 C 
HETATM   30  C8  UNL     1      -1.325  -2.661   1.146  1.00  0.00    -0.016 C 
HETATM   31  C9  UNL     1      -1.675  -4.021   1.588  1.00  0.00     0.028 C 
HETATM   32  C10 UNL     1      -3.155  -4.288   1.508  1.00  0.00     0.004 C 
HETATM   33  C11 UNL     1      -3.619  -3.813   0.142  1.00  0.00     0.005 C 
HETATM   34  C12 UNL     1      -3.501  -2.297   0.158  1.00  0.00     0.042 C 
ENDBRANCH   6  29
BRANCH  14  35
HETATM   35  C16 UNL     1      -3.992   2.584  -2.092  1.00  0.00     0.136 C 
BRANCH  35  36
HETATM   36  C17 UNL     1      -4.996   3.091  -1.085  1.00  0.00     0.004 A 
HETATM   37  C18 UNL     1      -6.431   3.082  -1.608  1.00  0.00     0.007 A 
HETATM   38  C19 UNL     1      -5.967   2.124  -0.511  1.00  0.00     0.007 A 
ENDBRANCH  35  36
ENDBRANCH  14  35
TORSDOF 7
