REMARK  8 active torsions:
REMARK  status: ('A' for Active; 'I' for Inactive)
REMARK    1  A    between atoms: N1_1  and  C1_5 
REMARK    2  A    between atoms: C4_8  and  N2_9 
REMARK    3  A    between atoms: C6_14  and  N4_15 
REMARK    4  A    between atoms: N4_15  and  C7_17 
REMARK    5  A    between atoms: C7_17  and  C8_18 
REMARK    6  A    between atoms: C8_18  and  N5_19 
REMARK    7  A    between atoms: N6_29  and  C17_30 
REMARK    8  A    between atoms: C17_30  and  C18_31 
ROOT
HETATM    1  N2  UNL     1       2.998  -0.619  -0.981  1.00  0.00    -0.221 N 
ATOM      2  H2  UNL     1       2.642  -1.562  -1.135  1.00  0.00     0.178 HD
HETATM    3  C5  UNL     1       2.208   0.230  -0.464  1.00  0.00     0.680 A 
HETATM    4  N3  UNL     1       0.927  -0.125  -0.131  1.00  0.00    -0.175 N 
ATOM      5  H3  UNL     1       0.619  -1.082  -0.303  1.00  0.00     0.186 HD
HETATM    6  C6  UNL     1       0.062   0.751   0.416  1.00  0.00     0.146 A 
HETATM    7  C13 UNL     1       0.488   2.038   0.642  1.00  0.00     0.106 A 
HETATM    8  C14 UNL     1       1.799   2.421   0.308  1.00  0.00     0.081 A 
HETATM    9  C15 UNL     1       1.989   3.746   0.650  1.00  0.00     0.050 A 
HETATM   10  C16 UNL     1       0.798   4.149   1.181  1.00  0.00     0.094 A 
HETATM   11  N6  UNL     1      -0.102   3.104   1.167  1.00  0.00    -0.351 N 
HETATM   12  N7  UNL     1       2.603   1.487  -0.235  1.00  0.00    -0.190 N 
ATOM     13  H7  UNL     1       3.557   1.750  -0.483  1.00  0.00     0.184 HD
ENDROOT
BRANCH   1  14
HETATM   14  C4  UNL     1       4.328  -0.356  -1.358  1.00  0.00     0.099 C 
HETATM   15  C3  UNL     1       5.326  -0.446  -0.230  1.00  0.00     0.027 C 
HETATM   16  C2  UNL     1       5.352  -1.807   0.404  1.00  0.00     0.035 C 
HETATM   17  C1  UNL     1       5.088  -2.957  -0.469  1.00  0.00     0.183 C 
HETATM   18  C24 UNL     1       4.803  -2.751  -1.902  1.00  0.00     0.035 C 
HETATM   19  C23 UNL     1       4.866  -1.335  -2.388  1.00  0.00     0.027 C 
BRANCH  17  20
HETATM   20  N1  UNL     1       4.001  -3.755   0.127  1.00  0.00    -0.075 N 
ATOM     21  H13 UNL     1       4.199  -4.031   1.089  1.00  0.00     0.274 HD
ATOM     22  H12 UNL     1       3.164  -3.202   0.310  1.00  0.00     0.274 HD
ATOM     23  H11 UNL     1       3.818  -4.554  -0.480  1.00  0.00     0.274 HD
ENDBRANCH  17  20
ENDBRANCH   1  14
BRANCH   6  24
HETATM   24  N4  UNL     1      -1.123   0.370   0.761  1.00  0.00    -0.372 N 
ATOM     25  H4  UNL     1      -1.748   1.063   1.173  1.00  0.00     0.161 HD
BRANCH  24  26
HETATM   26  C7  UNL     1      -1.611  -0.963   0.601  1.00  0.00     0.151 C 
BRANCH  26  27
HETATM   27  C8  UNL     1      -3.108  -1.014   0.800  1.00  0.00     0.292 C 
BRANCH  27  28
HETATM   28  N5  UNL     1      -3.645  -2.335   0.654  1.00  0.00     0.094 N 
HETATM   29  C9  UNL     1      -3.231  -3.227   1.720  1.00  0.00     0.298 C 
HETATM   30  C10 UNL     1      -4.058  -4.490   1.617  1.00  0.00     0.198 C 
HETATM   31  O1  UNL     1      -4.681  -4.622   0.400  1.00  0.00    -0.388 OA
HETATM   32  C11 UNL     1      -3.884  -4.333  -0.695  1.00  0.00     0.198 C 
HETATM   33  C12 UNL     1      -3.244  -2.966  -0.589  1.00  0.00     0.298 C 
ENDBRANCH  27  28
ENDBRANCH  26  27
ENDBRANCH  24  26
ENDBRANCH   6  24
BRANCH  11  34
HETATM   34  C17 UNL     1      -1.467   3.300   1.591  1.00  0.00     0.133 C 
BRANCH  34  35
HETATM   35  C18 UNL     1      -2.195   4.065   0.513  1.00  0.00     0.004 C 
HETATM   36  C19 UNL     1      -2.233   3.408  -0.825  1.00  0.00     0.006 C 
HETATM   37  C20 UNL     1      -3.237   4.288  -1.563  1.00  0.00     0.000 C 
HETATM   38  C21 UNL     1      -4.211   4.755  -0.492  1.00  0.00     0.000 C 
HETATM   39  C22 UNL     1      -3.677   4.194   0.823  1.00  0.00     0.006 C 
ENDBRANCH  34  35
ENDBRANCH  11  34
TORSDOF 8
