REMARK  8 active torsions:
REMARK  status: ('A' for Active; 'I' for Inactive)
REMARK    1  A    between atoms: C1_2  and  C2_3 
REMARK       I    between atoms: C1_2  and  N3_29 
REMARK    2  A    between atoms: C2_3  and  C3_4 
REMARK    3  A    between atoms: C3_4  and  C4_5 
REMARK    4  A    between atoms: C4_5  and  C5_6 
REMARK    5  A    between atoms: C5_6  and  N1_7 
REMARK    6  A    between atoms: C5_6  and  N2_15 
REMARK    7  A    between atoms: C8_10  and  O2_11 
REMARK    8  A    between atoms: C17_24  and  O5_25 
ROOT
HETATM    1  C3  UNL     1      -0.291   1.062  -0.180  1.00  0.00    -0.019 C 
HETATM    2  C11 UNL     1      -0.220   1.848   1.065  1.00  0.00    -0.004 C 
HETATM    3  C12 UNL     1      -1.413   2.822   1.196  1.00  0.00     0.010 C 
HETATM    4  C13 UNL     1      -1.433   3.748   0.033  1.00  0.00    -0.013 C 
HETATM    5  C14 UNL     1      -0.191   4.637   0.116  1.00  0.00     0.012 C 
HETATM    6  C15 UNL     1       1.031   3.715  -0.003  1.00  0.00     0.015 C 
HETATM    7  C16 UNL     1       0.967   2.789   1.180  1.00  0.00     0.012 C 
HETATM    8  C17 UNL     1       0.888   3.019  -1.308  1.00  0.00     0.127 C 
HETATM    9  C18 UNL     1      -0.289   2.070  -1.343  1.00  0.00     0.024 C 
HETATM   10  C19 UNL     1      -1.496   2.982  -1.242  1.00  0.00     0.012 C 
ENDROOT
BRANCH   1  11
HETATM   11  C2  UNL     1      -1.602   0.314  -0.247  1.00  0.00     0.113 C 
BRANCH  11  12
HETATM   12  C1  UNL     1      -1.940  -0.379  -1.459  1.00  0.00     0.223 C 
HETATM   13  O1  UNL     1      -1.883   0.013  -2.640  1.00  0.00    -0.273 OA
HETATM   14  N3  UNL     1      -2.416  -1.732  -1.370  1.00  0.00    -0.317 N 
HETATM   15  C20 UNL     1      -3.570  -2.104  -1.047  1.00  0.00     0.079 C 
ATOM     16  H3  UNL     1      -1.745  -2.467  -1.593  1.00  0.00     0.170 HD
HETATM   17  C21 UNL     1      -4.716  -1.245  -0.684  1.00  0.00     0.078 C 
HETATM   18  N4  UNL     1      -4.013  -3.449  -0.962  1.00  0.00    -0.380 N 
HETATM   19  C22 UNL     1      -5.629  -2.141   0.114  1.00  0.00     0.027 C 
HETATM   20  C23 UNL     1      -5.299  -3.520  -0.339  1.00  0.00     0.121 C 
ATOM     21  H4  UNL     1      -3.487  -4.255  -1.299  1.00  0.00     0.160 HD
ENDBRANCH  11  12
ENDBRANCH   1  11
BRANCH   1  22
HETATM   22  C4  UNL     1       0.856   0.150  -0.416  1.00  0.00     0.074 C 
BRANCH  22  23
HETATM   23  C5  UNL     1       1.034  -1.049   0.421  1.00  0.00     0.391 C 
BRANCH  23  24
HETATM   24  N1  UNL     1       2.236  -1.739  -0.114  1.00  0.00     0.117 N 
HETATM   25  C6  UNL     1       2.383  -2.945   0.623  1.00  0.00     0.278 C 
HETATM   26  C7  UNL     1       3.477  -3.761  -0.081  1.00  0.00     0.062 C 
HETATM   27  C8  UNL     1       4.754  -2.967   0.227  1.00  0.00     0.121 C 
HETATM   28  C9  UNL     1       4.620  -1.675  -0.501  1.00  0.00     0.062 C 
HETATM   29  C10 UNL     1       3.360  -0.914  -0.278  1.00  0.00     0.278 C 
BRANCH  27  30
HETATM   30  O2  UNL     1       5.866  -3.635  -0.282  1.00  0.00    -0.395 OA
ATOM     31  H2  UNL     1       6.656  -3.144  -0.091  1.00  0.00     0.210 HD
ENDBRANCH  27  30
ENDBRANCH  23  24
BRANCH  23  32
HETATM   32  N2  UNL     1       1.139  -0.925   1.840  1.00  0.00    -0.120 N 
HETATM   33  O3  UNL     1       0.266  -1.436   2.621  1.00  0.00    -0.535 OA
HETATM   34  O4  UNL     1       2.140  -0.295   2.537  1.00  0.00    -0.535 OA
ENDBRANCH  23  32
ENDBRANCH  22  23
ENDBRANCH   1  22
BRANCH   8  35
HETATM   35  O5  UNL     1       2.045   2.525  -1.871  1.00  0.00    -0.395 OA
ATOM     36  H5  UNL     1       1.954   2.080  -2.705  1.00  0.00     0.210 HD
ENDBRANCH   8  35
TORSDOF 8
