REMARK  9 active torsions:
REMARK  status: ('A' for Active; 'I' for Inactive)
REMARK    1  A    between atoms: C4_5  and  C5_6 
REMARK    2  A    between atoms: C6_7  and  C7_8 
REMARK    3  A    between atoms: C10_11  and  N2_12 
REMARK    4  A    between atoms: N2_12  and  C11_14 
REMARK    5  A    between atoms: C11_14  and  C12_15 
REMARK    6  A    between atoms: C12_15  and  O1_16 
REMARK    7  A    between atoms: O1_16  and  C13_17 
REMARK    8  A    between atoms: C13_17  and  C14_18 
REMARK    9  A    between atoms: C14_18  and  O2_19 
ROOT
HETATM    1  N1  UNL     1      -6.168  -4.802  -3.141  1.00  0.00    -0.190 NA
HETATM    2  C1  UNL     1      -5.835  -4.097  -2.265  1.00  0.00     0.117 C 
HETATM    3  C2  UNL     1      -5.403  -3.236  -1.200  1.00  0.00     0.115 A 
HETATM    4  C3  UNL     1      -4.163  -2.610  -1.201  1.00  0.00     0.062 A 
HETATM    5  C4  UNL     1      -3.750  -1.784  -0.179  1.00  0.00     0.033 A 
HETATM    6  C21 UNL     1      -4.613  -1.582   0.879  1.00  0.00     0.009 A 
HETATM    7  C22 UNL     1      -4.273  -0.770   1.940  1.00  0.00     0.015 A 
HETATM    8  C23 UNL     1      -5.109  -0.544   3.015  1.00  0.00     0.001 A 
HETATM    9  C24 UNL     1      -6.337  -1.167   3.011  1.00  0.00     0.002 A 
HETATM   10  C25 UNL     1      -6.686  -1.989   1.941  1.00  0.00     0.030 A 
HETATM   11  C26 UNL     1      -5.853  -2.211   0.876  1.00  0.00     0.044 A 
HETATM   12  N5  UNL     1      -6.207  -3.008  -0.148  1.00  0.00    -0.347 N 
ATOM     13  H5  UNL     1      -7.122  -3.457  -0.125  1.00  0.00     0.167 HD
ENDROOT
BRANCH   5  14
HETATM   14  C5  UNL     1      -2.470  -1.131  -0.169  1.00  0.00    -0.060 C 
HETATM   15  C6  UNL     1      -1.371  -0.583  -0.179  1.00  0.00    -0.059 C 
BRANCH  15  16
HETATM   16  C7  UNL     1      -0.043   0.013  -0.219  1.00  0.00     0.046 A 
HETATM   17  C8  UNL     1       1.009  -0.843   0.211  1.00  0.00     0.027 A 
HETATM   18  C9  UNL     1       2.298  -0.425   0.085  1.00  0.00     0.050 A 
HETATM   19  C10 UNL     1       2.513   0.825  -0.462  1.00  0.00     0.101 A 
HETATM   20  N3  UNL     1       1.502   1.597  -0.850  1.00  0.00    -0.341 N 
HETATM   21  C15 UNL     1       0.168   1.226  -0.744  1.00  0.00     0.068 A 
ATOM     22  H3  UNL     1       1.718   2.511  -1.247  1.00  0.00     0.167 HD
HETATM   23  C16 UNL     1      -0.832   2.108  -1.263  1.00  0.00     0.060 A 
HETATM   24  C17 UNL     1      -0.496   2.692  -2.507  1.00  0.00     0.021 A 
HETATM   25  C20 UNL     1      -1.986   2.556  -0.722  1.00  0.00     0.257 A 
HETATM   26  C18 UNL     1      -1.251   3.631  -3.142  1.00  0.00     0.018 A 
HETATM   27  C19 UNL     1      -2.427   4.034  -2.517  1.00  0.00     0.091 A 
HETATM   28  N4  UNL     1      -2.775   3.504  -1.339  1.00  0.00    -0.333 N 
ATOM     29  H4  UNL     1      -3.639   3.806  -0.889  1.00  0.00     0.168 HD
HETATM   30  O3  UNL     1      -2.404   2.147   0.375  1.00  0.00    -0.267 OA
BRANCH  19  31
HETATM   31  N2  UNL     1       3.744   1.218  -0.583  1.00  0.00    -0.374 N 
ATOM     32  H2  UNL     1       3.955   2.133  -0.982  1.00  0.00     0.161 HD
BRANCH  31  33
HETATM   33  C11 UNL     1       4.840   0.326  -0.137  1.00  0.00     0.147 C 
BRANCH  33  34
HETATM   34  C12 UNL     1       6.128   1.074  -0.299  1.00  0.00     0.187 C 
BRANCH  34  35
HETATM   35  O1  UNL     1       7.243   0.444   0.030  1.00  0.00    -0.387 OA
BRANCH  35  36
HETATM   36  C13 UNL     1       7.651  -0.027   1.189  1.00  0.00     0.193 C 
BRANCH  36  37
HETATM   37  C14 UNL     1       6.881  -1.110   1.896  1.00  0.00     0.190 C 
BRANCH  37  38
HETATM   38  O2  UNL     1       6.806  -2.228   1.076  1.00  0.00    -0.399 OA
ATOM     39  H2  UNL     1       6.320  -2.912   1.522  1.00  0.00     0.209 HD
ENDBRANCH  37  38
ENDBRANCH  36  37
ENDBRANCH  35  36
ENDBRANCH  34  35
ENDBRANCH  33  34
ENDBRANCH  31  33
ENDBRANCH  19  31
ENDBRANCH  15  16
ENDBRANCH   5  14
TORSDOF 9
