REMARK  8 active torsions:
REMARK  status: ('A' for Active; 'I' for Inactive)
REMARK    1  A    between atoms: C2_2  and  C3_3 
REMARK    2  A    between atoms: C3_3  and  C4_4 
REMARK    3  A    between atoms: C6_6  and  C7_7 
REMARK    4  A    between atoms: C7_7  and  C8_8 
REMARK    5  A    between atoms: C8_8  and  N1_9 
REMARK    6  A    between atoms: C19_22  and  C20_23 
REMARK       I    between atoms: C20_23  and  N2_25 
REMARK    7  A    between atoms: C23_28  and  N3_29 
REMARK    8  A    between atoms: C25_34  and  N4_35 
ROOT
HETATM    1  C4  UNL     1      -2.740  -2.488   1.308  1.00  0.00     0.011 A 
HETATM    2  C5  UNL     1      -1.635  -1.678   1.188  1.00  0.00     0.033 A 
HETATM    3  C6  UNL     1      -1.416  -0.820   0.099  1.00  0.00    -0.035 A 
HETATM    4  C19 UNL     1      -2.345  -0.781  -0.901  1.00  0.00     0.082 A 
HETATM    5  C25 UNL     1      -3.464  -1.617  -0.757  1.00  0.00     0.115 A 
HETATM    6  N5  UNL     1      -3.632  -2.423   0.305  1.00  0.00    -0.345 N 
ATOM      7  H5  UNL     1      -4.467  -3.007   0.352  1.00  0.00     0.167 HD
ENDROOT
BRANCH   3   8
HETATM    8  C7  UNL     1      -0.173  -0.007   0.062  1.00  0.00     0.070 C 
BRANCH   8   9
HETATM    9  C8  UNL     1       0.889  -0.677  -0.726  1.00  0.00     0.277 C 
BRANCH   9  10
HETATM   10  N1  UNL     1       2.124   0.126  -0.776  1.00  0.00     0.093 N 
HETATM   11  C9  UNL     1       3.070  -0.655  -1.563  1.00  0.00     0.277 C 
HETATM   12  C10 UNL     1       4.286   0.179  -1.818  1.00  0.00     0.069 C 
HETATM   13  C11 UNL     1       4.844   0.628  -0.539  1.00  0.00    -0.046 A 
HETATM   14  C12 UNL     1       6.170   1.009  -0.412  1.00  0.00     0.047 A 
HETATM   15  C16 UNL     1       4.053   0.687   0.579  1.00  0.00    -0.021 A 
HETATM   16  C13 UNL     1       6.712   1.437   0.780  1.00  0.00     0.105 A 
HETATM   17  C14 UNL     1       5.897   1.490   1.900  1.00  0.00     0.105 A 
HETATM   18  O2  UNL     1       7.973   1.872   1.203  1.00  0.00    -0.323 OA
HETATM   19  C15 UNL     1       4.578   1.110   1.768  1.00  0.00     0.049 A 
HETATM   20  O1  UNL     1       6.692   1.955   2.966  1.00  0.00    -0.323 OA
HETATM   21  C18 UNL     1       7.804   2.660   2.392  1.00  0.00     0.352 C 
HETATM   22  C17 UNL     1       2.615   0.308   0.578  1.00  0.00     0.311 C 
ENDBRANCH   9  10
ENDBRANCH   8   9
ENDBRANCH   3   8
BRANCH   4  23
HETATM   23  C20 UNL     1      -2.234   0.080  -2.064  1.00  0.00     0.258 C 
HETATM   24  O3  UNL     1      -1.689  -0.288  -3.124  1.00  0.00    -0.267 OA
HETATM   25  N2  UNL     1      -2.762   1.406  -2.019  1.00  0.00    -0.346 N 
HETATM   26  C21 UNL     1      -2.748   2.407  -3.070  1.00  0.00     0.128 C 
HETATM   27  C24 UNL     1      -3.424   2.008  -0.886  1.00  0.00     0.159 C 
HETATM   28  C22 UNL     1      -2.398   3.658  -2.255  1.00  0.00     0.054 C 
HETATM   29  C23 UNL     1      -3.365   3.501  -1.094  1.00  0.00     0.203 C 
BRANCH  29  30
HETATM   30  N3  UNL     1      -2.935   4.216   0.086  1.00  0.00    -0.073 N 
ATOM     31  H33 UNL     1      -1.990   3.943   0.356  1.00  0.00     0.274 HD
ATOM     32  H32 UNL     1      -2.768   5.201  -0.122  1.00  0.00     0.274 HD
ATOM     33  H31 UNL     1      -3.584   4.111   0.866  1.00  0.00     0.274 HD
ENDBRANCH  29  30
ENDBRANCH   4  23
BRANCH   1  34
HETATM   34  C3  UNL     1      -2.889  -3.338   2.486  1.00  0.00     0.057 C 
BRANCH  34  35
HETATM   35  C2  UNL     1      -4.054  -4.257   2.512  1.00  0.00     0.002 C 
HETATM   36  C1  UNL     1      -4.102  -5.286   1.431  1.00  0.00     0.005 C 
ENDBRANCH  34  35
ENDBRANCH   1  34
BRANCH   5  37
HETATM   37  N4  UNL     1      -4.334  -1.565  -1.718  1.00  0.00    -0.385 N 
ATOM     38  H42 UNL     1      -4.206  -0.953  -2.524  1.00  0.00     0.157 HD
ATOM     39  H41 UNL     1      -5.147  -2.172  -1.613  1.00  0.00     0.157 HD
ENDBRANCH   5  37
TORSDOF 8
