REMARK  8 active torsions:
REMARK  status: ('A' for Active; 'I' for Inactive)
REMARK    1  A    between atoms: N1_2  and  C2_4 
REMARK    2  A    between atoms: C3_7  and  N3_8 
REMARK    3  A    between atoms: C6_11  and  C7_12 
REMARK    4  A    between atoms: C12_18  and  N4_19 
REMARK    5  A    between atoms: N4_19  and  C13_20 
REMARK    6  A    between atoms: C13_20  and  C14_21 
REMARK    7  A    between atoms: N6_32  and  C23_34 
REMARK    8  A    between atoms: C23_34  and  C24_35 
ROOT
HETATM    1  C2  UNL     1       1.980  -3.031   0.212  1.00  0.00     0.681 A 
HETATM    2  N2  UNL     1       3.191  -2.495   0.116  1.00  0.00    -0.176 N 
ATOM      3  H2  UNL     1       4.012  -3.096   0.186  1.00  0.00     0.186 HD
HETATM    4  C3  UNL     1       3.355  -1.174  -0.072  1.00  0.00     0.134 A 
HETATM    5  C6  UNL     1       2.299  -0.317  -0.172  1.00  0.00     0.079 A 
HETATM    6  C12 UNL     1       0.989  -0.899  -0.068  1.00  0.00     0.207 A 
HETATM    7  N7  UNL     1       0.904  -2.227   0.118  1.00  0.00    -0.163 N 
ATOM      8  H7  UNL     1      -0.022  -2.647   0.192  1.00  0.00     0.187 HD
ENDROOT
BRANCH   6   9
HETATM    9  N4  UNL     1       0.055  -0.158  -0.160  1.00  0.00    -0.397 NA
BRANCH   9  10
HETATM   10  C13 UNL     1      -0.956   0.655  -0.261  1.00  0.00     0.200 C 
BRANCH  10  11
HETATM   11  C14 UNL     1      -2.363   0.229  -0.121  1.00  0.00     0.037 A 
HETATM   12  C15 UNL     1      -2.770  -1.051   0.129  1.00  0.00     0.031 A 
HETATM   13  C16 UNL     1      -4.131  -1.345   0.245  1.00  0.00    -0.008 A 
HETATM   14  C17 UNL     1      -4.517  -2.658   0.494  1.00  0.00     0.014 A 
HETATM   15  C21 UNL     1      -5.027  -0.319   0.103  1.00  0.00     0.044 A 
HETATM   16  C18 UNL     1      -5.855  -2.972   0.608  1.00  0.00     0.001 A 
HETATM   17  C19 UNL     1      -6.768  -1.946   0.467  1.00  0.00     0.002 A 
HETATM   18  C20 UNL     1      -6.365  -0.649   0.220  1.00  0.00     0.030 A 
HETATM   19  N5  UNL     1      -4.605   0.942  -0.144  1.00  0.00    -0.341 N 
HETATM   20  C22 UNL     1      -3.312   1.268  -0.264  1.00  0.00     0.114 A 
ATOM     21  H5  UNL     1      -5.304   1.678  -0.243  1.00  0.00     0.167 HD
HETATM   22  N6  UNL     1      -2.861   2.445  -0.503  1.00  0.00    -0.369 N 
ATOM     23  H6  UNL     1      -1.851   2.570  -0.578  1.00  0.00     0.161 HD
BRANCH  22  24
HETATM   24  C23 UNL     1      -3.706   3.600  -0.671  1.00  0.00     0.190 C 
BRANCH  24  25
HETATM   25  C24 UNL     1      -4.036   4.226   0.644  1.00  0.00     0.250 C 
HETATM   26  O2  UNL     1      -4.692   5.251   0.735  1.00  0.00    -0.305 OA
ENDBRANCH  24  25
ENDBRANCH  22  24
ENDBRANCH  10  11
ENDBRANCH   9  10
ENDBRANCH   6   9
BRANCH   5  27
HETATM   27  C7  UNL     1       2.443   1.110  -0.377  1.00  0.00     0.007 A 
HETATM   28  C8  UNL     1       2.600   1.712  -1.628  1.00  0.00     0.154 A 
HETATM   29  O1  UNL     1       2.719   3.010  -1.476  1.00  0.00    -0.327 OA
HETATM   30  C9  UNL     1       2.655   3.350  -0.205  1.00  0.00     0.049 A 
HETATM   31  C10 UNL     1       2.750   4.738   0.372  1.00  0.00     0.076 C 
HETATM   32  C11 UNL     1       2.481   2.167   0.500  1.00  0.00     0.046 A 
ENDBRANCH   5  27
BRANCH   4  33
HETATM   33  N3  UNL     1       4.684  -0.713  -0.173  1.00  0.00    -0.375 N 
HETATM   34  C4  UNL     1       5.394  -0.261   0.983  1.00  0.00     0.150 C 
HETATM   35  C5  UNL     1       5.315  -0.716  -1.465  1.00  0.00     0.150 C 
ENDBRANCH   4  33
BRANCH   1  36
HETATM   36  N1  UNL     1       1.731  -4.278   0.394  1.00  0.00    -0.230 N 
HETATM   37  C1  UNL     1       2.666  -5.343   0.533  1.00  0.00     0.165 C 
ATOM     38  H1  UNL     1       0.746  -4.536   0.445  1.00  0.00     0.177 HD
ENDBRANCH   1  36
TORSDOF 8
