REMARK  2 active torsions:
REMARK  status: ('A' for Active; 'I' for Inactive)
REMARK    1  A    between atoms: C1_2  and  C2_5 
REMARK    2  A    between atoms: N3_11  and  N4_12 
ROOT
HETATM    1  C2  UNL     1       3.037   0.465   0.022  1.00  0.00     0.178 A 
HETATM    2  N1  UNL     1       3.602   1.648   0.106  1.00  0.00    -0.335 N 
ATOM      3  H1  UNL     1       4.610   1.798   0.159  1.00  0.00     0.168 HD
HETATM    4  C3  UNL     1       2.695   2.633   0.114  1.00  0.00     0.201 A 
HETATM    5  N2  UNL     1       1.492   2.013   0.029  1.00  0.00    -0.274 N 
ATOM      6  H2  UNL     1       0.586   2.482   0.009  1.00  0.00     0.190 HD
HETATM    7  N3  UNL     1       1.680   0.691  -0.025  1.00  0.00    -0.177 N 
ENDROOT
BRANCH   7   8
HETATM    8  N4  UNL     1       0.715  -0.263  -0.132  1.00  0.00    -0.261 N 
HETATM    9  C4  UNL     1      -0.484  -0.264   0.217  1.00  0.00     0.134 C 
HETATM   10  C5  UNL     1      -1.259  -1.537  -0.077  1.00  0.00     0.086 C 
HETATM   11  O1  UNL     1      -1.130   0.782   0.844  1.00  0.00    -0.338 OA
HETATM   12  C6  UNL     1      -2.604  -1.246  -0.702  1.00  0.00     0.010 C 
HETATM   13  C7  UNL     1      -2.944   0.224  -0.578  1.00  0.00     0.027 C 
HETATM   14  C8  UNL     1      -2.562   0.803   0.731  1.00  0.00     0.177 C 
ATOM     15  H4  UNL     1       1.025  -1.128  -0.574  1.00  0.00     0.191 HD
ENDBRANCH   7   8
BRANCH   1  16
HETATM   16  C1  UNL     1       3.648  -0.892   0.003  1.00  0.00     0.250 C 
HETATM   17 CL1  UNL     1       3.530  -1.542  -1.689  1.00  0.00    -0.075 Cl
HETATM   18 CL2  UNL     1       5.355  -0.778   0.398  1.00  0.00    -0.075 Cl
HETATM   19 CL3  UNL     1       2.799  -1.983   1.123  1.00  0.00    -0.075 Cl
ENDBRANCH   1  16
TORSDOF 2
