REMARK  1 active torsions:
REMARK  status: ('A' for Active; 'I' for Inactive)
REMARK    1  A    between atoms: C5_12  and  N4_13 
ROOT
HETATM    1  N1  UNL     1       1.344   3.043   0.396  1.00  0.00    -0.191 NA
HETATM    2  C1  UNL     1       1.727   1.937   0.310  1.00  0.00     0.106 C 
HETATM    3  C2  UNL     1       2.221   0.595   0.199  1.00  0.00     0.127 A 
HETATM    4  C3  UNL     1       3.605   0.351   0.216  1.00  0.00     0.130 A 
HETATM    5 CL1  UNL     1       4.679   1.747   0.385  1.00  0.00    -0.063 Cl
HETATM    6  N2  UNL     1       4.062  -0.895   0.106  1.00  0.00    -0.322 N 
ATOM      7  H2  UNL     1       5.064  -1.083   0.117  1.00  0.00     0.169 HD
HETATM    8  C4  UNL     1       3.181  -1.898  -0.019  1.00  0.00     0.181 A 
HETATM    9 CL2  UNL     1       3.828  -3.523  -0.160  1.00  0.00    -0.045 Cl
HETATM   10  N3  UNL     1       1.856  -1.673  -0.036  1.00  0.00    -0.317 N 
ATOM     11  H3  UNL     1       1.226  -2.469  -0.133  1.00  0.00     0.170 HD
HETATM   12  C5  UNL     1       1.325  -0.437   0.070  1.00  0.00     0.129 A 
ENDROOT
BRANCH  12  13
HETATM   13  N4  UNL     1      -0.067  -0.183   0.059  1.00  0.00    -0.366 N 
HETATM   14  C6  UNL     1      -0.821   0.384   1.121  1.00  0.00     0.127 C 
HETATM   15  C7  UNL     1      -1.947   1.188   0.526  1.00  0.00     0.057 C 
HETATM   16  C8  UNL     1      -2.939   0.221  -0.096  1.00  0.00     0.173 C 
HETATM   17  F1  UNL     1      -3.641  -0.363   0.940  1.00  0.00    -0.249 F 
HETATM   18  C9  UNL     1      -2.249  -0.844  -0.901  1.00  0.00     0.057 C 
HETATM   19  C10 UNL     1      -0.798  -0.543  -1.155  1.00  0.00     0.127 C 
ENDBRANCH  12  13
TORSDOF 1
