REMARK  2 active torsions:
REMARK  status: ('A' for Active; 'I' for Inactive)
REMARK    1  A    between atoms: C1_2  and  C2_5 
REMARK    2  A    between atoms: C3_9  and  N2_10 
ROOT
HETATM    1  C2  UNL     1       2.902   0.412   0.280  1.00  0.00     0.145 A 
HETATM    2  N1  UNL     1       2.789   1.639   0.841  1.00  0.00    -0.309 N 
ATOM      3  H1  UNL     1       3.524   2.288   1.121  1.00  0.00     0.176 HD
HETATM    4  S1  UNL     1       1.105   1.816   0.957  1.00  0.00     0.024 SA
HETATM    5  C3  UNL     1       0.632   0.297   0.304  1.00  0.00     0.164 A 
HETATM    6  N3  UNL     1       1.818  -0.219   0.038  1.00  0.00    -0.321 N 
ATOM      7  H3  UNL     1       1.870  -1.151  -0.374  1.00  0.00     0.169 HD
ENDROOT
BRANCH   5   8
HETATM    8  N2  UNL     1      -0.678  -0.168   0.118  1.00  0.00    -0.360 N 
HETATM    9  C4  UNL     1      -1.651  -0.764   0.991  1.00  0.00     0.125 C 
HETATM   10  C5  UNL     1      -2.946  -0.000   0.567  1.00  0.00     0.021 C 
HETATM   11  C6  UNL     1      -2.822  -0.222  -0.936  1.00  0.00     0.021 C 
HETATM   12  C7  UNL     1      -1.376   0.008  -1.197  1.00  0.00     0.125 C 
ENDBRANCH   5   8
BRANCH   1  13
HETATM   13  C1  UNL     1       4.301  -0.087  -0.041  1.00  0.00     0.247 C 
HETATM   14 CL1  UNL     1       4.311  -1.320  -1.305  1.00  0.00    -0.075 Cl
HETATM   15 CL2  UNL     1       5.067  -0.694   1.439  1.00  0.00    -0.075 Cl
HETATM   16 CL3  UNL     1       5.303   1.285  -0.608  1.00  0.00    -0.075 Cl
ENDBRANCH   1  13
TORSDOF 2
