REMARK  3 active torsions:
REMARK  status: ('A' for Active; 'I' for Inactive)
REMARK    1  A    between atoms: O1_2  and  C2_3 
REMARK    2  A    between atoms: C2_3  and  C3_5 
REMARK    3  A    between atoms: C3_5  and  C4_6 
ROOT
HETATM    1  C3  UNL     1      -0.676  -0.598  -0.074  1.00  0.00     0.170 C 
HETATM    2  C5  UNL     1      -1.939  -0.122  -0.730  1.00  0.00     0.111 C 
HETATM    3  S1  UNL     1      -2.023   1.634  -0.243  1.00  0.00    -0.157 SA
HETATM    4  C6  UNL     1      -1.271   1.661   1.430  1.00  0.00     0.149 C 
HETATM    5  S2  UNL     1      -0.966  -0.130   1.669  1.00  0.00    -0.132 SA
ENDROOT
BRANCH   1   6
HETATM    6  C2  UNL     1       0.519   0.161  -0.514  1.00  0.00     0.284 C 
HETATM    7  O2  UNL     1       0.531   1.002  -1.445  1.00  0.00    -0.263 OA
BRANCH   6   8
HETATM    8  O1  UNL     1       1.713  -0.070   0.150  1.00  0.00    -0.325 OA
HETATM    9  C1  UNL     1       2.881   0.633  -0.236  1.00  0.00     0.213 C 
ENDBRANCH   6   8
ENDBRANCH   1   6
BRANCH   1  10
HETATM   10  C4  UNL     1      -0.445  -2.069  -0.221  1.00  0.00     0.282 C 
HETATM   11  F1  UNL     1      -0.193  -2.345  -1.530  1.00  0.00    -0.205 F 
HETATM   12 CL1  UNL     1       1.011  -2.475   0.749  1.00  0.00    -0.064 Cl
HETATM   13 CL2  UNL     1      -1.787  -3.019   0.392  1.00  0.00    -0.064 Cl
ENDBRANCH   1  10
TORSDOF 3
