REMARK  1 active torsions:
REMARK  status: ('A' for Active; 'I' for Inactive)
REMARK    1  A    between atoms: C3_9  and  N3_10 
ROOT
HETATM    1  F1  UNL     1      -3.501  -1.767  -1.945  1.00  0.00    -0.184 F 
HETATM    2  C1  UNL     1      -2.970  -0.820  -1.127  1.00  0.00     0.216 A 
HETATM    3  N1  UNL     1      -3.765   0.144  -0.579  1.00  0.00    -0.308 N 
ATOM      4  H1  UNL     1      -4.765   0.165  -0.777  1.00  0.00     0.170 HD
HETATM    5  C2  UNL     1      -3.217   1.052   0.214  1.00  0.00     0.182 A 
HETATM    6 CL1  UNL     1      -4.164   2.338   0.970  1.00  0.00    -0.045 Cl
HETATM    7  N2  UNL     1      -1.922   1.015   0.463  1.00  0.00    -0.317 N 
ATOM      8  H2  UNL     1      -1.532   1.729   1.078  1.00  0.00     0.170 HD
HETATM    9  C3  UNL     1      -1.070   0.077  -0.053  1.00  0.00     0.132 A 
HETATM   10  C8  UNL     1      -1.614  -0.880  -0.881  1.00  0.00     0.134 A 
HETATM   11 CL2  UNL     1      -0.655  -2.142  -1.626  1.00  0.00    -0.075 Cl
ENDROOT
BRANCH   9  12
HETATM   12  N3  UNL     1       0.307   0.088   0.258  1.00  0.00    -0.364 N 
HETATM   13  C4  UNL     1       0.976  -0.972   0.975  1.00  0.00     0.134 C 
HETATM   14  C5  UNL     1       2.491  -0.836   0.866  1.00  0.00     0.093 C 
HETATM   15  S1  UNL     1       2.918  -0.593  -0.883  1.00  0.00    -0.166 SA
HETATM   16  C6  UNL     1       1.901   0.845  -1.407  1.00  0.00     0.093 C 
HETATM   17  C7  UNL     1       1.110   1.219  -0.158  1.00  0.00     0.134 C 
ENDBRANCH   9  12
TORSDOF 1
