REMARK  1 active torsions:
REMARK  status: ('A' for Active; 'I' for Inactive)
REMARK    1  A    between atoms: C4_7  and  C5_8 
ROOT
HETATM    1  C1  UNL     1      -2.755   0.875  -0.399  1.00  0.00     0.023 C 
HETATM    2  C2  UNL     1      -2.256  -0.355   0.320  1.00  0.00     0.063 C 
HETATM    3  C3  UNL     1      -1.073  -0.076   1.182  1.00  0.00     0.165 C 
HETATM    4  N1  UNL     1       0.190  -0.131   0.539  1.00  0.00    -0.277 N 
HETATM    5  N2  UNL     1       1.349   0.285   1.120  1.00  0.00    -0.282 N 
ATOM      6  H2  UNL     1       1.424   0.677   2.059  1.00  0.00     0.188 HD
HETATM    7  C4  UNL     1       2.347   0.109   0.303  1.00  0.00     0.153 A 
HETATM    8  N3  UNL     1       1.901  -0.422  -0.831  1.00  0.00    -0.329 N 
ATOM      9  H3  UNL     1       2.451  -0.671  -1.653  1.00  0.00     0.168 HD
HETATM   10  C6  UNL     1       0.545  -0.565  -0.666  1.00  0.00     0.109 A 
HETATM   11  C7  UNL     1      -0.401  -1.120  -1.693  1.00  0.00     0.152 C 
HETATM   12  S1  UNL     1      -1.888  -1.689  -0.852  1.00  0.00    -0.155 SA
ENDROOT
BRANCH   7  13
HETATM   13  C5  UNL     1       3.779   0.483   0.618  1.00  0.00     0.248 C 
HETATM   14 CL1  UNL     1       3.856   1.314   2.214  1.00  0.00    -0.075 Cl
HETATM   15 CL2  UNL     1       4.369   1.534  -0.691  1.00  0.00    -0.075 Cl
HETATM   16 CL3  UNL     1       4.696  -1.035   0.640  1.00  0.00    -0.075 Cl
ENDBRANCH   7  13
TORSDOF 1
