REMARK  6 active torsions:
REMARK  status: ('A' for Active; 'I' for Inactive)
REMARK    1  A    between atoms: C4_4  and  N1_5 
REMARK    2  A    between atoms: N1_5  and  C5_7 
REMARK    3  A    between atoms: C7_9  and  S1_10 
REMARK    4  A    between atoms: S1_10  and  C8_11 
REMARK    5  A    between atoms: C9_12  and  N2_13 
REMARK    6  A    between atoms: C14_25  and  N4_26 
ROOT
HETATM    1  C5  UNL     1      -1.261  -0.584   0.467  1.00  0.00     0.039 A 
HETATM    2  C6  UNL     1      -0.191  -1.013  -0.305  1.00  0.00     0.066 A 
HETATM    3  C7  UNL     1       0.788  -0.133  -0.790  1.00  0.00     0.078 A 
HETATM    4  N3  UNL     1       0.622   1.152  -0.460  1.00  0.00    -0.337 N 
ATOM      5  H3  UNL     1       1.320   1.812  -0.802  1.00  0.00     0.168 HD
HETATM    6  C14 UNL     1      -0.377   1.651   0.278  1.00  0.00     0.106 A 
HETATM    7  C19 UNL     1      -1.343   0.757   0.753  1.00  0.00     0.078 A 
ENDROOT
BRANCH   3   8
HETATM    8  S1  UNL     1       2.139  -0.748  -1.759  1.00  0.00    -0.068 SA
BRANCH   8   9
HETATM    9  C8  UNL     1       3.628  -1.071  -0.881  1.00  0.00     0.063 A 
HETATM   10  C9  UNL     1       4.646  -0.164  -0.810  1.00  0.00     0.123 A 
HETATM   11  C10 UNL     1       5.788  -0.396  -0.039  1.00  0.00     0.063 A 
HETATM   12  C11 UNL     1       5.932  -1.547   0.671  1.00  0.00     0.059 A 
HETATM   13 CL1  UNL     1       7.387  -1.801   1.629  1.00  0.00    -0.082 Cl
HETATM   14  C12 UNL     1       4.932  -2.484   0.620  1.00  0.00     0.079 A 
HETATM   15 CL2  UNL     1       5.120  -3.965   1.533  1.00  0.00    -0.081 Cl
HETATM   16  C13 UNL     1       3.789  -2.237  -0.157  1.00  0.00     0.077 A 
HETATM   17 CL3  UNL     1       2.579  -3.481  -0.204  1.00  0.00    -0.081 Cl
BRANCH  10  18
HETATM   18  N2  UNL     1       4.642   1.023  -1.573  1.00  0.00    -0.114 N 
HETATM   19  O1  UNL     1       5.784   1.479  -1.922  1.00  0.00    -0.532 OA
HETATM   20  O2  UNL     1       3.524   1.672  -1.945  1.00  0.00    -0.532 OA
ENDBRANCH  10  18
ENDBRANCH   8   9
ENDBRANCH   3   8
BRANCH   1  21
HETATM   21  N1  UNL     1      -2.232  -1.496   0.943  1.00  0.00    -0.341 N 
ATOM     22  H1  UNL     1      -2.424  -1.521   1.944  1.00  0.00     0.167 HD
BRANCH  21  23
HETATM   23  C4  UNL     1      -2.887  -2.298   0.172  1.00  0.00     0.122 A 
HETATM   24  C3  UNL     1      -3.833  -3.189   0.622  1.00  0.00     0.075 A 
HETATM   25  C2  UNL     1      -4.334  -3.892  -0.469  1.00  0.00     0.025 A 
HETATM   26  C1  UNL     1      -5.378  -4.946  -0.382  1.00  0.00     0.070 C 
HETATM   27  N6  UNL     1      -3.686  -3.417  -1.544  1.00  0.00    -0.304 N 
HETATM   28  N5  UNL     1      -2.825  -2.469  -1.161  1.00  0.00    -0.285 N 
ATOM     29  H6  UNL     1      -3.828  -3.731  -2.504  1.00  0.00     0.186 HD
ATOM     30  H5  UNL     1      -2.210  -1.950  -1.788  1.00  0.00     0.188 HD
ENDBRANCH  21  23
ENDBRANCH   1  21
BRANCH   6  31
HETATM   31  N4  UNL     1      -0.490   3.031   0.592  1.00  0.00    -0.367 N 
HETATM   32  C15 UNL     1      -1.574   3.646   1.334  1.00  0.00     0.124 C 
HETATM   33  C16 UNL     1      -1.690   5.055   0.806  1.00  0.00     0.021 C 
HETATM   34  C17 UNL     1      -0.296   5.379   0.375  1.00  0.00     0.021 C 
HETATM   35  C18 UNL     1       0.442   4.073   0.240  1.00  0.00     0.124 C 
ENDBRANCH   6  31
TORSDOF 6
