REMARK  8 active torsions:
REMARK  status: ('A' for Active; 'I' for Inactive)
REMARK    1  A    between atoms: C2_2  and  C3_3 
REMARK    2  A    between atoms: C4_8  and  N3_9 
REMARK    3  A    between atoms: C9_14  and  N4_15 
REMARK    4  A    between atoms: C10_18  and  C11_19 
REMARK    5  A    between atoms: C10_18  and  C13_21 
REMARK    6  A    between atoms: C23_32  and  O2_33 
REMARK    7  A    between atoms: N5_37  and  C26_38 
REMARK    8  A    between atoms: C26_38  and  C27_39 
ROOT
HETATM    1  C3  UNL     1       2.553   2.383   0.345  1.00  0.00     0.039 A 
HETATM    2  N1  UNL     1       1.379   3.098   0.555  1.00  0.00    -0.302 N 
ATOM      3  H1  UNL     1       1.436   4.116   0.555  1.00  0.00     0.186 HD
HETATM    4  N2  UNL     1       0.231   2.564   0.749  1.00  0.00    -0.283 N 
ATOM      5  H2  UNL     1      -0.578   3.168   0.896  1.00  0.00     0.188 HD
HETATM    6  C4  UNL     1       0.060   1.211   0.765  1.00  0.00     0.156 A 
HETATM    7  C16 UNL     1       1.152   0.421   0.570  1.00  0.00     0.095 A 
HETATM    8  C17 UNL     1       2.428   1.032   0.367  1.00  0.00     0.032 A 
HETATM    9  C18 UNL     1       3.338   0.010   0.205  1.00  0.00     0.012 A 
HETATM   10  C19 UNL     1       4.681  -0.014   0.039  1.00  0.00    -0.040 A 
HETATM   11  C20 UNL     1       5.623   1.058   0.344  1.00  0.00     0.050 C 
HETATM   12  C21 UNL     1       5.319  -1.255  -0.104  1.00  0.00    -0.022 A 
HETATM   13  C22 UNL     1       6.783  -1.282  -0.349  1.00  0.00     0.052 C 
HETATM   14  C23 UNL     1       4.630  -2.434  -0.063  1.00  0.00     0.074 A 
HETATM   15  C24 UNL     1       3.266  -2.378   0.125  1.00  0.00     0.067 A 
HETATM   16  C25 UNL     1       2.601  -1.169   0.260  1.00  0.00     0.049 A 
HETATM   17  N5  UNL     1       1.296  -0.914   0.482  1.00  0.00    -0.337 N 
ENDROOT
BRANCH   6  18
HETATM   18  N3  UNL     1      -1.228   0.761   1.062  1.00  0.00    -0.291 N 
HETATM   19  C5  UNL     1      -1.498   0.394   2.327  1.00  0.00     0.101 A 
HETATM   20  C6  UNL     1      -2.741   0.010   2.758  1.00  0.00     0.027 A 
HETATM   21  C7  UNL     1      -3.791  -0.010   1.869  1.00  0.00    -0.020 A 
HETATM   22  C8  UNL     1      -3.551   0.361   0.568  1.00  0.00     0.029 A 
HETATM   23  C15 UNL     1      -5.236  -0.364   1.981  1.00  0.00     0.208 C 
HETATM   24  C9  UNL     1      -2.248   0.744   0.196  1.00  0.00     0.116 A 
HETATM   25  C10 UNL     1      -4.824   0.249  -0.152  1.00  0.00     0.092 C 
HETATM   26  O1  UNL     1      -5.780   0.159   0.833  1.00  0.00    -0.371 OA
BRANCH  24  27
HETATM   27  N4  UNL     1      -2.075   1.118  -1.028  1.00  0.00    -0.384 N 
ATOM     28  H42 UNL     1      -1.131   1.395  -1.297  1.00  0.00     0.157 HD
ATOM     29  H41 UNL     1      -2.852   1.105  -1.688  1.00  0.00     0.157 HD
ENDBRANCH  24  27
BRANCH  25  30
HETATM   30  C11 UNL     1      -4.899  -0.993  -1.013  1.00  0.00     0.039 C 
HETATM   31  C12 UNL     1      -4.761  -2.272  -0.265  1.00  0.00     0.008 C 
ENDBRANCH  25  30
BRANCH  25  32
HETATM   32  C13 UNL     1      -5.156   1.481  -0.969  1.00  0.00     0.039 C 
HETATM   33  C14 UNL     1      -6.505   1.182  -1.637  1.00  0.00     0.008 C 
ENDBRANCH  25  32
ENDBRANCH   6  18
BRANCH  17  34
HETATM   34  C26 UNL     1       0.306  -1.941   0.529  1.00  0.00     0.200 C 
BRANCH  34  35
HETATM   35  C27 UNL     1      -0.218  -2.277  -0.864  1.00  0.00     0.371 C 
HETATM   36  F1  UNL     1       0.791  -2.715  -1.685  1.00  0.00    -0.213 F 
HETATM   37  F2  UNL     1      -1.127  -3.326  -0.791  1.00  0.00    -0.213 F 
ENDBRANCH  34  35
ENDBRANCH  17  34
BRANCH   1  38
HETATM   38  C2  UNL     1       3.657   3.175  -0.171  1.00  0.00     0.055 C 
HETATM   39  C1  UNL     1       3.679   3.239  -1.713  1.00  0.00     0.011 C 
ENDBRANCH   1  38
BRANCH  14  40
HETATM   40  O2  UNL     1       5.237  -3.662  -0.199  1.00  0.00    -0.360 OA
ATOM     41  H2  UNL     1       4.758  -4.482  -0.170  1.00  0.00     0.217 HD
ENDBRANCH  14  40
TORSDOF 8
