REMARK  6 active torsions:
REMARK  status: ('A' for Active; 'I' for Inactive)
REMARK    1  A    between atoms: C3_4  and  N2_5 
REMARK    2  A    between atoms: C5_9  and  C6_10 
REMARK    3  A    between atoms: N4_21  and  N5_23 
REMARK    4  A    between atoms: C13_25  and  C14_26 
REMARK    5  A    between atoms: C18_31  and  N6_32 
REMARK    6  A    between atoms: C19_35  and  O5_36 
ROOT
HETATM    1  N1  UNL     1       1.614   2.624  -0.734  1.00  0.00    -0.191 NA
HETATM    2  C1  UNL     1       0.586   2.084  -0.564  1.00  0.00     0.106 C 
HETATM    3  C2  UNL     1      -0.676   1.433  -0.332  1.00  0.00     0.122 A 
HETATM    4  C3  UNL     1      -1.811   2.198  -0.180  1.00  0.00     0.129 A 
HETATM    5  C4  UNL     1      -3.059   1.642   0.051  1.00  0.00     0.068 A 
HETATM    6  C5  UNL     1      -3.142   0.255   0.129  1.00  0.00     0.048 A 
HETATM    7  N3  UNL     1      -2.036  -0.484  -0.018  1.00  0.00    -0.339 N 
ATOM      8  H3  UNL     1      -2.116  -1.499   0.044  1.00  0.00     0.167 HD
HETATM    9  C12 UNL     1      -0.793   0.065  -0.250  1.00  0.00     0.144 A 
HETATM   10  N4  UNL     1       0.209  -0.685  -0.382  1.00  0.00    -0.284 N 
ATOM     11  H4  UNL     1      -0.032  -1.672  -0.296  1.00  0.00     0.188 HD
ENDROOT
BRANCH   4  12
HETATM   12  N2  UNL     1      -1.775   3.613  -0.250  1.00  0.00    -0.114 N 
HETATM   13  O1  UNL     1      -2.603   4.319   0.361  1.00  0.00    -0.532 OA
HETATM   14  O2  UNL     1      -0.833   4.271  -0.987  1.00  0.00    -0.532 OA
ENDBRANCH   4  12
BRANCH  10  15
HETATM   15  N5  UNL     1       1.520  -0.497  -0.609  1.00  0.00    -0.309 N 
HETATM   16  C13 UNL     1       2.489  -0.955   0.121  1.00  0.00     0.121 C 
ATOM     17  H5  UNL     1       1.776   0.055  -1.428  1.00  0.00     0.186 HD
BRANCH  16  18
HETATM   18  C14 UNL     1       3.889  -0.708  -0.195  1.00  0.00     0.018 A 
HETATM   19  C15 UNL     1       4.260   0.011  -1.301  1.00  0.00     0.039 A 
HETATM   20  C16 UNL     1       5.586   0.228  -1.590  1.00  0.00     0.037 A 
HETATM   21 CL3  UNL     1       6.016   1.147  -3.005  1.00  0.00    -0.084 Cl
HETATM   22  C17 UNL     1       6.584  -0.261  -0.796  1.00  0.00     0.062 A 
HETATM   23  C18 UNL     1       6.241  -1.006   0.349  1.00  0.00     0.138 A 
HETATM   24  C19 UNL     1       4.911  -1.212   0.624  1.00  0.00     0.110 A 
BRANCH  23  25
HETATM   25  N6  UNL     1       7.321  -1.483   1.142  1.00  0.00    -0.113 N 
HETATM   26  O3  UNL     1       8.419  -0.839   1.176  1.00  0.00    -0.532 OA
HETATM   27  O4  UNL     1       7.184  -2.628   1.867  1.00  0.00    -0.532 OA
ENDBRANCH  23  25
BRANCH  24  28
HETATM   28  O5  UNL     1       4.484  -1.920   1.716  1.00  0.00    -0.357 OA
ATOM     29  H5  UNL     1       5.176  -2.261   2.270  1.00  0.00     0.217 HD
ENDBRANCH  24  28
ENDBRANCH  16  18
ENDBRANCH  10  15
BRANCH   6  30
HETATM   30  C6  UNL     1      -4.486  -0.289   0.285  1.00  0.00     0.014 A 
HETATM   31  C7  UNL     1      -5.459   0.493   0.925  1.00  0.00     0.039 A 
HETATM   32  C8  UNL     1      -6.768   0.116   1.071  1.00  0.00     0.035 A 
HETATM   33 CL1  UNL     1      -7.938   1.137   1.879  1.00  0.00    -0.084 Cl
HETATM   34  C9  UNL     1      -7.202  -1.091   0.580  1.00  0.00     0.025 A 
HETATM   35  C10 UNL     1      -6.278  -1.877  -0.049  1.00  0.00     0.026 A 
HETATM   36  C11 UNL     1      -4.933  -1.485  -0.199  1.00  0.00     0.046 A 
HETATM   37 CL2  UNL     1      -3.870  -2.547  -1.078  1.00  0.00    -0.083 Cl
ENDBRANCH   6  30
TORSDOF 6
