REMARK  7 active torsions:
REMARK  status: ('A' for Active; 'I' for Inactive)
REMARK    1  A    between atoms: O1_2  and  C2_3 
REMARK    2  A    between atoms: C4_5  and  C5_6 
REMARK    3  A    between atoms: N1_7  and  N2_9 
REMARK    4  A    between atoms: C6_10  and  C7_11 
REMARK    5  A    between atoms: C7_11  and  O2_12 
REMARK    6  A    between atoms: C8_14  and  C9_15 
REMARK    7  A    between atoms: C18_29  and  O4_30 
ROOT
HETATM    1  N2  UNL     1      -0.751  -0.004   0.855  1.00  0.00    -0.224 N 
HETATM    2  C6  UNL     1      -1.859  -0.462   0.187  1.00  0.00     0.095 A 
HETATM    3  C8  UNL     1      -2.918   0.253   0.619  1.00  0.00     0.117 A 
HETATM    4  O3  UNL     1      -2.393   1.105   1.524  1.00  0.00    -0.280 OA
HETATM    5  C15 UNL     1      -1.136   0.963   1.667  1.00  0.00     0.241 A 
HETATM    6  S1  UNL     1      -0.180   1.825   2.677  1.00  0.00    -0.031 SA
ENDROOT
BRANCH   1   7
HETATM    7  N1  UNL     1       0.529  -0.513   0.663  1.00  0.00    -0.302 N 
HETATM    8  C5  UNL     1       1.479   0.256   0.328  1.00  0.00     0.119 C 
ATOM      9  H1  UNL     1       0.704  -1.510   0.792  1.00  0.00     0.186 HD
BRANCH   8  10
HETATM   10  C4  UNL     1       2.853  -0.216   0.109  1.00  0.00    -0.015 A 
HETATM   11  C3  UNL     1       3.855   0.657  -0.255  1.00  0.00     0.052 A 
HETATM   12  C2  UNL     1       5.154   0.235  -0.466  1.00  0.00     0.103 A 
HETATM   13  C18 UNL     1       5.473  -1.095  -0.311  1.00  0.00     0.116 A 
HETATM   14  C17 UNL     1       4.480  -1.982   0.053  1.00  0.00     0.047 A 
HETATM   15  C16 UNL     1       3.187  -1.542   0.260  1.00  0.00     0.035 A 
HETATM   16 BR1  UNL     1       4.901  -3.814   0.270  1.00  0.00    -0.048 Br
BRANCH  12  17
HETATM   17  O1  UNL     1       6.170   1.108  -0.834  1.00  0.00    -0.353 OA
HETATM   18  C1  UNL     1       5.867   2.500  -1.002  1.00  0.00     0.210 C 
ENDBRANCH  12  17
BRANCH  13  19
HETATM   19  O4  UNL     1       6.770  -1.534  -0.519  1.00  0.00    -0.357 OA
ATOM     20  H4  UNL     1       6.990  -2.452  -0.412  1.00  0.00     0.218 HD
ENDBRANCH  13  19
ENDBRANCH   8  10
ENDBRANCH   1   7
BRANCH   2  21
HETATM   21  C7  UNL     1      -1.847  -1.540  -0.829  1.00  0.00     0.226 C 
BRANCH  21  22
HETATM   22  O2  UNL     1      -0.537  -2.036  -0.988  1.00  0.00    -0.395 OA
ATOM     23  H2  UNL     1      -0.529  -2.727  -1.640  1.00  0.00     0.209 HD
ENDBRANCH  21  22
ENDBRANCH   2  21
BRANCH   3  24
HETATM   24  C9  UNL     1      -4.335   0.248   0.302  1.00  0.00     0.022 A 
HETATM   25  C10 UNL     1      -4.918  -0.626  -0.545  1.00  0.00     0.018 A 
HETATM   26  C11 UNL     1      -6.301  -0.584  -0.836  1.00  0.00     0.025 A 
HETATM   27  C12 UNL     1      -7.100   0.363  -0.251  1.00  0.00     0.035 A 
HETATM   28 CL1  UNL     1      -8.821   0.399  -0.625  1.00  0.00    -0.084 Cl
HETATM   29  C13 UNL     1      -6.515   1.248   0.607  1.00  0.00     0.048 A 
HETATM   30  C14 UNL     1      -5.164   1.198   0.883  1.00  0.00     0.048 A 
HETATM   31 CL2  UNL     1      -4.456   2.357   1.992  1.00  0.00    -0.083 Cl
ENDBRANCH   3  24
TORSDOF 7
