REMARK  7 active torsions:
REMARK  status: ('A' for Active; 'I' for Inactive)
REMARK    1  A    between atoms: C3_3  and  C4_4 
REMARK    2  A    between atoms: C4_4  and  O2_6 
REMARK    3  A    between atoms: O2_6  and  C5_7 
REMARK    4  A    between atoms: C10_13  and  C11_14 
REMARK    5  A    between atoms: C12_15  and  C13_16 
REMARK    6  A    between atoms: N1_19  and  C14_20 
REMARK    7  A    between atoms: C20_29  and  N2_30 
ROOT
HETATM    1  C1  UNL     1       0.393  -1.526   2.645  1.00  0.00     0.071 C 
HETATM    2  C2  UNL     1       0.512  -0.816   1.295  1.00  0.00     0.054 A 
HETATM    3  C3  UNL     1       1.734  -0.536   0.773  1.00  0.00     0.105 A 
HETATM    4  S1  UNL     1       1.285   0.253  -0.706  1.00  0.00    -0.061 SA
HETATM    5  C9  UNL     1      -0.405   0.159  -0.535  1.00  0.00     0.127 A 
HETATM    6  C10 UNL     1      -1.638   0.505  -1.170  1.00  0.00     0.092 A 
HETATM    7  N1  UNL     1      -2.542   0.057  -0.330  1.00  0.00    -0.143 N 
HETATM    8  C20 UNL     1      -1.933  -0.527   0.757  1.00  0.00     0.691 A 
HETATM    9  N3  UNL     1      -0.582  -0.456   0.615  1.00  0.00    -0.141 N 
ENDROOT
BRANCH   7  10
HETATM   10  C14 UNL     1      -3.949   0.054  -0.446  1.00  0.00     0.081 A 
HETATM   11  C15 UNL     1      -4.726   0.772   0.443  1.00  0.00     0.058 A 
HETATM   12  C16 UNL     1      -6.094   0.725   0.321  1.00  0.00     0.058 A 
HETATM   13 CL1  UNL     1      -7.114   1.619   1.424  1.00  0.00    -0.082 Cl
HETATM   14  C17 UNL     1      -6.710  -0.030  -0.681  1.00  0.00     0.057 A 
HETATM   15 CL2  UNL     1      -8.461  -0.065  -0.806  1.00  0.00    -0.082 Cl
HETATM   16  C18 UNL     1      -5.898  -0.740  -1.558  1.00  0.00     0.051 A 
HETATM   17  C19 UNL     1      -4.502  -0.705  -1.448  1.00  0.00     0.063 A 
HETATM   18 CL3  UNL     1      -3.617  -1.673  -2.606  1.00  0.00    -0.082 Cl
ENDBRANCH   7  10
BRANCH   6  19
HETATM   19  C11 UNL     1      -1.608   1.110  -2.456  1.00  0.00     0.040 C 
HETATM   20  C12 UNL     1      -2.268   1.885  -3.218  1.00  0.00     0.087 C 
BRANCH  20  21
HETATM   21  C13 UNL     1      -3.464   2.639  -3.235  1.00  0.00     0.198 C 
HETATM   22  O3  UNL     1      -4.318   2.789  -2.364  1.00  0.00    -0.645 OA
HETATM   23  O4  UNL     1      -3.776   3.365  -4.444  1.00  0.00    -0.645 OA
ENDBRANCH  20  21
ENDBRANCH   6  19
BRANCH   8  24
HETATM   24  N2  UNL     1      -2.636  -1.042   1.720  1.00  0.00    -0.233 N 
ATOM     25  H22 UNL     1      -3.649  -1.095   1.826  1.00  0.00     0.174 HD
ATOM     26  H21 UNL     1      -2.185  -1.475   2.526  1.00  0.00     0.174 HD
ENDBRANCH   8  24
BRANCH   3  27
HETATM   27  C4  UNL     1       3.109  -0.775   1.214  1.00  0.00     0.303 C 
HETATM   28  O1  UNL     1       3.393  -1.336   2.243  1.00  0.00    -0.259 OA
BRANCH  27  29
HETATM   29  O2  UNL     1       4.142  -0.326   0.394  1.00  0.00    -0.307 OA
BRANCH  29  30
HETATM   30  C5  UNL     1       5.501  -0.462   0.643  1.00  0.00     0.060 C 
HETATM   31  C6  UNL     1       6.003  -1.863   0.773  1.00  0.00     0.046 C 
HETATM   32  C7  UNL     1       6.242   0.167  -0.543  1.00  0.00     0.046 C 
HETATM   33  C8  UNL     1       5.945   0.314   1.864  1.00  0.00     0.046 C 
ENDBRANCH  29  30
ENDBRANCH  27  29
ENDBRANCH   3  27
TORSDOF 7
