REMARK  6 active torsions:
REMARK  status: ('A' for Active; 'I' for Inactive)
REMARK    1  A    between atoms: C2_2  and  O1_3 
REMARK    2  A    between atoms: O1_3  and  C3_4 
REMARK    3  A    between atoms: C3_4  and  C4_6 
REMARK    4  A    between atoms: C5_7  and  C6_8 
REMARK    5  A    between atoms: C6_8  and  C7_10 
REMARK    6  A    between atoms: N1_15  and  C11_16 
ROOT
HETATM    1  C4  UNL     1       1.401  -0.543   0.795  1.00  0.00     0.085 A 
HETATM    2  C5  UNL     1       0.421  -0.563  -0.135  1.00  0.00     0.111 A 
HETATM    3  N1  UNL     1      -0.827  -0.479   0.440  1.00  0.00    -0.294 N 
HETATM    4  C17 UNL     1      -0.613  -0.405   1.769  1.00  0.00     0.078 A 
HETATM    5  C18 UNL     1      -1.410  -0.309   2.883  1.00  0.00     0.088 A 
HETATM    6 CL1  UNL     1      -3.130  -0.271   2.717  1.00  0.00    -0.080 Cl
HETATM    7  C19 UNL     1      -0.906  -0.252   4.163  1.00  0.00     0.093 A 
HETATM    8  N3  UNL     1      -1.797  -0.153   5.283  1.00  0.00    -0.099 NA
HETATM    9  C20 UNL     1       0.468  -0.291   4.371  1.00  0.00     0.082 A 
HETATM   10 CL2  UNL     1       1.055  -0.215   6.006  1.00  0.00    -0.080 Cl
HETATM   11  C21 UNL     1       1.295  -0.387   3.277  1.00  0.00     0.071 A 
HETATM   12 CL3  UNL     1       3.015  -0.433   3.573  1.00  0.00    -0.081 Cl
HETATM   13  C22 UNL     1       0.774  -0.443   2.000  1.00  0.00     0.035 A 
ENDROOT
BRANCH   3  14
HETATM   14  C11 UNL     1      -2.082  -0.461  -0.218  1.00  0.00     0.088 C 
HETATM   15  N2  UNL     1      -2.955  -1.603  -0.010  1.00  0.00    -0.379 N 
HETATM   16  C12 UNL     1      -3.864  -1.660  -1.133  1.00  0.00     0.121 C 
ATOM     17  H2  UNL     1      -2.931  -2.246   0.782  1.00  0.00     0.160 HD
HETATM   18  C13 UNL     1      -4.818  -0.524  -1.010  1.00  0.00     0.020 C 
HETATM   19  C14 UNL     1      -4.214   0.803  -0.776  1.00  0.00     0.013 C 
HETATM   20  C15 UNL     1      -2.749   0.847  -0.470  1.00  0.00     0.050 C 
HETATM   21  C16 UNL     1      -2.149   1.580  -1.702  1.00  0.00     0.018 C 
ENDBRANCH   3  14
BRANCH   2  22
HETATM   22  C6  UNL     1       0.646  -0.654  -1.543  1.00  0.00     0.233 C 
HETATM   23  O3  UNL     1       0.174  -1.571  -2.256  1.00  0.00    -0.283 OA
BRANCH  22  24
HETATM   24  C7  UNL     1       1.465   0.359  -2.229  1.00  0.00     0.127 A 
HETATM   25  C8  UNL     1       2.193   0.254  -3.366  1.00  0.00     0.043 A 
HETATM   26  C9  UNL     1       2.778   1.468  -3.607  1.00  0.00     0.027 A 
HETATM   27  C10 UNL     1       2.377   2.297  -2.582  1.00  0.00     0.142 A 
HETATM   28  O4  UNL     1       1.611   1.602  -1.804  1.00  0.00    -0.319 OA
ENDBRANCH  22  24
ENDBRANCH   2  22
BRANCH   1  29
HETATM   29  C3  UNL     1       2.842  -0.621   0.637  1.00  0.00     0.296 C 
HETATM   30  O2  UNL     1       3.441  -1.758   0.627  1.00  0.00    -0.259 OA
BRANCH  29  31
HETATM   31  O1  UNL     1       3.702   0.453   0.489  1.00  0.00    -0.318 OA
BRANCH  31  32
HETATM   32  C2  UNL     1       5.103   0.308   0.341  1.00  0.00     0.174 C 
HETATM   33  C1  UNL     1       5.488  -0.492  -0.861  1.00  0.00     0.034 C 
ENDBRANCH  31  32
ENDBRANCH  29  31
ENDBRANCH   1  29
TORSDOF 6
