REMARK  7 active torsions:
REMARK  status: ('A' for Active; 'I' for Inactive)
REMARK    1  A    between atoms: N1_1  and  C1_5 
REMARK    2  A    between atoms: C1_5  and  C2_6 
REMARK    3  A    between atoms: C2_6  and  N2_7 
REMARK    4  A    between atoms: C5_10  and  C6_11 
REMARK    5  A    between atoms: C9_15  and  O1_16 
REMARK    6  A    between atoms: C10_18  and  C11_19 
REMARK    7  A    between atoms: N3_20  and  N4_22 
ROOT
HETATM    1  C6  UNL     1      -0.753  -0.442   0.752  1.00  0.00    -0.050 A 
HETATM    2  C7  UNL     1      -0.932   0.066   2.019  1.00  0.00     0.052 A 
HETATM    3  C8  UNL     1       0.141   0.336   2.821  1.00  0.00     0.150 A 
HETATM    4  F1  UNL     1      -0.016   0.834   4.068  1.00  0.00    -0.203 F 
HETATM    5  C9  UNL     1       1.466   0.112   2.398  1.00  0.00     0.116 A 
HETATM    6  C10 UNL     1       1.658  -0.393   1.139  1.00  0.00     0.018 A 
HETATM    7  C19 UNL     1       0.526  -0.656   0.347  1.00  0.00     0.023 A 
ENDROOT
BRANCH   6   8
HETATM    8  C11 UNL     1       2.978  -0.669   0.579  1.00  0.00     0.122 C 
HETATM    9  N3  UNL     1       4.085  -0.505   1.114  1.00  0.00    -0.302 N 
ATOM     10  H3  UNL     1       4.117  -0.132   2.063  1.00  0.00     0.186 HD
BRANCH   9  11
HETATM   11  N4  UNL     1       5.327  -0.817   0.457  1.00  0.00    -0.238 N 
HETATM   12  C12 UNL     1       5.848  -2.027   0.636  1.00  0.00     0.165 A 
HETATM   13  S1  UNL     1       5.352  -3.320   1.494  1.00  0.00    -0.050 SA
HETATM   14  S2  UNL     1       7.270  -1.991  -0.282  1.00  0.00    -0.057 SA
HETATM   15  C13 UNL     1       7.147  -0.389  -0.878  1.00  0.00     0.038 A 
HETATM   16  C14 UNL     1       7.942   0.410  -1.719  1.00  0.00     0.047 A 
HETATM   17  C18 UNL     1       5.977   0.035  -0.314  1.00  0.00     0.077 A 
HETATM   18  C15 UNL     1       7.559   1.702  -2.020  1.00  0.00     0.057 A 
HETATM   19 CL1  UNL     1       8.572   2.663  -3.068  1.00  0.00    -0.083 Cl
HETATM   20  C16 UNL     1       6.387   2.125  -1.455  1.00  0.00     0.058 A 
HETATM   21 CL2  UNL     1       5.890   3.772  -1.833  1.00  0.00    -0.082 Cl
HETATM   22  C17 UNL     1       5.609   1.365  -0.641  1.00  0.00     0.058 A 
ENDBRANCH   9  11
ENDBRANCH   6   8
BRANCH   5  23
HETATM   23  O1  UNL     1       2.486   0.402   3.244  1.00  0.00    -0.357 OA
ATOM     24  H1  UNL     1       3.379   0.251   2.959  1.00  0.00     0.218 HD
ENDBRANCH   5  23
BRANCH   1  25
HETATM   25  C5  UNL     1      -1.897  -0.748  -0.150  1.00  0.00     0.022 C 
HETATM   26  C4  UNL     1      -2.838  -1.765   0.406  1.00  0.00     0.039 C 
HETATM   27  C3  UNL     1      -4.176  -1.164   0.696  1.00  0.00     0.273 C 
HETATM   28  N2  UNL     1      -4.828  -0.607  -0.473  1.00  0.00     0.090 N 
HETATM   29  C21 UNL     1      -3.871   0.033  -1.321  1.00  0.00     0.273 C 
HETATM   30  C20 UNL     1      -2.653   0.515  -0.521  1.00  0.00     0.039 C 
BRANCH  28  31
HETATM   31  C2  UNL     1      -5.855   0.288   0.009  1.00  0.00     0.299 C 
BRANCH  31  32
HETATM   32  C1  UNL     1      -6.632   0.952  -1.082  1.00  0.00     0.259 C 
BRANCH  32  33
HETATM   33  N1  UNL     1      -7.295  -0.049  -1.909  1.00  0.00    -0.078 N 
ATOM     34  H13 UNL     1      -6.637  -0.738  -2.274  1.00  0.00     0.274 HD
ATOM     35  H12 UNL     1      -7.877  -0.677  -1.354  1.00  0.00     0.274 HD
ATOM     36  H11 UNL     1      -7.825   0.404  -2.653  1.00  0.00     0.274 HD
ENDBRANCH  32  33
ENDBRANCH  31  32
ENDBRANCH  28  31
ENDBRANCH   1  25
TORSDOF 7
