REMARK  6 active torsions:
REMARK  status: ('A' for Active; 'I' for Inactive)
REMARK    1  A    between atoms: C2_2  and  O1_3 
REMARK    2  A    between atoms: O1_3  and  C3_4 
REMARK    3  A    between atoms: C8_9  and  O2_10 
REMARK    4  A    between atoms: C9_14  and  C10_15 
REMARK    5  A    between atoms: C18_25  and  C19_26 
REMARK    6  A    between atoms: N2_31  and  C22_32 
ROOT
HETATM    1  C3  UNL     1       4.035  -1.103  -0.375  1.00  0.00     0.104 A 
HETATM    2  C4  UNL     1       3.188  -0.108   0.048  1.00  0.00     0.078 A 
HETATM    3  C5  UNL     1       1.837  -0.095  -0.226  1.00  0.00     0.099 A 
HETATM    4  C6  UNL     1       1.322  -1.137  -0.960  1.00  0.00     0.065 A 
HETATM    5  C7  UNL     1       2.134  -2.151  -1.402  1.00  0.00     0.071 A 
HETATM    6  C8  UNL     1       3.482  -2.140  -1.115  1.00  0.00     0.101 A 
HETATM    7  N1  UNL     1      -0.047  -1.283  -1.328  1.00  0.00    -0.379 N 
ATOM      8  H1  UNL     1      -0.301  -2.228  -1.616  1.00  0.00     0.160 HD
HETATM    9  C9  UNL     1      -1.137  -0.346  -1.369  1.00  0.00     0.118 C 
HETATM   10  C17 UNL     1      -1.141   0.673  -0.263  1.00  0.00     0.067 C 
HETATM   11  C18 UNL     1       0.001   1.638  -0.299  1.00  0.00     0.170 C 
HETATM   12  O6  UNL     1       1.150   0.999   0.289  1.00  0.00    -0.339 OA
ENDROOT
BRANCH  11  13
HETATM   13  C19 UNL     1      -0.293   2.811   0.580  1.00  0.00     0.053 A 
HETATM   14  C20 UNL     1       0.482   3.975   0.610  1.00  0.00     0.086 A 
HETATM   15 CL1  UNL     1       1.911   4.312  -0.355  1.00  0.00    -0.080 Cl
HETATM   16  C21 UNL     1      -0.084   4.814   1.540  1.00  0.00     0.137 A 
HETATM   17 CL2  UNL     1       0.523   6.423   1.955  1.00  0.00    -0.062 Cl
HETATM   18  N2  UNL     1      -1.164   4.241   2.090  1.00  0.00    -0.253 N 
HETATM   19  C23 UNL     1      -1.283   3.022   1.500  1.00  0.00     0.208 A 
HETATM   20  F1  UNL     1      -2.277   2.156   1.828  1.00  0.00    -0.185 F 
BRANCH  18  21
HETATM   21  C22 UNL     1      -2.004   4.804   3.087  1.00  0.00     0.363 C 
HETATM   22  O5  UNL     1      -2.995   4.174   3.532  1.00  0.00    -0.283 OA
ENDBRANCH  18  21
ENDBRANCH  11  13
BRANCH   9  23
HETATM   23  C10 UNL     1      -2.385  -1.137  -1.337  1.00  0.00    -0.033 A 
HETATM   24  C11 UNL     1      -2.511  -2.178  -2.233  1.00  0.00     0.012 A 
HETATM   25  C12 UNL     1      -3.665  -2.956  -2.229  1.00  0.00     0.040 A 
HETATM   26  C13 UNL     1      -4.704  -2.727  -1.354  1.00  0.00     0.105 A 
HETATM   27  C14 UNL     1      -4.590  -1.690  -0.456  1.00  0.00     0.105 A 
HETATM   28  O4  UNL     1      -5.951  -3.310  -1.110  1.00  0.00    -0.323 OA
HETATM   29  C15 UNL     1      -3.436  -0.925  -0.472  1.00  0.00     0.049 A 
HETATM   30  O3  UNL     1      -5.753  -1.633   0.336  1.00  0.00    -0.323 OA
HETATM   31  C16 UNL     1      -6.403  -2.882   0.185  1.00  0.00     0.352 C 
ENDBRANCH   9  23
BRANCH   1  32
HETATM   32  O1  UNL     1       5.373  -1.139  -0.116  1.00  0.00    -0.349 OA
BRANCH  32  33
HETATM   33  C2  UNL     1       6.136  -0.221   0.603  1.00  0.00     0.171 C 
HETATM   34  C1  UNL     1       5.669  -0.089   2.029  1.00  0.00     0.034 C 
ENDBRANCH  32  33
ENDBRANCH   1  32
BRANCH   6  35
HETATM   35  O2  UNL     1       4.277  -3.187  -1.579  1.00  0.00    -0.358 OA
ATOM     36  H2  UNL     1       3.899  -3.896  -2.085  1.00  0.00     0.217 HD
ENDBRANCH   6  35
TORSDOF 6
