REMARK  7 active torsions:
REMARK  status: ('A' for Active; 'I' for Inactive)
REMARK    1  A    between atoms: O1_2  and  C2_3 
REMARK    2  A    between atoms: C5_7  and  C6_8 
REMARK    3  A    between atoms: C10_13  and  O3_14 
REMARK    4  A    between atoms: C12_16  and  O4_17 
REMARK    5  A    between atoms: C14_19  and  O5_20 
REMARK    6  A    between atoms: C19_25  and  O6_26 
REMARK    7  A    between atoms: C21_30  and  O7_31 
ROOT
HETATM    1  C6  UNL     1       1.603   0.957   0.449  1.00  0.00    -0.055 C 
HETATM    2  C7  UNL     1       0.998   1.560  -0.755  1.00  0.00     0.119 C 
HETATM    3  C8  UNL     1      -0.411   1.293  -1.082  1.00  0.00     0.167 C 
HETATM    4  O2  UNL     1      -0.720   1.795  -2.193  1.00  0.00    -0.292 OA
HETATM    5  C9  UNL     1      -1.492   0.584  -0.412  1.00  0.00     0.057 A 
HETATM    6  C10 UNL     1      -2.549   0.229  -1.229  1.00  0.00     0.118 A 
HETATM    7  C12 UNL     1      -3.569  -0.546  -0.695  1.00  0.00     0.136 A 
HETATM    8  C14 UNL     1      -3.517  -0.942   0.619  1.00  0.00     0.111 A 
HETATM    9  C16 UNL     1      -2.489  -0.609   1.471  1.00  0.00    -0.014 A 
HETATM   10  C17 UNL     1      -2.475  -1.054   2.882  1.00  0.00     0.052 C 
HETATM   11  C18 UNL     1      -1.489   0.153   0.936  1.00  0.00     0.017 A 
HETATM   12  C19 UNL     1      -0.420   0.523   1.848  1.00  0.00     0.167 C 
HETATM   13 CL2  UNL     1      -0.273   2.335   1.674  1.00  0.00    -0.083 Cl
HETATM   14  C20 UNL     1       0.886  -0.032   1.241  1.00  0.00     0.095 C 
ENDROOT
BRANCH   1  15
HETATM   15  C5  UNL     1       3.031   0.654   0.100  1.00  0.00     0.004 A 
HETATM   16  C4  UNL     1       3.664   1.472  -0.858  1.00  0.00     0.041 A 
HETATM   17  C3  UNL     1       4.978   1.348  -1.211  1.00  0.00     0.070 A 
HETATM   18  C2  UNL     1       5.729   0.375  -0.597  1.00  0.00     0.114 A 
HETATM   19 CL1  UNL     1       5.687   2.421  -2.430  1.00  0.00    -0.081 Cl
HETATM   20  C22 UNL     1       5.129  -0.442   0.349  1.00  0.00     0.102 A 
HETATM   21  C21 UNL     1       3.780  -0.309   0.703  1.00  0.00     0.100 A 
HETATM   22 CL3  UNL     1       6.061  -1.690   1.143  1.00  0.00    -0.078 Cl
BRANCH  18  23
HETATM   23  O1  UNL     1       7.054   0.229  -0.930  1.00  0.00    -0.352 OA
HETATM   24  C1  UNL     1       7.589  -0.582  -1.932  1.00  0.00     0.210 C 
ENDBRANCH  18  23
BRANCH  21  25
HETATM   25  O7  UNL     1       3.301  -1.176   1.648  1.00  0.00    -0.358 OA
ATOM     26  H7  UNL     1       3.824  -1.848   2.069  1.00  0.00     0.217 HD
ENDBRANCH  21  25
ENDBRANCH   1  15
BRANCH  12  27
HETATM   27  O6  UNL     1      -0.539   0.373   3.169  1.00  0.00    -0.370 OA
ATOM     28  H6  UNL     1       0.160   0.615   3.765  1.00  0.00     0.212 HD
ENDBRANCH  12  27
BRANCH   6  29
HETATM   29  O3  UNL     1      -2.622   0.633  -2.562  1.00  0.00    -0.352 OA
HETATM   30  C11 UNL     1      -3.425   1.756  -2.971  1.00  0.00     0.210 C 
ENDBRANCH   6  29
BRANCH   7  31
HETATM   31  O4  UNL     1      -4.639  -0.935  -1.438  1.00  0.00    -0.351 OA
HETATM   32  C13 UNL     1      -5.906  -0.299  -1.495  1.00  0.00     0.210 C 
ENDBRANCH   7  31
BRANCH   8  33
HETATM   33  O5  UNL     1      -4.568  -1.734   1.139  1.00  0.00    -0.352 OA
HETATM   34  C15 UNL     1      -4.494  -3.154   1.037  1.00  0.00     0.210 C 
ENDBRANCH   8  33
TORSDOF 7
