REMARK  7 active torsions:
REMARK  status: ('A' for Active; 'I' for Inactive)
REMARK    1  A    between atoms: C2_2  and  O1_3 
REMARK    2  A    between atoms: O1_3  and  C3_4 
REMARK    3  A    between atoms: C3_4  and  C4_6 
REMARK    4  A    between atoms: C5_7  and  N1_8 
REMARK    5  A    between atoms: N2_10  and  C6_12 
REMARK    6  A    between atoms: C10_17  and  S1_18 
REMARK    7  A    between atoms: C14_26  and  O6_27 
ROOT
HETATM    1  C4  UNL     1      -2.397  -0.847  -0.797  1.00  0.00     0.092 A 
HETATM    2  C5  UNL     1      -1.307  -0.606  -1.602  1.00  0.00     0.067 A 
HETATM    3  C12 UNL     1      -1.403  -0.774  -2.989  1.00  0.00     0.054 A 
HETATM    4  C13 UNL     1      -2.599  -1.184  -3.542  1.00  0.00     0.048 A 
HETATM    5 BR1  UNL     1      -2.704  -1.407  -5.433  1.00  0.00    -0.048 Br
HETATM    6  C14 UNL     1      -3.691  -1.426  -2.736  1.00  0.00     0.105 A 
HETATM    7  C15 UNL     1      -3.590  -1.256  -1.359  1.00  0.00     0.087 A 
HETATM    8 CL2  UNL     1      -4.934  -1.544  -0.275  1.00  0.00    -0.080 Cl
ENDROOT
BRANCH   2   9
HETATM    9  N1  UNL     1      -0.102  -0.186  -0.974  1.00  0.00    -0.299 N 
HETATM   10  N2  UNL     1       0.964  -0.297  -1.621  1.00  0.00    -0.300 N 
ATOM     11  H2  UNL     1       0.912  -0.683  -2.564  1.00  0.00     0.187 HD
ATOM     12  H1  UNL     1      -0.106   0.193  -0.027  1.00  0.00     0.187 HD
BRANCH  10  13
HETATM   13  C6  UNL     1       2.240   0.079  -1.128  1.00  0.00     0.049 A 
HETATM   14  C7  UNL     1       3.275   0.466  -1.961  1.00  0.00     0.033 A 
HETATM   15  C8  UNL     1       4.513   0.830  -1.475  1.00  0.00     0.028 A 
HETATM   16  C9  UNL     1       4.734   0.810  -0.116  1.00  0.00     0.058 A 
HETATM   17 CL1  UNL     1       6.303   1.268   0.555  1.00  0.00    -0.083 Cl
HETATM   18  C10 UNL     1       3.728   0.431   0.747  1.00  0.00     0.104 A 
HETATM   19  C11 UNL     1       2.521   0.078   0.228  1.00  0.00     0.059 A 
BRANCH  18  20
HETATM   20  S1  UNL     1       4.066   0.423   2.484  1.00  0.00     0.139 S 
HETATM   21  O3  UNL     1       2.853  -0.026   3.247  1.00  0.00    -0.591 OA
HETATM   22  O4  UNL     1       4.448   1.819   2.882  1.00  0.00    -0.591 OA
HETATM   23  O5  UNL     1       5.326  -0.636   2.787  1.00  0.00    -0.591 OA
ENDBRANCH  18  20
ENDBRANCH  10  13
ENDBRANCH   2   9
BRANCH   1  24
HETATM   24  C3  UNL     1      -2.280  -0.666   0.640  1.00  0.00     0.297 C 
HETATM   25  O2  UNL     1      -1.928  -1.577   1.433  1.00  0.00    -0.259 OA
BRANCH  24  26
HETATM   26  O1  UNL     1      -2.571   0.573   1.162  1.00  0.00    -0.318 OA
BRANCH  26  27
HETATM   27  C2  UNL     1      -2.505   0.906   2.529  1.00  0.00     0.174 C 
HETATM   28  C1  UNL     1      -3.426   0.069   3.375  1.00  0.00     0.034 C 
ENDBRANCH  26  27
ENDBRANCH  24  26
ENDBRANCH   1  24
BRANCH   6  29
HETATM   29  O6  UNL     1      -4.908  -1.838  -3.254  1.00  0.00    -0.358 OA
ATOM     30  H6  UNL     1      -5.660  -2.005  -2.699  1.00  0.00     0.217 HD
ENDBRANCH   6  29
TORSDOF 7
