REMARK  9 active torsions:
REMARK  status: ('A' for Active; 'I' for Inactive)
REMARK    1  A    between atoms: C8_8  and  O1_9 
REMARK    2  A    between atoms: C9_11  and  C11_13 
REMARK    3  A    between atoms: C11_13  and  C13_16 
REMARK    4  A    between atoms: C13_16  and  C14_17 
REMARK    5  A    between atoms: C14_17  and  O3_19 
REMARK    6  A    between atoms: O3_19  and  C15_20 
REMARK    7  A    between atoms: C15_20  and  O4_21 
REMARK    8  A    between atoms: O4_21  and  C16_22 
REMARK    9  A    between atoms: C24_33  and  C25_34 
ROOT
HETATM    1  C11 UNL     1       2.716  -0.666  -0.088  1.00  0.00     0.112 C 
HETATM    2  C12 UNL     1       2.883  -1.935  -0.812  1.00  0.00     0.065 C 
HETATM    3  N1  UNL     1       3.003  -2.925  -1.394  1.00  0.00    -0.197 NA
ENDROOT
BRANCH   1   4
HETATM    4  C9  UNL     1       1.469  -0.710   0.784  1.00  0.00    -0.001 C 
HETATM    5  C8  UNL     1       0.309  -0.928  -0.054  1.00  0.00     0.136 C 
HETATM    6  C6  UNL     1      -0.898  -0.015   0.070  1.00  0.00    -0.006 C 
HETATM    7  C5  UNL     1      -1.810  -0.534  -1.021  1.00  0.00     0.048 C 
HETATM    8  C7  UNL     1      -0.508   1.334  -0.360  1.00  0.00     0.019 C 
HETATM    9  C20 UNL     1      -1.606  -0.189   1.373  1.00  0.00    -0.026 C 
HETATM   10  C4  UNL     1      -3.231  -0.050  -0.912  1.00  0.00    -0.064 C 
HETATM   11  C2  UNL     1      -3.944  -0.294  -1.982  1.00  0.00    -0.084 C 
HETATM   12  C26 UNL     1      -3.755   0.617   0.278  1.00  0.00     0.015 A 
HETATM   13  C1  UNL     1      -3.253  -1.007  -3.138  1.00  0.00     0.043 C 
HETATM   14  C3  UNL     1      -5.347   0.038  -2.183  1.00  0.00     0.043 C 
HETATM   15  C22 UNL     1      -2.833   0.626   1.473  1.00  0.00     0.035 A 
HETATM   16  C24 UNL     1      -3.659   2.092   0.367  1.00  0.00    -0.033 A 
HETATM   17  C27 UNL     1      -5.187   0.208   0.706  1.00  0.00     0.026 C 
HETATM   18  C23 UNL     1      -2.857   2.039   1.421  1.00  0.00    -0.010 A 
HETATM   19  C19 UNL     1      -0.748  -0.057   2.581  1.00  0.00     0.011 C 
HETATM   20  C21 UNL     1      -2.160  -1.617   1.516  1.00  0.00     0.016 C 
HETATM   21  C18 UNL     1       0.451   0.784   2.573  1.00  0.00     0.002 C 
HETATM   22  C17 UNL     1       1.567   0.454   1.692  1.00  0.00     0.013 C 
HETATM   23  C10 UNL     1       1.699  -1.956   1.667  1.00  0.00     0.019 C 
BRANCH   5  24
HETATM   24  O1  UNL     1      -0.148  -2.255  -0.005  1.00  0.00    -0.394 OA
ATOM     25  H1  UNL     1       0.607  -2.826  -0.083  1.00  0.00     0.210 HD
ENDBRANCH   5  24
BRANCH  16  26
HETATM   26  C25 UNL     1      -4.222   3.198  -0.391  1.00  0.00     0.088 C 
HETATM   27  N2  UNL     1      -3.939   4.413  -0.037  1.00  0.00    -0.407 N 
ATOM     28  H22 UNL     1      -3.328   4.573   0.764  1.00  0.00     0.155 HD
ATOM     29  H21 UNL     1      -4.334   5.189  -0.569  1.00  0.00     0.155 HD
ENDBRANCH  16  26
ENDBRANCH   1   4
BRANCH   1  30
HETATM   30  C13 UNL     1       3.991  -0.422   0.644  1.00  0.00     0.131 C 
BRANCH  30  31
HETATM   31  C14 UNL     1       5.119  -0.424  -0.364  1.00  0.00     0.262 C 
HETATM   32  O2  UNL     1       5.596  -1.498  -0.812  1.00  0.00    -0.265 OA
BRANCH  31  33
HETATM   33  O3  UNL     1       5.666   0.756  -0.831  1.00  0.00    -0.295 OA
BRANCH  33  34
HETATM   34  C15 UNL     1       6.721   0.714  -1.776  1.00  0.00     0.357 C 
BRANCH  34  35
HETATM   35  O4  UNL     1       7.775   0.030  -1.208  1.00  0.00    -0.272 OA
BRANCH  35  36
HETATM   36  C16 UNL     1       8.874  -0.073  -2.051  1.00  0.00     0.526 C 
HETATM   37  F1  UNL     1       9.274   1.221  -2.342  1.00  0.00    -0.144 F 
HETATM   38  F2  UNL     1       9.900  -0.694  -1.374  1.00  0.00    -0.144 F 
HETATM   39  F3  UNL     1       8.615  -0.711  -3.227  1.00  0.00    -0.144 F 
ENDBRANCH  35  36
ENDBRANCH  34  35
ENDBRANCH  33  34
ENDBRANCH  31  33
ENDBRANCH  30  31
ENDBRANCH   1  30
TORSDOF 9
