REMARK  7 active torsions:
REMARK  status: ('A' for Active; 'I' for Inactive)
REMARK    1  A    between atoms: C2_2  and  C3_7 
REMARK    2  A    between atoms: N1_3  and  O1_5 
REMARK    3  A    between atoms: C3_7  and  C4_8 
REMARK    4  A    between atoms: C3_7  and  N2_12 
REMARK    5  A    between atoms: C4_8  and  C5_9 
REMARK    6  A    between atoms: C16_22  and  C17_23 
REMARK    7  A    between atoms: C17_23  and  C18_24 
ROOT
HETATM    1  N2  UNL     1      -1.897   0.358  -0.170  1.00  0.00    -0.399 N 
HETATM    2  C8  UNL     1      -1.619  -0.522  -1.223  1.00  0.00     0.122 C 
HETATM    3  C9  UNL     1      -0.580  -1.536  -0.653  1.00  0.00     0.055 C 
HETATM    4  C10 UNL     1       0.690  -0.737  -0.416  1.00  0.00    -0.064 C 
HETATM    5  C11 UNL     1       1.786  -1.287  -0.814  1.00  0.00    -0.017 C 
HETATM    6  C12 UNL     1       3.102  -0.623  -0.680  1.00  0.00     0.008 A 
HETATM    7  C13 UNL     1       3.207   0.729  -0.928  1.00  0.00     0.038 A 
HETATM    8  C14 UNL     1       4.413   1.365  -0.752  1.00  0.00     0.052 A 
HETATM    9  C15 UNL     1       4.531   2.785  -1.063  1.00  0.00     0.100 C 
HETATM   10  N3  UNL     1       4.607   3.904  -1.339  1.00  0.00    -0.191 NA
HETATM   11  C16 UNL     1       5.495   0.641  -0.332  1.00  0.00    -0.026 A 
HETATM   12  C19 UNL     1       5.387  -0.732  -0.085  1.00  0.00     0.047 A 
HETATM   13  C20 UNL     1       4.184  -1.355  -0.265  1.00  0.00     0.089 A 
HETATM   14  O2  UNL     1       4.025  -2.745  -0.044  1.00  0.00    -0.296 OA
HETATM   15  C21 UNL     1       2.812  -3.332  -0.251  1.00  0.00     0.140 C 
HETATM   16  N4  UNL     1       2.427  -4.358   0.360  1.00  0.00    -0.382 N 
ATOM     17  H41 UNL     1       1.520  -4.797   0.205  1.00  0.00     0.158 HD
ATOM     18  H42 UNL     1       3.047  -4.781   1.051  1.00  0.00     0.158 HD
HETATM   19  C22 UNL     1       1.887  -2.701  -1.281  1.00  0.00     0.201 C 
HETATM   20  C23 UNL     1       2.609  -2.769  -2.555  1.00  0.00     0.077 C 
HETATM   21  N5  UNL     1       3.164  -2.829  -3.572  1.00  0.00    -0.196 NA
HETATM   22  C24 UNL     1       0.461   0.499   0.366  1.00  0.00     0.028 C 
HETATM   23  C25 UNL     1       1.310   0.558   1.637  1.00  0.00     0.016 C 
HETATM   24  C26 UNL     1      -1.006   0.446   0.881  1.00  0.00     0.126 C 
ENDROOT
BRANCH  11  25
HETATM   25  C17 UNL     1       6.810   1.281  -0.053  1.00  0.00     0.157 C 
BRANCH  25  26
HETATM   26  C18 UNL     1       6.934   1.855   1.318  1.00  0.00     0.391 C 
HETATM   27  F1  UNL     1       6.764   0.793   2.211  1.00  0.00    -0.171 F 
HETATM   28  F2  UNL     1       8.233   2.324   1.497  1.00  0.00    -0.171 F 
HETATM   29  F3  UNL     1       6.086   2.878   1.620  1.00  0.00    -0.171 F 
ENDBRANCH  25  26
ENDBRANCH  11  25
BRANCH   1  30
HETATM   30  C3  UNL     1      -3.293   0.603   0.126  1.00  0.00     0.149 C 
BRANCH  30  31
HETATM   31  C2  UNL     1      -3.967   1.245  -0.990  1.00  0.00     0.032 C 
HETATM   32  C1  UNL     1      -3.586   2.640  -1.439  1.00  0.00     0.068 C 
HETATM   33  N1  UNL     1      -4.856   0.687  -1.700  1.00  0.00    -0.275 N 
ATOM     34  H1  UNL     1      -5.159  -0.255  -1.451  1.00  0.00     0.193 HD
BRANCH  33  35
HETATM   35  O1  UNL     1      -5.426   1.290  -2.782  1.00  0.00    -0.290 OA
ATOM     36  H1  UNL     1      -6.092   0.872  -3.314  1.00  0.00     0.244 HD
ENDBRANCH  33  35
ENDBRANCH  30  31
BRANCH  30  37
HETATM   37  C4  UNL     1      -3.881  -0.619   0.673  1.00  0.00     0.006 C 
BRANCH  37  38
HETATM   38  C5  UNL     1      -5.182  -0.690   1.315  1.00  0.00    -0.089 C 
HETATM   39  C6  UNL     1      -5.355   0.218   2.521  1.00  0.00     0.042 C 
HETATM   40  C7  UNL     1      -6.455  -0.736   0.557  1.00  0.00     0.042 C 
ENDBRANCH  37  38
ENDBRANCH  30  37
ENDBRANCH   1  30
TORSDOF 7
