REMARK  6 active torsions:
REMARK  status: ('A' for Active; 'I' for Inactive)
REMARK    1  A    between atoms: O1_2  and  C2_3 
REMARK    2  A    between atoms: C6_9  and  N1_10 
REMARK    3  A    between atoms: N1_10  and  C7_12 
REMARK    4  A    between atoms: C8_15  and  S1_16 
REMARK    5  A    between atoms: S1_16  and  C9_17 
REMARK    6  A    between atoms: C9_17  and  C10_18 
ROOT
HETATM    1  C10 UNL     1       4.121   1.338  -0.920  1.00  0.00     0.136 A 
HETATM    2  N3  UNL     1       4.424   0.299  -0.146  1.00  0.00    -0.328 N 
ATOM      3  H3  UNL     1       4.191  -0.672  -0.355  1.00  0.00     0.168 HD
HETATM    4  C11 UNL     1       5.078   0.712   0.946  1.00  0.00     0.164 A 
HETATM    5  C12 UNL     1       5.587  -0.071   2.036  1.00  0.00     0.122 C 
HETATM    6  N4  UNL     1       6.015  -0.694   2.921  1.00  0.00    -0.190 NA
HETATM    7  C13 UNL     1       5.175   2.094   0.822  1.00  0.00     0.196 A 
HETATM    8  N5  UNL     1       5.805   2.954   1.775  1.00  0.00    -0.071 NA
HETATM    9  O2  UNL     1       4.595   2.403  -0.293  1.00  0.00    -0.279 OA
ENDROOT
BRANCH   1  10
HETATM   10  C9  UNL     1       3.395   1.364  -2.238  1.00  0.00     0.165 C 
BRANCH  10  11
HETATM   11  S1  UNL     1       1.648   1.596  -2.058  1.00  0.00    -0.104 SA
BRANCH  11  12
HETATM   12  C8  UNL     1       0.818   0.175  -1.425  1.00  0.00     0.072 A 
HETATM   13  N2  UNL     1      -0.487   0.237  -1.030  1.00  0.00    -0.337 N 
HETATM   14  C7  UNL     1      -1.184  -0.803  -0.575  1.00  0.00     0.113 A 
ATOM     15  H2  UNL     1      -0.960   1.139  -1.087  1.00  0.00     0.168 HD
HETATM   16  C16 UNL     1      -0.587  -2.038  -0.482  1.00  0.00    -0.008 A 
HETATM   17  C15 UNL     1       0.725  -2.149  -0.869  1.00  0.00    -0.045 A 
HETATM   18  C17 UNL     1      -1.327  -3.209   0.013  1.00  0.00     0.043 C 
HETATM   19  C14 UNL     1       1.420  -1.058  -1.336  1.00  0.00     0.044 A 
HETATM   20  C20 UNL     1       1.346  -3.500  -0.755  1.00  0.00     0.039 C 
HETATM   21  C19 UNL     1       0.989  -4.008   0.627  1.00  0.00     0.005 C 
HETATM   22  C18 UNL     1      -0.486  -4.196   0.749  1.00  0.00     0.005 C 
BRANCH  14  23
HETATM   23  N1  UNL     1      -2.423  -0.706  -0.208  1.00  0.00    -0.339 N 
ATOM     24  H1  UNL     1      -2.901  -1.541   0.131  1.00  0.00     0.167 HD
BRANCH  23  25
HETATM   25  C6  UNL     1      -3.141   0.518  -0.260  1.00  0.00     0.080 A 
HETATM   26  C5  UNL     1      -3.604   1.005  -1.463  1.00  0.00     0.064 A 
HETATM   27  C4  UNL     1      -4.304   2.211  -1.466  1.00  0.00     0.053 A 
HETATM   28 CL2  UNL     1      -3.339   0.159  -2.972  1.00  0.00    -0.082 Cl
HETATM   29  C3  UNL     1      -4.526   2.898  -0.293  1.00  0.00     0.070 A 
HETATM   30  C2  UNL     1      -4.067   2.420   0.916  1.00  0.00     0.114 A 
HETATM   31 CL1  UNL     1      -5.411   4.407  -0.360  1.00  0.00    -0.081 Cl
HETATM   32  C21 UNL     1      -3.372   1.218   0.904  1.00  0.00     0.097 A 
HETATM   33 CL3  UNL     1      -2.802   0.641   2.466  1.00  0.00    -0.079 Cl
BRANCH  30  34
HETATM   34  O1  UNL     1      -4.290   3.116   2.117  1.00  0.00    -0.352 OA
HETATM   35  C1  UNL     1      -5.488   2.784   2.810  1.00  0.00     0.210 C 
ENDBRANCH  30  34
ENDBRANCH  23  25
ENDBRANCH  14  23
ENDBRANCH  11  12
ENDBRANCH  10  11
ENDBRANCH   1  10
TORSDOF 6
