REMARK  8 active torsions:
REMARK  status: ('A' for Active; 'I' for Inactive)
REMARK    1  A    between atoms: C2_2  and  O1_3 
REMARK    2  A    between atoms: O1_3  and  C3_4 
REMARK    3  A    between atoms: C3_4  and  C4_6 
REMARK    4  A    between atoms: C9_13  and  O4_14 
REMARK    5  A    between atoms: C10_16  and  O5_17 
REMARK    6  A    between atoms: C12_19  and  O6_20 
REMARK    7  A    between atoms: C16_24  and  C17_25 
REMARK    8  A    between atoms: C22_32  and  O7_33 
ROOT
HETATM    1  C4  UNL     1      -0.971   0.680  -0.410  1.00  0.00     0.069 C 
HETATM    2  C5  UNL     1       0.118   1.278   0.001  1.00  0.00     0.161 C 
HETATM    3  O3  UNL     1       1.394   0.788   0.324  1.00  0.00    -0.318 OA
HETATM    4  C6  UNL     1       2.139  -0.160  -0.428  1.00  0.00     0.119 A 
HETATM    5  C7  UNL     1       1.805  -1.044  -1.437  1.00  0.00     0.004 A 
HETATM    6  C8  UNL     1       2.758  -1.853  -1.972  1.00  0.00     0.079 A 
HETATM    7 CL1  UNL     1       2.294  -2.960  -3.247  1.00  0.00    -0.081 Cl
HETATM    8  C9  UNL     1       4.043  -1.762  -1.487  1.00  0.00     0.124 A 
HETATM    9  C10 UNL     1       4.373  -0.862  -0.466  1.00  0.00     0.139 A 
HETATM   10  C12 UNL     1       3.400  -0.028   0.090  1.00  0.00     0.139 A 
HETATM   11  C14 UNL     1       0.516  -1.277  -2.173  1.00  0.00     0.048 C 
HETATM   12  C15 UNL     1      -0.535  -1.688  -1.220  1.00  0.00     0.045 C 
HETATM   13  C16 UNL     1      -1.483  -0.622  -0.745  1.00  0.00    -0.027 C 
ENDROOT
BRANCH  13  14
HETATM   14  C17 UNL     1      -2.600  -1.195  -0.021  1.00  0.00     0.008 A 
HETATM   15  C18 UNL     1      -3.329  -2.236  -0.636  1.00  0.00     0.038 A 
HETATM   16  C19 UNL     1      -4.511  -2.703  -0.140  1.00  0.00     0.036 A 
HETATM   17 CL2  UNL     1      -5.356  -3.995  -0.994  1.00  0.00    -0.084 Cl
HETATM   18  C20 UNL     1      -5.072  -2.189   0.991  1.00  0.00     0.050 A 
HETATM   19  C21 UNL     1      -4.391  -1.165   1.633  1.00  0.00     0.069 A 
HETATM   20 CL3  UNL     1      -5.077  -0.480   3.082  1.00  0.00    -0.081 Cl
HETATM   21  C22 UNL     1      -3.181  -0.694   1.125  1.00  0.00     0.098 A 
BRANCH  21  22
HETATM   22  O7  UNL     1      -2.578   0.324   1.863  1.00  0.00    -0.358 OA
ATOM     23  H7  UNL     1      -2.978   0.669   2.652  1.00  0.00     0.217 HD
ENDBRANCH  21  22
ENDBRANCH  13  14
BRANCH   1  24
HETATM   24  C3  UNL     1      -2.013   1.732  -0.607  1.00  0.00     0.295 C 
HETATM   25  O2  UNL     1      -3.162   1.467  -1.047  1.00  0.00    -0.259 OA
BRANCH  24  26
HETATM   26  O1  UNL     1      -1.728   3.053  -0.300  1.00  0.00    -0.318 OA
BRANCH  26  27
HETATM   27  C2  UNL     1      -2.648   4.083  -0.446  1.00  0.00     0.174 C 
HETATM   28  C1  UNL     1      -3.803   3.856   0.495  1.00  0.00     0.034 C 
ENDBRANCH  26  27
ENDBRANCH  24  26
ENDBRANCH   1  24
BRANCH  10  29
HETATM   29  O6  UNL     1       3.696   0.861   1.075  1.00  0.00    -0.351 OA
HETATM   30  C13 UNL     1       3.610   0.786   2.446  1.00  0.00     0.210 C 
ENDBRANCH  10  29
BRANCH   8  31
HETATM   31  O4  UNL     1       5.034  -2.579  -2.022  1.00  0.00    -0.356 OA
ATOM     32  H4  UNL     1       5.921  -2.516  -1.687  1.00  0.00     0.218 HD
ENDBRANCH   8  31
BRANCH   9  33
HETATM   33  O5  UNL     1       5.678  -0.801  -0.004  1.00  0.00    -0.351 OA
HETATM   34  C11 UNL     1       6.679   0.060  -0.495  1.00  0.00     0.210 C 
ENDBRANCH   9  33
TORSDOF 8
