REMARK  6 active torsions:
REMARK  status: ('A' for Active; 'I' for Inactive)
REMARK    1  A    between atoms: C2_3  and  C3_4 
REMARK    2  A    between atoms: C6_9  and  C7_10 
REMARK    3  A    between atoms: C14_23  and  N5_24 
REMARK    4  A    between atoms: C19_29  and  C20_30 
REMARK    5  A    between atoms: C20_30  and  C21_31 
REMARK    6  A    between atoms: C21_31  and  O1_32 
ROOT
HETATM    1  N1  UNL     1      -1.679  -3.581   1.636  1.00  0.00    -0.197 NA
HETATM    2  C1  UNL     1      -1.203  -3.347   0.593  1.00  0.00     0.065 C 
HETATM    3  C2  UNL     1      -0.614  -3.081  -0.711  1.00  0.00     0.184 C 
ENDROOT
BRANCH   3   4
HETATM    4  C3  UNL     1       0.264  -1.876  -0.583  1.00  0.00     0.067 A 
HETATM    5  N2  UNL     1       1.599  -2.026  -0.516  1.00  0.00    -0.353 N 
HETATM    6  C4  UNL     1       2.444  -0.971  -0.375  1.00  0.00     0.068 A 
ATOM      7  H2  UNL     1       1.991  -2.966  -0.573  1.00  0.00     0.166 HD
HETATM    8  C5  UNL     1       3.799  -1.035  -0.301  1.00  0.00     0.052 A 
HETATM    9  C13 UNL     1       1.862   0.249  -0.304  1.00  0.00     0.103 A 
HETATM   10  C6  UNL     1       4.486   0.115  -0.161  1.00  0.00     0.023 A 
HETATM   11  S1  UNL     1       3.190   1.290  -0.136  1.00  0.00    -0.069 SA
HETATM   12  N4  UNL     1       0.519   0.409  -0.370  1.00  0.00    -0.333 N 
HETATM   13  C14 UNL     1      -0.333  -0.656  -0.513  1.00  0.00     0.128 A 
ATOM     14  H4  UNL     1       0.129   1.350  -0.312  1.00  0.00     0.168 HD
BRANCH  10  15
HETATM   15  C7  UNL     1       5.912   0.469  -0.055  1.00  0.00     0.025 A 
HETATM   16  C8  UNL     1       6.258   1.825   0.035  1.00  0.00     0.049 A 
HETATM   17 CL1  UNL     1       4.968   3.007   0.009  1.00  0.00    -0.083 Cl
HETATM   18  C9  UNL     1       7.552   2.249   0.141  1.00  0.00     0.051 A 
HETATM   19  C10 UNL     1       8.546   1.306   0.159  1.00  0.00     0.049 A 
HETATM   20  N3  UNL     1       9.903   1.738   0.268  1.00  0.00    -0.102 NA
HETATM   21  C11 UNL     1       8.281  -0.033   0.075  1.00  0.00     0.051 A 
HETATM   22  C12 UNL     1       6.932  -0.416  -0.032  1.00  0.00     0.049 A 
HETATM   23 CL2  UNL     1       6.679  -2.131  -0.125  1.00  0.00    -0.083 Cl
ENDBRANCH  10  15
BRANCH  13  24
HETATM   24  N5  UNL     1      -1.703  -0.342  -0.596  1.00  0.00    -0.366 N 
HETATM   25  C15 UNL     1      -2.190  -0.481  -1.944  1.00  0.00     0.124 C 
HETATM   26  C16 UNL     1      -3.559  -1.081  -2.073  1.00  0.00     0.020 C 
HETATM   27  C17 UNL     1      -4.602  -0.009  -1.970  1.00  0.00     0.002 C 
HETATM   28  C18 UNL     1      -5.417  -0.200  -0.701  1.00  0.00     0.005 C 
HETATM   29  C19 UNL     1      -4.640   0.578   0.377  1.00  0.00    -0.011 C 
HETATM   30  C22 UNL     1      -3.611  -0.340   0.997  1.00  0.00     0.024 C 
HETATM   31  C23 UNL     1      -2.209   0.056   0.695  1.00  0.00     0.125 C 
BRANCH  29  32
HETATM   32  C20 UNL     1      -5.659   1.096   1.333  1.00  0.00     0.030 C 
BRANCH  32  33
HETATM   33  C21 UNL     1      -5.113   1.904   2.476  1.00  0.00     0.164 C 
BRANCH  33  34
HETATM   34  O1  UNL     1      -6.219   2.303   3.259  1.00  0.00    -0.401 OA
ATOM     35  H1  UNL     1      -5.874   2.814   3.982  1.00  0.00     0.209 HD
ENDBRANCH  33  34
ENDBRANCH  32  33
ENDBRANCH  29  32
ENDBRANCH  13  24
ENDBRANCH   3   4
TORSDOF 6
