REMARK  8 active torsions:
REMARK  status: ('A' for Active; 'I' for Inactive)
REMARK    1  A    between atoms: C9_9  and  C10_10 
REMARK    2  A    between atoms: C10_10  and  C11_11 
REMARK    3  A    between atoms: C11_11  and  C12_12 
REMARK    4  A    between atoms: C12_12  and  S1_15 
REMARK    5  A    between atoms: S1_15  and  C13_16 
REMARK    6  A    between atoms: C14_18  and  N1_19 
REMARK    7  A    between atoms: C17_27  and  O2_28 
REMARK    8  A    between atoms: C18_30  and  O3_31 
ROOT
HETATM    1  C12 UNL     1       1.190  -2.810   1.014  1.00  0.00     0.294 C 
HETATM    2  F1  UNL     1       1.520  -4.144   0.939  1.00  0.00    -0.194 F 
HETATM    3  F2  UNL     1       1.313  -2.389   2.322  1.00  0.00    -0.194 F 
ENDROOT
BRANCH   1   4
HETATM    4  C11 UNL     1      -0.276  -2.683   0.651  1.00  0.00     0.092 C 
BRANCH   4   5
HETATM    5  C10 UNL     1      -0.737  -1.246   0.704  1.00  0.00     0.012 C 
BRANCH   5   6
HETATM    6  C9  UNL     1      -2.203  -1.184   0.337  1.00  0.00    -0.006 C 
HETATM    7  C7  UNL     1      -2.786   0.201   0.379  1.00  0.00    -0.036 C 
HETATM    8  C6  UNL     1      -4.198   0.083   0.891  1.00  0.00     0.010 C 
HETATM    9  C8  UNL     1      -1.994   0.913   1.496  1.00  0.00     0.016 C 
HETATM   10  C22 UNL     1      -2.660   0.940  -0.898  1.00  0.00     0.002 C 
HETATM   11  C5  UNL     1      -5.032   1.289   0.679  1.00  0.00     0.002 C 
HETATM   12  C4  UNL     1      -4.849   2.024  -0.595  1.00  0.00     0.009 C 
HETATM   13  C2  UNL     1      -3.418   2.253  -0.954  1.00  0.00    -0.043 C 
HETATM   14  C1  UNL     1      -3.377   2.697  -2.431  1.00  0.00     0.015 C 
HETATM   15  C3  UNL     1      -2.800   3.363  -0.171  1.00  0.00     0.015 C 
HETATM   16  C21 UNL     1      -3.008   0.143  -2.140  1.00  0.00     0.006 C 
HETATM   17  C20 UNL     1      -3.410  -1.267  -1.887  1.00  0.00     0.001 C 
HETATM   18  C19 UNL     1      -2.468  -1.950  -0.926  1.00  0.00     0.005 C 
ENDBRANCH   5   6
ENDBRANCH   4   5
ENDBRANCH   1   4
BRANCH   1  19
HETATM   19  S1  UNL     1       2.224  -1.787  -0.069  1.00  0.00    -0.058 SA
BRANCH  19  20
HETATM   20  C13 UNL     1       3.964  -1.926   0.346  1.00  0.00     0.222 C 
HETATM   21  O1  UNL     1       4.765  -1.161  -0.464  1.00  0.00    -0.344 OA
HETATM   22  C14 UNL     1       5.922  -0.873   0.240  1.00  0.00     0.279 C 
HETATM   23  C17 UNL     1       5.389  -0.544   1.618  1.00  0.00     0.200 C 
HETATM   24  C18 UNL     1       4.278  -1.570   1.770  1.00  0.00     0.190 C 
BRANCH  22  25
HETATM   25  N1  UNL     1       6.554   0.296  -0.350  1.00  0.00    -0.233 N 
HETATM   26  N2  UNL     1       6.012   1.197  -1.128  1.00  0.00    -0.289 N 
HETATM   27  C15 UNL     1       6.928   2.144  -1.479  1.00  0.00     0.200 A 
ATOM     28  H2  UNL     1       5.038   1.192  -1.431  1.00  0.00     0.188 HD
HETATM   29  N3  UNL     1       8.072   1.775  -0.872  1.00  0.00    -0.326 N 
HETATM   30  C16 UNL     1       7.845   0.627  -0.169  1.00  0.00     0.199 A 
ATOM     31  H3  UNL     1       8.961   2.271  -0.928  1.00  0.00     0.169 HD
HETATM   32 CL1  UNL     1       9.057  -0.210   0.775  1.00  0.00    -0.043 Cl
ENDBRANCH  22  25
BRANCH  23  33
HETATM   33  O2  UNL     1       4.797   0.716   1.547  1.00  0.00    -0.388 OA
ATOM     34  H2  UNL     1       4.462   0.922   2.412  1.00  0.00     0.210 HD
ENDBRANCH  23  33
BRANCH  24  35
HETATM   35  O3  UNL     1       4.835  -2.664   2.469  1.00  0.00    -0.389 OA
ATOM     36  H3  UNL     1       5.034  -2.439   3.370  1.00  0.00     0.210 HD
ENDBRANCH  24  35
ENDBRANCH  19  20
ENDBRANCH   1  19
TORSDOF 8
