REMARK  5 active torsions:
REMARK  status: ('A' for Active; 'I' for Inactive)
REMARK    1  A    between atoms: C2_2  and  C3_3 
REMARK    2  A    between atoms: C3_3  and  N1_4 
REMARK    3  A    between atoms: N1_4  and  C4_5 
REMARK    4  A    between atoms: C4_5  and  C5_6 
REMARK    5  A    between atoms: C5_6  and  N2_7 
ROOT
HETATM    1  N1  UNL     1      -0.204   0.345  -0.280  1.00  0.00    -0.059 N 
HETATM    2  C6  UNL     1      -0.599   0.044   1.061  1.00  0.00     0.270 C 
HETATM    3  C7  UNL     1       0.498  -0.100   2.059  1.00  0.00     0.212 C 
HETATM    4  C8  UNL     1       1.293  -1.364   1.985  1.00  0.00     0.037 C 
HETATM    5  C9  UNL     1       2.549  -0.953   1.246  1.00  0.00     0.037 C 
HETATM    6  C10 UNL     1       2.106   0.354   0.616  1.00  0.00     0.212 C 
HETATM    7  C11 UNL     1       1.203   0.131  -0.529  1.00  0.00     0.270 C 
HETATM    8  N3  UNL     1       1.471   0.970   1.782  1.00  0.00    -0.063 N 
ATOM      9  H31 UNL     1       2.084   1.245   2.549  1.00  0.00     0.278 HD
ATOM     10  H32 UNL     1       1.098   1.911   1.660  1.00  0.00     0.278 HD
ENDROOT
BRANCH   1  11
HETATM   11  C3  UNL     1      -0.406   1.805  -0.468  1.00  0.00     0.264 C 
BRANCH  11  12
HETATM   12  C2  UNL     1      -1.842   2.127  -0.609  1.00  0.00    -0.009 C 
HETATM   13  C1  UNL     1      -2.268   2.709  -1.707  1.00  0.00     0.008 C 
ENDBRANCH  11  12
ENDBRANCH   1  11
BRANCH   1  14
HETATM   14  C4  UNL     1      -1.038  -0.203  -1.291  1.00  0.00     0.265 C 
BRANCH  14  15
HETATM   15  C5  UNL     1      -0.929  -1.592  -1.710  1.00  0.00     0.257 C 
BRANCH  15  16
HETATM   16  N2  UNL     1      -1.165  -2.612  -0.716  1.00  0.00    -0.078 N 
ATOM     17  H23 UNL     1      -0.551  -2.452   0.082  1.00  0.00     0.274 HD
ATOM     18  H22 UNL     1      -2.079  -2.460  -0.289  1.00  0.00     0.274 HD
ATOM     19  H21 UNL     1      -1.089  -3.586  -1.010  1.00  0.00     0.274 HD
ENDBRANCH  15  16
ENDBRANCH  14  15
ENDBRANCH   1  14
TORSDOF 5
