REMARK  6 active torsions:
REMARK  status: ('A' for Active; 'I' for Inactive)
REMARK    1  A    between atoms: C2_2  and  N1_3 
REMARK    2  A    between atoms: N1_3  and  C3_5 
REMARK    3  A    between atoms: C3_5  and  N2_7 
REMARK    4  A    between atoms: N2_7  and  C4_9 
REMARK    5  A    between atoms: C4_9  and  C5_10 
REMARK    6  A    between atoms: C5_10  and  N3_11 
ROOT
HETATM    1  N2  UNL     1       1.388   0.687  -0.447  1.00  0.00    -0.366 N 
ATOM      2  H2  UNL     1       2.030   0.536  -1.225  1.00  0.00     0.161 HD
ENDROOT
BRANCH   1   3
HETATM    3  C3  UNL     1       1.875   0.639   0.871  1.00  0.00     0.167 C 
HETATM    4  S1  UNL     1       0.864   0.969   2.120  1.00  0.00    -0.041 SA
BRANCH   3   5
HETATM    5  N1  UNL     1       3.250   0.334   1.100  1.00  0.00    -0.368 N 
ATOM      6  H1  UNL     1       3.629   0.306   2.046  1.00  0.00     0.161 HD
BRANCH   5   7
HETATM    7  C2  UNL     1       4.088   0.067  -0.041  1.00  0.00     0.117 C 
HETATM    8  C1  UNL     1       5.472  -0.250   0.475  1.00  0.00     0.026 C 
ENDBRANCH   5   7
ENDBRANCH   3   5
ENDBRANCH   1   3
BRANCH   1   9
HETATM    9  C4  UNL     1      -0.001   0.946  -0.716  1.00  0.00     0.152 C 
BRANCH   9  10
HETATM   10  C5  UNL     1      -0.776  -0.314  -0.400  1.00  0.00     0.292 C 
BRANCH  10  11
HETATM   11  N3  UNL     1      -2.180  -0.057  -0.701  1.00  0.00     0.090 N 
HETATM   12  C6  UNL     1      -2.923  -1.317  -0.718  1.00  0.00     0.272 C 
HETATM   13  C7  UNL     1      -4.344  -0.790  -0.556  1.00  0.00     0.032 C 
HETATM   14  C8  UNL     1      -4.119   0.040   0.719  1.00  0.00     0.032 C 
HETATM   15  C9  UNL     1      -2.809   0.734   0.343  1.00  0.00     0.272 C 
ENDBRANCH  10  11
ENDBRANCH   9  10
ENDBRANCH   1   9
TORSDOF 6
