REMARK  4 active torsions:
REMARK  status: ('A' for Active; 'I' for Inactive)
REMARK       I    between atoms: C1_4  and  N3_6 
REMARK    1  A    between atoms: N4_9  and  C4_10 
REMARK    2  A    between atoms: C4_10  and  C5_11 
REMARK    3  A    between atoms: C5_11  and  C6_12 
REMARK    4  A    between atoms: C6_12  and  C7_13 
ROOT
HETATM    1  N1  UNL     1      -5.017  -0.968  -0.593  1.00  0.00    -0.374 N 
ATOM      2  H11 UNL     1      -4.724  -1.934  -0.446  1.00  0.00     0.158 HD
ATOM      3  H12 UNL     1      -5.964  -0.766  -0.913  1.00  0.00     0.158 HD
HETATM    4  C1  UNL     1      -4.109  -0.080  -0.345  1.00  0.00     0.185 C 
HETATM    5  N2  UNL     1      -4.520   1.276  -0.552  1.00  0.00    -0.064 NA
HETATM    6  N3  UNL     1      -2.811  -0.357   0.094  1.00  0.00    -0.328 N 
HETATM    7  C2  UNL     1      -2.038  -1.547  -0.218  1.00  0.00     0.157 C 
HETATM    8  C3  UNL     1      -0.901  -1.431   0.787  1.00  0.00     0.294 C 
HETATM    9  N4  UNL     1      -0.642  -0.001   0.788  1.00  0.00     0.107 N 
HETATM   10  C10 UNL     1      -1.986   0.513   0.950  1.00  0.00     0.400 C 
ENDROOT
BRANCH   9  11
HETATM   11  C4  UNL     1      -0.111   0.448  -0.474  1.00  0.00     0.274 C 
BRANCH  11  12
HETATM   12  C5  UNL     1       1.275  -0.031  -0.756  1.00  0.00     0.031 C 
BRANCH  12  13
HETATM   13  C6  UNL     1       2.270   0.464   0.294  1.00  0.00     0.006 C 
BRANCH  13  14
HETATM   14  C7  UNL     1       3.614  -0.068  -0.071  1.00  0.00    -0.014 A 
HETATM   15  C8  UNL     1       4.820   0.235   0.737  1.00  0.00     0.005 A 
HETATM   16  C9  UNL     1       4.605   0.956  -0.594  1.00  0.00     0.005 A 
ENDBRANCH  13  14
ENDBRANCH  12  13
ENDBRANCH  11  12
ENDBRANCH   9  11
TORSDOF 4
