REMARK  5 active torsions:
REMARK  status: ('A' for Active; 'I' for Inactive)
REMARK    1  A    between atoms: N2_9  and  C6_10 
REMARK    2  A    between atoms: C6_10  and  C7_11 
REMARK    3  A    between atoms: C7_11  and  C8_12 
REMARK    4  A    between atoms: C8_12  and  C9_13 
REMARK    5  A    between atoms: C9_13  and  N3_14 
ROOT
HETATM    1  C1  UNL     1       2.231  -2.475   0.933  1.00  0.00     0.014 C 
HETATM    2  C2  UNL     1       2.233  -1.428   0.343  1.00  0.00    -0.090 C 
HETATM    3  C3  UNL     1       2.256  -0.181  -0.375  1.00  0.00     0.183 C 
HETATM    4  C4  UNL     1       3.477   0.668   0.013  1.00  0.00     0.160 C 
HETATM    5  N1  UNL     1       3.124   1.931  -0.605  1.00  0.00    -0.364 N 
ATOM      6  H1  UNL     1       3.749   2.607  -1.044  1.00  0.00     0.162 HD
HETATM    7  C5  UNL     1       1.699   2.017  -0.460  1.00  0.00     0.171 C 
HETATM    8  S1  UNL     1       0.701   3.280  -0.746  1.00  0.00    -0.041 SA
HETATM    9  N2  UNL     1       1.210   0.739   0.010  1.00  0.00    -0.342 N 
ENDROOT
BRANCH   9  10
HETATM   10  C6  UNL     1      -0.026   0.543   0.687  1.00  0.00     0.127 C 
BRANCH  10  11
HETATM   11  C7  UNL     1      -1.039  -0.226  -0.103  1.00  0.00     0.022 C 
BRANCH  11  12
HETATM   12  C8  UNL     1      -2.329  -0.389   0.693  1.00  0.00     0.029 C 
BRANCH  12  13
HETATM   13  C9  UNL     1      -3.383  -1.141  -0.086  1.00  0.00     0.229 C 
BRANCH  13  14
HETATM   14  N3  UNL     1      -3.682  -0.399  -1.317  1.00  0.00    -0.079 N 
ATOM     15  H33 UNL     1      -3.949   0.568  -1.134  1.00  0.00     0.274 HD
ATOM     16  H32 UNL     1      -2.847  -0.212  -1.872  1.00  0.00     0.274 HD
ATOM     17  H31 UNL     1      -4.393  -0.907  -1.843  1.00  0.00     0.274 HD
ENDBRANCH  13  14
ENDBRANCH  12  13
ENDBRANCH  11  12
ENDBRANCH  10  11
ENDBRANCH   9  10
TORSDOF 5
