REMARK  4 active torsions:
REMARK  status: ('A' for Active; 'I' for Inactive)
REMARK    1  A    between atoms: N1_1  and  N2_4 
REMARK    2  A    between atoms: N2_4  and  C1_5 
REMARK    3  A    between atoms: C1_5  and  C2_6 
REMARK    4  A    between atoms: C2_6  and  C3_7 
ROOT
HETATM    1  N2  UNL     1      -1.396   0.516   0.591  1.00  0.00    -0.148 NA
ENDROOT
BRANCH   1   2
HETATM    2  N1  UNL     1      -2.597  -0.129   0.330  1.00  0.00    -0.348 N 
ATOM      3  H12 UNL     1      -2.697  -1.025  -0.147  1.00  0.00     0.172 HD
ATOM      4  H11 UNL     1      -3.345   0.457   0.701  1.00  0.00     0.172 HD
ENDBRANCH   1   2
BRANCH   1   5
HETATM    5  C1  UNL     1      -0.337  -0.314   0.065  1.00  0.00     0.135 C 
BRANCH   5   6
HETATM    6  C2  UNL     1       0.958   0.426   0.257  1.00  0.00     0.028 C 
BRANCH   6   7
HETATM    7  C3  UNL     1       2.006  -0.357  -0.527  1.00  0.00     0.086 C 
HETATM    8 BR1  UNL     1       3.617   0.650  -0.782  1.00  0.00    -0.096 Br
ENDBRANCH   6   7
ENDBRANCH   5   6
ENDBRANCH   1   5
TORSDOF 4
