REMARK  5 active torsions:
REMARK  status: ('A' for Active; 'I' for Inactive)
REMARK    1  A    between atoms: C2_2  and  N1_3 
REMARK    2  A    between atoms: N1_3  and  C3_6 
REMARK    3  A    between atoms: C3_6  and  C4_7 
REMARK    4  A    between atoms: C4_7  and  C5_8 
REMARK    5  A    between atoms: C7_10  and  N2_11 
ROOT
HETATM    1  C5  UNL     1      -0.721   0.605   0.004  1.00  0.00    -0.008 C 
HETATM    2  C6  UNL     1      -1.422  -0.674   0.245  1.00  0.00     0.040 C 
HETATM    3  C7  UNL     1      -2.929  -0.362   0.201  1.00  0.00     0.217 C 
HETATM    4  C8  UNL     1      -2.938   0.845  -0.716  1.00  0.00     0.200 C 
HETATM    5  F1  UNL     1      -4.141   1.507  -0.741  1.00  0.00    -0.247 F 
HETATM    6  C9  UNL     1      -1.807   1.648  -0.132  1.00  0.00     0.044 C 
ENDROOT
BRANCH   1   7
HETATM    7  C4  UNL     1       0.347   0.996   0.950  1.00  0.00     0.032 C 
BRANCH   7   8
HETATM    8  C3  UNL     1       1.450  -0.036   0.944  1.00  0.00     0.232 C 
BRANCH   8   9
HETATM    9  N1  UNL     1       2.022  -0.232  -0.366  1.00  0.00    -0.075 N 
ATOM     10  H12 UNL     1       2.134   0.654  -0.860  1.00  0.00     0.277 HD
ATOM     11  H11 UNL     1       1.360  -0.684  -0.997  1.00  0.00     0.277 HD
BRANCH   9  12
HETATM   12  C2  UNL     1       3.274  -0.963  -0.300  1.00  0.00     0.228 C 
HETATM   13  C1  UNL     1       4.309   0.019   0.253  1.00  0.00     0.034 C 
ENDBRANCH   9  12
ENDBRANCH   8   9
ENDBRANCH   7   8
ENDBRANCH   1   7
BRANCH   3  14
HETATM   14  N2  UNL     1      -3.673  -1.447  -0.372  1.00  0.00    -0.072 N 
ATOM     15  H23 UNL     1      -3.317  -1.698  -1.294  1.00  0.00     0.274 HD
ATOM     16  H22 UNL     1      -3.487  -2.325   0.113  1.00  0.00     0.274 HD
ATOM     17  H21 UNL     1      -4.671  -1.240  -0.401  1.00  0.00     0.274 HD
ENDBRANCH   3  14
TORSDOF 5
