REMARK  3 active torsions:
REMARK  status: ('A' for Active; 'I' for Inactive)
REMARK       I    between atoms: C1_2  and  N3_7 
REMARK    1  A    between atoms: N2_3  and  C2_5 
REMARK    2  A    between atoms: N3_7  and  C3_9 
REMARK    3  A    between atoms: C3_9  and  C4_10 
ROOT
HETATM    1  N1  UNL     1       2.711  -1.200  -0.514  1.00  0.00    -0.064 NA
HETATM    2  C1  UNL     1       2.429   0.136  -0.089  1.00  0.00     0.185 C 
HETATM    3  N2  UNL     1       3.468   0.871   0.162  1.00  0.00    -0.339 N 
ATOM      4  H2  UNL     1       3.304   1.830   0.467  1.00  0.00     0.164 HD
HETATM    5  N3  UNL     1       1.108   0.619   0.058  1.00  0.00    -0.364 N 
ATOM      6  H3  UNL     1       0.920   1.621   0.046  1.00  0.00     0.162 HD
ENDROOT
BRANCH   5   7
HETATM    7  C3  UNL     1       0.046  -0.311   0.223  1.00  0.00     0.126 C 
BRANCH   7   8
HETATM    8  C4  UNL     1      -1.308   0.247   0.448  1.00  0.00     0.003 C 
HETATM    9  C5  UNL     1      -2.251  -0.958   0.600  1.00  0.00     0.006 C 
HETATM   10  C6  UNL     1      -3.609  -0.440   0.160  1.00  0.00     0.000 C 
HETATM   11  C7  UNL     1      -3.386   1.012  -0.251  1.00  0.00     0.000 C 
HETATM   12  C8  UNL     1      -1.936   0.925  -0.742  1.00  0.00     0.006 C 
ENDBRANCH   7   8
ENDBRANCH   5   7
BRANCH   3  13
HETATM   13  C2  UNL     1       4.830   0.436   0.043  1.00  0.00     0.347 C 
HETATM   14  F1  UNL     1       5.481   0.425   1.267  1.00  0.00    -0.234 F 
ENDBRANCH   3  13
TORSDOF 3
