REMARK  5 active torsions:
REMARK  status: ('A' for Active; 'I' for Inactive)
REMARK    1  A    between atoms: N1_1  and  C1_5 
REMARK    2  A    between atoms: C1_5  and  C2_6 
REMARK    3  A    between atoms: C2_6  and  N2_7 
REMARK    4  A    between atoms: N2_7  and  C3_9 
REMARK    5  A    between atoms: C7_13  and  C8_14 
ROOT
HETATM    1  C3  UNL     1       0.065  -0.828   0.607  1.00  0.00     0.085 C 
HETATM    2  C4  UNL     1      -0.392  -1.944  -0.335  1.00  0.00     0.026 C 
HETATM    3  C5  UNL     1      -0.959  -1.139  -1.477  1.00  0.00     0.007 C 
HETATM    4  C6  UNL     1      -1.712  -0.005  -0.808  1.00  0.00    -0.001 A 
HETATM    5  C7  UNL     1      -2.499  -0.328   0.419  1.00  0.00     0.025 A 
HETATM    6  C9  UNL     1      -1.088   0.132   0.507  1.00  0.00     0.019 A 
ENDROOT
BRANCH   1   7
HETATM    7  N2  UNL     1       1.290  -0.343   0.102  1.00  0.00    -0.396 N 
ATOM      8  H2  UNL     1       1.912  -0.985  -0.390  1.00  0.00     0.159 HD
BRANCH   7   9
HETATM    9  C2  UNL     1       1.672   0.976   0.255  1.00  0.00     0.083 C 
BRANCH   9  10
HETATM   10  C1  UNL     1       3.070   1.192  -0.315  1.00  0.00     0.273 C 
BRANCH  10  11
HETATM   11  N1  UNL     1       4.095   0.435   0.322  1.00  0.00    -0.075 N 
ATOM     12  H13 UNL     1       4.091   0.609   1.327  1.00  0.00     0.274 HD
ATOM     13  H12 UNL     1       3.859  -0.557   0.315  1.00  0.00     0.274 HD
ATOM     14  H11 UNL     1       5.030   0.579  -0.059  1.00  0.00     0.274 HD
ENDBRANCH  10  11
ENDBRANCH   9  10
ENDBRANCH   7   9
ENDBRANCH   1   7
BRANCH   5  15
HETATM   15  C8  UNL     1      -3.574   0.632   0.890  1.00  0.00     0.227 C 
HETATM   16  F1  UNL     1      -4.201   0.167   2.032  1.00  0.00    -0.255 F 
ENDBRANCH   5  15
TORSDOF 5
