REMARK  11 active torsions:
REMARK  status: ('A' for Active; 'I' for Inactive)
REMARK    1  A    between atoms: C3_3  and  C4_4 
REMARK    2  A    between atoms: C4_4  and  O1_5 
REMARK    3  A    between atoms: C4_4  and  C10_15 
REMARK    4  A    between atoms: O1_5  and  C5_6 
REMARK       I    between atoms: C5_6  and  N1_8 
REMARK    5  A    between atoms: N1_8  and  C6_10 
REMARK    6  A    between atoms: C6_10  and  C7_11 
REMARK    7  A    between atoms: C7_11  and  N2_12 
REMARK    8  A    between atoms: C10_15  and  O3_16 
REMARK    9  A    between atoms: C17_25  and  O5_26 
REMARK   10  A    between atoms: O5_26  and  C18_27 
REMARK   11  A    between atoms: C21_31  and  O7_32 
ROOT
HETATM    1  C1  UNL     1       2.739   3.004  -4.131  1.00  0.00     0.012 C 
HETATM    2  C2  UNL     1       2.377   1.921  -3.767  1.00  0.00    -0.115 C 
HETATM    3  C3  UNL     1       1.979   0.620  -3.328  1.00  0.00     0.129 C 
ENDROOT
BRANCH   3   4
HETATM    4  C4  UNL     1       1.131   0.530  -2.094  1.00  0.00     0.183 C 
BRANCH   4   5
HETATM    5  O1  UNL     1       1.682   1.072  -0.956  1.00  0.00    -0.294 OA
BRANCH   5   6
HETATM    6  C5  UNL     1       2.380   0.467   0.043  1.00  0.00     0.361 C 
HETATM    7  O2  UNL     1       2.541  -0.742  -0.101  1.00  0.00    -0.239 OA
HETATM    8  N1  UNL     1       2.904   1.117   1.181  1.00  0.00    -0.335 N 
ATOM      9  H1  UNL     1       2.749   2.122   1.261  1.00  0.00     0.164 HD
BRANCH   8  10
HETATM   10  C6  UNL     1       3.641   0.473   2.238  1.00  0.00     0.155 C 
BRANCH  10  11
HETATM   11  C7  UNL     1       2.851  -0.599   2.944  1.00  0.00     0.291 C 
BRANCH  11  12
HETATM   12  N2  UNL     1       3.609  -1.229   3.998  1.00  0.00     0.081 N 
HETATM   13  C8  UNL     1       3.871  -0.340   5.109  1.00  0.00     0.309 C 
HETATM   14  C9  UNL     1       4.816  -1.856   3.521  1.00  0.00     0.309 C 
ENDBRANCH  11  12
ENDBRANCH  10  11
ENDBRANCH   8  10
ENDBRANCH   5   6
ENDBRANCH   4   5
BRANCH   4  15
HETATM   15  C10 UNL     1      -0.334   0.595  -2.241  1.00  0.00     0.116 C 
HETATM   16  C11 UNL     1      -0.690   2.034  -2.396  1.00  0.00     0.086 C 
HETATM   17  C12 UNL     1      -2.069   2.457  -2.667  1.00  0.00     0.091 A 
HETATM   18  C13 UNL     1      -2.490   2.857  -4.101  1.00  0.00     0.049 C 
HETATM   19  O4  UNL     1      -2.321   3.726  -1.867  1.00  0.00    -0.365 OA
HETATM   20  C14 UNL     1      -3.060   2.600  -1.682  1.00  0.00     0.188 A 
HETATM   21  C15 UNL     1      -2.890   1.930  -0.382  1.00  0.00    -0.024 C 
HETATM   22  C16 UNL     1      -4.040   1.768   0.263  1.00  0.00     0.020 C 
HETATM   23  C17 UNL     1      -1.769   1.373   0.410  1.00  0.00     0.195 C 
HETATM   24  C20 UNL     1      -1.597  -0.055  -0.046  1.00  0.00    -0.008 C 
HETATM   25  C21 UNL     1      -1.016  -0.915   1.018  1.00  0.00     0.156 C 
HETATM   26  C29 UNL     1      -1.249  -0.258  -1.456  1.00  0.00    -0.011 C 
HETATM   27  C22 UNL     1      -0.721  -2.309   0.663  1.00  0.00     0.035 C 
HETATM   28  C23 UNL     1      -1.841  -3.291   0.591  1.00  0.00     0.042 C 
HETATM   29  C26 UNL     1      -0.481  -2.577  -0.780  1.00  0.00     0.050 C 
HETATM   30  C24 UNL     1      -1.066  -3.931  -0.539  1.00  0.00    -0.080 C 
HETATM   31  C25 UNL     1      -0.994  -5.163  -1.028  1.00  0.00     0.015 C 
HETATM   32  C27 UNL     1      -1.301  -1.710  -1.705  1.00  0.00    -0.065 C 
HETATM   33  C28 UNL     1      -1.163  -2.263  -3.065  1.00  0.00     0.044 C 
BRANCH  15  34
HETATM   34  O3  UNL     1      -0.631   0.087  -3.585  1.00  0.00    -0.382 OA
ATOM     35  H3  UNL     1      -1.575   0.129  -3.680  1.00  0.00     0.211 HD
ENDBRANCH  15  34
BRANCH  23  36
HETATM   36  O5  UNL     1      -2.195   1.347   1.765  1.00  0.00    -0.307 OA
BRANCH  36  37
HETATM   37  C18 UNL     1      -1.515   2.000   2.786  1.00  0.00     0.255 C 
HETATM   38  C19 UNL     1      -1.979   1.960   4.185  1.00  0.00     0.126 C 
HETATM   39  O6  UNL     1      -0.458   2.650   2.486  1.00  0.00    -0.266 OA
ENDBRANCH  36  37
ENDBRANCH  23  36
BRANCH  25  40
HETATM   40  O7  UNL     1      -1.985  -0.991   2.064  1.00  0.00    -0.391 OA
ATOM     41  H7  UNL     1      -1.614  -1.541   2.744  1.00  0.00     0.210 HD
ENDBRANCH  25  40
ENDBRANCH   4  15
ENDBRANCH   3   4
TORSDOF 11
