REMARK  13 active torsions:
REMARK  status: ('A' for Active; 'I' for Inactive)
REMARK    1  A    between atoms: C2_2  and  C3_3 
REMARK    2  A    between atoms: C3_3  and  C4_4 
REMARK    3  A    between atoms: C4_4  and  O1_5 
REMARK    4  A    between atoms: O1_5  and  C5_6 
REMARK    5  A    between atoms: C6_7  and  C7_8 
REMARK       I    between atoms: C7_8  and  N1_10 
REMARK    6  A    between atoms: N1_10  and  C8_12 
REMARK    7  A    between atoms: C20_26  and  O4_27 
REMARK    8  A    between atoms: O4_27  and  C21_28 
REMARK       I    between atoms: C21_28  and  N3_30 
REMARK    9  A    between atoms: N3_30  and  C22_32 
REMARK   10  A    between atoms: C22_32  and  O6_33 
REMARK   11  A    between atoms: C22_32  and  C23_35 
REMARK   12  A    between atoms: C23_35  and  O7_36 
REMARK   13  A    between atoms: O7_36  and  C24_37 
ROOT
HETATM    1  C5  UNL     1      -2.019   1.476  -0.044  1.00  0.00     0.197 C 
HETATM    2  C6  UNL     1      -3.335   0.683   0.143  1.00  0.00     0.205 C 
HETATM    3  N2  UNL     1      -3.524  -0.005  -1.063  1.00  0.00    -0.394 N 
HETATM    4  C12 UNL     1      -4.509   0.353  -1.963  1.00  0.00     0.144 C 
HETATM    5  C13 UNL     1      -2.227  -0.375  -1.462  1.00  0.00     0.128 C 
HETATM    6  C14 UNL     1      -2.076  -0.993  -2.794  1.00  0.00     0.077 C 
HETATM    7  C15 UNL     1      -0.930  -1.988  -2.782  1.00  0.00     0.020 C 
HETATM    8  C16 UNL     1      -1.941   0.011  -3.839  1.00  0.00     0.133 C 
HETATM    9  O3  UNL     1      -2.641   0.033  -4.818  1.00  0.00    -0.297 OA
HETATM   10  C17 UNL     1      -0.895   1.007  -3.635  1.00  0.00     0.086 C 
HETATM   11  C18 UNL     1      -0.889   1.621  -2.269  1.00  0.00     0.028 C 
HETATM   12  C19 UNL     1      -1.610   2.941  -2.360  1.00  0.00     0.014 C 
HETATM   13  C20 UNL     1      -1.249   0.751  -1.107  1.00  0.00     0.126 C 
ENDROOT
BRANCH  13  14
HETATM   14  O4  UNL     1      -0.114   0.052  -0.690  1.00  0.00    -0.287 OA
BRANCH  14  15
HETATM   15  C21 UNL     1       1.048   0.417  -0.134  1.00  0.00     0.363 C 
HETATM   16  O5  UNL     1       1.213   1.647   0.071  1.00  0.00    -0.238 OA
HETATM   17  N3  UNL     1       2.089  -0.521   0.231  1.00  0.00    -0.308 N 
ATOM     18  H3  UNL     1       1.934  -1.514   0.057  1.00  0.00     0.167 HD
BRANCH  17  19
HETATM   19  C22 UNL     1       3.318  -0.117   0.822  1.00  0.00     0.246 C 
BRANCH  19  20
HETATM   20  O6  UNL     1       3.453  -0.782   2.058  1.00  0.00    -0.374 OA
ATOM     21  H6  UNL     1       4.274  -0.512   2.453  1.00  0.00     0.212 HD
ENDBRANCH  19  20
BRANCH  19  22
HETATM   22  C23 UNL     1       4.451  -0.657  -0.056  1.00  0.00     0.222 C 
BRANCH  22  23
HETATM   23  O7  UNL     1       5.680  -0.283   0.490  1.00  0.00    -0.377 OA
BRANCH  23  24
HETATM   24  C24 UNL     1       6.731  -0.749  -0.271  1.00  0.00     0.050 C 
HETATM   25  C25 UNL     1       6.714  -2.257  -0.363  1.00  0.00     0.045 C 
HETATM   26  C26 UNL     1       8.014  -0.311   0.416  1.00  0.00     0.045 C 
HETATM   27  C27 UNL     1       6.752  -0.177  -1.662  1.00  0.00     0.045 C 
ENDBRANCH  23  24
ENDBRANCH  22  23
ENDBRANCH  19  22
ENDBRANCH  17  19
ENDBRANCH  14  15
ENDBRANCH  13  14
BRANCH   1  28
HETATM   28  O1  UNL     1      -1.512   1.558   1.205  1.00  0.00    -0.352 OA
BRANCH  28  29
HETATM   29  C4  UNL     1      -1.652   2.690   1.919  1.00  0.00     0.135 C 
BRANCH  29  30
HETATM   30  C3  UNL     1      -1.132   3.955   1.448  1.00  0.00     0.020 C 
BRANCH  30  31
HETATM   31  C2  UNL     1      -0.212   4.669   2.127  1.00  0.00    -0.029 C 
HETATM   32  C1  UNL     1       0.330   4.186   3.425  1.00  0.00     0.036 C 
ENDBRANCH  30  31
ENDBRANCH  29  30
ENDBRANCH  28  29
ENDBRANCH   1  28
BRANCH   2  33
HETATM   33  C7  UNL     1      -3.293  -0.279   1.254  1.00  0.00     0.243 C 
HETATM   34  O2  UNL     1      -2.905  -0.014   2.433  1.00  0.00    -0.271 OA
HETATM   35  N1  UNL     1      -3.707  -1.654   1.092  1.00  0.00    -0.351 N 
ATOM     36  H1  UNL     1      -4.037  -1.947   0.173  1.00  0.00     0.163 HD
BRANCH  35  37
HETATM   37  C8  UNL     1      -3.684  -2.629   2.134  1.00  0.00     0.022 C 
HETATM   38  C9  UNL     1      -2.290  -2.853   2.694  1.00  0.00     0.037 C 
HETATM   39  C10 UNL     1      -4.551  -2.202   3.327  1.00  0.00     0.037 C 
HETATM   40  C11 UNL     1      -4.278  -3.917   1.611  1.00  0.00     0.037 C 
ENDBRANCH  35  37
ENDBRANCH   2  33
TORSDOF 13
