REMARK  7 active torsions:
REMARK  status: ('A' for Active; 'I' for Inactive)
REMARK    1  A    between atoms: O1_2  and  C2_3 
REMARK    2  A    between atoms: C5_6  and  N1_7 
REMARK       I    between atoms: N1_7  and  C6_9 
REMARK    3  A    between atoms: C6_9  and  C7_11 
REMARK       I    between atoms: N2_16  and  C11_17 
REMARK    4  A    between atoms: C11_17  and  C12_19 
REMARK    5  A    between atoms: C12_19  and  N3_21 
REMARK       I    between atoms: N3_21  and  C14_23 
REMARK    6  A    between atoms: C14_23  and  C15_25 
REMARK    7  A    between atoms: C16_29  and  C17_30 
ROOT
HETATM    1  C7  UNL     1      -0.951   0.707   0.940  1.00  0.00     0.188 C 
HETATM    2  C8  UNL     1      -0.859   0.582   2.467  1.00  0.00     0.109 C 
HETATM    3  S1  UNL     1      -1.802   1.971   3.144  1.00  0.00    -0.165 SA
HETATM    4  C9  UNL     1      -1.816   3.364   2.007  1.00  0.00     0.093 C 
HETATM    5  C10 UNL     1      -0.979   3.205   0.797  1.00  0.00     0.137 C 
HETATM    6  N2  UNL     1      -0.347   1.948   0.562  1.00  0.00    -0.335 N 
HETATM    7  C11 UNL     1       0.914   1.953  -0.093  1.00  0.00     0.243 C 
HETATM    8  O3  UNL     1       1.416   3.107  -0.340  1.00  0.00    -0.271 OA
ENDROOT
BRANCH   7   9
HETATM    9  C12 UNL     1       1.640   0.747  -0.483  1.00  0.00     0.172 C 
HETATM   10  C13 UNL     1       0.985   0.050  -1.678  1.00  0.00     0.042 C 
BRANCH   9  11
HETATM   11  N3  UNL     1       2.954   1.167  -0.955  1.00  0.00    -0.346 N 
HETATM   12  C14 UNL     1       4.105   0.604  -0.402  1.00  0.00     0.259 C 
HETATM   13  O4  UNL     1       3.976  -0.275   0.508  1.00  0.00    -0.270 OA
ATOM     14  H3  UNL     1       3.032   1.871  -1.689  1.00  0.00     0.163 HD
BRANCH  12  15
HETATM   15  C15 UNL     1       5.482   0.986  -0.829  1.00  0.00     0.339 C 
HETATM   16  N4  UNL     1       6.430   0.216  -0.093  1.00  0.00    -0.044 N 
HETATM   17  C16 UNL     1       7.659   0.174  -0.816  1.00  0.00     0.230 C 
ATOM     18  H42 UNL     1       6.552   0.559   0.860  1.00  0.00     0.280 HD
ATOM     19  H41 UNL     1       6.081  -0.715   0.133  1.00  0.00     0.280 HD
HETATM   20  C21 UNL     1       7.393  -0.451  -2.185  1.00  0.00     0.114 C 
HETATM   21  S3  UNL     1       5.730   0.272  -2.505  1.00  0.00    -0.124 SA
BRANCH  17  22
HETATM   22  C17 UNL     1       8.588  -0.729  -0.033  1.00  0.00    -0.020 A 
HETATM   23  C18 UNL     1       8.184  -1.931   0.434  1.00  0.00     0.017 A 
HETATM   24  C19 UNL     1       9.104  -2.664   1.131  1.00  0.00     0.050 A 
HETATM   25  S2  UNL     1      10.487  -1.670   1.117  1.00  0.00    -0.113 SA
HETATM   26  C20 UNL     1       9.871  -0.351   0.230  1.00  0.00     0.058 A 
ENDBRANCH  17  22
ENDBRANCH  12  15
ENDBRANCH   9  11
ENDBRANCH   7   9
BRANCH   1  27
HETATM   27  C6  UNL     1      -2.346   0.595   0.470  1.00  0.00     0.241 C 
HETATM   28  N1  UNL     1      -3.166  -0.500   0.844  1.00  0.00    -0.355 N 
ATOM     29  H1  UNL     1      -2.786  -1.225   1.452  1.00  0.00     0.162 HD
HETATM   30  O2  UNL     1      -2.817   1.482  -0.272  1.00  0.00    -0.271 OA
BRANCH  28  31
HETATM   31  C5  UNL     1      -4.528  -0.607   0.380  1.00  0.00     0.084 C 
HETATM   32  C4  UNL     1      -4.665  -1.892  -0.394  1.00  0.00     0.028 C 
HETATM   33  C3  UNL     1      -6.029  -2.118  -0.950  1.00  0.00     0.034 C 
HETATM   34  C2  UNL     1      -7.089  -1.279  -0.255  1.00  0.00     0.120 C 
HETATM   35  C23 UNL     1      -6.830  -1.181   1.223  1.00  0.00     0.034 C 
HETATM   36  C22 UNL     1      -5.505  -0.534   1.541  1.00  0.00     0.028 C 
BRANCH  34  37
HETATM   37  O1  UNL     1      -8.329  -1.886  -0.424  1.00  0.00    -0.391 OA
HETATM   38  C1  UNL     1      -9.213  -1.058  -1.094  1.00  0.00     0.202 C 
ENDBRANCH  34  37
ENDBRANCH  28  31
ENDBRANCH   1  27
TORSDOF 7
