REMARK  3 active torsions:
REMARK  status: ('A' for Active; 'I' for Inactive)
REMARK    1  A    between atoms: O1_2  and  C2_3 
REMARK    2  A    between atoms: C2_3  and  O2_4 
REMARK    3  A    between atoms: C4_7  and  C5_8 
ROOT
HETATM    1  C2  UNL     1       1.985  -0.400  -0.159  1.00  0.00     0.280 C 
HETATM    2  C3  UNL     1       0.633  -0.974   0.248  1.00  0.00     0.109 C 
HETATM    3  C4  UNL     1      -0.161   0.299   0.040  1.00  0.00     0.024 C 
HETATM    4  C9  UNL     1       0.403   0.704  -1.297  1.00  0.00     0.179 C 
HETATM    5  O3  UNL     1       1.752   0.546  -1.125  1.00  0.00    -0.333 OA
ENDROOT
BRANCH   1   6
HETATM    6  O1  UNL     1       2.439   0.270   0.985  1.00  0.00    -0.338 OA
HETATM    7  C1  UNL     1       3.669   0.878   0.779  1.00  0.00     0.208 C 
ENDBRANCH   1   6
BRANCH   1   8
HETATM    8  O2  UNL     1       2.864  -1.395  -0.556  1.00  0.00    -0.343 OA
ATOM      9  H2  UNL     1       2.556  -1.849  -1.332  1.00  0.00     0.215 HD
ENDBRANCH   1   8
BRANCH   3  10
HETATM   10  C5  UNL     1      -1.633   0.096   0.045  1.00  0.00    -0.045 C 
HETATM   11  C6  UNL     1      -2.089  -0.842  -1.033  1.00  0.00     0.015 C 
HETATM   12  C7  UNL     1      -2.421   1.368   0.007  1.00  0.00     0.015 C 
HETATM   13  C8  UNL     1      -1.970  -0.586   1.382  1.00  0.00     0.015 C 
ENDBRANCH   3  10
TORSDOF 3
