REMARK  1 active torsions:
REMARK  status: ('A' for Active; 'I' for Inactive)
REMARK    1  A    between atoms: C3_3  and  C4_4 
ROOT
HETATM    1  C4  UNL     1      -0.019  -0.867   0.091  1.00  0.00     0.047 C 
HETATM    2  C5  UNL     1       0.832  -0.254   1.163  1.00  0.00     0.091 C 
HETATM    3  C6  UNL     1       1.727   0.663   0.381  1.00  0.00     0.250 C 
HETATM    4  N1  UNL     1       1.501   0.394  -1.029  1.00  0.00    -0.060 N 
ATOM      5  H11 UNL     1       2.328   0.527  -1.611  1.00  0.00     0.278 HD
ATOM      6  H12 UNL     1       0.917   1.090  -1.492  1.00  0.00     0.278 HD
HETATM    7  C7  UNL     1       0.967  -0.933  -1.079  1.00  0.00     0.263 C 
HETATM    8  S1  UNL     1       2.192  -2.175  -0.491  1.00  0.00    -0.063 SA
HETATM    9  S2  UNL     1       1.883  -1.707   1.607  1.00  0.00    -0.088 SA
ENDROOT
BRANCH   1  10
HETATM   10  C3  UNL     1      -1.235  -0.094  -0.267  1.00  0.00    -0.006 A 
HETATM   11  C1  UNL     1      -2.230   0.147   0.828  1.00  0.00     0.005 A 
HETATM   12  C2  UNL     1      -1.511   1.277   0.149  1.00  0.00     0.005 A 
ENDBRANCH   1  10
TORSDOF 1
