REMARK  1 active torsions:
REMARK  status: ('A' for Active; 'I' for Inactive)
REMARK    1  A    between atoms: N2_3  and  C2_5 
ROOT
HETATM    1  N1  UNL     1       3.845   1.545   0.906  1.00  0.00    -0.172 NA
HETATM    2  C1  UNL     1       3.206   0.687   0.466  1.00  0.00     0.178 C 
HETATM    3  N2  UNL     1       2.424  -0.370  -0.050  1.00  0.00    -0.319 N 
ATOM      4  H2  UNL     1       2.865  -1.220  -0.401  1.00  0.00     0.172 HD
ENDROOT
BRANCH   3   5
HETATM    5  C2  UNL     1       1.005  -0.225  -0.070  1.00  0.00     0.044 C 
HETATM    6  C3  UNL     1       0.402  -0.022   1.297  1.00  0.00     0.036 C 
HETATM    7  C4  UNL     1      -1.080   0.139   1.131  1.00  0.00    -0.007 C 
HETATM    8  C5  UNL     1      -1.445   1.330   0.261  1.00  0.00     0.037 C 
HETATM    9  C9  UNL     1      -1.731  -1.062   0.497  1.00  0.00     0.037 C 
HETATM   10  C6  UNL     1      -0.809   1.064  -1.103  1.00  0.00     0.124 C 
HETATM   11  C7  UNL     1       0.671   0.999  -0.892  1.00  0.00     0.063 C 
HETATM   12  O1  UNL     1      -1.358  -0.086  -1.624  1.00  0.00    -0.380 OA
HETATM   13  C8  UNL     1      -1.117  -1.222  -0.885  1.00  0.00     0.124 C 
HETATM   14  C10 UNL     1       0.357  -1.403  -0.702  1.00  0.00     0.063 C 
ENDBRANCH   3   5
TORSDOF 1
