REMARK  1 active torsions:
REMARK  status: ('A' for Active; 'I' for Inactive)
REMARK    1  A    between atoms: N1_3  and  C2_5 
ROOT
HETATM    1  S1  UNL     1      -4.067   1.895  -0.677  1.00  0.00    -0.075 SA
HETATM    2  C1  UNL     1      -3.268   0.521  -0.580  1.00  0.00     0.166 C 
HETATM    3  N1  UNL     1      -2.816  -0.642  -0.418  1.00  0.00    -0.384 N 
ATOM      4  H1  UNL     1      -3.361  -1.432  -0.762  1.00  0.00     0.160 HD
ENDROOT
BRANCH   3   5
HETATM    5  C2  UNL     1      -1.544  -0.904   0.242  1.00  0.00     0.109 C 
HETATM    6  C3  UNL     1      -0.686  -1.616  -0.812  1.00  0.00     0.258 C 
HETATM    7  N2  UNL     1      -0.007  -0.456  -1.402  1.00  0.00    -0.064 N 
HETATM    8  C4  UNL     1       0.445   0.236  -0.231  1.00  0.00     0.128 A 
ATOM      9  H22 UNL     1       0.718  -0.677  -2.084  1.00  0.00     0.278 HD
ATOM     10  H21 UNL     1      -0.572   0.099  -2.045  1.00  0.00     0.278 HD
HETATM   11  C5  UNL     1       1.249   1.467  -0.420  1.00  0.00     0.039 A 
HETATM   12  C7  UNL     1       1.583  -0.491   0.420  1.00  0.00     0.039 A 
HETATM   13  C8  UNL     1      -0.815   0.361   0.588  1.00  0.00     0.065 C 
HETATM   14  C6  UNL     1       2.416   0.764   0.262  1.00  0.00     0.005 A 
ENDBRANCH   3   5
TORSDOF 1
