REMARK  1 active torsions:
REMARK  status: ('A' for Active; 'I' for Inactive)
REMARK    1  A    between atoms: C5_5  and  C7_7 
ROOT
HETATM    1  C1  UNL     1      -3.010   0.633  -0.017  1.00  0.00     0.049 C 
HETATM    2  C2  UNL     1      -1.794  -0.032   0.588  1.00  0.00     0.092 C 
HETATM    3  C3  UNL     1      -2.154  -0.992   1.689  1.00  0.00     0.049 C 
HETATM    4  C4  UNL     1      -0.946  -0.720  -0.491  1.00  0.00     0.083 C 
HETATM    5  C5  UNL     1       0.166   0.318  -0.639  1.00  0.00     0.123 C 
HETATM    6  C6  UNL     1       0.604   0.499  -2.048  1.00  0.00     0.051 C 
HETATM    7  O1  UNL     1      -0.497   1.455  -0.147  1.00  0.00    -0.227 OA
HETATM    8  O2  UNL     1      -0.932   0.979   1.023  1.00  0.00    -0.230 OA
ENDROOT
BRANCH   5   9
HETATM    9  C7  UNL     1       1.301   0.031   0.312  1.00  0.00     0.224 C 
HETATM   10  C8  UNL     1       2.491   0.913  -0.035  1.00  0.00     0.063 C 
HETATM   11  C9  UNL     1       3.281  -0.323   0.396  1.00  0.00     0.235 C 
HETATM   12  N1  UNL     1       2.121  -1.101  -0.002  1.00  0.00    -0.068 N 
ATOM     13  H12 UNL     1       1.935  -2.011   0.420  1.00  0.00     0.277 HD
ATOM     14  H11 UNL     1       2.077  -1.535  -0.924  1.00  0.00     0.277 HD
ENDBRANCH   5   9
TORSDOF 1
