REMARK  15 active torsions:
REMARK  status: ('A' for Active; 'I' for Inactive)
REMARK    1  A    between atoms: C2_2  and  C3_3 
REMARK    2  A    between atoms: C2_2  and  C34_43 
REMARK    3  A    between atoms: C3_3  and  C4_4 
REMARK    4  A    between atoms: C4_4  and  C5_5 
REMARK    5  A    between atoms: C5_5  and  O1_6 
REMARK    6  A    between atoms: C6_8  and  O2_9 
REMARK    7  A    between atoms: O2_9  and  C7_10 
REMARK    8  A    between atoms: C14_19  and  C16_21 
REMARK    9  A    between atoms: C17_22  and  C18_23 
REMARK   10  A    between atoms: C22_27  and  O5_28 
REMARK   11  A    between atoms: C22_27  and  C23_30 
REMARK   12  A    between atoms: C23_30  and  O7_32 
REMARK   13  A    between atoms: C26_35  and  C28_37 
REMARK   14  A    between atoms: C28_37  and  C29_38 
REMARK   15  A    between atoms: C29_38  and  C30_39 
ROOT
HETATM    1  C5  UNL     1      -2.531  -0.664   0.435  1.00  0.00     0.097 C 
HETATM    2  C6  UNL     1      -3.151  -2.102   0.259  1.00  0.00     0.182 C 
HETATM    3  C9  UNL     1      -2.650  -3.097   1.232  1.00  0.00     0.043 C 
HETATM    4  C10 UNL     1      -2.003  -4.310   0.529  1.00  0.00     0.026 C 
HETATM    5  C11 UNL     1      -3.688  -3.684   2.152  1.00  0.00     0.026 C 
HETATM    6  C12 UNL     1      -1.573  -2.541   2.088  1.00  0.00     0.138 C 
HETATM    7  O4  UNL     1      -1.561  -2.690   3.319  1.00  0.00    -0.297 OA
HETATM    8  C13 UNL     1      -0.526  -1.804   1.372  1.00  0.00     0.095 C 
HETATM    9  C14 UNL     1      -1.078  -0.814   0.338  1.00  0.00     0.014 C 
HETATM   10  C15 UNL     1      -0.550  -1.257  -0.999  1.00  0.00     0.023 C 
ENDROOT
BRANCH   9  11
HETATM   11  C16 UNL     1      -0.247   0.424   0.628  1.00  0.00    -0.017 C 
HETATM   12  C17 UNL     1       1.039   0.223   0.773  1.00  0.00    -0.020 C 
BRANCH  12  13
HETATM   13  C18 UNL     1       2.190   1.044   1.047  1.00  0.00     0.044 C 
HETATM   14  C19 UNL     1       2.071   2.456   1.387  1.00  0.00    -0.076 C 
HETATM   15  C20 UNL     1       0.868   3.287   1.521  1.00  0.00     0.044 C 
HETATM   16  C21 UNL     1       3.246   3.095   1.620  1.00  0.00     0.024 C 
HETATM   17  C22 UNL     1       4.508   2.333   1.514  1.00  0.00     0.164 C 
HETATM   18  C25 UNL     1       4.543   1.453   0.290  1.00  0.00     0.062 C 
HETATM   19  C26 UNL     1       3.188   0.936  -0.093  1.00  0.00    -0.030 C 
HETATM   20  C27 UNL     1       2.659   1.704  -1.261  1.00  0.00     0.016 C 
BRANCH  17  21
HETATM   21  O5  UNL     1       4.817   1.653   2.691  1.00  0.00    -0.375 OA
ATOM     22  H5  UNL     1       5.628   1.163   2.623  1.00  0.00     0.211 HD
ENDBRANCH  17  21
BRANCH  17  23
HETATM   23  C23 UNL     1       5.606   3.350   1.335  1.00  0.00     0.297 C 
HETATM   24  O6  UNL     1       6.545   3.472   2.155  1.00  0.00    -0.261 OA
BRANCH  23  25
HETATM   25  O7  UNL     1       5.615   4.200   0.236  1.00  0.00    -0.324 OA
HETATM   26  C24 UNL     1       6.629   5.163   0.034  1.00  0.00     0.213 C 
ENDBRANCH  23  25
ENDBRANCH  17  23
BRANCH  19  27
HETATM   27  C28 UNL     1       3.432  -0.514  -0.525  1.00  0.00     0.014 C 
BRANCH  27  28
HETATM   28  C29 UNL     1       4.421  -0.462  -1.642  1.00  0.00     0.028 C 
BRANCH  28  29
HETATM   29  C30 UNL     1       4.869  -1.689  -2.254  1.00  0.00    -0.025 C 
HETATM   30  C31 UNL     1       4.625  -2.920  -2.007  1.00  0.00    -0.091 C 
HETATM   31  C32 UNL     1       5.314  -3.958  -2.913  1.00  0.00     0.042 C 
HETATM   32  C33 UNL     1       3.775  -3.484  -0.958  1.00  0.00     0.042 C 
ENDBRANCH  28  29
ENDBRANCH  27  28
ENDBRANCH  19  27
ENDBRANCH  12  13
ENDBRANCH   9  11
BRANCH   1  33
HETATM   33  C4  UNL     1      -3.215   0.065  -0.682  1.00  0.00     0.046 C 
BRANCH  33  34
HETATM   34  C3  UNL     1      -3.151   1.524  -0.790  1.00  0.00     0.037 C 
BRANCH  34  35
HETATM   35  C2  UNL     1      -3.876   2.327   0.243  1.00  0.00    -0.086 C 
HETATM   36  C1  UNL     1      -3.214   3.060   1.130  1.00  0.00     0.014 C 
BRANCH  35  37
HETATM   37  C34 UNL     1      -5.362   2.443   0.266  1.00  0.00     0.005 C 
HETATM   38  C35 UNL     1      -5.861   3.105  -1.017  1.00  0.00     0.014 C 
HETATM   39  C36 UNL     1      -6.141   1.225   0.560  1.00  0.00     0.014 C 
ENDBRANCH  35  37
ENDBRANCH  34  35
ENDBRANCH  33  34
ENDBRANCH   1  33
BRANCH   1  40
HETATM   40  O1  UNL     1      -2.957  -0.167   1.625  1.00  0.00    -0.386 OA
ATOM     41  H1  UNL     1      -2.524  -0.629   2.333  1.00  0.00     0.210 HD
ENDBRANCH   1  40
BRANCH   2  42
HETATM   42  O2  UNL     1      -4.502  -2.112   0.039  1.00  0.00    -0.312 OA
BRANCH  42  43
HETATM   43  C7  UNL     1      -5.174  -2.477  -1.124  1.00  0.00     0.255 C 
HETATM   44  C8  UNL     1      -6.650  -2.384  -1.081  1.00  0.00     0.126 C 
HETATM   45  O3  UNL     1      -4.475  -2.836  -2.056  1.00  0.00    -0.266 OA
ENDBRANCH  42  43
ENDBRANCH   2  42
TORSDOF 15
