REMARK  12 active torsions:
REMARK  status: ('A' for Active; 'I' for Inactive)
REMARK    1  A    between atoms: C2_2  and  C4_4 
REMARK    2  A    between atoms: C4_4  and  C5_5 
REMARK    3  A    between atoms: C5_5  and  O1_7 
REMARK    4  A    between atoms: C5_5  and  C7_9 
REMARK    5  A    between atoms: C8_10  and  C9_11 
REMARK    6  A    between atoms: C16_19  and  C17_20 
REMARK    7  A    between atoms: C17_20  and  C18_21 
REMARK    8  A    between atoms: C18_21  and  C19_22 
REMARK    9  A    between atoms: C19_22  and  O3_24 
REMARK   10  A    between atoms: C19_22  and  C21_26 
REMARK   11  A    between atoms: C21_26  and  C22_27 
REMARK   12  A    between atoms: C22_27  and  N1_29 
ROOT
HETATM    1  C19 UNL     1      -0.740  -0.932   0.483  1.00  0.00     0.073 C 
HETATM    2  C20 UNL     1      -0.130  -1.362   1.867  1.00  0.00     0.050 C 
ENDROOT
BRANCH   1   3
HETATM    3  C18 UNL     1       0.313  -1.225  -0.491  1.00  0.00     0.011 C 
BRANCH   3   4
HETATM    4  C17 UNL     1       1.673  -0.631  -0.430  1.00  0.00     0.011 C 
BRANCH   4   5
HETATM    5  C16 UNL     1       2.018   0.739  -0.628  1.00  0.00    -0.000 C 
HETATM    6  C9  UNL     1       3.600   1.001  -0.495  1.00  0.00     0.007 C 
HETATM    7  C10 UNL     1       3.619   2.334  -1.285  1.00  0.00     0.025 C 
HETATM    8  C11 UNL     1       3.944   1.308   0.887  1.00  0.00    -0.002 C 
HETATM    9  C12 UNL     1       3.895   0.199   1.902  1.00  0.00     0.011 C 
HETATM   10  C13 UNL     1       3.191   2.459   1.506  1.00  0.00     0.013 C 
HETATM   11  C14 UNL     1       1.703   2.296   1.353  1.00  0.00     0.084 C 
HETATM   12  C15 UNL     1       1.386   1.901  -0.067  1.00  0.00     0.156 C 
HETATM   13  O2  UNL     1       0.582   2.650  -0.646  1.00  0.00    -0.293 OA
BRANCH   6  14
HETATM   14  C8  UNL     1       4.288  -0.067  -1.234  1.00  0.00    -0.013 C 
HETATM   15  C7  UNL     1       5.642  -0.042  -1.710  1.00  0.00     0.007 C 
BRANCH  15  16
HETATM   16  C5  UNL     1       6.907   0.093  -1.023  1.00  0.00     0.072 C 
HETATM   17  C6  UNL     1       8.005  -0.080  -2.144  1.00  0.00     0.050 C 
BRANCH  16  18
HETATM   18  C4  UNL     1       7.281  -0.875   0.014  1.00  0.00     0.045 C 
BRANCH  18  19
HETATM   19  C2  UNL     1       8.574  -0.765   0.714  1.00  0.00    -0.020 C 
HETATM   20  C1  UNL     1       9.849  -0.845  -0.013  1.00  0.00     0.009 C 
HETATM   21  C3  UNL     1       8.640   0.446   1.646  1.00  0.00     0.009 C 
ENDBRANCH  18  19
ENDBRANCH  16  18
BRANCH  16  22
HETATM   22  O1  UNL     1       7.207   1.379  -0.573  1.00  0.00    -0.386 OA
ATOM     23  H1  UNL     1       6.965   2.006  -1.245  1.00  0.00     0.211 HD
ENDBRANCH  16  22
ENDBRANCH  15  16
ENDBRANCH   6  14
ENDBRANCH   4   5
ENDBRANCH   3   4
ENDBRANCH   1   3
BRANCH   1  24
HETATM   24  O3  UNL     1      -1.153   0.355   0.674  1.00  0.00    -0.386 OA
ATOM     25  H3  UNL     1      -1.836   0.545   1.306  1.00  0.00     0.211 HD
ENDBRANCH   1  24
BRANCH   1  26
HETATM   26  C21 UNL     1      -1.954  -1.842   0.410  1.00  0.00     0.063 C 
BRANCH  26  27
HETATM   27  C22 UNL     1      -2.777  -1.908  -0.788  1.00  0.00     0.085 C 
HETATM   28  C23 UNL     1      -2.226  -2.361  -2.073  1.00  0.00     0.029 C 
BRANCH  27  29
HETATM   29  N1  UNL     1      -3.569  -0.653  -0.966  1.00  0.00    -0.189 NA
HETATM   30  C24 UNL     1      -4.378  -0.814  -2.116  1.00  0.00     0.127 C 
HETATM   31  C25 UNL     1      -5.667  -1.335  -1.500  1.00  0.00     0.090 C 
HETATM   32  C26 UNL     1      -5.681  -0.564  -0.227  1.00  0.00     0.221 C 
HETATM   33  O4  UNL     1      -6.406  -1.323   0.697  1.00  0.00    -0.198 OA
HETATM   34  C34 UNL     1      -6.214   0.833  -0.349  1.00  0.00     0.053 C 
HETATM   35  O6  UNL     1      -4.347  -0.473   0.103  1.00  0.00    -0.260 OA
HETATM   36  O5  UNL     1      -7.616  -1.465   0.201  1.00  0.00    -0.227 OA
HETATM   37  C27 UNL     1      -8.437  -0.521   0.816  1.00  0.00     0.097 C 
HETATM   38  C28 UNL     1      -9.764  -1.216   1.100  1.00  0.00     0.050 C 
HETATM   39  C29 UNL     1      -7.835  -0.044   2.108  1.00  0.00     0.046 C 
HETATM   40  C32 UNL     1      -8.709   0.664  -0.048  1.00  0.00     0.024 C 
HETATM   41  C30 UNL     1      -7.454   1.372   1.781  1.00  0.00    -0.011 C 
HETATM   42  C31 UNL     1      -8.682   1.813   0.972  1.00  0.00     0.012 C 
HETATM   43  C35 UNL     1      -6.192   1.494   0.989  1.00  0.00     0.015 C 
HETATM   44  C33 UNL     1      -7.542   0.970  -0.995  1.00  0.00     0.018 C 
ENDBRANCH  27  29
ENDBRANCH  26  27
ENDBRANCH   1  26
TORSDOF 12
