REMARK  14 active torsions:
REMARK  status: ('A' for Active; 'I' for Inactive)
REMARK    1  A    between atoms: C2_2  and  C3_3 
REMARK    2  A    between atoms: C3_3  and  C4_4 
REMARK    3  A    between atoms: C3_3  and  O6_36 
REMARK    4  A    between atoms: C4_4  and  C5_5 
REMARK    5  A    between atoms: C6_6  and  C8_8 
REMARK    6  A    between atoms: C8_8  and  C11_11 
REMARK    7  A    between atoms: C11_11  and  C12_12 
REMARK    8  A    between atoms: C12_12  and  O2_14 
REMARK    9  A    between atoms: O2_14  and  C13_15 
REMARK   10  A    between atoms: C16_18  and  O3_19 
REMARK   11  A    between atoms: C20_24  and  C22_26 
REMARK   12  A    between atoms: O6_36  and  C29_37 
REMARK   13  A    between atoms: C29_37  and  C30_39 
REMARK   14  A    between atoms: C30_39  and  C31_40 
ROOT
HETATM    1  C13 UNL     1      -2.150   0.298   1.177  1.00  0.00     0.135 C 
HETATM    2  C14 UNL     1      -2.831   0.489  -0.145  1.00  0.00     0.042 C 
HETATM    3  C15 UNL     1      -4.220   0.018   0.151  1.00  0.00     0.041 C 
HETATM    4  C16 UNL     1      -4.422   0.131   1.614  1.00  0.00     0.065 C 
HETATM    5  C17 UNL     1      -5.611  -0.659   2.014  1.00  0.00     0.039 C 
HETATM    6  C18 UNL     1      -6.577  -0.816   0.854  1.00  0.00     0.010 C 
HETATM    7  C19 UNL     1      -6.578   0.428  -0.050  1.00  0.00     0.023 C 
HETATM    8  C20 UNL     1      -7.813   0.559  -0.840  1.00  0.00     0.050 C 
HETATM    9  C21 UNL     1      -8.808  -0.562  -0.484  1.00  0.00     0.027 C 
HETATM   10  C23 UNL     1      -7.685   0.555  -2.320  1.00  0.00     0.021 C 
HETATM   11  C24 UNL     1      -7.616  -0.826  -2.936  1.00  0.00     0.012 C 
HETATM   12  C25 UNL     1      -6.177  -1.181  -3.040  1.00  0.00     0.075 C 
HETATM   13  S1  UNL     1      -5.021  -0.107  -2.306  1.00  0.00    -0.159 SA
HETATM   14  C26 UNL     1      -5.280   0.622  -0.739  1.00  0.00     0.016 C 
HETATM   15  C27 UNL     1      -5.046   2.133  -0.880  1.00  0.00     0.028 C 
HETATM   16  C28 UNL     1      -3.089  -0.502   2.071  1.00  0.00     0.071 C 
ENDROOT
BRANCH   1  17
HETATM   17  O2  UNL     1      -0.861  -0.226   1.087  1.00  0.00    -0.316 OA
BRANCH  17  18
HETATM   18  C12 UNL     1       0.286   0.418   1.562  1.00  0.00     0.260 C 
HETATM   19  O1  UNL     1       0.115   1.520   2.094  1.00  0.00    -0.265 OA
BRANCH  18  20
HETATM   20  C11 UNL     1       1.553  -0.300   1.366  1.00  0.00     0.124 C 
BRANCH  20  21
HETATM   21  C8  UNL     1       2.672   0.482   1.978  1.00  0.00    -0.016 C 
HETATM   22  C9  UNL     1       2.804   1.879   1.470  1.00  0.00     0.020 C 
HETATM   23  C10 UNL     1       2.465   0.530   3.499  1.00  0.00     0.020 C 
BRANCH  21  24
HETATM   24  C6  UNL     1       4.002  -0.189   1.801  1.00  0.00    -0.079 C 
HETATM   25  C5  UNL     1       4.200  -1.253   1.057  1.00  0.00    -0.021 C 
HETATM   26  C7  UNL     1       5.160   0.409   2.522  1.00  0.00     0.044 C 
BRANCH  25  27
HETATM   27  C4  UNL     1       5.539  -1.869   0.920  1.00  0.00     0.060 C 
BRANCH  27  28
HETATM   28  C3  UNL     1       6.034  -1.863  -0.519  1.00  0.00     0.135 C 
BRANCH  28  29
HETATM   29  C2  UNL     1       5.091  -2.632  -1.415  1.00  0.00     0.028 C 
HETATM   30  C1  UNL     1       5.002  -4.065  -0.933  1.00  0.00     0.007 C 
ENDBRANCH  28  29
BRANCH  28  31
HETATM   31  O6  UNL     1       6.331  -0.576  -0.968  1.00  0.00    -0.316 OA
BRANCH  31  32
HETATM   32  C29 UNL     1       7.612  -0.186  -1.318  1.00  0.00     0.259 C 
HETATM   33  O7  UNL     1       8.528  -1.040  -1.222  1.00  0.00    -0.265 OA
BRANCH  32  34
HETATM   34  C30 UNL     1       7.807   1.201  -1.778  1.00  0.00     0.115 C 
BRANCH  34  35
HETATM   35  C31 UNL     1       9.227   1.531  -2.130  1.00  0.00    -0.013 C 
HETATM   36  C32 UNL     1       9.758   0.655  -3.238  1.00  0.00     0.010 C 
HETATM   37  C33 UNL     1      10.130   1.471  -0.926  1.00  0.00     0.010 C 
ENDBRANCH  34  35
ENDBRANCH  32  34
ENDBRANCH  31  32
ENDBRANCH  28  31
ENDBRANCH  27  28
ENDBRANCH  25  27
ENDBRANCH  21  24
ENDBRANCH  20  21
ENDBRANCH  18  20
ENDBRANCH  17  18
ENDBRANCH   1  17
BRANCH   4  38
HETATM   38  O3  UNL     1      -4.383   1.411   2.132  1.00  0.00    -0.389 OA
ATOM     39  H3  UNL     1      -4.513   1.483   3.070  1.00  0.00     0.210 HD
ENDBRANCH   4  38
BRANCH   8  40
HETATM   40  C22 UNL     1      -8.596   1.813  -0.494  1.00  0.00     0.181 C 
HETATM   41  O4  UNL     1      -8.865   2.693  -1.327  1.00  0.00    -0.647 OA
HETATM   42  O5  UNL     1      -9.043   2.007   0.816  1.00  0.00    -0.647 OA
ENDBRANCH   8  40
TORSDOF 14
