REMARK  13 active torsions:
REMARK  status: ('A' for Active; 'I' for Inactive)
REMARK    1  A    between atoms: C2_2  and  O1_4 
REMARK    2  A    between atoms: O1_4  and  C4_5 
REMARK    3  A    between atoms: C4_5  and  C5_6 
REMARK    4  A    between atoms: C11_12  and  O2_13 
REMARK    5  A    between atoms: C13_17  and  C15_19 
REMARK    6  A    between atoms: C15_19  and  C16_20 
REMARK    7  A    between atoms: C16_20  and  C17_21 
REMARK    8  A    between atoms: C17_21  and  C18_22 
REMARK    9  A    between atoms: C18_22  and  O4_25 
REMARK   10  A    between atoms: O4_25  and  C21_26 
REMARK   11  A    between atoms: C21_26  and  C22_27 
REMARK   12  A    between atoms: C27_33  and  C28_34 
REMARK   13  A    between atoms: C28_34  and  O5_37 
ROOT
HETATM    1  C22 UNL     1       7.543   1.153   0.077  1.00  0.00     0.150 C 
HETATM    2  C23 UNL     1       8.322   1.744   1.141  1.00  0.00     0.061 C 
HETATM    3  N1  UNL     1       8.943   2.237   1.991  1.00  0.00    -0.197 NA
ENDROOT
BRANCH   1   4
HETATM    4  C21 UNL     1       6.717  -0.038   0.580  1.00  0.00     0.182 C 
BRANCH   4   5
HETATM    5  O4  UNL     1       5.980  -0.596  -0.434  1.00  0.00    -0.380 OA
BRANCH   5   6
HETATM    6  C18 UNL     1       5.216  -1.697   0.002  1.00  0.00     0.053 C 
HETATM    7  C19 UNL     1       4.616  -2.288  -1.232  1.00  0.00     0.045 C 
HETATM    8  C20 UNL     1       6.224  -2.756   0.510  1.00  0.00     0.045 C 
BRANCH   6   9
HETATM    9  C17 UNL     1       4.255  -1.346   1.053  1.00  0.00     0.037 C 
BRANCH   9  10
HETATM   10  C16 UNL     1       3.191  -0.331   0.834  1.00  0.00     0.006 C 
BRANCH  10  11
HETATM   11  C15 UNL     1       2.162  -0.596  -0.213  1.00  0.00     0.038 C 
BRANCH  11  12
HETATM   12  C13 UNL     1       1.084   0.434  -0.356  1.00  0.00     0.069 C 
HETATM   13  O3  UNL     1       0.297   0.017  -1.433  1.00  0.00    -0.369 OA
HETATM   14  C12 UNL     1      -0.865   0.835  -1.368  1.00  0.00     0.188 C 
HETATM   15  C11 UNL     1      -1.688   0.790  -2.540  1.00  0.00     0.158 C 
HETATM   16  C31 UNL     1      -1.321   0.575   0.025  1.00  0.00     0.110 C 
HETATM   17  C8  UNL     1      -3.118   0.569  -2.596  1.00  0.00    -0.019 C 
HETATM   18  C7  UNL     1      -3.888   0.402  -1.327  1.00  0.00     0.012 C 
HETATM   19  C9  UNL     1      -3.809   1.773  -3.281  1.00  0.00     0.017 C 
HETATM   20  C10 UNL     1      -3.511  -0.575  -3.561  1.00  0.00     0.017 C 
HETATM   21  C6  UNL     1      -3.429  -0.704  -0.487  1.00  0.00     0.016 C 
HETATM   22  C5  UNL     1      -2.105  -0.686   0.177  1.00  0.00     0.019 C 
HETATM   23  C34 UNL     1      -2.312  -0.986   1.636  1.00  0.00    -0.005 C 
HETATM   24  C33 UNL     1      -1.110  -0.855   2.476  1.00  0.00     0.006 C 
HETATM   25  C35 UNL     1      -3.505  -0.292   2.246  1.00  0.00     0.011 C 
HETATM   26  C32 UNL     1       0.133  -0.321   1.882  1.00  0.00     0.016 C 
HETATM   27  C24 UNL     1       0.040   0.603   0.707  1.00  0.00     0.025 C 
HETATM   28  C25 UNL     1       0.357   1.966   1.322  1.00  0.00     0.018 C 
HETATM   29  C26 UNL     1      -0.883   2.603   1.971  1.00  0.00     0.036 C 
HETATM   30  C27 UNL     1      -1.748   2.782   0.704  1.00  0.00     0.156 C 
HETATM   31  O6  UNL     1      -2.179   1.573   0.414  1.00  0.00    -0.367 OA
HETATM   32  C14 UNL     1       1.858   1.651  -0.752  1.00  0.00     0.047 C 
BRANCH  15  33
HETATM   33  O2  UNL     1      -1.392   1.892  -3.409  1.00  0.00    -0.392 OA
ATOM     34  H2  UNL     1      -0.454   2.037  -3.372  1.00  0.00     0.210 HD
ENDBRANCH  15  33
BRANCH  22  35
HETATM   35  C4  UNL     1      -1.423  -1.926  -0.378  1.00  0.00     0.181 C 
BRANCH  35  36
HETATM   36  O1  UNL     1      -2.249  -3.027  -0.018  1.00  0.00    -0.386 OA
BRANCH  36  37
HETATM   37  C2  UNL     1      -1.733  -4.215  -0.467  1.00  0.00     0.113 C 
HETATM   38  C1  UNL     1      -2.796  -4.868  -1.346  1.00  0.00     0.039 C 
HETATM   39  C3  UNL     1      -1.490  -5.198   0.678  1.00  0.00     0.039 C 
ENDBRANCH  36  37
ENDBRANCH  35  36
ENDBRANCH  22  35
BRANCH  30  40
HETATM   40  C28 UNL     1      -2.806   3.807   0.931  1.00  0.00     0.076 C 
HETATM   41  C29 UNL     1      -3.676   3.560   2.147  1.00  0.00     0.048 C 
HETATM   42  C30 UNL     1      -2.157   5.191   1.207  1.00  0.00     0.048 C 
BRANCH  40  43
HETATM   43  O5  UNL     1      -3.641   4.035  -0.130  1.00  0.00    -0.388 OA
ATOM     44  H5  UNL     1      -4.315   4.688   0.015  1.00  0.00     0.210 HD
ENDBRANCH  40  43
ENDBRANCH  30  40
ENDBRANCH  11  12
ENDBRANCH  10  11
ENDBRANCH   9  10
ENDBRANCH   6   9
ENDBRANCH   5   6
ENDBRANCH   4   5
ENDBRANCH   1   4
TORSDOF 13
