REMARK  7 active torsions:
REMARK  status: ('A' for Active; 'I' for Inactive)
REMARK    1  A    between atoms: C1_2  and  C2_4 
REMARK    2  A    between atoms: C6_10  and  N3_11 
REMARK    3  A    between atoms: N3_11  and  C7_13 
REMARK    4  A    between atoms: C8_16  and  C9_17 
REMARK    5  A    between atoms: C12_20  and  N5_21 
REMARK    6  A    between atoms: N5_21  and  C13_23 
REMARK    7  A    between atoms: C19_39  and  C20_40 
ROOT
HETATM    1  C7  UNL     1       1.720  -0.072  -0.569  1.00  0.00     0.686 A 
HETATM    2  N4  UNL     1       0.392  -0.164  -0.620  1.00  0.00    -0.190 N 
ATOM      3  H4  UNL     1      -0.142   0.680  -0.829  1.00  0.00     0.184 HD
HETATM    4  C8  UNL     1      -0.299  -1.335  -0.406  1.00  0.00     0.081 A 
HETATM    5  C19 UNL     1       0.420  -2.459  -0.124  1.00  0.00     0.125 A 
HETATM    6  C21 UNL     1       1.819  -2.370  -0.072  1.00  0.00     0.277 A 
HETATM    7  O3  UNL     1       2.473  -3.417   0.185  1.00  0.00    -0.267 OA
HETATM    8  N12 UNL     1       2.410  -1.192  -0.294  1.00  0.00    -0.155 N 
ATOM      9  H12 UNL     1       3.428  -1.141  -0.253  1.00  0.00     0.187 HD
ENDROOT
BRANCH   4  10
HETATM   10  C9  UNL     1      -1.751  -1.258  -0.474  1.00  0.00     0.008 A 
HETATM   11  C10 UNL     1      -2.613  -2.220  -0.911  1.00  0.00     0.019 A 
HETATM   12  C11 UNL     1      -3.982  -2.084  -0.830  1.00  0.00     0.049 A 
HETATM   13  C12 UNL     1      -4.576  -0.926  -0.285  1.00  0.00     0.106 A 
HETATM   14  N10 UNL     1      -3.696  -0.005   0.129  1.00  0.00    -0.351 N 
HETATM   15  C18 UNL     1      -2.366  -0.108   0.065  1.00  0.00     0.103 A 
ATOM     16  H10 UNL     1      -4.076   0.853   0.529  1.00  0.00     0.166 HD
BRANCH  13  17
HETATM   17  N5  UNL     1      -5.941  -0.815  -0.185  1.00  0.00    -0.327 N 
ATOM     18  H5  UNL     1      -6.353  -1.748  -0.167  1.00  0.00     0.169 HD
BRANCH  17  19
HETATM   19  C13 UNL     1      -6.835   0.023  -0.110  1.00  0.00     0.138 A 
HETATM   20  N6  UNL     1      -8.121  -0.482  -0.022  1.00  0.00    -0.337 N 
HETATM   21  C14 UNL     1      -9.198   0.295   0.067  1.00  0.00     0.183 A 
ATOM     22  H6  UNL     1      -8.249  -1.494  -0.026  1.00  0.00     0.168 HD
HETATM   23  N7  UNL     1      -9.088   1.637   0.075  1.00  0.00    -0.337 N 
HETATM   24  C15 UNL     1      -7.885   2.228  -0.007  1.00  0.00     0.138 A 
ATOM     25  H7  UNL     1      -9.928   2.211   0.144  1.00  0.00     0.168 HD
HETATM   26  N8  UNL     1      -7.461   3.515  -0.024  1.00  0.00    -0.337 N 
HETATM   27  C17 UNL     1      -6.772   1.399  -0.098  1.00  0.00     0.122 A 
HETATM   28  C16 UNL     1      -6.136   3.488  -0.122  1.00  0.00     0.182 A 
ATOM     29  H8  UNL     1      -8.048   4.347   0.029  1.00  0.00     0.168 HD
HETATM   30  N9  UNL     1      -5.712   2.220  -0.168  1.00  0.00    -0.346 N 
ATOM     31  H9  UNL     1      -4.739   1.924  -0.244  1.00  0.00     0.167 HD
ENDBRANCH  17  19
ENDBRANCH  13  17
ENDBRANCH   4  10
BRANCH   5  32
HETATM   32  C20 UNL     1      -0.112  -3.739   0.321  1.00  0.00     0.272 C 
HETATM   33  N11 UNL     1      -1.227  -3.992   1.123  1.00  0.00    -0.057 NA
HETATM   34  O2  UNL     1       0.536  -4.762  -0.063  1.00  0.00    -0.271 OA
ENDBRANCH   5  32
BRANCH   1  35
HETATM   35  N3  UNL     1       2.404   0.996  -0.789  1.00  0.00    -0.192 N 
ATOM     36  H3  UNL     1       1.900   1.851  -1.026  1.00  0.00     0.184 HD
BRANCH  35  37
HETATM   37  C6  UNL     1       3.807   1.050  -0.721  1.00  0.00     0.050 A 
HETATM   38  C5  UNL     1       4.677   0.811  -1.754  1.00  0.00     0.032 A 
HETATM   39  C4  UNL     1       6.027   0.863  -1.671  1.00  0.00     0.033 A 
HETATM   40  C3  UNL     1       6.643   1.186  -0.443  1.00  0.00     0.050 A 
HETATM   41  N2  UNL     1       7.921   1.272  -0.216  1.00  0.00    -0.345 N 
HETATM   42  C23 UNL     1       5.798   1.431   0.609  1.00  0.00     0.036 A 
HETATM   43  C2  UNL     1       8.365   1.583   0.987  1.00  0.00     0.141 A 
ATOM     44  H2  UNL     1       8.583   1.098  -0.972  1.00  0.00     0.167 HD
HETATM   45  S1  UNL     1       6.914   1.771   1.867  1.00  0.00    -0.065 SA
HETATM   46  C22 UNL     1       4.402   1.368   0.489  1.00  0.00     0.051 A 
BRANCH  43  47
HETATM   47  C1  UNL     1       9.764   1.729   1.424  1.00  0.00     0.288 C 
HETATM   48  N1  UNL     1      10.845   1.562   0.530  1.00  0.00    -0.055 NA
HETATM   49  O1  UNL     1       9.932   2.012   2.638  1.00  0.00    -0.269 OA
ENDBRANCH  43  47
ENDBRANCH  35  37
ENDBRANCH   1  35
TORSDOF 7
