REMARK  8 active torsions:
REMARK  status: ('A' for Active; 'I' for Inactive)
REMARK       I    between atoms: C2_2  and  N1_4 
REMARK    1  A    between atoms: N1_4  and  C3_6 
REMARK    2  A    between atoms: C5_8  and  N2_9 
REMARK    3  A    between atoms: C8_17  and  N5_18 
REMARK    4  A    between atoms: N5_18  and  C9_20 
REMARK    5  A    between atoms: C10_23  and  N7_24 
REMARK    6  A    between atoms: N7_24  and  C11_25 
REMARK    7  A    between atoms: C14_28  and  N8_29 
REMARK    8  A    between atoms: C17_36  and  N10_37 
ROOT
HETATM    1  C9  UNL     1      -0.819  -0.472  -0.233  1.00  0.00     0.715 A 
HETATM    2  N6  UNL     1      -1.364   0.702  -0.070  1.00  0.00    -0.147 N 
ATOM      3  H6  UNL     1      -0.750   1.514  -0.004  1.00  0.00     0.188 HD
HETATM    4  C10 UNL     1      -2.712   0.902   0.017  1.00  0.00     0.288 A 
HETATM    5  N9  UNL     1      -3.479  -0.248  -0.082  1.00  0.00    -0.148 N 
ATOM      6  H9  UNL     1      -4.494  -0.162  -0.025  1.00  0.00     0.188 HD
HETATM    7  C17 UNL     1      -2.952  -1.463  -0.249  1.00  0.00     0.698 A 
HETATM    8  N12 UNL     1      -1.611  -1.544  -0.321  1.00  0.00    -0.021 N 
ATOM      9  H12 UNL     1      -1.182  -2.461  -0.448  1.00  0.00     0.203 HD
ENDROOT
BRANCH   1  10
HETATM   10  N5  UNL     1       0.632  -0.627  -0.318  1.00  0.00    -0.021 N 
ATOM     11  H5  UNL     1       1.064  -1.508  -0.595  1.00  0.00     0.203 HD
BRANCH  10  12
HETATM   12  C8  UNL     1       1.351   0.436  -0.016  1.00  0.00     0.712 A 
HETATM   13  N4  UNL     1       0.767   1.579   0.345  1.00  0.00    -0.186 N 
HETATM   14  C7  UNL     1       1.493   2.649   0.636  1.00  0.00     0.215 A 
ATOM     15  H4  UNL     1      -0.250   1.631   0.398  1.00  0.00     0.185 HD
HETATM   16  N3  UNL     1       2.822   2.604   0.574  1.00  0.00    -0.186 N 
HETATM   17  C6  UNL     1       3.497   1.449   0.206  1.00  0.00     0.699 A 
ATOM     18  H3  UNL     1       3.358   3.441   0.803  1.00  0.00     0.185 HD
HETATM   19  N2  UNL     1       4.720   1.514   0.177  1.00  0.00    -0.175 N 
HETATM   20  N13 UNL     1       2.691   0.395  -0.077  1.00  0.00    -0.021 N 
ATOM     21  H2  UNL     1       4.954   2.467   0.454  1.00  0.00     0.186 HD
ATOM     22  H13 UNL     1       3.131  -0.483  -0.353  1.00  0.00     0.203 HD
BRANCH  19  23
HETATM   23  C5  UNL     1       5.893   0.903  -0.053  1.00  0.00     0.139 A 
HETATM   24  C4  UNL     1       6.280  -0.412  -0.146  1.00  0.00     0.100 A 
HETATM   25  C3  UNL     1       7.651  -0.510  -0.394  1.00  0.00     0.126 A 
HETATM   26  N15 UNL     1       8.054   0.769  -0.444  1.00  0.00    -0.284 N 
HETATM   27  N14 UNL     1       7.076   1.600  -0.253  1.00  0.00    -0.283 N 
ATOM     28  H15 UNL     1       9.018   1.055  -0.613  1.00  0.00     0.188 HD
ATOM     29  H14 UNL     1       7.164   2.616  -0.250  1.00  0.00     0.188 HD
BRANCH  25  30
HETATM   30  N1  UNL     1       8.368  -1.584  -0.537  1.00  0.00    -0.312 N 
HETATM   31  C2  UNL     1       9.762  -1.399  -0.785  1.00  0.00     0.219 C 
HETATM   32  C1  UNL     1      10.618  -0.922   0.339  1.00  0.00     0.117 C 
HETATM   33  O1  UNL     1      10.240  -1.633  -1.913  1.00  0.00    -0.274 OA
ATOM     34  H1  UNL     1       7.955  -2.515  -0.475  1.00  0.00     0.170 HD
ENDBRANCH  25  30
ENDBRANCH  19  23
ENDBRANCH  10  12
ENDBRANCH   1  10
BRANCH   4  35
HETATM   35  N7  UNL     1      -3.168   1.986   0.185  1.00  0.00    -0.370 NA
BRANCH  35  36
HETATM   36  C11 UNL     1      -3.668   3.166   0.369  1.00  0.00     0.111 A 
HETATM   37  C12 UNL     1      -5.055   3.394   0.201  1.00  0.00     0.047 A 
HETATM   38  C13 UNL     1      -5.604   4.622   0.397  1.00  0.00     0.039 A 
HETATM   39  C14 UNL     1      -4.840   5.693   0.767  1.00  0.00     0.103 A 
HETATM   40  C15 UNL     1      -3.492   5.507   0.938  1.00  0.00     0.039 A 
HETATM   41  C16 UNL     1      -2.895   4.304   0.755  1.00  0.00     0.047 A 
BRANCH  39  42
HETATM   42  N8  UNL     1      -5.473   6.942   0.960  1.00  0.00    -0.116 N 
HETATM   43  O2  UNL     1      -6.693   7.087   0.803  1.00  0.00    -0.532 OA
HETATM   44  O3  UNL     1      -4.718   8.020   1.332  1.00  0.00    -0.532 OA
ENDBRANCH  39  42
ENDBRANCH  35  36
ENDBRANCH   4  35
BRANCH   7  45
HETATM   45  N10 UNL     1      -3.836  -2.582  -0.352  1.00  0.00    -0.213 N 
HETATM   46  C18 UNL     1      -4.598  -3.029   0.821  1.00  0.00     0.168 C 
HETATM   47  C19 UNL     1      -4.185  -4.436   1.138  1.00  0.00     0.253 C 
HETATM   48  N11 UNL     1      -3.287  -4.975   0.134  1.00  0.00    -0.068 N 
HETATM   49  C20 UNL     1      -3.741  -4.789  -1.218  1.00  0.00     0.200 C 
ATOM     50 2H11 UNL     1      -2.348  -4.594   0.252  1.00  0.00     0.277 HD
ATOM     51 1H11 UNL     1      -3.097  -5.961   0.316  1.00  0.00     0.277 HD
HETATM   52  C21 UNL     1      -4.960  -5.662  -1.453  1.00  0.00     0.041 C 
HETATM   53  C22 UNL     1      -4.050  -3.346  -1.553  1.00  0.00     0.173 C 
ENDBRANCH   7  45
TORSDOF 8
