REMARK  4 active torsions:
REMARK  status: ('A' for Active; 'I' for Inactive)
REMARK       I    between atoms: C1_4  and  N2_5 
REMARK       I    between atoms: C1_4  and  N3_13 
REMARK    1  A    between atoms: N2_5  and  C2_7 
REMARK    2  A    between atoms: C10_16  and  N4_17 
REMARK       I    between atoms: N4_17  and  C11_19 
REMARK    3  A    between atoms: C11_19  and  C12_21 
REMARK    4  A    between atoms: C13_22  and  C14_23 
ROOT
HETATM    1  N1  UNL     1      -0.648   1.780   1.635  1.00  0.00    -0.235 N 
ATOM      2  H11 UNL     1       0.207   1.636   2.172  1.00  0.00     0.174 HD
ATOM      3  H12 UNL     1      -1.376   2.381   2.021  1.00  0.00     0.174 HD
HETATM    4  C1  UNL     1      -0.742   1.184   0.501  1.00  0.00     0.670 C 
HETATM    5  N2  UNL     1      -1.932   1.384  -0.246  1.00  0.00    -0.222 N 
ATOM      6  H2  UNL     1      -1.894   1.958  -1.088  1.00  0.00     0.178 HD
HETATM    7  N3  UNL     1       0.270   0.348  -0.035  1.00  0.00    -0.216 N 
HETATM    8  C8  UNL     1       0.893   0.395  -1.346  1.00  0.00     0.143 C 
HETATM    9  C9  UNL     1       1.388  -1.039  -1.542  1.00  0.00     0.047 C 
HETATM   10  C10 UNL     1       1.894  -1.369  -0.167  1.00  0.00     0.104 C 
HETATM   11  C15 UNL     1       0.852  -0.751   0.741  1.00  0.00     0.166 C 
ENDROOT
BRANCH   5  12
HETATM   12  C2  UNL     1      -3.200   0.800   0.147  1.00  0.00     0.099 C 
HETATM   13  C3  UNL     1      -4.246   1.223  -0.877  1.00  0.00     0.026 C 
HETATM   14  C4  UNL     1      -5.600   0.992  -0.199  1.00  0.00     0.002 C 
HETATM   15  C5  UNL     1      -5.609  -0.336   0.483  1.00  0.00     0.000 C 
HETATM   16  C6  UNL     1      -4.541  -1.278  -0.002  1.00  0.00     0.002 C 
HETATM   17  C7  UNL     1      -3.160  -0.722   0.073  1.00  0.00     0.026 C 
ENDBRANCH   5  12
BRANCH  10  18
HETATM   18  N4  UNL     1       3.156  -0.690   0.016  1.00  0.00    -0.351 N 
HETATM   19  C11 UNL     1       4.339  -1.383   0.385  1.00  0.00     0.241 C 
HETATM   20  O1  UNL     1       4.290  -2.644   0.562  1.00  0.00    -0.269 OA
ATOM     21  H4  UNL     1       3.198   0.319  -0.124  1.00  0.00     0.163 HD
BRANCH  19  22
HETATM   22  C12 UNL     1       5.598  -0.702   0.567  1.00  0.00     0.081 C 
HETATM   23  C13 UNL     1       5.764   0.595   0.410  1.00  0.00     0.090 C 
BRANCH  23  24
HETATM   24  C14 UNL     1       7.071   1.209   0.613  1.00  0.00     0.198 C 
HETATM   25  O2  UNL     1       7.278   2.439   0.475  1.00  0.00    -0.645 OA
HETATM   26  O3  UNL     1       8.168   0.425   0.977  1.00  0.00    -0.645 OA
ENDBRANCH  23  24
ENDBRANCH  19  22
ENDBRANCH  10  18
TORSDOF 4
