REMARK  4 active torsions:
REMARK  status: ('A' for Active; 'I' for Inactive)
REMARK       I    between atoms: N1_2  and  C2_4 
REMARK    1  A    between atoms: N3_6  and  C3_8 
REMARK    2  A    between atoms: C3_8  and  C4_9 
REMARK    3  A    between atoms: C4_9  and  C5_10 
REMARK       I    between atoms: N4_13  and  C8_14 
REMARK       I    between atoms: C8_14  and  N6_18 
REMARK    4  A    between atoms: N6_18  and  C9_20 
ROOT
HETATM    1  C5  UNL     1      -1.816  -0.864   0.378  1.00  0.00    -0.010 C 
HETATM    2  C6  UNL     1      -1.210  -0.758  -0.999  1.00  0.00     0.025 C 
HETATM    3  C7  UNL     1       0.225  -0.294  -0.932  1.00  0.00     0.141 C 
HETATM    4  N4  UNL     1       0.837  -0.539   0.340  1.00  0.00    -0.218 N 
HETATM    5  C8  UNL     1       1.820   0.356   0.838  1.00  0.00     0.670 C 
HETATM    6  N5  UNL     1       1.822   0.588   2.106  1.00  0.00    -0.235 N 
ATOM      7  H51 UNL     1       2.528   1.231   2.464  1.00  0.00     0.174 HD
ATOM      8  H52 UNL     1       1.132   0.131   2.702  1.00  0.00     0.174 HD
HETATM    9  N6  UNL     1       2.766   0.983   0.021  1.00  0.00    -0.222 N 
ATOM     10  H6  UNL     1       2.650   1.980  -0.158  1.00  0.00     0.178 HD
HETATM   11  C15 UNL     1       0.448  -1.686   1.092  1.00  0.00     0.141 C 
HETATM   12  C16 UNL     1      -1.027  -1.757   1.298  1.00  0.00     0.025 C 
ENDROOT
BRANCH   9  13
HETATM   13  C9  UNL     1       3.897   0.320  -0.589  1.00  0.00     0.099 C 
HETATM   14  C10 UNL     1       4.835  -0.299   0.387  1.00  0.00     0.026 C 
HETATM   15  C11 UNL     1       6.241  -0.221  -0.213  1.00  0.00     0.002 C 
HETATM   16  C12 UNL     1       6.698   1.231  -0.188  1.00  0.00     0.000 C 
HETATM   17  C13 UNL     1       5.659   2.068  -0.875  1.00  0.00     0.002 C 
HETATM   18  C14 UNL     1       4.617   1.228  -1.556  1.00  0.00     0.026 C 
ENDBRANCH   9  13
BRANCH   1  19
HETATM   19  C4  UNL     1      -3.215  -1.366   0.330  1.00  0.00     0.024 C 
BRANCH  19  20
HETATM   20  C3  UNL     1      -4.160  -0.507  -0.460  1.00  0.00     0.122 C 
BRANCH  20  21
HETATM   21  N3  UNL     1      -5.478  -1.111  -0.422  1.00  0.00    -0.365 N 
HETATM   22  C2  UNL     1      -6.548  -0.428  -0.255  1.00  0.00     0.183 C 
HETATM   23  N1  UNL     1      -6.457   0.971  -0.099  1.00  0.00    -0.369 N 
HETATM   24  N2  UNL     1      -7.804  -1.071  -0.227  1.00  0.00    -0.064 NA
HETATM   25  C1  UNL     1      -6.431   1.647   1.185  1.00  0.00     0.148 C 
ATOM     26  H1  UNL     1      -6.406   1.544  -0.942  1.00  0.00     0.161 HD
ATOM     27  H3  UNL     1      -5.556  -2.122  -0.533  1.00  0.00     0.162 HD
ENDBRANCH  20  21
ENDBRANCH  19  20
ENDBRANCH   1  19
TORSDOF 4
