REMARK  5 active torsions:
REMARK  status: ('A' for Active; 'I' for Inactive)
REMARK       I    between atoms: C1_4  and  N2_5 
REMARK       I    between atoms: C1_4  and  N5_10 
REMARK    1  A    between atoms: N5_10  and  O1_12 
REMARK    2  A    between atoms: O1_12  and  C3_13 
REMARK    3  A    between atoms: C3_13  and  C4_14 
REMARK    4  A    between atoms: C4_14  and  C15_25 
REMARK    5  A    between atoms: C11_21  and  C13_23 
ROOT
HETATM    1  C4  UNL     1      -0.725  -0.651  -0.068  1.00  0.00    -0.012 C 
HETATM    2  C5  UNL     1      -0.646   0.148   1.177  1.00  0.00     0.017 C 
HETATM    3  C6  UNL     1      -1.823   0.965   1.542  1.00  0.00    -0.013 C 
HETATM    4  C7  UNL     1      -1.908   2.296   0.839  1.00  0.00     0.005 C 
HETATM    5  C8  UNL     1      -2.045   2.285  -0.606  1.00  0.00     0.005 C 
HETATM    6  C9  UNL     1      -2.276   0.949  -1.273  1.00  0.00    -0.013 C 
HETATM    7  C10 UNL     1      -3.527   0.294  -0.864  1.00  0.00     0.010 C 
HETATM    8  C11 UNL     1      -3.545  -0.484   0.392  1.00  0.00    -0.009 C 
HETATM    9  C12 UNL     1      -3.113   0.240   1.612  1.00  0.00     0.010 C 
HETATM   10  C16 UNL     1      -1.052   0.132  -1.296  1.00  0.00     0.017 C 
ENDROOT
BRANCH   1  11
HETATM   11  C3  UNL     1       0.740  -1.094  -0.320  1.00  0.00     0.211 C 
BRANCH  11  12
HETATM   12  O1  UNL     1       1.472   0.058  -0.455  1.00  0.00    -0.266 OA
BRANCH  12  13
HETATM   13  N5  UNL     1       2.766  -0.129  -0.679  1.00  0.00    -0.097 N 
HETATM   14  C1  UNL     1       3.635  -0.438   0.390  1.00  0.00     0.697 C 
HETATM   15  N1  UNL     1       3.360  -0.248   1.633  1.00  0.00    -0.233 N 
HETATM   16  N2  UNL     1       4.928  -1.006   0.117  1.00  0.00    -0.164 N 
ATOM     17  H12 UNL     1       3.988  -0.471   2.405  1.00  0.00     0.174 HD
ATOM     18  H11 UNL     1       2.443   0.155   1.827  1.00  0.00     0.174 HD
HETATM   19  C2  UNL     1       5.925  -0.172   0.057  1.00  0.00     0.215 C 
ATOM     20  H2  UNL     1       5.056  -2.008  -0.022  1.00  0.00     0.186 HD
HETATM   21  N3  UNL     1       7.207  -0.746  -0.215  1.00  0.00    -0.066 NA
HETATM   22  N4  UNL     1       5.774   1.225   0.247  1.00  0.00    -0.066 NA
ATOM     23  H5  UNL     1       3.134  -0.049  -1.627  1.00  0.00     0.213 HD
ENDBRANCH  12  13
ENDBRANCH  11  12
ENDBRANCH   1  11
BRANCH   1  24
HETATM   24  C15 UNL     1      -1.495  -1.918   0.090  1.00  0.00     0.001 A 
HETATM   25  C13 UNL     1      -2.914  -1.847   0.315  1.00  0.00    -0.005 A 
HETATM   26  C14 UNL     1      -2.426  -2.397  -0.978  1.00  0.00     0.011 A 
ENDBRANCH   1  24
TORSDOF 5
