REMARK  4 active torsions:
REMARK  status: ('A' for Active; 'I' for Inactive)
REMARK    1  A    between atoms: C2_2  and  C3_3 
REMARK       I    between atoms: N1_6  and  C6_7 
REMARK       I    between atoms: C6_7  and  N5_15 
REMARK       I    between atoms: N2_8  and  C7_10 
REMARK    2  A    between atoms: N5_15  and  C8_17 
REMARK    3  A    between atoms: C8_17  and  C9_18 
REMARK    4  A    between atoms: C9_18  and  C10_19 
ROOT
HETATM    1  C3  UNL     1      -4.631   0.197  -0.427  1.00  0.00    -0.012 C 
HETATM    2  C4  UNL     1      -4.101  -0.380   0.846  1.00  0.00     0.025 C 
HETATM    3  C5  UNL     1      -3.002  -1.422   0.605  1.00  0.00     0.141 C 
HETATM    4  N1  UNL     1      -1.958  -0.772  -0.116  1.00  0.00    -0.218 N 
HETATM    5  C6  UNL     1      -0.581  -0.734   0.241  1.00  0.00     0.678 C 
HETATM    6  N2  UNL     1       0.046  -1.742   0.676  1.00  0.00    -0.164 N 
ATOM      7  H2  UNL     1       1.029  -1.579   0.895  1.00  0.00     0.187 HD
HETATM    8  C7  UNL     1      -0.402  -3.042   0.902  1.00  0.00     0.200 C 
HETATM    9  N3  UNL     1      -0.867  -3.735  -0.080  1.00  0.00    -0.373 N 
ATOM     10  H31 UNL     1      -1.195  -4.687   0.085  1.00  0.00     0.158 HD
ATOM     11  H32 UNL     1      -0.899  -3.307  -1.005  1.00  0.00     0.158 HD
HETATM   12  N4  UNL     1      -0.358  -3.639   2.192  1.00  0.00    -0.063 NA
HETATM   13  N5  UNL     1       0.130   0.496   0.102  1.00  0.00    -0.226 N 
ATOM     14  H5  UNL     1      -0.258   1.320   0.562  1.00  0.00     0.177 HD
HETATM   15  C15 UNL     1      -2.311  -0.067  -1.341  1.00  0.00     0.141 C 
HETATM   16  C16 UNL     1      -3.781  -0.153  -1.623  1.00  0.00     0.025 C 
ENDROOT
BRANCH  13  17
HETATM   17  C8  UNL     1       1.352   0.661  -0.638  1.00  0.00     0.138 C 
BRANCH  17  18
HETATM   18  C9  UNL     1       2.544  -0.011  -0.033  1.00  0.00     0.025 C 
BRANCH  18  19
HETATM   19  C10 UNL     1       3.798   0.207  -0.868  1.00  0.00    -0.010 C 
HETATM   20  C11 UNL     1       4.929  -0.508  -0.171  1.00  0.00     0.032 C 
HETATM   21  C12 UNL     1       5.348   0.198   1.090  1.00  0.00     0.232 C 
HETATM   22  N6  UNL     1       5.600   1.580   0.818  1.00  0.00    -0.075 N 
HETATM   23  C13 UNL     1       5.579   1.903  -0.582  1.00  0.00     0.232 C 
ATOM     24  H62 UNL     1       4.951   2.174   1.335  1.00  0.00     0.277 HD
ATOM     25  H61 UNL     1       6.478   1.877   1.244  1.00  0.00     0.277 HD
HETATM   26  C14 UNL     1       4.145   1.645  -1.054  1.00  0.00     0.032 C 
ENDBRANCH  18  19
ENDBRANCH  17  18
ENDBRANCH  13  17
BRANCH   1  27
HETATM   27  C2  UNL     1      -4.671   1.722  -0.333  1.00  0.00     0.000 C 
HETATM   28  C1  UNL     1      -5.568   2.156   0.807  1.00  0.00     0.005 C 
ENDBRANCH   1  27
TORSDOF 4
