REMARK  10 active torsions:
REMARK  status: ('A' for Active; 'I' for Inactive)
REMARK    1  A    between atoms: C2_2  and  C3_3 
REMARK    2  A    between atoms: C3_3  and  C4_4 
REMARK    3  A    between atoms: C4_4  and  C5_5 
REMARK    4  A    between atoms: C6_6  and  C7_7 
REMARK    5  A    between atoms: C7_7  and  C8_8 
REMARK    6  A    between atoms: C8_8  and  N1_9 
REMARK    7  A    between atoms: C8_8  and  N2_12 
REMARK    8  A    between atoms: N2_12  and  C9_14 
REMARK    9  A    between atoms: C13_27  and  C14_28 
REMARK   10  A    between atoms: N8_35  and  C18_36 
ROOT
HETATM    1  C9  UNL     1      -0.302  -0.457  -1.375  1.00  0.00     0.153 A 
HETATM    2  N3  UNL     1      -0.230  -1.377  -2.353  1.00  0.00    -0.174 N 
ATOM      3  H3  UNL     1       0.660  -1.505  -2.834  1.00  0.00     0.186 HD
HETATM    4  C10 UNL     1      -1.278  -2.140  -2.729  1.00  0.00     0.679 A 
HETATM    5  N4  UNL     1      -1.156  -3.023  -3.689  1.00  0.00    -0.234 N 
ATOM      6  H41 UNL     1      -1.948  -3.600  -3.973  1.00  0.00     0.174 HD
ATOM      7  H42 UNL     1      -0.268  -3.154  -4.174  1.00  0.00     0.174 HD
HETATM    8  N5  UNL     1      -2.449  -1.967  -2.090  1.00  0.00    -0.174 N 
ATOM      9  H5  UNL     1      -3.247  -2.539  -2.367  1.00  0.00     0.186 HD
HETATM   10  C11 UNL     1      -2.609  -1.072  -1.103  1.00  0.00     0.155 A 
HETATM   11  C12 UNL     1      -1.513  -0.297  -0.734  1.00  0.00     0.124 A 
HETATM   12  N6  UNL     1      -1.911   0.516   0.262  1.00  0.00    -0.338 N 
ATOM     13  H6  UNL     1      -1.320   1.200   0.736  1.00  0.00     0.167 HD
HETATM   14  C13 UNL     1      -3.219   0.286   0.539  1.00  0.00     0.117 A 
HETATM   15  N8  UNL     1      -3.611  -0.673  -0.297  1.00  0.00    -0.314 N 
ENDROOT
BRANCH   1  16
HETATM   16  N2  UNL     1       0.673   0.286  -0.991  1.00  0.00    -0.330 N 
ATOM     17  H2  UNL     1       0.493   0.948  -0.236  1.00  0.00     0.168 HD
BRANCH  16  18
HETATM   18  C8  UNL     1       1.969   0.255  -1.533  1.00  0.00     0.079 C 
BRANCH  18  19
HETATM   19  C7  UNL     1       2.915  -0.777  -0.975  1.00  0.00     0.103 C 
BRANCH  19  20
HETATM   20  C6  UNL     1       3.125  -0.591   0.466  1.00  0.00    -0.023 C 
HETATM   21  C5  UNL     1       4.264  -0.354   1.074  1.00  0.00    -0.030 C 
BRANCH  21  22
HETATM   22  C4  UNL     1       5.584  -0.224   0.416  1.00  0.00     0.027 C 
BRANCH  22  23
HETATM   23  C3  UNL     1       6.124   1.165   0.719  1.00  0.00     0.003 C 
BRANCH  23  24
HETATM   24  C2  UNL     1       7.472   1.272   0.036  1.00  0.00    -0.004 C 
HETATM   25  C1  UNL     1       8.361   0.192   0.609  1.00  0.00     0.005 C 
ENDBRANCH  23  24
ENDBRANCH  22  23
ENDBRANCH  21  22
ENDBRANCH  19  20
ENDBRANCH  18  19
BRANCH  18  26
HETATM   26  N1  UNL     1       2.325   1.065  -2.457  1.00  0.00    -0.389 N 
ATOM     27  H12 UNL     1       3.266   1.042  -2.850  1.00  0.00     0.157 HD
ATOM     28  H11 UNL     1       1.685   1.763  -2.835  1.00  0.00     0.157 HD
ENDBRANCH  18  26
ENDBRANCH  16  18
ENDBRANCH   1  16
BRANCH  15  29
HETATM   29  C18 UNL     1      -4.938  -1.247  -0.367  1.00  0.00     0.093 A 
HETATM   30  C19 UNL     1      -5.425  -2.015   0.900  1.00  0.00     0.028 A 
HETATM   31  C20 UNL     1      -4.971  -2.795  -0.269  1.00  0.00     0.028 A 
ENDBRANCH  15  29
BRANCH  14  32
HETATM   32  C14 UNL     1      -3.999   0.999   1.581  1.00  0.00     0.253 C 
HETATM   33  C15 UNL     1      -3.241   2.261   2.003  1.00  0.00     0.042 C 
HETATM   34  C16 UNL     1      -4.001   3.321   1.195  1.00  0.00     0.030 C 
HETATM   35  C17 UNL     1      -5.424   2.837   1.377  1.00  0.00     0.233 C 
HETATM   36  N7  UNL     1      -5.288   1.413   1.133  1.00  0.00    -0.064 N 
ATOM     37  H72 UNL     1      -5.463   1.164   0.159  1.00  0.00     0.278 HD
ATOM     38  H71 UNL     1      -6.042   0.870   1.554  1.00  0.00     0.278 HD
ENDBRANCH  14  32
TORSDOF 10
