REMARK  10 active torsions:
REMARK  status: ('A' for Active; 'I' for Inactive)
REMARK    1  A    between atoms: C2_2  and  C3_3 
REMARK    2  A    between atoms: C3_3  and  C4_4 
REMARK    3  A    between atoms: C4_4  and  C5_5 
REMARK    4  A    between atoms: C5_5  and  C6_6 
REMARK    5  A    between atoms: C6_6  and  O1_7 
REMARK    6  A    between atoms: C14_16  and  C15_17 
REMARK    7  A    between atoms: C16_18  and  O2_19 
REMARK    8  A    between atoms: C16_18  and  C17_21 
REMARK    9  A    between atoms: N2_23  and  O3_25 
REMARK   10  A    between atoms: C18_27  and  C19_28 
ROOT
HETATM    1  C5  UNL     1      -1.493   0.493  -0.631  1.00  0.00    -0.018 C 
HETATM    2  C7  UNL     1      -2.047  -0.838  -1.014  1.00  0.00     0.012 C 
HETATM    3  C8  UNL     1      -1.039  -1.863  -1.457  1.00  0.00     0.010 C 
HETATM    4  C9  UNL     1       0.170  -2.003  -0.640  1.00  0.00     0.024 C 
HETATM    5  C10 UNL     1       0.347  -3.292   0.072  1.00  0.00    -0.024 C 
HETATM    6  C11 UNL     1       1.536  -3.410   0.706  1.00  0.00    -0.025 C 
HETATM    7  C12 UNL     1       2.458  -2.272   0.599  1.00  0.00     0.012 C 
HETATM    8  C13 UNL     1       3.582  -2.347   1.621  1.00  0.00     0.015 C 
HETATM    9  C14 UNL     1       1.831  -0.915   0.725  1.00  0.00     0.034 C 
HETATM   10  C18 UNL     1       0.357  -0.914   0.387  1.00  0.00     0.028 C 
HETATM   11  C20 UNL     1      -0.075   0.422  -0.092  1.00  0.00     0.029 C 
ENDROOT
BRANCH   9  12
HETATM   12  C15 UNL     1       2.624  -0.011  -0.143  1.00  0.00     0.020 C 
HETATM   13  C16 UNL     1       3.327   0.998   0.305  1.00  0.00     0.105 C 
BRANCH  13  14
HETATM   14  O2  UNL     1       3.395   1.318   1.653  1.00  0.00    -0.358 OA
ATOM     15  H2  UNL     1       3.905   2.050   1.978  1.00  0.00     0.217 HD
ENDBRANCH  13  14
BRANCH  13  16
HETATM   16  C17 UNL     1       4.074   1.832  -0.626  1.00  0.00     0.168 C 
HETATM   17  N1  UNL     1       4.857   2.943  -0.193  1.00  0.00    -0.078 NA
HETATM   18  N2  UNL     1       4.049   1.581  -1.906  1.00  0.00    -0.253 N 
ATOM     19  H2  UNL     1       3.498   0.793  -2.246  1.00  0.00     0.195 HD
BRANCH  18  20
HETATM   20  O3  UNL     1       4.739   2.344  -2.802  1.00  0.00    -0.288 OA
ATOM     21  H3  UNL     1       4.721   2.161  -3.734  1.00  0.00     0.244 HD
ENDBRANCH  18  20
ENDBRANCH  13  16
ENDBRANCH   9  12
BRANCH  10  22
HETATM   22  C19 UNL     1      -0.348  -1.203   1.659  1.00  0.00     0.242 C 
HETATM   23  O4  UNL     1      -1.041  -2.149   1.885  1.00  0.00    -0.306 OA
ENDBRANCH  10  22
BRANCH   1  24
HETATM   24  C4  UNL     1      -2.333   1.155   0.362  1.00  0.00     0.012 C 
BRANCH  24  25
HETATM   25  C3  UNL     1      -3.727   1.518   0.189  1.00  0.00     0.000 C 
BRANCH  25  26
HETATM   26  C2  UNL     1      -4.761   0.483  -0.063  1.00  0.00    -0.005 C 
HETATM   27  C1  UNL     1      -6.151   1.158  -0.182  1.00  0.00     0.005 C 
ENDBRANCH  25  26
ENDBRANCH  24  25
ENDBRANCH   1  24
BRANCH   1  28
HETATM   28  C6  UNL     1      -1.339   1.264  -1.950  1.00  0.00     0.173 C 
BRANCH  28  29
HETATM   29  O1  UNL     1      -0.780   2.498  -1.781  1.00  0.00    -0.400 OA
ATOM     30  H1  UNL     1      -0.685   2.975  -2.597  1.00  0.00     0.209 HD
ENDBRANCH  28  29
ENDBRANCH   1  28
TORSDOF 10
