REMARK  10 active torsions:
REMARK  status: ('A' for Active; 'I' for Inactive)
REMARK    1  A    between atoms: C2_2  and  C3_3 
REMARK    2  A    between atoms: C3_3  and  C4_4 
REMARK    3  A    between atoms: C4_4  and  C5_5 
REMARK    4  A    between atoms: C5_5  and  C6_6 
REMARK    5  A    between atoms: C6_6  and  N1_7 
REMARK       I    between atoms: N1_7  and  C7_9 
REMARK    6  A    between atoms: C7_9  and  C8_11 
REMARK    7  A    between atoms: C9_14  and  O2_15 
REMARK    8  A    between atoms: C10_17  and  S1_18 
REMARK    9  A    between atoms: S1_18  and  N3_21 
REMARK   10  A    between atoms: C16_27  and  O5_28 
ROOT
HETATM    1  C8  UNL     1      -0.334   0.906  -1.145  1.00  0.00     0.138 A 
HETATM    2  N2  UNL     1      -0.726   2.044  -0.555  1.00  0.00    -0.329 N 
ATOM      3  H2  UNL     1      -0.107   2.693  -0.069  1.00  0.00     0.168 HD
HETATM    4  C9  UNL     1      -2.056   2.207  -0.696  1.00  0.00     0.167 A 
HETATM    5  C10 UNL     1      -2.567   1.141  -1.404  1.00  0.00     0.160 A 
HETATM    6  C16 UNL     1      -1.455   0.330  -1.677  1.00  0.00     0.125 A 
ENDROOT
BRANCH   1   7
HETATM    7  C7  UNL     1       1.049   0.383  -1.202  1.00  0.00     0.271 C 
HETATM    8  N1  UNL     1       2.086   1.107  -0.600  1.00  0.00    -0.356 N 
ATOM      9  H1  UNL     1       1.858   1.987  -0.137  1.00  0.00     0.162 HD
HETATM   10  O1  UNL     1       1.299  -0.698  -1.784  1.00  0.00    -0.266 OA
BRANCH   8  11
HETATM   11  C6  UNL     1       3.458   0.671  -0.602  1.00  0.00     0.123 C 
BRANCH  11  12
HETATM   12  C5  UNL     1       3.655  -0.643   0.107  1.00  0.00     0.020 C 
BRANCH  12  13
HETATM   13  C4  UNL     1       5.108  -1.045   0.058  1.00  0.00     0.002 C 
BRANCH  13  14
HETATM   14  C3  UNL     1       6.003  -0.049   0.717  1.00  0.00    -0.000 C 
BRANCH  14  15
HETATM   15  C2  UNL     1       7.460  -0.489   0.666  1.00  0.00    -0.005 C 
HETATM   16  C1  UNL     1       7.836  -0.624  -0.795  1.00  0.00     0.005 C 
ENDBRANCH  14  15
ENDBRANCH  13  14
ENDBRANCH  12  13
ENDBRANCH  11  12
ENDBRANCH   8  11
ENDBRANCH   1   7
BRANCH   6  17
HETATM   17  O5  UNL     1      -1.574  -0.837  -2.374  1.00  0.00    -0.357 OA
ATOM     18  H5  UNL     1      -2.352  -1.237  -2.743  1.00  0.00     0.218 HD
ENDBRANCH   6  17
BRANCH   4  19
HETATM   19  O2  UNL     1      -2.780   3.289  -0.198  1.00  0.00    -0.345 OA
ATOM     20  H2  UNL     1      -3.718   3.404  -0.297  1.00  0.00     0.219 HD
ENDBRANCH   4  19
BRANCH   5  21
HETATM   21  S1  UNL     1      -4.232   0.848  -1.869  1.00  0.00     0.250 S 
HETATM   22  O3  UNL     1      -4.210  -0.007  -3.128  1.00  0.00    -0.205 OA
HETATM   23  O4  UNL     1      -4.956   2.100  -2.217  1.00  0.00    -0.205 OA
BRANCH  21  24
HETATM   24  N3  UNL     1      -5.084  -0.051  -0.671  1.00  0.00    -0.206 NA
HETATM   25  C11 UNL     1      -5.104   0.716   0.555  1.00  0.00     0.107 C 
HETATM   26  C12 UNL     1      -6.114   0.092   1.492  1.00  0.00     0.015 C 
HETATM   27  C13 UNL     1      -6.490  -1.284   0.994  1.00  0.00     0.002 C 
HETATM   28  C14 UNL     1      -5.216  -2.028   0.661  1.00  0.00     0.015 C 
HETATM   29  C15 UNL     1      -4.492  -1.343  -0.465  1.00  0.00     0.107 C 
ENDBRANCH  21  24
ENDBRANCH   5  21
TORSDOF 10
