REMARK  10 active torsions:
REMARK  status: ('A' for Active; 'I' for Inactive)
REMARK    1  A    between atoms: C5_5  and  O1_6 
REMARK    2  A    between atoms: C6_8  and  C7_9 
REMARK    3  A    between atoms: C7_9  and  O2_11 
REMARK    4  A    between atoms: C11_15  and  C12_16 
REMARK    5  A    between atoms: C12_16  and  C13_17 
REMARK    6  A    between atoms: C14_18  and  C15_19 
REMARK    7  A    between atoms: C15_19  and  C16_20 
REMARK    8  A    between atoms: C17_21  and  C18_22 
REMARK    9  A    between atoms: C18_22  and  C19_23 
REMARK   10  A    between atoms: C19_23  and  O3_24 
ROOT
HETATM    1  C12 UNL     1      -0.756   0.439   0.873  1.00  0.00     0.032 C 
ENDROOT
BRANCH   1   2
HETATM    2  C11 UNL     1      -1.851   0.081  -0.075  1.00  0.00     0.000 C 
HETATM    3  C4  UNL     1      -2.412   1.306  -0.728  1.00  0.00     0.020 C 
HETATM    4  C3  UNL     1      -3.349   0.820  -1.843  1.00  0.00     0.012 C 
HETATM    5  C5  UNL     1      -3.267   1.895   0.412  1.00  0.00     0.129 C 
HETATM    6  C2  UNL     1      -3.569  -0.655  -1.825  1.00  0.00    -0.018 C 
HETATM    7  C1  UNL     1      -4.795  -0.924  -2.707  1.00  0.00     0.010 C 
HETATM    8  C10 UNL     1      -3.944  -1.095  -0.420  1.00  0.00     0.010 C 
HETATM    9  C9  UNL     1      -3.107  -0.454   0.630  1.00  0.00    -0.000 C 
HETATM   10  C6  UNL     1      -3.638   0.761   1.281  1.00  0.00     0.048 C 
BRANCH  10  11
HETATM   11  C7  UNL     1      -5.052   0.745   1.753  1.00  0.00     0.121 C 
HETATM   12  C8  UNL     1      -5.415  -0.418   2.615  1.00  0.00     0.040 C 
BRANCH  11  13
HETATM   13  O2  UNL     1      -6.028   0.946   0.818  1.00  0.00    -0.395 OA
ATOM     14  H2  UNL     1      -6.929   0.936   1.119  1.00  0.00     0.210 HD
ENDBRANCH  11  13
ENDBRANCH  10  11
BRANCH   5  15
HETATM   15  O1  UNL     1      -4.323   2.541  -0.202  1.00  0.00    -0.395 OA
ATOM     16  H1  UNL     1      -4.850   2.904   0.500  1.00  0.00     0.210 HD
ENDBRANCH   5  15
ENDBRANCH   1   2
BRANCH   1  17
HETATM   17  C13 UNL     1       0.360   1.120   0.167  1.00  0.00    -0.030 C 
HETATM   18  C14 UNL     1       1.591   0.701   0.090  1.00  0.00    -0.027 C 
BRANCH  18  19
HETATM   19  C15 UNL     1       2.083  -0.543   0.701  1.00  0.00     0.053 C 
BRANCH  19  20
HETATM   20  C16 UNL     1       2.642  -1.464  -0.349  1.00  0.00    -0.027 C 
HETATM   21  C17 UNL     1       3.864  -1.896  -0.384  1.00  0.00    -0.027 C 
BRANCH  21  22
HETATM   22  C18 UNL     1       4.938  -1.581   0.578  1.00  0.00     0.066 C 
BRANCH  22  23
HETATM   23  C19 UNL     1       6.077  -0.906  -0.170  1.00  0.00     0.086 C 
HETATM   24  C20 UNL     1       7.163  -0.607   0.849  1.00  0.00     0.067 C 
HETATM   25  C21 UNL     1       7.002   0.879   1.060  1.00  0.00     0.235 C 
HETATM   26  N1  UNL     1       6.769   1.346  -0.314  1.00  0.00    -0.072 N 
HETATM   27  C22 UNL     1       5.653   0.454  -0.676  1.00  0.00     0.270 C 
ATOM     28  H12 UNL     1       6.602   2.346  -0.428  1.00  0.00     0.277 HD
ATOM     29  H11 UNL     1       7.576   1.334  -0.937  1.00  0.00     0.277 HD
BRANCH  23  30
HETATM   30  O3  UNL     1       6.588  -1.723  -1.159  1.00  0.00    -0.388 OA
ATOM     31  H3  UNL     1       7.300  -1.301  -1.626  1.00  0.00     0.210 HD
ENDBRANCH  23  30
ENDBRANCH  22  23
ENDBRANCH  21  22
ENDBRANCH  19  20
ENDBRANCH  18  19
ENDBRANCH   1  17
TORSDOF 10
