REMARK  9 active torsions:
REMARK  status: ('A' for Active; 'I' for Inactive)
REMARK    1  A    between atoms: C2_2  and  C3_3 
REMARK    2  A    between atoms: C7_7  and  C8_8 
REMARK    3  A    between atoms: C10_10  and  C11_11 
REMARK    4  A    between atoms: C11_11  and  O1_12 
REMARK    5  A    between atoms: C11_11  and  C12_14 
REMARK    6  A    between atoms: C12_14  and  O2_16 
REMARK    7  A    between atoms: C12_14  and  C14_18 
REMARK    8  A    between atoms: N1_23  and  O3_25 
REMARK    9  A    between atoms: C23_31  and  O4_32 
ROOT
HETATM    1  C12 UNL     1      -0.019   0.436  -0.414  1.00  0.00     0.086 C 
HETATM    2  C13 UNL     1      -0.112  -0.167  -1.766  1.00  0.00     0.049 C 
ENDROOT
BRANCH   1   3
HETATM    3  C11 UNL     1      -0.938  -0.205   0.604  1.00  0.00     0.158 C 
BRANCH   3   4
HETATM    4  C10 UNL     1      -2.382  -0.175   0.351  1.00  0.00     0.033 C 
HETATM    5  C3  UNL     1      -3.202   1.013   0.253  1.00  0.00    -0.021 C 
HETATM    6  C4  UNL     1      -2.913   2.261   0.980  1.00  0.00     0.020 C 
HETATM    7  C5  UNL     1      -4.621   0.601   0.769  1.00  0.00     0.014 C 
HETATM    8  C6  UNL     1      -4.295  -0.379   1.867  1.00  0.00     0.006 C 
HETATM    9  C7  UNL     1      -3.152  -1.160   1.247  1.00  0.00    -0.007 C 
BRANCH   5  10
HETATM   10  C2  UNL     1      -3.468   1.370  -1.175  1.00  0.00    -0.027 C 
HETATM   11  C1  UNL     1      -4.012   2.475  -1.582  1.00  0.00     0.007 C 
ENDBRANCH   5  10
BRANCH   9  12
HETATM   12  C8  UNL     1      -3.675  -2.354   0.477  1.00  0.00     0.000 C 
HETATM   13  C9  UNL     1      -4.449  -3.296   1.369  1.00  0.00     0.005 C 
ENDBRANCH   9  12
ENDBRANCH   3   4
BRANCH   3  14
HETATM   14  O1  UNL     1      -0.588  -1.607   0.670  1.00  0.00    -0.392 OA
ATOM     15  H1  UNL     1       0.348  -1.626   0.834  1.00  0.00     0.210 HD
ENDBRANCH   3  14
ENDBRANCH   1   3
BRANCH   1  16
HETATM   16  O2  UNL     1      -0.391   1.774  -0.547  1.00  0.00    -0.387 OA
ATOM     17  H2  UNL     1       0.186   2.176  -1.186  1.00  0.00     0.210 HD
ENDBRANCH   1  16
BRANCH   1  18
HETATM   18  C14 UNL     1       1.431   0.427   0.118  1.00  0.00     0.051 C 
HETATM   19  C15 UNL     1       1.920  -0.945   0.350  1.00  0.00     0.016 C 
HETATM   20  C16 UNL     1       3.421  -1.094   0.267  1.00  0.00     0.000 C 
HETATM   21  C17 UNL     1       4.199  -0.480   1.349  1.00  0.00     0.065 C 
HETATM   22  C21 UNL     1       3.911  -0.581  -1.033  1.00  0.00     0.027 C 
HETATM   23  C18 UNL     1       5.443  -0.030   0.643  1.00  0.00     0.038 C 
HETATM   24  N1  UNL     1       6.410   0.620   1.184  1.00  0.00    -0.273 N 
HETATM   25  C19 UNL     1       5.384  -0.446  -0.753  1.00  0.00    -0.038 C 
ATOM     26  H1  UNL     1       6.347   0.860   2.173  1.00  0.00     0.194 HD
HETATM   27  C20 UNL     1       6.348  -0.667  -1.611  1.00  0.00     0.021 C 
HETATM   28  C22 UNL     1       3.343   0.712  -1.502  1.00  0.00     0.042 C 
HETATM   29  C23 UNL     1       2.361   1.344  -0.548  1.00  0.00     0.126 C 
BRANCH  24  30
HETATM   30  O3  UNL     1       7.519   1.002   0.484  1.00  0.00    -0.290 OA
ATOM     31  H3  UNL     1       8.234   1.483   0.884  1.00  0.00     0.244 HD
ENDBRANCH  24  30
BRANCH  29  32
HETATM   32  O4  UNL     1       1.823   2.429  -1.221  1.00  0.00    -0.395 OA
ATOM     33  H4  UNL     1       2.426   3.023  -1.653  1.00  0.00     0.210 HD
ENDBRANCH  29  32
ENDBRANCH   1  18
TORSDOF 9
