REMARK  10 active torsions:
REMARK  status: ('A' for Active; 'I' for Inactive)
REMARK    1  A    between atoms: C2_2  and  C3_4 
REMARK    2  A    between atoms: C3_4  and  O2_5 
REMARK    3  A    between atoms: C3_4  and  O3_7 
REMARK    4  A    between atoms: C3_4  and  C4_9 
REMARK    5  A    between atoms: C6_11  and  C7_12 
REMARK    6  A    between atoms: C7_12  and  C9_14 
REMARK    7  A    between atoms: C10_15  and  C11_16 
REMARK    8  A    between atoms: C12_17  and  C14_19 
REMARK    9  A    between atoms: C16_21  and  O4_22 
REMARK   10  A    between atoms: C18_25  and  O5_27 
ROOT
HETATM    1  C7  UNL     1      -1.531  -0.392  -0.071  1.00  0.00     0.012 C 
HETATM    2  C8  UNL     1      -1.334  -1.613   0.841  1.00  0.00     0.015 C 
ENDROOT
BRANCH   1   3
HETATM    3  C6  UNL     1      -2.398   0.548   0.667  1.00  0.00     0.019 C 
HETATM    4  C5  UNL     1      -3.700  -0.114   0.964  1.00  0.00    -0.012 C 
HETATM    5  C4  UNL     1      -4.621  -0.128   0.010  1.00  0.00    -0.014 C 
HETATM    6  C23 UNL     1      -4.385   0.476  -1.321  1.00  0.00     0.040 C 
HETATM    7  C22 UNL     1      -3.430   1.608  -1.351  1.00  0.00     0.009 C 
HETATM    8  C20 UNL     1      -2.774   1.823  -0.031  1.00  0.00    -0.010 C 
HETATM    9  C21 UNL     1      -1.690   2.859  -0.056  1.00  0.00     0.010 C 
BRANCH   5  10
HETATM   10  C3  UNL     1      -5.965  -0.797   0.285  1.00  0.00     0.248 C 
BRANCH  10  11
HETATM   11  C2  UNL     1      -6.156  -1.904  -0.676  1.00  0.00     0.189 C 
HETATM   12  C1  UNL     1      -7.278  -1.863  -1.622  1.00  0.00     0.097 C 
HETATM   13  O1  UNL     1      -5.384  -2.844  -0.679  1.00  0.00    -0.292 OA
ENDBRANCH  10  11
BRANCH  10  14
HETATM   14  O2  UNL     1      -6.943   0.181   0.128  1.00  0.00    -0.356 OA
ATOM     15  H2  UNL     1      -6.820   0.892   0.746  1.00  0.00     0.214 HD
ENDBRANCH  10  14
BRANCH  10  16
HETATM   16  O3  UNL     1      -6.020  -1.225   1.601  1.00  0.00    -0.356 OA
ATOM     17  H3  UNL     1      -5.897  -0.514   2.219  1.00  0.00     0.214 HD
ENDBRANCH  10  16
ENDBRANCH   5  10
ENDBRANCH   1   3
BRANCH   1  18
HETATM   18  C9  UNL     1      -0.199   0.092  -0.429  1.00  0.00    -0.022 C 
HETATM   19  C10 UNL     1       0.932  -0.442  -0.024  1.00  0.00    -0.003 C 
BRANCH  19  20
HETATM   20  C11 UNL     1       2.219   0.083  -0.414  1.00  0.00     0.003 C 
HETATM   21  C12 UNL     1       3.329  -0.493   0.021  1.00  0.00    -0.077 C 
HETATM   22  C13 UNL     1       3.232  -1.670   0.901  1.00  0.00     0.044 C 
BRANCH  21  23
HETATM   23  C14 UNL     1       4.609   0.103  -0.424  1.00  0.00     0.050 C 
HETATM   24  C15 UNL     1       5.469  -0.974  -1.055  1.00  0.00     0.044 C 
HETATM   25  C16 UNL     1       6.805  -0.260  -1.171  1.00  0.00     0.121 C 
HETATM   26  C17 UNL     1       6.839   0.725  -0.042  1.00  0.00     0.069 C 
HETATM   27  C18 UNL     1       5.485   0.603   0.672  1.00  0.00     0.064 C 
HETATM   28  C19 UNL     1       5.050   1.951   1.207  1.00  0.00     0.046 C 
BRANCH  25  29
HETATM   29  O4  UNL     1       7.812  -1.210  -1.074  1.00  0.00    -0.395 OA
ATOM     30  H4  UNL     1       8.647  -0.764  -1.147  1.00  0.00     0.210 HD
ENDBRANCH  25  29
BRANCH  27  31
HETATM   31  O5  UNL     1       5.553  -0.305   1.701  1.00  0.00    -0.389 OA
ATOM     32  H5  UNL     1       6.112   0.014   2.400  1.00  0.00     0.210 HD
ENDBRANCH  27  31
ENDBRANCH  21  23
ENDBRANCH  19  20
ENDBRANCH   1  18
TORSDOF 10
