REMARK  8 active torsions:
REMARK  status: ('A' for Active; 'I' for Inactive)
REMARK    1  A    between atoms: C2_2  and  C4_4 
REMARK    2  A    between atoms: C4_4  and  C5_5 
REMARK    3  A    between atoms: C15_15  and  O1_17 
REMARK    4  A    between atoms: C18_21  and  C19_22 
REMARK    5  A    between atoms: C19_22  and  N1_23 
REMARK    6  A    between atoms: C21_26  and  C22_27 
REMARK    7  A    between atoms: C22_27  and  O3_28 
REMARK    8  A    between atoms: C23_30  and  O4_31 
ROOT
HETATM    1  C5  UNL     1       2.699   0.215  -0.488  1.00  0.00    -0.036 C 
HETATM    2  C6  UNL     1       2.802   1.630  -0.948  1.00  0.00     0.016 C 
HETATM    3  C7  UNL     1       3.002  -0.623  -1.755  1.00  0.00     0.010 C 
HETATM    4  C8  UNL     1       1.828  -0.722  -2.672  1.00  0.00     0.002 C 
HETATM    5  C9  UNL     1       0.590  -1.260  -1.936  1.00  0.00     0.013 C 
HETATM    6  C10 UNL     1       0.237  -0.276  -0.879  1.00  0.00    -0.003 C 
HETATM    7  C11 UNL     1      -0.167   0.992  -1.569  1.00  0.00     0.019 C 
HETATM    8  C12 UNL     1       1.368  -0.198   0.088  1.00  0.00     0.005 C 
HETATM    9  C13 UNL     1       1.557  -1.583   0.667  1.00  0.00     0.009 C 
HETATM   10  C14 UNL     1       0.373  -2.376   0.995  1.00  0.00     0.041 C 
HETATM   11  C15 UNL     1      -0.922  -2.072   0.343  1.00  0.00     0.088 C 
HETATM   12  C16 UNL     1      -2.046  -2.536   1.241  1.00  0.00     0.049 C 
HETATM   13  C17 UNL     1      -0.996  -0.634  -0.046  1.00  0.00     0.126 C 
HETATM   14  O2  UNL     1      -2.122  -0.462  -0.851  1.00  0.00    -0.366 OA
HETATM   15  C18 UNL     1      -2.966   0.448  -0.276  1.00  0.00     0.148 C 
HETATM   16  C21 UNL     1      -2.656   0.518   1.186  1.00  0.00     0.072 C 
HETATM   17  C23 UNL     1      -1.140   0.271   1.124  1.00  0.00     0.165 C 
ENDROOT
BRANCH  11  18
HETATM   18  O1  UNL     1      -1.186  -2.838  -0.823  1.00  0.00    -0.387 OA
ATOM     19  H1  UNL     1      -2.016  -2.643  -1.241  1.00  0.00     0.210 HD
ENDBRANCH  11  18
BRANCH  17  20
HETATM   20  O4  UNL     1      -0.700  -0.193   2.341  1.00  0.00    -0.392 OA
ATOM     21  H4  UNL     1      -0.792   0.386   3.089  1.00  0.00     0.210 HD
ENDBRANCH  17  20
BRANCH  15  22
HETATM   22  C19 UNL     1      -4.437   0.162  -0.557  1.00  0.00     0.145 C 
BRANCH  22  23
HETATM   23  N1  UNL     1      -4.643   0.194  -1.980  1.00  0.00    -0.423 N 
HETATM   24  C20 UNL     1      -4.503   1.478  -2.589  1.00  0.00     0.139 C 
ATOM     25  H1  UNL     1      -4.873  -0.642  -2.517  1.00  0.00     0.152 HD
ENDBRANCH  22  23
ENDBRANCH  15  22
BRANCH  16  26
HETATM   26  C22 UNL     1      -2.924   1.896   1.783  1.00  0.00     0.174 C 
BRANCH  26  27
HETATM   27  O3  UNL     1      -2.161   2.863   1.170  1.00  0.00    -0.400 OA
ATOM     28  H3  UNL     1      -2.328   3.721   1.542  1.00  0.00     0.209 HD
ENDBRANCH  26  27
ENDBRANCH  16  26
BRANCH   1  29
HETATM   29  C4  UNL     1       3.827  -0.056   0.447  1.00  0.00     0.042 C 
BRANCH  29  30
HETATM   30  C2  UNL     1       3.967   0.734   1.654  1.00  0.00    -0.092 C 
HETATM   31  C1  UNL     1       3.295   1.757   2.099  1.00  0.00     0.014 C 
HETATM   32  C3  UNL     1       5.101   0.272   2.574  1.00  0.00     0.042 C 
ENDBRANCH  29  30
ENDBRANCH   1  29
TORSDOF 8
