REMARK  8 active torsions:
REMARK  status: ('A' for Active; 'I' for Inactive)
REMARK    1  A    between atoms: C3_3  and  C4_4 
REMARK    2  A    between atoms: C4_4  and  N1_5 
REMARK       I    between atoms: N1_5  and  C5_7 
REMARK    3  A    between atoms: N3_9  and  C6_11 
REMARK    4  A    between atoms: C6_11  and  C7_12 
REMARK    5  A    between atoms: C7_12  and  C8_13 
REMARK    6  A    between atoms: N4_15  and  C10_17 
REMARK    7  A    between atoms: C10_17  and  C11_18 
REMARK    8  A    between atoms: C11_18  and  C14_21 
ROOT
HETATM    1  C1  UNL     1       6.725   3.827   1.166  1.00  0.00     0.012 C 
HETATM    2  C2  UNL     1       6.461   2.709   0.819  1.00  0.00    -0.116 C 
HETATM    3  C3  UNL     1       6.119   1.360   0.411  1.00  0.00     0.112 C 
ENDROOT
BRANCH   3   4
HETATM    4  C4  UNL     1       4.683   1.274   0.011  1.00  0.00     0.134 C 
BRANCH   4   5
HETATM    5  N1  UNL     1       4.319  -0.059  -0.400  1.00  0.00    -0.364 N 
HETATM    6  C5  UNL     1       3.013  -0.385  -0.822  1.00  0.00     0.189 C 
HETATM    7  N2  UNL     1       2.704  -0.302  -2.207  1.00  0.00    -0.064 NA
HETATM    8  N3  UNL     1       2.122  -0.744  -0.006  1.00  0.00    -0.321 N 
ATOM      9  H3  UNL     1       2.401  -0.784   0.974  1.00  0.00     0.169 HD
ATOM     10  H1  UNL     1       5.029  -0.791  -0.385  1.00  0.00     0.162 HD
BRANCH   8  11
HETATM   11  C6  UNL     1       0.796  -1.094  -0.285  1.00  0.00     0.079 C 
HETATM   12  N4  UNL     1      -0.099  -0.221   0.034  1.00  0.00    -0.379 N 
ATOM     13  H4  UNL     1       0.208   0.653   0.461  1.00  0.00     0.160 HD
BRANCH  11  14
HETATM   14  C7  UNL     1       0.366  -2.348  -0.898  1.00  0.00     0.076 C 
BRANCH  14  15
HETATM   15  C8  UNL     1       0.748  -3.581  -0.124  1.00  0.00     0.003 C 
HETATM   16  C9  UNL     1       0.182  -3.629   1.255  1.00  0.00     0.005 C 
ENDBRANCH  14  15
ENDBRANCH  11  14
BRANCH  12  17
HETATM   17  C10 UNL     1      -1.505  -0.418  -0.182  1.00  0.00     0.130 C 
BRANCH  17  18
HETATM   18  C11 UNL     1      -2.327   0.773   0.256  1.00  0.00    -0.025 C 
HETATM   19  C12 UNL     1      -1.874   1.976  -0.546  1.00  0.00     0.017 C 
HETATM   20  C13 UNL     1      -2.074   1.031   1.715  1.00  0.00     0.017 C 
BRANCH  18  21
HETATM   21  C14 UNL     1      -3.790   0.576   0.023  1.00  0.00    -0.043 C 
HETATM   22  C15 UNL     1      -4.353  -0.606   0.761  1.00  0.00     0.015 C 
HETATM   23  C16 UNL     1      -4.509   1.825   0.503  1.00  0.00     0.015 C 
HETATM   24  C17 UNL     1      -4.093   0.385  -1.450  1.00  0.00     0.015 C 
ENDBRANCH  18  21
ENDBRANCH  17  18
ENDBRANCH  12  17
ENDBRANCH   8  11
ENDBRANCH   4   5
ENDBRANCH   3   4
TORSDOF 8
