REMARK  7 active torsions:
REMARK  status: ('A' for Active; 'I' for Inactive)
REMARK    1  A    between atoms: C3_3  and  C4_4 
REMARK    2  A    between atoms: C4_4  and  C5_5 
REMARK    3  A    between atoms: C5_5  and  N1_6 
REMARK    4  A    between atoms: N1_6  and  C6_8 
REMARK    5  A    between atoms: C6_8  and  N2_10 
REMARK    6  A    between atoms: N2_10  and  C7_12 
REMARK    7  A    between atoms: C7_12  and  C8_13 
ROOT
HETATM    1  C1  UNL     1       7.479   0.980  -1.510  1.00  0.00     0.012 C 
HETATM    2  C2  UNL     1       6.278   0.954  -1.411  1.00  0.00    -0.117 C 
HETATM    3  C3  UNL     1       4.805   0.918  -1.277  1.00  0.00     0.094 C 
ENDROOT
BRANCH   3   4
HETATM    4  C4  UNL     1       4.487  -0.044  -0.182  1.00  0.00     0.032 C 
BRANCH   4   5
HETATM    5  C5  UNL     1       3.000  -0.172   0.056  1.00  0.00     0.123 C 
BRANCH   5   6
HETATM    6  N1  UNL     1       2.796  -1.133   1.141  1.00  0.00    -0.367 N 
ATOM      7  H1  UNL     1       3.586  -1.588   1.598  1.00  0.00     0.161 HD
BRANCH   6   8
HETATM    8  C6  UNL     1       1.460  -1.410   1.536  1.00  0.00     0.167 C 
HETATM    9  S1  UNL     1       1.257  -2.489   2.754  1.00  0.00    -0.041 SA
BRANCH   8  10
HETATM   10  N2  UNL     1       0.353  -0.785   0.909  1.00  0.00    -0.367 N 
ATOM     11  H2  UNL     1       0.513  -0.118   0.154  1.00  0.00     0.161 HD
BRANCH  10  12
HETATM   12  C7  UNL     1      -0.988  -1.077   1.320  1.00  0.00     0.132 C 
BRANCH  12  13
HETATM   13  C8  UNL     1      -2.029  -0.328   0.551  1.00  0.00    -0.020 C 
HETATM   14  C9  UNL     1      -1.881   1.184   0.682  1.00  0.00     0.016 C 
HETATM   15  C10 UNL     1      -2.666   1.618  -0.565  1.00  0.00    -0.013 C 
HETATM   16  C11 UNL     1      -4.092   1.185  -0.391  1.00  0.00     0.009 C 
HETATM   17  C15 UNL     1      -1.937   0.766  -1.614  1.00  0.00     0.010 C 
HETATM   18  C12 UNL     1      -4.233  -0.293  -0.196  1.00  0.00    -0.013 C 
HETATM   19  C13 UNL     1      -3.448  -1.091  -1.238  1.00  0.00     0.010 C 
HETATM   20  C16 UNL     1      -3.420  -0.653   1.057  1.00  0.00     0.016 C 
HETATM   21  C14 UNL     1      -2.027  -0.601  -0.918  1.00  0.00    -0.004 C 
ENDBRANCH  12  13
ENDBRANCH  10  12
ENDBRANCH   8  10
ENDBRANCH   6   8
ENDBRANCH   5   6
ENDBRANCH   4   5
ENDBRANCH   3   4
TORSDOF 7
