REMARK  6 active torsions:
REMARK  status: ('A' for Active; 'I' for Inactive)
REMARK    1  A    between atoms: C2_2  and  C3_3 
REMARK    2  A    between atoms: C3_3  and  N1_4 
REMARK    3  A    between atoms: N1_4  and  C4_6 
REMARK    4  A    between atoms: C5_9  and  N3_10 
REMARK    5  A    between atoms: C6_12  and  C7_13 
REMARK    6  A    between atoms: C7_13  and  C8_14 
ROOT
HETATM    1  C4  UNL     1      -1.048   1.032  -0.237  1.00  0.00     0.125 A 
HETATM    2  N2  UNL     1       0.205   1.412  -0.089  1.00  0.00    -0.176 N 
ATOM      3  H2  UNL     1       0.391   2.415  -0.082  1.00  0.00     0.186 HD
HETATM    4  C5  UNL     1       1.289   0.565   0.058  1.00  0.00     0.683 A 
HETATM    5  N4  UNL     1       1.001  -0.736   0.043  1.00  0.00    -0.195 N 
ATOM      6  H4  UNL     1       1.758  -1.411   0.147  1.00  0.00     0.184 HD
HETATM    7  C10 UNL     1      -0.281  -1.194  -0.108  1.00  0.00     0.037 A 
HETATM    8  C11 UNL     1      -1.328  -0.336  -0.251  1.00  0.00     0.014 A 
HETATM    9  C12 UNL     1      -2.598  -1.058  -0.399  1.00  0.00     0.029 C 
HETATM   10  C13 UNL     1      -3.502  -0.977   0.810  1.00  0.00     0.010 C 
HETATM   11  C14 UNL     1      -4.201  -2.341   0.730  1.00  0.00     0.001 C 
HETATM   12  C15 UNL     1      -3.081  -3.286   0.444  1.00  0.00     0.005 C 
HETATM   13  C16 UNL     1      -2.189  -2.500  -0.524  1.00  0.00    -0.000 C 
HETATM   14  C17 UNL     1      -0.763  -2.596  -0.143  1.00  0.00     0.063 C 
ENDROOT
BRANCH   4  15
HETATM   15  N3  UNL     1       2.394   1.091   0.186  1.00  0.00    -0.205 N 
HETATM   16  C6  UNL     1       3.714   0.820   0.354  1.00  0.00     0.079 C 
ATOM     17  H3  UNL     1       2.274   2.103   0.154  1.00  0.00     0.183 HD
BRANCH  16  18
HETATM   18  C7  UNL     1       4.175  -0.615   0.523  1.00  0.00     0.045 C 
BRANCH  18  19
HETATM   19  C8  UNL     1       5.694  -0.548   0.692  1.00  0.00     0.001 C 
HETATM   20  C9  UNL     1       6.302   0.082  -0.532  1.00  0.00     0.005 C 
ENDBRANCH  18  19
ENDBRANCH  16  18
ENDBRANCH   4  15
BRANCH   1  21
HETATM   21  N1  UNL     1      -2.048   1.832  -0.373  1.00  0.00    -0.372 N 
ATOM     22  H1  UNL     1      -2.974   1.418  -0.481  1.00  0.00     0.161 HD
BRANCH  21  23
HETATM   23  C3  UNL     1      -1.954   3.257  -0.384  1.00  0.00     0.147 C 
BRANCH  23  24
HETATM   24  C2  UNL     1      -3.319   3.804  -0.038  1.00  0.00    -0.018 C 
HETATM   25  C1  UNL     1      -3.964   4.587  -0.887  1.00  0.00     0.008 C 
ENDBRANCH  23  24
ENDBRANCH  21  23
ENDBRANCH   1  21
TORSDOF 6
