REMARK  7 active torsions:
REMARK  status: ('A' for Active; 'I' for Inactive)
REMARK    1  A    between atoms: C2_2  and  C3_3 
REMARK    2  A    between atoms: C3_3  and  C4_4 
REMARK    3  A    between atoms: C4_4  and  N1_5 
REMARK    4  A    between atoms: N1_5  and  C5_7 
REMARK    5  A    between atoms: C5_7  and  N2_9 
REMARK    6  A    between atoms: N2_9  and  C6_11 
REMARK    7  A    between atoms: C6_11  and  C7_12 
ROOT
HETATM    1  C6  UNL     1      -0.696  -1.592   0.450  1.00  0.00     0.131 C 
ENDROOT
BRANCH   1   2
HETATM    2  N2  UNL     1       0.597  -0.967   0.501  1.00  0.00    -0.367 N 
ATOM      3  H2  UNL     1       0.673   0.049   0.543  1.00  0.00     0.161 HD
BRANCH   2   4
HETATM    4  C5  UNL     1       1.760  -1.765   0.493  1.00  0.00     0.167 C 
HETATM    5  S1  UNL     1       1.581  -3.404   0.428  1.00  0.00    -0.041 SA
BRANCH   4   6
HETATM    6  N1  UNL     1       3.077  -1.255   0.548  1.00  0.00    -0.367 N 
ATOM      7  H1  UNL     1       3.856  -1.912   0.513  1.00  0.00     0.161 HD
BRANCH   6   8
HETATM    8  C4  UNL     1       3.369   0.164   0.652  1.00  0.00     0.122 C 
BRANCH   8   9
HETATM    9  C3  UNL     1       4.823   0.467   0.486  1.00  0.00     0.019 C 
BRANCH   9  10
HETATM   10  C2  UNL     1       5.336   0.079  -0.885  1.00  0.00    -0.003 C 
HETATM   11  C1  UNL     1       6.815   0.382  -1.002  1.00  0.00     0.005 C 
ENDBRANCH   9  10
ENDBRANCH   8   9
ENDBRANCH   6   8
ENDBRANCH   4   6
ENDBRANCH   2   4
ENDBRANCH   1   2
BRANCH   1  12
HETATM   12  C7  UNL     1      -1.810  -0.613   0.239  1.00  0.00    -0.023 C 
HETATM   13  C8  UNL     1      -1.627   0.131  -1.082  1.00  0.00     0.015 C 
HETATM   14  C9  UNL     1      -2.799   1.022  -1.319  1.00  0.00    -0.013 C 
HETATM   15  C10 UNL     1      -3.009   2.024  -0.212  1.00  0.00     0.009 C 
HETATM   16  C14 UNL     1      -4.063   0.205  -1.421  1.00  0.00     0.009 C 
HETATM   17  C11 UNL     1      -3.086   1.307   1.125  1.00  0.00    -0.013 C 
HETATM   18  C12 UNL     1      -4.372   0.474   1.034  1.00  0.00     0.009 C 
HETATM   19  C16 UNL     1      -1.901   0.409   1.328  1.00  0.00     0.015 C 
HETATM   20  C13 UNL     1      -4.260  -0.520  -0.096  1.00  0.00    -0.013 C 
HETATM   21  C15 UNL     1      -3.087  -1.427   0.111  1.00  0.00     0.015 C 
ENDBRANCH   1  12
TORSDOF 7
