REMARK  7 active torsions:
REMARK  status: ('A' for Active; 'I' for Inactive)
REMARK    1  A    between atoms: O1_1  and  C1_3 
REMARK    2  A    between atoms: C1_3  and  C2_4 
REMARK    3  A    between atoms: C1_3  and  N2_17 
REMARK    4  A    between atoms: C3_5  and  C4_6 
REMARK    5  A    between atoms: C4_6  and  C5_7 
REMARK       I    between atoms: C5_7  and  N1_9 
REMARK    6  A    between atoms: N1_9  and  C6_11 
REMARK    7  A    between atoms: N2_17  and  C12_19 
ROOT
HETATM    1  C2  UNL     1       1.653   2.401  -1.975  1.00  0.00     0.052 C 
HETATM    2  C3  UNL     1       0.600   1.763  -2.345  1.00  0.00    -0.013 C 
ENDROOT
BRANCH   2   3
HETATM    3  C4  UNL     1       0.038   0.466  -2.007  1.00  0.00     0.130 C 
BRANCH   3   4
HETATM    4  C5  UNL     1      -1.326   0.612  -1.397  1.00  0.00     0.221 C 
HETATM    5  O2  UNL     1      -1.819   1.746  -1.245  1.00  0.00    -0.273 OA
HETATM    6  N1  UNL     1      -2.029  -0.530  -1.005  1.00  0.00    -0.356 N 
ATOM      7  H1  UNL     1      -1.593  -1.442  -1.145  1.00  0.00     0.162 HD
BRANCH   6   8
HETATM    8  C6  UNL     1      -3.350  -0.479  -0.408  1.00  0.00     0.084 C 
HETATM    9  C7  UNL     1      -4.342  -1.257  -1.238  1.00  0.00     0.025 C 
HETATM   10  C8  UNL     1      -5.341  -2.004  -0.393  1.00  0.00     0.002 C 
HETATM   11  C9  UNL     1      -5.794  -1.242   0.809  1.00  0.00     0.000 C 
HETATM   12  C10 UNL     1      -4.692  -0.635   1.615  1.00  0.00     0.002 C 
HETATM   13  C11 UNL     1      -3.374  -1.043   0.992  1.00  0.00     0.025 C 
ENDBRANCH   6   8
ENDBRANCH   3   4
ENDBRANCH   2   3
BRANCH   1  14
HETATM   14  C1  UNL     1       2.719   2.129  -1.085  1.00  0.00     0.135 C 
BRANCH  14  15
HETATM   15  O1  UNL     1       3.639   3.069  -0.987  1.00  0.00    -0.346 OA
ATOM     16  H1  UNL     1       4.355   2.886  -0.390  1.00  0.00     0.219 HD
ENDBRANCH  14  15
BRANCH  14  17
HETATM   17  N2  UNL     1       3.022   1.043  -0.257  1.00  0.00    -0.366 N 
ATOM     18  H2  UNL     1       2.383   0.248  -0.244  1.00  0.00     0.162 HD
BRANCH  17  19
HETATM   19  C12 UNL     1       4.214   0.994   0.591  1.00  0.00     0.083 C 
HETATM   20  C13 UNL     1       3.857   0.713   2.033  1.00  0.00     0.025 C 
HETATM   21  C14 UNL     1       5.007  -0.095   2.587  1.00  0.00     0.002 C 
HETATM   22  C15 UNL     1       5.995  -0.264   1.460  1.00  0.00     0.002 C 
HETATM   23  C16 UNL     1       5.089  -0.183   0.239  1.00  0.00     0.025 C 
ENDBRANCH  17  19
ENDBRANCH  14  17
ENDBRANCH   1  14
TORSDOF 7
