REMARK  8 active torsions:
REMARK  status: ('A' for Active; 'I' for Inactive)
REMARK    1  A    between atoms: N1_2  and  C2_3 
REMARK    2  A    between atoms: N1_2  and  C6_20 
REMARK    3  A    between atoms: C2_3  and  C3_4 
REMARK    4  A    between atoms: C3_4  and  N2_5 
REMARK    5  A    between atoms: N5_12  and  N6_13 
REMARK    6  A    between atoms: C5_16  and  N7_17 
REMARK    7  A    between atoms: C8_22  and  N8_23 
REMARK    8  A    between atoms: C10_29  and  N11_30 
ROOT
HETATM    1  N8  UNL     1      -4.324   1.666   1.626  1.00  0.00    -0.279 N 
ATOM      2  H8  UNL     1      -5.076   2.355   1.604  1.00  0.00     0.179 HD
HETATM    3  C9  UNL     1      -3.819   1.141   2.843  1.00  0.00     0.183 C 
HETATM    4  N9  UNL     1      -3.411   0.693   3.834  1.00  0.00    -0.172 NA
ENDROOT
BRANCH   1   5
HETATM    5  C8  UNL     1      -3.778   1.221   0.557  1.00  0.00     0.133 A 
HETATM    6  C7  UNL     1      -2.762   0.293   0.583  1.00  0.00     0.098 A 
HETATM    7  C6  UNL     1      -2.174  -0.205  -0.567  1.00  0.00     0.122 A 
HETATM    8  N12 UNL     1      -2.649   0.267  -1.732  1.00  0.00    -0.177 N 
HETATM    9  C10 UNL     1      -3.653   1.185  -1.767  1.00  0.00     0.679 A 
ATOM     10  H12 UNL     1      -2.249  -0.070  -2.608  1.00  0.00     0.185 HD
HETATM   11  N10 UNL     1      -4.217   1.662  -0.656  1.00  0.00    -0.176 N 
ATOM     12  H10 UNL     1      -4.969   2.349  -0.714  1.00  0.00     0.186 HD
BRANCH   7  13
HETATM   13  N1  UNL     1      -1.117  -1.166  -0.489  1.00  0.00    -0.369 N 
HETATM   14  C1  UNL     1      -1.428  -2.541  -0.078  1.00  0.00     0.151 C 
BRANCH  13  15
HETATM   15  C2  UNL     1       0.261  -0.795  -0.796  1.00  0.00     0.146 C 
BRANCH  15  16
HETATM   16  C3  UNL     1       0.988  -0.816   0.512  1.00  0.00     0.188 C 
BRANCH  16  17
HETATM   17  N2  UNL     1       2.390  -0.484   0.432  1.00  0.00    -0.106 N 
HETATM   18  N3  UNL     1       3.438  -1.283   0.312  1.00  0.00    -0.114 N 
HETATM   19  C4  UNL     1       4.555  -0.511   0.305  1.00  0.00     0.727 A 
ATOM     20  H3  UNL     1       3.411  -2.300   0.238  1.00  0.00     0.206 HD
HETATM   21  N4  UNL     1       5.783  -0.968   0.204  1.00  0.00    -0.231 N 
HETATM   22  N5  UNL     1       4.220   0.795   0.421  1.00  0.00     0.085 N 
ATOM     23  H42 UNL     1       6.036  -1.952   0.117  1.00  0.00     0.174 HD
ATOM     24  H41 UNL     1       6.622  -0.388   0.199  1.00  0.00     0.174 HD
HETATM   25  C5  UNL     1       2.870   0.786   0.498  1.00  0.00     0.729 A 
BRANCH  22  26
HETATM   26  N6  UNL     1       5.081   1.895   0.447  1.00  0.00    -0.309 N 
ATOM     27  H62 UNL     1       6.099   1.902   0.389  1.00  0.00     0.178 HD
ATOM     28  H61 UNL     1       4.828   2.879   0.534  1.00  0.00     0.178 HD
ENDBRANCH  22  26
BRANCH  25  29
HETATM   29  N7  UNL     1       2.140   1.843   0.605  1.00  0.00    -0.231 N 
ATOM     30  H72 UNL     1       1.122   1.836   0.663  1.00  0.00     0.174 HD
ATOM     31  H71 UNL     1       2.500   2.796   0.655  1.00  0.00     0.174 HD
ENDBRANCH  25  29
ENDBRANCH  16  17
ENDBRANCH  15  16
ENDBRANCH  13  15
ENDBRANCH   7  13
BRANCH   9  32
HETATM   32  N11 UNL     1      -4.094   1.626  -2.923  1.00  0.00    -0.234 N 
ATOM     33 2H11 UNL     1      -4.847   2.314  -2.949  1.00  0.00     0.174 HD
ATOM     34 1H11 UNL     1      -3.663   1.261  -3.772  1.00  0.00     0.174 HD
ENDBRANCH   9  32
ENDBRANCH   1   5
TORSDOF 8
