REMARK  6 active torsions:
REMARK  status: ('A' for Active; 'I' for Inactive)
REMARK    1  A    between atoms: N1_1  and  C1_4 
REMARK    2  A    between atoms: N3_11  and  C5_13 
REMARK    3  A    between atoms: C5_13  and  C6_14 
REMARK    4  A    between atoms: C6_14  and  C7_15 
REMARK    5  A    between atoms: C7_15  and  O2_16 
REMARK    6  A    between atoms: C7_15  and  C8_18 
ROOT
HETATM    1  C1  UNL     1       4.915   0.372   0.529  1.00  0.00     0.680 A 
HETATM    2  N2  UNL     1       4.111  -0.596   1.007  1.00  0.00    -0.155 N 
ATOM      3  H2  UNL     1       4.482  -1.309   1.635  1.00  0.00     0.187 HD
HETATM    4  C2  UNL     1       2.819  -0.616   0.652  1.00  0.00     0.277 A 
HETATM    5  O1  UNL     1       2.009  -1.491   1.060  1.00  0.00    -0.267 OA
HETATM    6  C3  UNL     1       2.355   0.360  -0.194  1.00  0.00     0.121 A 
HETATM    7  C4  UNL     1       1.008   0.348  -0.571  1.00  0.00     0.121 A 
HETATM    8  N3  UNL     1       0.238  -0.582  -0.111  1.00  0.00    -0.375 N 
ATOM      9  H3  UNL     1       0.578  -1.309   0.519  1.00  0.00     0.161 HD
HETATM   10  N8  UNL     1       0.593   1.322  -1.402  1.00  0.00    -0.338 N 
ATOM     11  H8  UNL     1      -0.384   1.340  -1.694  1.00  0.00     0.168 HD
HETATM   12  C9  UNL     1       1.428   2.273  -1.859  1.00  0.00     0.183 A 
HETATM   13  N9  UNL     1       2.726   2.314  -1.517  1.00  0.00    -0.337 N 
ATOM     14  H9  UNL     1       3.342   3.045  -1.874  1.00  0.00     0.168 HD
HETATM   15  C10 UNL     1       3.194   1.347  -0.677  1.00  0.00     0.141 A 
HETATM   16  N10 UNL     1       4.483   1.335  -0.299  1.00  0.00    -0.176 N 
ATOM     17  H10 UNL     1       5.126   2.050  -0.638  1.00  0.00     0.186 HD
ENDROOT
BRANCH   8  18
HETATM   18  C5  UNL     1      -1.168  -0.522  -0.558  1.00  0.00     0.124 C 
BRANCH  18  19
HETATM   19  C6  UNL     1      -1.964  -1.632   0.043  1.00  0.00     0.059 C 
BRANCH  19  20
HETATM   20  C7  UNL     1      -3.402  -1.656  -0.364  1.00  0.00     0.189 C 
BRANCH  20  21
HETATM   21  O2  UNL     1      -3.985  -2.802   0.264  1.00  0.00    -0.388 OA
ATOM     22  H2  UNL     1      -4.899  -2.817   0.005  1.00  0.00     0.210 HD
ENDBRANCH  20  21
BRANCH  20  23
HETATM   23  C8  UNL     1      -4.159  -0.512   0.253  1.00  0.00     0.139 A 
HETATM   24  N4  UNL     1      -5.528  -0.480   0.349  1.00  0.00    -0.273 N 
HETATM   25  N5  UNL     1      -5.846   0.647   0.947  1.00  0.00    -0.225 N 
ATOM     26  H4  UNL     1      -6.176  -1.195   0.019  1.00  0.00     0.189 HD
HETATM   27  N6  UNL     1      -4.767   1.350   1.245  1.00  0.00    -0.005 NA
ATOM     28  H5  UNL     1      -6.801   0.940   1.154  1.00  0.00     0.205 HD
HETATM   29  N7  UNL     1      -3.751   0.624   0.813  1.00  0.00    -0.268 N 
ATOM     30  H7  UNL     1      -2.773   0.901   0.898  1.00  0.00     0.185 HD
ENDBRANCH  20  23
ENDBRANCH  19  20
ENDBRANCH  18  19
ENDBRANCH   8  18
BRANCH   1  31
HETATM   31  N1  UNL     1       6.176   0.383   0.882  1.00  0.00    -0.234 N 
ATOM     32  H12 UNL     1       6.504  -0.349   1.512  1.00  0.00     0.174 HD
ATOM     33  H11 UNL     1       6.785   1.117   0.520  1.00  0.00     0.174 HD
ENDBRANCH   1  31
TORSDOF 6
