REMARK  10 active torsions:
REMARK  status: ('A' for Active; 'I' for Inactive)
REMARK    1  A    between atoms: C4_7  and  N3_8 
REMARK    2  A    between atoms: C5_13  and  N5_14 
REMARK    3  A    between atoms: N7_20  and  C7_21 
REMARK    4  A    between atoms: C7_21  and  O1_22 
REMARK    5  A    between atoms: O1_22  and  C8_23 
REMARK    6  A    between atoms: C8_23  and  C9_24 
REMARK    7  A    between atoms: C8_23  and  C10_27 
REMARK    8  A    between atoms: C9_24  and  O2_25 
REMARK    9  A    between atoms: C10_27  and  O3_28 
REMARK   10  A    between atoms: C11_30  and  N8_31 
ROOT
HETATM    1  N1  UNL     1       2.628   4.979   0.458  1.00  0.00    -0.190 NA
HETATM    2  C1  UNL     1       2.454   3.828   0.342  1.00  0.00     0.121 C 
HETATM    3  C2  UNL     1       2.247   2.418   0.215  1.00  0.00     0.159 A 
HETATM    4  N2  UNL     1       3.149   1.593  -0.315  1.00  0.00    -0.339 N 
ATOM      5  H2  UNL     1       4.038   1.960  -0.654  1.00  0.00     0.167 HD
HETATM    6  C3  UNL     1       2.889   0.281  -0.403  1.00  0.00     0.123 A 
HETATM    7  C4  UNL     1       3.820  -0.568  -0.954  1.00  0.00     0.145 A 
HETATM    8  N4  UNL     1       3.554  -1.876  -1.043  1.00  0.00    -0.175 N 
ATOM      9  H4  UNL     1       4.232  -2.520  -1.450  1.00  0.00     0.186 HD
HETATM   10  C5  UNL     1       2.379  -2.319  -0.586  1.00  0.00     0.679 A 
HETATM   11  N6  UNL     1       1.443  -1.524  -0.041  1.00  0.00    -0.174 N 
ATOM     12  H6  UNL     1       0.563  -1.920   0.291  1.00  0.00     0.186 HD
HETATM   13  C6  UNL     1       1.672  -0.211   0.064  1.00  0.00     0.157 A 
HETATM   14  N7  UNL     1       0.743   0.587   0.604  1.00  0.00    -0.292 N 
HETATM   15  C11 UNL     1       1.038   1.913   0.677  1.00  0.00     0.142 A 
ENDROOT
BRANCH  15  16
HETATM   16  N8  UNL     1       0.139   2.677   1.197  1.00  0.00    -0.383 N 
ATOM     17  H82 UNL     1       0.360   3.671   1.252  1.00  0.00     0.157 HD
ATOM     18  H81 UNL     1      -0.749   2.306   1.536  1.00  0.00     0.157 HD
ENDBRANCH  15  16
BRANCH  14  19
HETATM   19  C7  UNL     1      -0.519   0.128   1.108  1.00  0.00     0.302 C 
BRANCH  19  20
HETATM   20  O1  UNL     1      -1.439   0.149   0.034  1.00  0.00    -0.362 OA
BRANCH  20  21
HETATM   21  C8  UNL     1      -2.685  -0.271   0.399  1.00  0.00     0.170 C 
BRANCH  21  22
HETATM   22  C9  UNL     1      -3.176  -1.473  -0.370  1.00  0.00     0.198 C 
BRANCH  22  23
HETATM   23  O2  UNL     1      -3.238  -1.199  -1.729  1.00  0.00    -0.398 OA
ATOM     24  H2  UNL     1      -3.547  -1.956  -2.213  1.00  0.00     0.209 HD
ENDBRANCH  22  23
ENDBRANCH  21  22
BRANCH  21  25
HETATM   25  C10 UNL     1      -3.687   0.854   0.131  1.00  0.00     0.198 C 
BRANCH  25  26
HETATM   26  O3  UNL     1      -4.979   0.426   0.508  1.00  0.00    -0.398 OA
ATOM     27  H3  UNL     1      -5.601   1.124   0.342  1.00  0.00     0.209 HD
ENDBRANCH  25  26
ENDBRANCH  21  25
ENDBRANCH  20  21
ENDBRANCH  19  20
ENDBRANCH  14  19
BRANCH   7  28
HETATM   28  N3  UNL     1       4.960  -0.148  -1.398  1.00  0.00    -0.383 N 
ATOM     29  H32 UNL     1       5.163   0.849  -1.330  1.00  0.00     0.157 HD
ATOM     30  H31 UNL     1       5.651  -0.778  -1.807  1.00  0.00     0.157 HD
ENDBRANCH   7  28
BRANCH  10  31
HETATM   31  N5  UNL     1       2.135  -3.603  -0.681  1.00  0.00    -0.234 N 
ATOM     32  H52 UNL     1       2.846  -4.207  -1.095  1.00  0.00     0.174 HD
ATOM     33  H51 UNL     1       1.238  -3.941  -0.332  1.00  0.00     0.174 HD
ENDBRANCH  10  31
TORSDOF 10
