REMARK  8 active torsions:
REMARK  status: ('A' for Active; 'I' for Inactive)
REMARK    1  A    between atoms: N1_1  and  C1_4 
REMARK    2  A    between atoms: C4_12  and  S1_13 
REMARK    3  A    between atoms: S1_13  and  C5_14 
REMARK    4  A    between atoms: C5_14  and  C6_15 
REMARK    5  A    between atoms: C6_15  and  O2_16 
REMARK    6  A    between atoms: C6_15  and  C7_18 
REMARK    7  A    between atoms: C7_18  and  O3_19 
REMARK    8  A    between atoms: N4_21  and  N5_22 
ROOT
HETATM    1  C1  UNL     1       4.725  -0.526   0.281  1.00  0.00     0.679 A 
HETATM    2  N2  UNL     1       4.497  -1.214  -0.854  1.00  0.00    -0.154 N 
ATOM      3  H2  UNL     1       5.249  -1.781  -1.245  1.00  0.00     0.187 HD
HETATM    4  C2  UNL     1       3.315  -1.180  -1.489  1.00  0.00     0.288 A 
HETATM    5  O1  UNL     1       3.086  -1.816  -2.549  1.00  0.00    -0.265 OA
HETATM    6  C3  UNL     1       2.305  -0.409  -0.950  1.00  0.00     0.136 A 
HETATM    7  N3  UNL     1       1.087  -0.329  -1.541  1.00  0.00    -0.329 N 
ATOM      8  H3  UNL     1       0.922  -0.853  -2.401  1.00  0.00     0.168 HD
HETATM    9  C4  UNL     1       0.080   0.423  -1.029  1.00  0.00     0.169 A 
HETATM   10  N4  UNL     1       0.327   1.096   0.093  1.00  0.00    -0.202 N 
HETATM   11  C8  UNL     1       1.514   1.062   0.734  1.00  0.00     0.298 A 
HETATM   12  O4  UNL     1       1.733   1.705   1.799  1.00  0.00    -0.264 OA
HETATM   13  C9  UNL     1       2.546   0.287   0.205  1.00  0.00     0.151 A 
HETATM   14  N6  UNL     1       3.741   0.219   0.798  1.00  0.00    -0.184 N 
ATOM     15  H6  UNL     1       3.906   0.743   1.658  1.00  0.00     0.184 HD
ENDROOT
BRANCH   9  16
HETATM   16  S1  UNL     1      -1.505   0.532  -1.821  1.00  0.00    -0.089 SA
BRANCH  16  17
HETATM   17  C5  UNL     1      -2.668  -0.729  -1.344  1.00  0.00     0.116 C 
BRANCH  17  18
HETATM   18  C6  UNL     1      -3.181  -0.643   0.068  1.00  0.00     0.151 C 
BRANCH  18  19
HETATM   19  O2  UNL     1      -4.069  -1.735   0.270  1.00  0.00    -0.393 OA
ATOM     20  H2  UNL     1      -4.393  -1.681   1.161  1.00  0.00     0.210 HD
ENDBRANCH  18  19
BRANCH  18  21
HETATM   21  C7  UNL     1      -4.120   0.577   0.170  1.00  0.00     0.196 C 
BRANCH  21  22
HETATM   22  O3  UNL     1      -4.676   0.530   1.436  1.00  0.00    -0.398 OA
ATOM     23  H3  UNL     1      -5.254   1.281   1.499  1.00  0.00     0.209 HD
ENDBRANCH  21  22
ENDBRANCH  18  21
ENDBRANCH  17  18
ENDBRANCH  16  17
ENDBRANCH   9  16
BRANCH  10  24
HETATM   24  N5  UNL     1      -0.674   1.895   0.648  1.00  0.00    -0.334 N 
ATOM     25  H52 UNL     1      -1.571   1.921   0.163  1.00  0.00     0.177 HD
ATOM     26  H51 UNL     1      -0.485   2.411   1.508  1.00  0.00     0.177 HD
ENDBRANCH  10  24
BRANCH   1  27
HETATM   27  N1  UNL     1       5.900  -0.596   0.860  1.00  0.00    -0.234 N 
ATOM     28  H12 UNL     1       6.650  -1.164   0.466  1.00  0.00     0.174 HD
ATOM     29  H11 UNL     1       6.073  -0.075   1.720  1.00  0.00     0.174 HD
ENDBRANCH   1  27
TORSDOF 8
