REMARK  5 active torsions:
REMARK  status: ('A' for Active; 'I' for Inactive)
REMARK    1  A    between atoms: O1_1  and  C1_3 
REMARK    2  A    between atoms: C1_3  and  C2_4 
REMARK    3  A    between atoms: C2_4  and  N1_5 
REMARK    4  A    between atoms: C4_7  and  C5_8 
REMARK    5  A    between atoms: C7_11  and  C8_12 
ROOT
HETATM    1  C5  UNL     1       0.027  -0.135  -1.018  1.00  0.00     0.051 A 
HETATM    2  C6  UNL     1      -0.051  -0.953  -2.109  1.00  0.00     0.082 A 
HETATM    3  S1  UNL     1      -1.754  -1.006  -2.392  1.00  0.00    -0.084 SA
HETATM    4  C7  UNL     1      -2.232   0.024  -1.092  1.00  0.00     0.082 A 
HETATM    5  N3  UNL     1      -1.094   0.325  -0.551  1.00  0.00    -0.351 N 
ATOM      6  H3  UNL     1      -1.078   0.939   0.263  1.00  0.00     0.166 HD
ENDROOT
BRANCH   1   7
HETATM    7  C4  UNL     1       1.331   0.203  -0.408  1.00  0.00     0.009 A 
HETATM    8  C3  UNL     1       2.569  -0.227  -0.821  1.00  0.00     0.105 A 
HETATM    9  N1  UNL     1       3.539   0.273  -0.038  1.00  0.00    -0.348 N 
HETATM   10  C13 UNL     1       2.926   1.029   0.884  1.00  0.00     0.082 A 
HETATM   11  C12 UNL     1       1.564   1.016   0.696  1.00  0.00     0.052 A 
HETATM   12 BR1  UNL     1       3.818   2.000   2.279  1.00  0.00    -0.031 Br
BRANCH   9  13
HETATM   13  C2  UNL     1       4.971   0.062  -0.137  1.00  0.00     0.155 C 
BRANCH  13  14
HETATM   14  C1  UNL     1       5.378  -1.153   0.689  1.00  0.00     0.184 C 
BRANCH  14  15
HETATM   15  O1  UNL     1       6.751  -1.317   0.567  1.00  0.00    -0.399 OA
ATOM     16  H1  UNL     1       7.005  -2.074   1.082  1.00  0.00     0.209 HD
ENDBRANCH  14  15
ENDBRANCH  13  14
ENDBRANCH   9  13
ENDBRANCH   1   7
BRANCH   4  17
HETATM   17  C8  UNL     1      -3.604   0.456  -0.692  1.00  0.00     0.242 C 
HETATM   18  C9  UNL     1      -3.566   0.824   0.773  1.00  0.00     0.041 C 
HETATM   19  C10 UNL     1      -5.059   0.751   1.121  1.00  0.00     0.030 C 
HETATM   20  C11 UNL     1      -5.670  -0.083   0.017  1.00  0.00     0.233 C 
HETATM   21  N2  UNL     1      -4.538  -0.652  -0.692  1.00  0.00    -0.065 N 
ATOM     22  H22 UNL     1      -4.752  -1.039  -1.611  1.00  0.00     0.278 HD
ATOM     23  H21 UNL     1      -4.177  -1.524  -0.304  1.00  0.00     0.278 HD
ENDBRANCH   4  17
TORSDOF 5
