REMARK  4 active torsions:
REMARK  status: ('A' for Active; 'I' for Inactive)
REMARK    1  A    between atoms: C6_8  and  C7_9 
REMARK    2  A    between atoms: C7_9  and  S1_10 
REMARK    3  A    between atoms: S1_10  and  C8_11 
REMARK    4  A    between atoms: C8_11  and  C9_12 
ROOT
HETATM    1  C8  UNL     1       1.389   0.777  -0.077  1.00  0.00     0.140 C 
ENDROOT
BRANCH   1   2
HETATM    2  S1  UNL     1       0.643  -0.256   1.194  1.00  0.00    -0.158 SA
BRANCH   2   3
HETATM    3  C7  UNL     1      -1.080   0.156   1.516  1.00  0.00     0.115 C 
BRANCH   3   4
HETATM    4  C6  UNL     1      -1.995  -0.183   0.426  1.00  0.00    -0.018 A 
HETATM    5  C2  UNL     1      -3.331   0.115   0.553  1.00  0.00     0.055 A 
HETATM    6  C1  UNL     1      -3.817   0.780   1.763  1.00  0.00     0.077 C 
HETATM    7  O1  UNL     1      -4.195  -0.184  -0.394  1.00  0.00    -0.326 OA
HETATM    8  C3  UNL     1      -3.833  -0.776  -1.496  1.00  0.00     0.161 A 
HETATM    9  C4  UNL     1      -2.515  -1.108  -1.699  1.00  0.00     0.034 A 
HETATM   10 BR1  UNL     1      -1.991  -1.978  -3.324  1.00  0.00    -0.049 Br
HETATM   11  C5  UNL     1      -1.584  -0.805  -0.721  1.00  0.00     0.031 A 
ENDBRANCH   3   4
ENDBRANCH   2   3
ENDBRANCH   1   2
BRANCH   1  12
HETATM   12  C9  UNL     1       2.818   0.376  -0.327  1.00  0.00     0.079 A 
HETATM   13  N1  UNL     1       3.892   0.847   0.283  1.00  0.00    -0.295 N 
HETATM   14  N2  UNL     1       5.047   0.419  -0.028  1.00  0.00    -0.279 N 
ATOM     15  H1  UNL     1       3.793   1.558   1.007  1.00  0.00     0.187 HD
HETATM   16  C10 UNL     1       5.147  -0.514  -0.982  1.00  0.00     0.158 A 
ATOM     17  H2  UNL     1       5.879   0.779   0.439  1.00  0.00     0.189 HD
HETATM   18  N3  UNL     1       6.236  -1.082  -1.444  1.00  0.00    -0.379 N 
HETATM   19  S2  UNL     1       3.510  -0.748  -1.410  1.00  0.00    -0.038 SA
ATOM     20  H32 UNL     1       7.214  -0.942  -1.188  1.00  0.00     0.158 HD
ATOM     21  H31 UNL     1       6.312  -1.793  -2.171  1.00  0.00     0.158 HD
ENDBRANCH   1  12
TORSDOF 4
