REMARK  5 active torsions:
REMARK  status: ('A' for Active; 'I' for Inactive)
REMARK    1  A    between atoms: O1_1  and  C1_3 
REMARK    2  A    between atoms: C1_3  and  O2_4 
REMARK    3  A    between atoms: O2_4  and  C2_5 
REMARK    4  A    between atoms: N1_9  and  C6_10 
REMARK    5  A    between atoms: C9_15  and  C10_16 
ROOT
HETATM    1  C6  UNL     1       0.211   0.242   0.099  1.00  0.00     0.054 A 
HETATM    2  C7  UNL     1       1.114  -0.737  -0.259  1.00  0.00     0.063 A 
HETATM    3  C8  UNL     1       2.486  -0.478  -0.300  1.00  0.00     0.062 A 
HETATM    4  N2  UNL     1       3.560  -1.230  -0.608  1.00  0.00    -0.344 N 
ATOM      5  H2  UNL     1       3.533  -2.210  -0.889  1.00  0.00     0.167 HD
HETATM    6  C9  UNL     1       4.675  -0.485  -0.487  1.00  0.00     0.086 A 
HETATM    7  N3  UNL     1       4.279   0.739  -0.102  1.00  0.00    -0.344 N 
ATOM      8  H3  UNL     1       4.906   1.525   0.071  1.00  0.00     0.167 HD
HETATM    9  C13 UNL     1       2.932   0.785   0.025  1.00  0.00     0.062 A 
HETATM   10  C14 UNL     1       2.046   1.789   0.389  1.00  0.00     0.058 A 
HETATM   11  C15 UNL     1       0.677   1.494   0.420  1.00  0.00     0.062 A 
HETATM   12 CL1  UNL     1      -0.472   2.730   0.871  1.00  0.00    -0.082 Cl
ENDROOT
BRANCH   1  13
HETATM   13  N1  UNL     1      -1.186  -0.001   0.149  1.00  0.00    -0.379 N 
HETATM   14  C5  UNL     1      -1.890   0.151   1.392  1.00  0.00     0.123 C 
HETATM   15  C4  UNL     1      -2.685  -1.111   1.631  1.00  0.00     0.022 C 
HETATM   16  C3  UNL     1      -3.669  -1.401   0.548  1.00  0.00     0.034 C 
HETATM   17  C2  UNL     1      -4.090  -0.178  -0.227  1.00  0.00     0.125 C 
HETATM   18  C17 UNL     1      -3.116   0.194  -1.316  1.00  0.00     0.051 C 
HETATM   19  C16 UNL     1      -1.744  -0.393  -1.127  1.00  0.00     0.125 C 
BRANCH  17  20
HETATM   20  O2  UNL     1      -5.309  -0.481  -0.831  1.00  0.00    -0.362 OA
BRANCH  20  21
HETATM   21  C1  UNL     1      -6.325   0.368  -0.409  1.00  0.00     0.335 C 
BRANCH  21  22
HETATM   22  O1  UNL     1      -6.048   1.701  -0.708  1.00  0.00    -0.377 OA
ATOM     23  H1  UNL     1      -6.743   2.281  -0.420  1.00  0.00     0.212 HD
ENDBRANCH  21  22
ENDBRANCH  20  21
ENDBRANCH  17  20
ENDBRANCH   1  13
BRANCH   6  24
HETATM   24  C10 UNL     1       6.078  -0.937  -0.736  1.00  0.00     0.053 A 
HETATM   25  C11 UNL     1       7.084   0.014  -1.261  1.00  0.00     0.013 A 
HETATM   26  C12 UNL     1       7.152  -0.357   0.182  1.00  0.00     0.013 A 
ENDBRANCH   6  24
TORSDOF 5
