REMARK  16 active torsions:
REMARK  status: ('A' for Active; 'I' for Inactive)
REMARK    1  A    between atoms: C5_8  and  O2_9 
REMARK    2  A    between atoms: C6_11  and  O3_12 
REMARK    3  A    between atoms: C9_17  and  N3_18 
REMARK    4  A    between atoms: C10_20  and  O4_21 
REMARK    5  A    between atoms: C10_20  and  N4_23 
REMARK    6  A    between atoms: N4_23  and  C11_25 
REMARK    7  A    between atoms: C11_25  and  O5_26 
REMARK    8  A    between atoms: C11_25  and  C12_28 
REMARK    9  A    between atoms: C12_28  and  O6_29 
REMARK   10  A    between atoms: C12_28  and  C13_31 
REMARK   11  A    between atoms: C13_31  and  C14_33 
REMARK   12  A    between atoms: C14_33  and  O8_34 
REMARK   13  A    between atoms: C14_33  and  C15_36 
REMARK   14  A    between atoms: C15_36  and  O9_37 
REMARK   15  A    between atoms: C15_36  and  C16_39 
REMARK   16  A    between atoms: C16_39  and  O10_40 
ROOT
HETATM    1  N3  UNL     1      -1.700  -0.747   0.182  1.00  0.00    -0.307 N 
ATOM      2  H3  UNL     1      -1.533   0.230   0.421  1.00  0.00     0.171 HD
HETATM    3  C10 UNL     1      -0.575  -1.427   0.456  1.00  0.00     0.220 C 
ENDROOT
BRANCH   3   4
HETATM    4  O4  UNL     1      -0.325  -2.004   1.596  1.00  0.00    -0.332 OA
ATOM      5  H4  UNL     1       0.471  -2.485   1.790  1.00  0.00     0.220 HD
ENDBRANCH   3   4
BRANCH   3   6
HETATM    6  N4  UNL     1       0.529  -1.615  -0.468  1.00  0.00    -0.327 N 
ATOM      7  H4  UNL     1       0.473  -1.217  -1.405  1.00  0.00     0.165 HD
BRANCH   6   8
HETATM    8  C11 UNL     1       1.697  -2.352  -0.082  1.00  0.00     0.257 C 
BRANCH   8   9
HETATM    9  O5  UNL     1       1.793  -3.545  -0.818  1.00  0.00    -0.374 OA
ATOM     10  H5  UNL     1       2.567  -4.033  -0.562  1.00  0.00     0.212 HD
ENDBRANCH   8   9
BRANCH   8  11
HETATM   11  C12 UNL     1       2.972  -1.542  -0.213  1.00  0.00     0.238 C 
BRANCH  11  12
HETATM   12  O6  UNL     1       3.188  -1.120  -1.499  1.00  0.00    -0.384 OA
ATOM     13  H6  UNL     1       3.987  -0.612  -1.581  1.00  0.00     0.210 HD
ENDBRANCH  11  12
BRANCH  11  14
HETATM   14  C13 UNL     1       3.017  -0.496   0.822  1.00  0.00     0.190 C 
HETATM   15  O7  UNL     1       2.846  -0.884   1.990  1.00  0.00    -0.292 OA
BRANCH  14  16
HETATM   16  C14 UNL     1       3.247   0.908   0.501  1.00  0.00     0.221 C 
BRANCH  16  17
HETATM   17  O8  UNL     1       3.415   1.090  -0.848  1.00  0.00    -0.385 OA
ATOM     18  H8  UNL     1       3.565   2.005  -1.057  1.00  0.00     0.210 HD
ENDBRANCH  16  17
BRANCH  16  19
HETATM   19  C15 UNL     1       4.435   1.503   1.243  1.00  0.00     0.177 C 
BRANCH  19  20
HETATM   20  O9  UNL     1       4.459   2.873   0.917  1.00  0.00    -0.390 OA
ATOM     21  H9  UNL     1       5.201   3.244   1.380  1.00  0.00     0.210 HD
ENDBRANCH  19  20
BRANCH  19  22
HETATM   22  C16 UNL     1       5.735   0.916   0.784  1.00  0.00     0.198 C 
BRANCH  22  23
HETATM   23  O10 UNL     1       5.843  -0.442   1.050  1.00  0.00    -0.398 OA
ATOM     24  H10 UNL     1       6.667  -0.814   0.759  1.00  0.00     0.209 HD
ENDBRANCH  22  23
ENDBRANCH  19  22
ENDBRANCH  16  19
ENDBRANCH  14  16
ENDBRANCH  11  14
ENDBRANCH   8  11
ENDBRANCH   6   8
ENDBRANCH   3   6
BRANCH   1  25
HETATM   25  C9  UNL     1      -2.851  -0.831  -0.242  1.00  0.00     0.127 A 
HETATM   26  N1  UNL     1      -3.390  -2.006  -0.649  1.00  0.00    -0.298 N 
HETATM   27  C1  UNL     1      -2.581  -3.235  -0.575  1.00  0.00     0.161 C 
HETATM   28  C2  UNL     1      -4.619  -2.206  -1.130  1.00  0.00     0.292 A 
HETATM   29  O1  UNL     1      -5.006  -3.374  -1.481  1.00  0.00    -0.259 OA
HETATM   30  S1  UNL     1      -5.636  -0.849  -1.252  1.00  0.00    -0.028 SA
HETATM   31  C3  UNL     1      -4.838   0.567  -0.707  1.00  0.00     0.028 A 
HETATM   32  C4  UNL     1      -5.497   1.806  -0.720  1.00  0.00     0.059 A 
HETATM   33  C8  UNL     1      -3.555   0.393  -0.275  1.00  0.00     0.053 A 
HETATM   34  C5  UNL     1      -4.846   2.930  -0.281  1.00  0.00     0.102 A 
HETATM   35  C6  UNL     1      -3.565   2.770   0.153  1.00  0.00     0.124 A 
HETATM   36  C7  UNL     1      -2.895   1.543   0.172  1.00  0.00     0.097 A 
HETATM   37  N2  UNL     1      -1.564   1.497   0.645  1.00  0.00    -0.098 NA
BRANCH  34  38
HETATM   38  O2  UNL     1      -5.453   4.163  -0.277  1.00  0.00    -0.358 OA
ATOM     39  H2  UNL     1      -5.002   4.942   0.027  1.00  0.00     0.217 HD
ENDBRANCH  34  38
BRANCH  35  40
HETATM   40  O3  UNL     1      -2.852   3.869   0.610  1.00  0.00    -0.356 OA
ATOM     41  H3  UNL     1      -1.958   3.757   0.913  1.00  0.00     0.218 HD
ENDBRANCH  35  40
ENDBRANCH   1  25
TORSDOF 16
