REMARK  14 active torsions:
REMARK  status: ('A' for Active; 'I' for Inactive)
REMARK    1  A    between atoms: N1_1  and  C1_5 
REMARK    2  A    between atoms: C1_5  and  C2_6 
REMARK    3  A    between atoms: C3_8  and  O2_9 
REMARK    4  A    between atoms: O2_9  and  C4_10 
REMARK    5  A    between atoms: C5_12  and  O4_13 
REMARK    6  A    between atoms: O4_13  and  C6_14 
REMARK    7  A    between atoms: C7_15  and  N2_16 
REMARK    8  A    between atoms: C9_21  and  N3_22 
REMARK    9  A    between atoms: C10_28  and  C11_29 
REMARK   10  A    between atoms: C11_29  and  O6_30 
REMARK   11  A    between atoms: C12_32  and  N5_33 
REMARK   12  A    between atoms: C14_38  and  N6_39 
REMARK   13  A    between atoms: C16_44  and  N7_45 
REMARK   14  A    between atoms: C17_49  and  O7_50 
ROOT
HETATM    1  C4  UNL     1      -0.910  -1.332  -0.002  1.00  0.00     0.296 C 
HETATM    2  O3  UNL     1       0.367  -0.959   0.395  1.00  0.00    -0.327 OA
HETATM    3  C5  UNL     1       1.263  -0.905  -0.666  1.00  0.00     0.294 C 
HETATM    4  C12 UNL     1       1.525  -2.272  -1.257  1.00  0.00     0.240 C 
HETATM    5  C13 UNL     1       0.231  -3.058  -1.293  1.00  0.00     0.075 C 
HETATM    6  C14 UNL     1      -0.895  -2.048  -1.343  1.00  0.00     0.240 C 
ENDROOT
BRANCH   3   7
HETATM    7  O4  UNL     1       2.451  -0.412  -0.190  1.00  0.00    -0.349 OA
BRANCH   7   8
HETATM    8  C6  UNL     1       2.827   0.794  -0.756  1.00  0.00     0.188 C 
HETATM    9  C7  UNL     1       2.917   1.800   0.356  1.00  0.00     0.218 C 
HETATM   10  C8  UNL     1       4.280   2.021   0.912  1.00  0.00     0.088 C 
HETATM   11  C9  UNL     1       5.011   0.766   1.290  1.00  0.00     0.304 C 
HETATM   12  N4  UNL     1       5.688   0.148   0.174  1.00  0.00    -0.067 NA
HETATM   13  O5  UNL     1       4.828  -0.420  -0.699  1.00  0.00    -0.274 OA
HETATM   14  C10 UNL     1       4.186   0.606  -1.388  1.00  0.00     0.202 C 
BRANCH   9  15
HETATM   15  N2  UNL     1       2.414   3.087  -0.113  1.00  0.00    -0.072 N 
ATOM     16  H23 UNL     1       2.890   3.402  -0.958  1.00  0.00     0.274 HD
ATOM     17  H22 UNL     1       1.471   3.017  -0.495  1.00  0.00     0.274 HD
ATOM     18  H21 UNL     1       2.475   3.770   0.642  1.00  0.00     0.274 HD
ENDBRANCH   9  15
BRANCH  11  19
HETATM   19  N3  UNL     1       6.051   1.147   2.251  1.00  0.00    -0.059 N 
ATOM     20  H33 UNL     1       6.668   1.881   1.903  1.00  0.00     0.276 HD
ATOM     21  H32 UNL     1       5.685   1.655   3.056  1.00  0.00     0.276 HD
ATOM     22  H31 UNL     1       6.548   0.294   2.508  1.00  0.00     0.276 HD
ENDBRANCH  11  19
BRANCH  14  23
HETATM   23  C11 UNL     1       4.070   0.287  -2.881  1.00  0.00     0.200 C 
BRANCH  23  24
HETATM   24  O6  UNL     1       5.401   0.138  -3.334  1.00  0.00    -0.398 OA
ATOM     25  H6  UNL     1       5.329  -0.060  -4.260  1.00  0.00     0.209 HD
ENDBRANCH  23  24
ENDBRANCH  14  23
ENDBRANCH   7   8
ENDBRANCH   3   7
BRANCH   4  26
HETATM   26  N5  UNL     1       2.463  -3.046  -0.463  1.00  0.00    -0.070 N 
ATOM     27  H53 UNL     1       3.333  -2.534  -0.319  1.00  0.00     0.274 HD
ATOM     28  H52 UNL     1       2.154  -3.117   0.506  1.00  0.00     0.274 HD
ATOM     29  H51 UNL     1       2.640  -3.968  -0.862  1.00  0.00     0.274 HD
ENDBRANCH   4  26
BRANCH   1  30
HETATM   30  O2  UNL     1      -1.780  -0.247  -0.085  1.00  0.00    -0.329 OA
BRANCH  30  31
HETATM   31  C3  UNL     1      -2.844  -0.391   0.782  1.00  0.00     0.265 C 
HETATM   32  O1  UNL     1      -4.066  -0.487   0.149  1.00  0.00    -0.352 OA
HETATM   33  C2  UNL     1      -4.649   0.696  -0.195  1.00  0.00     0.180 C 
HETATM   34  C17 UNL     1      -4.814   1.667   0.941  1.00  0.00     0.179 C 
HETATM   35  C16 UNL     1      -4.171   1.093   2.208  1.00  0.00     0.219 C 
HETATM   36  C15 UNL     1      -2.774   0.688   1.823  1.00  0.00     0.096 C 
BRANCH  33  37
HETATM   37  C1  UNL     1      -6.018   0.389  -0.786  1.00  0.00     0.264 C 
BRANCH  37  38
HETATM   38  N1  UNL     1      -6.860  -0.303   0.171  1.00  0.00    -0.077 N 
ATOM     39  H13 UNL     1      -6.408  -1.145   0.528  1.00  0.00     0.274 HD
ATOM     40  H12 UNL     1      -6.937   0.215   1.046  1.00  0.00     0.274 HD
ATOM     41  H11 UNL     1      -7.777  -0.509  -0.225  1.00  0.00     0.274 HD
ENDBRANCH  37  38
ENDBRANCH  33  37
BRANCH  34  42
HETATM   42  O7  UNL     1      -6.137   1.934   1.244  1.00  0.00    -0.391 OA
ATOM     43  H7  UNL     1      -6.241   2.548   1.962  1.00  0.00     0.210 HD
ENDBRANCH  34  42
BRANCH  35  44
HETATM   44  N7  UNL     1      -4.877  -0.047   2.710  1.00  0.00    -0.072 N 
ATOM     45  H73 UNL     1      -4.869  -0.826   2.052  1.00  0.00     0.274 HD
ATOM     46  H72 UNL     1      -4.381  -0.500   3.478  1.00  0.00     0.274 HD
ATOM     47  H71 UNL     1      -5.824   0.228   2.971  1.00  0.00     0.274 HD
ENDBRANCH  35  44
ENDBRANCH  30  31
ENDBRANCH   1  30
BRANCH   6  48
HETATM   48  N6  UNL     1      -2.138  -2.821  -1.482  1.00  0.00    -0.070 N 
ATOM     49  H63 UNL     1      -2.289  -3.460  -0.701  1.00  0.00     0.274 HD
ATOM     50  H62 UNL     1      -2.971  -2.245  -1.357  1.00  0.00     0.274 HD
ATOM     51  H61 UNL     1      -2.128  -3.301  -2.382  1.00  0.00     0.274 HD
ENDBRANCH   6  48
TORSDOF 14
