REMARK  12 active torsions:
REMARK  status: ('A' for Active; 'I' for Inactive)
REMARK    1  A    between atoms: N1_1  and  C1_4 
REMARK    2  A    between atoms: C3_8  and  C4_9 
REMARK    3  A    between atoms: C4_9  and  O1_10 
REMARK    4  A    between atoms: C4_9  and  N3_12 
REMARK    5  A    between atoms: N3_12  and  C5_14 
REMARK    6  A    between atoms: C7_16  and  N4_17 
REMARK    7  A    between atoms: C9_22  and  N5_23 
REMARK    8  A    between atoms: N5_23  and  C10_25 
REMARK    9  A    between atoms: C10_25  and  C11_26 
REMARK   10  A    between atoms: C11_26  and  N6_27 
REMARK   11  A    between atoms: C13_29  and  O2_30 
REMARK   12  A    between atoms: C16_40  and  N10_41 
REMARK       I    between atoms: N10_41  and  C17_43 
REMARK       I    between atoms: C17_43  and  N11_44 
REMARK       I    between atoms: C17_43  and  N12_48 
ROOT
HETATM    1  C4  UNL     1      -1.652  -0.110  -1.346  1.00  0.00     0.151 C 
ENDROOT
BRANCH   1   2
HETATM    2  C3  UNL     1      -2.683  -0.075  -0.515  1.00  0.00     0.061 A 
HETATM    3  C2  UNL     1      -2.568   0.470   0.750  1.00  0.00     0.159 A 
HETATM    4  N2  UNL     1      -1.497   1.032   1.358  1.00  0.00    -0.173 N 
HETATM    5  N13 UNL     1      -3.608   0.507   1.598  1.00  0.00    -0.208 N 
HETATM    6  C1  UNL     1      -1.885   1.418   2.594  1.00  0.00     0.692 A 
ATOM      7  H2  UNL     1      -0.566   1.144   0.956  1.00  0.00     0.186 HD
HETATM    8  N14 UNL     1      -3.170   1.092   2.725  1.00  0.00    -0.122 N 
ATOM      9  H14 UNL     1      -3.736   1.261   3.556  1.00  0.00     0.206 HD
HETATM   10  C16 UNL     1      -4.807   0.012   1.245  1.00  0.00     0.128 A 
HETATM   11  C15 UNL     1      -4.975  -0.538   0.006  1.00  0.00     0.051 A 
HETATM   12  C14 UNL     1      -3.915  -0.580  -0.869  1.00  0.00     0.023 A 
BRANCH   6  13
HETATM   13  N1  UNL     1      -1.117   2.000   3.471  1.00  0.00    -0.233 N 
ATOM     14  H12 UNL     1      -0.133   2.250   3.371  1.00  0.00     0.174 HD
ATOM     15  H11 UNL     1      -1.410   2.291   4.404  1.00  0.00     0.174 HD
ENDBRANCH   6  13
BRANCH  10  16
HETATM   16  N10 UNL     1      -5.763   0.077   2.110  1.00  0.00    -0.326 N 
HETATM   17  C17 UNL     1      -7.088  -0.403   1.895  1.00  0.00     0.481 C 
HETATM   18  N11 UNL     1      -7.768  -0.621   3.174  1.00  0.00    -0.033 N 
HETATM   19  N12 UNL     1      -7.879   0.373   0.999  1.00  0.00    -0.033 N 
ATOM     20 3H11 UNL     1      -7.235  -1.239   3.786  1.00  0.00     0.278 HD
ATOM     21 2H11 UNL     1      -7.758   0.216   3.757  1.00  0.00     0.278 HD
ATOM     22 1H11 UNL     1      -8.716  -0.964   3.020  1.00  0.00     0.278 HD
ATOM     23 3H12 UNL     1      -7.904   1.345   1.306  1.00  0.00     0.278 HD
ATOM     24 2H12 UNL     1      -7.396   0.479   0.107  1.00  0.00     0.278 HD
ATOM     25 1H12 UNL     1      -8.827   0.030   0.845  1.00  0.00     0.278 HD
ATOM     26  H10 UNL     1      -5.555   0.503   3.013  1.00  0.00     0.165 HD
ENDBRANCH  10  16
ENDBRANCH   1   2
BRANCH   1  27
HETATM   27  O1  UNL     1      -1.855  -0.674  -2.597  1.00  0.00    -0.346 OA
ATOM     28  H1  UNL     1      -1.116  -0.699  -3.193  1.00  0.00     0.219 HD
ENDBRANCH   1  27
BRANCH   1  29
HETATM   29  N3  UNL     1      -0.380   0.389  -1.028  1.00  0.00    -0.349 N 
ATOM     30  H3  UNL     1      -0.277   1.398  -0.920  1.00  0.00     0.163 HD
BRANCH  29  31
HETATM   31  C5  UNL     1       0.799  -0.437  -0.843  1.00  0.00     0.186 C 
HETATM   32  C6  UNL     1       1.141  -1.202  -2.082  1.00  0.00     0.080 C 
HETATM   33  C7  UNL     1       1.740  -0.191  -3.069  1.00  0.00     0.194 C 
HETATM   34  C8  UNL     1       3.162   0.041  -2.531  1.00  0.00     0.108 C 
HETATM   35  C9  UNL     1       2.983   0.595  -1.163  1.00  0.00     0.076 C 
HETATM   36  N9  UNL     1       1.936   0.362  -0.457  1.00  0.00    -0.359 N 
ATOM     37  H9  UNL     1       1.905   0.785   0.471  1.00  0.00     0.162 HD
BRANCH  33  38
HETATM   38  N4  UNL     1       1.774  -0.707  -4.406  1.00  0.00    -0.074 N 
ATOM     39  H43 UNL     1       2.264  -1.600  -4.447  1.00  0.00     0.274 HD
ATOM     40  H42 UNL     1       0.850  -1.018  -4.708  1.00  0.00     0.274 HD
ATOM     41  H41 UNL     1       2.172  -0.035  -5.062  1.00  0.00     0.274 HD
ENDBRANCH  33  38
BRANCH  35  42
HETATM   42  N5  UNL     1       4.051   1.427  -0.647  1.00  0.00    -0.378 N 
ATOM     43  H5  UNL     1       3.841   2.078   0.109  1.00  0.00     0.160 HD
BRANCH  42  44
HETATM   44  C10 UNL     1       5.399   1.374  -1.157  1.00  0.00     0.143 C 
BRANCH  44  45
HETATM   45  C11 UNL     1       6.111   0.079  -0.828  1.00  0.00     0.169 C 
BRANCH  45  46
HETATM   46  N6  UNL     1       6.216  -0.149   0.594  1.00  0.00    -0.283 N 
HETATM   47  C12 UNL     1       5.383  -0.784   1.440  1.00  0.00     0.168 A 
HETATM   48  C13 UNL     1       5.928  -0.739   2.722  1.00  0.00     0.173 A 
HETATM   49  N7  UNL     1       7.086  -0.066   2.584  1.00  0.00    -0.264 N 
HETATM   50  N8  UNL     1       7.237   0.273   1.327  1.00  0.00    -0.239 N 
ATOM     51  H7  UNL     1       7.741   0.146   3.337  1.00  0.00     0.190 HD
ATOM     52  H8  UNL     1       8.035   0.793   0.961  1.00  0.00     0.208 HD
BRANCH  48  53
HETATM   53  O2  UNL     1       5.374  -1.286   3.893  1.00  0.00    -0.344 OA
ATOM     54  H2  UNL     1       5.745  -1.255   4.767  1.00  0.00     0.219 HD
ENDBRANCH  48  53
ENDBRANCH  45  46
ENDBRANCH  44  45
ENDBRANCH  42  44
ENDBRANCH  35  42
ENDBRANCH  29  31
ENDBRANCH   1  29
TORSDOF 12
