REMARK  20 active torsions:
REMARK  status: ('A' for Active; 'I' for Inactive)
REMARK    1  A    between atoms: N1_1  and  N2_4 
REMARK    2  A    between atoms: N2_4  and  C1_5 
REMARK    3  A    between atoms: C2_6  and  O1_7 
REMARK    4  A    between atoms: O1_7  and  C3_8 
REMARK    5  A    between atoms: C5_10  and  O2_11 
REMARK    6  A    between atoms: C6_13  and  S1_14 
REMARK    7  A    between atoms: S1_14  and  S2_15 
REMARK    8  A    between atoms: S2_15  and  C7_16 
REMARK    9  A    between atoms: C8_18  and  O4_19 
REMARK   10  A    between atoms: O4_19  and  C9_20 
REMARK   11  A    between atoms: C10_21  and  N3_22 
REMARK   12  A    between atoms: C12_27  and  N4_28 
REMARK   13  A    between atoms: C13_32  and  O5_33 
REMARK   14  A    between atoms: C14_35  and  O6_36 
REMARK   15  A    between atoms: C15_38  and  N5_39 
REMARK   16  A    between atoms: C17_44  and  N6_45 
REMARK   17  A    between atoms: C18_51  and  C19_52 
REMARK   18  A    between atoms: C19_52  and  O9_53 
REMARK   19  A    between atoms: C20_55  and  O10_56 
REMARK   20  A    between atoms: C21_58  and  O11_59 
ROOT
HETATM    1  C7  UNL     1       2.453  -0.393  -0.259  1.00  0.00     0.227 C 
HETATM    2  O3  UNL     1       2.867   0.639  -1.108  1.00  0.00    -0.341 OA
HETATM    3  C8  UNL     1       3.961   1.316  -0.575  1.00  0.00     0.292 C 
HETATM    4  C15 UNL     1       3.438   2.093   0.611  1.00  0.00     0.240 C 
HETATM    5  C16 UNL     1       2.972   1.122   1.659  1.00  0.00     0.074 C 
HETATM    6  C17 UNL     1       2.074   0.042   1.091  1.00  0.00     0.225 C 
ENDROOT
BRANCH   1   7
HETATM    7  S2  UNL     1       1.387  -1.492  -1.141  1.00  0.00    -0.060 SA
BRANCH   7   8
HETATM    8  S1  UNL     1      -0.410  -0.760  -1.853  1.00  0.00    -0.060 SA
BRANCH   8   9
HETATM    9  C6  UNL     1      -1.843  -0.944  -0.790  1.00  0.00     0.225 C 
HETATM   10  C5  UNL     1      -1.821  -0.105   0.435  1.00  0.00     0.162 C 
HETATM   11  C4  UNL     1      -3.219   0.395   0.601  1.00  0.00     0.096 C 
HETATM   12  C3  UNL     1      -3.758   0.278  -0.795  1.00  0.00     0.267 C 
HETATM   13  O7  UNL     1      -3.011  -0.637  -1.452  1.00  0.00    -0.342 OA
BRANCH  10  14
HETATM   14  O2  UNL     1      -1.417  -0.859   1.553  1.00  0.00    -0.392 OA
ATOM     15  H2  UNL     1      -0.528  -1.177   1.447  1.00  0.00     0.210 HD
ENDBRANCH  10  14
BRANCH  12  16
HETATM   16  O1  UNL     1      -5.104  -0.064  -0.670  1.00  0.00    -0.330 OA
BRANCH  16  17
HETATM   17  C2  UNL     1      -5.977   0.823  -1.242  1.00  0.00     0.287 C 
HETATM   18  C1  UNL     1      -6.851   0.019  -2.214  1.00  0.00     0.185 C 
HETATM   19  C21 UNL     1      -7.277  -1.243  -1.501  1.00  0.00     0.175 C 
HETATM   20  C20 UNL     1      -7.909  -0.942  -0.164  1.00  0.00     0.179 C 
HETATM   21  C18 UNL     1      -7.162   0.165   0.563  1.00  0.00     0.179 C 
HETATM   22  O8  UNL     1      -6.870   1.248  -0.236  1.00  0.00    -0.349 OA
BRANCH  18  23
HETATM   23  N2  UNL     1      -8.003   0.792  -2.550  1.00  0.00    -0.136 NA
BRANCH  23  24
HETATM   24  N1  UNL     1      -8.832   0.215  -3.482  1.00  0.00    -0.348 N 
ATOM     25  H12 UNL     1      -8.626  -0.696  -3.892  1.00  0.00     0.172 HD
ATOM     26  H11 UNL     1      -9.655   0.767  -3.722  1.00  0.00     0.172 HD
ENDBRANCH  23  24
ENDBRANCH  18  23
BRANCH  19  27
HETATM   27  O11 UNL     1      -8.180  -1.950  -2.269  1.00  0.00    -0.391 OA
ATOM     28  H11 UNL     1      -8.448  -2.744  -1.821  1.00  0.00     0.210 HD
ENDBRANCH  19  27
BRANCH  20  29
HETATM   29  O10 UNL     1      -7.792  -2.091   0.635  1.00  0.00    -0.390 OA
ATOM     30  H10 UNL     1      -8.259  -2.783   0.181  1.00  0.00     0.210 HD
ENDBRANCH  20  29
BRANCH  21  31
HETATM   31  C19 UNL     1      -8.051   0.615   1.711  1.00  0.00     0.198 C 
BRANCH  31  32
HETATM   32  O9  UNL     1      -8.367  -0.455   2.546  1.00  0.00    -0.398 OA
ATOM     33  H9  UNL     1      -8.923  -0.174   3.263  1.00  0.00     0.209 HD
ENDBRANCH  31  32
ENDBRANCH  21  31
ENDBRANCH  16  17
ENDBRANCH  12  16
ENDBRANCH   8   9
ENDBRANCH   7   8
ENDBRANCH   1   7
BRANCH   6  34
HETATM   34  N6  UNL     1       2.069  -1.080   2.008  1.00  0.00    -0.072 N 
ATOM     35  H63 UNL     1       1.474  -1.838   1.674  1.00  0.00     0.274 HD
ATOM     36  H62 UNL     1       2.962  -1.573   2.006  1.00  0.00     0.274 HD
ATOM     37  H61 UNL     1       1.806  -0.778   2.946  1.00  0.00     0.274 HD
ENDBRANCH   6  34
BRANCH   3  38
HETATM   38  O4  UNL     1       4.950   0.466  -0.087  1.00  0.00    -0.349 OA
BRANCH  38  39
HETATM   39  C9  UNL     1       6.187   0.715  -0.653  1.00  0.00     0.186 C 
HETATM   40  C10 UNL     1       7.150   1.116   0.417  1.00  0.00     0.217 C 
HETATM   41  C11 UNL     1       7.482   0.058   1.413  1.00  0.00     0.071 C 
HETATM   42  C12 UNL     1       7.737  -1.292   0.801  1.00  0.00     0.216 C 
HETATM   43  C13 UNL     1       6.665  -1.633  -0.213  1.00  0.00     0.179 C 
HETATM   44  C14 UNL     1       6.678  -0.567  -1.286  1.00  0.00     0.180 C 
BRANCH  40  45
HETATM   45  N3  UNL     1       8.384   1.623  -0.158  1.00  0.00    -0.072 N 
ATOM     46  H33 UNL     1       8.799   0.955  -0.807  1.00  0.00     0.274 HD
ATOM     47  H32 UNL     1       8.209   2.386  -0.812  1.00  0.00     0.274 HD
ATOM     48  H31 UNL     1       9.041   1.897   0.572  1.00  0.00     0.274 HD
ENDBRANCH  40  45
BRANCH  42  49
HETATM   49  N4  UNL     1       9.063  -1.408   0.233  1.00  0.00    -0.072 N 
ATOM     50  H43 UNL     1       9.239  -0.662  -0.440  1.00  0.00     0.274 HD
ATOM     51  H42 UNL     1       9.778  -1.179   0.924  1.00  0.00     0.274 HD
ATOM     52  H41 UNL     1       9.236  -2.324  -0.182  1.00  0.00     0.274 HD
ENDBRANCH  42  49
BRANCH  43  53
HETATM   53  O5  UNL     1       6.907  -2.899  -0.742  1.00  0.00    -0.391 OA
ATOM     54  H5  UNL     1       6.235  -3.113  -1.378  1.00  0.00     0.210 HD
ENDBRANCH  43  53
BRANCH  44  55
HETATM   55  O6  UNL     1       7.951  -0.419  -1.833  1.00  0.00    -0.390 OA
ATOM     56  H6  UNL     1       8.260  -1.225  -2.231  1.00  0.00     0.210 HD
ENDBRANCH  44  55
ENDBRANCH  38  39
ENDBRANCH   3  38
BRANCH   4  57
HETATM   57  N5  UNL     1       2.359   2.986   0.252  1.00  0.00    -0.070 N 
ATOM     58  H53 UNL     1       2.636   3.612  -0.505  1.00  0.00     0.274 HD
ATOM     59  H52 UNL     1       1.607   2.483  -0.219  1.00  0.00     0.274 HD
ATOM     60  H51 UNL     1       2.006   3.510   1.052  1.00  0.00     0.274 HD
ENDBRANCH   4  57
TORSDOF 20
