REMARK  19 active torsions:
REMARK  status: ('A' for Active; 'I' for Inactive)
REMARK    1  A    between atoms: C1_2  and  C2_4 
REMARK    2  A    between atoms: C2_4  and  O3_5 
REMARK    3  A    between atoms: C3_7  and  C4_8 
REMARK    4  A    between atoms: C4_8  and  O4_9 
REMARK    5  A    between atoms: C5_12  and  O6_13 
REMARK    6  A    between atoms: O6_13  and  C6_14 
REMARK    7  A    between atoms: C7_15  and  C8_16 
REMARK    8  A    between atoms: C8_16  and  O7_17 
REMARK    9  A    between atoms: C9_20  and  S1_21 
REMARK   10  A    between atoms: S1_21  and  C10_22 
REMARK   11  A    between atoms: C11_24  and  C12_25 
REMARK   12  A    between atoms: C12_25  and  O10_26 
REMARK   13  A    between atoms: C13_28  and  O11_29 
REMARK   14  A    between atoms: C14_31  and  S2_32 
REMARK   15  A    between atoms: C15_35  and  O13_36 
REMARK   16  A    between atoms: C16_38  and  O14_39 
REMARK   17  A    between atoms: C17_41  and  O15_42 
REMARK   18  A    between atoms: C18_44  and  N1_45 
REMARK   19  A    between atoms: N1_45  and  O16_46 
ROOT
HETATM    1  C6  UNL     1      -0.915   0.008   0.314  1.00  0.00     0.187 C 
HETATM    2  C7  UNL     1      -0.147  -0.314   1.527  1.00  0.00     0.178 C 
HETATM    3  O8  UNL     1       1.047  -0.902   1.179  1.00  0.00    -0.363 OA
HETATM    4  C9  UNL     1       1.751  -0.320   0.182  1.00  0.00     0.219 C 
HETATM    5  C15 UNL     1       1.220   0.904  -0.457  1.00  0.00     0.188 C 
HETATM    6  C16 UNL     1      -0.255   0.990  -0.624  1.00  0.00     0.181 C 
ENDROOT
BRANCH   1   7
HETATM    7  O6  UNL     1      -2.230   0.333   0.460  1.00  0.00    -0.348 OA
BRANCH   7   8
HETATM    8  C5  UNL     1      -3.165  -0.503  -0.081  1.00  0.00     0.291 C 
HETATM    9  O5  UNL     1      -3.971  -0.941   0.959  1.00  0.00    -0.347 OA
HETATM   10  C3  UNL     1      -4.985  -0.053   1.277  1.00  0.00     0.195 C 
HETATM   11  C2  UNL     1      -6.026  -0.073   0.179  1.00  0.00     0.196 C 
HETATM   12  C18 UNL     1      -5.388  -0.071  -1.187  1.00  0.00     0.187 C 
HETATM   13  C17 UNL     1      -3.922   0.277  -1.141  1.00  0.00     0.198 C 
BRANCH  10  14
HETATM   14  C4  UNL     1      -5.569  -0.294   2.635  1.00  0.00     0.199 C 
BRANCH  14  15
HETATM   15  O4  UNL     1      -6.573   0.611   2.907  1.00  0.00    -0.398 OA
ATOM     16  H4  UNL     1      -6.943   0.458   3.768  1.00  0.00     0.209 HD
ENDBRANCH  14  15
ENDBRANCH  10  14
BRANCH  11  17
HETATM   17  C1  UNL     1      -6.983  -1.208   0.365  1.00  0.00     0.213 C 
HETATM   18  O1  UNL     1      -6.597  -2.418   0.372  1.00  0.00    -0.646 OA
HETATM   19  O2  UNL     1      -8.347  -1.017   0.541  1.00  0.00    -0.646 OA
ENDBRANCH  11  17
BRANCH  11  20
HETATM   20  O3  UNL     1      -6.791   1.102   0.243  1.00  0.00    -0.375 OA
ATOM     21  H3  UNL     1      -6.183   1.823   0.125  1.00  0.00     0.211 HD
ENDBRANCH  11  20
BRANCH  12  22
HETATM   22  N1  UNL     1      -5.567  -1.382  -1.758  1.00  0.00    -0.092 NA
BRANCH  22  23
HETATM   23  O16 UNL     1      -5.014  -1.492  -2.987  1.00  0.00    -0.295 OA
ATOM     24  H16 UNL     1      -5.132  -2.356  -3.363  1.00  0.00     0.238 HD
ENDBRANCH  22  23
ENDBRANCH  12  22
BRANCH  13  25
HETATM   25  O15 UNL     1      -3.330   0.160  -2.398  1.00  0.00    -0.389 OA
ATOM     26  H15 UNL     1      -3.804   0.648  -3.061  1.00  0.00     0.210 HD
ENDBRANCH  13  25
ENDBRANCH   7   8
ENDBRANCH   1   7
BRANCH   2  27
HETATM   27  C8  UNL     1       0.106   0.763   2.506  1.00  0.00     0.198 C 
BRANCH  27  28
HETATM   28  O7  UNL     1       0.719   0.258   3.672  1.00  0.00    -0.398 OA
ATOM     29  H7  UNL     1       0.882   0.951   4.302  1.00  0.00     0.209 HD
ENDBRANCH  27  28
ENDBRANCH   2  27
BRANCH   6  30
HETATM   30  O14 UNL     1      -0.755   2.282  -0.469  1.00  0.00    -0.390 OA
ATOM     31  H14 UNL     1      -0.340   2.900  -1.059  1.00  0.00     0.210 HD
ENDBRANCH   6  30
BRANCH   5  32
HETATM   32  O13 UNL     1       1.782   0.958  -1.761  1.00  0.00    -0.389 OA
ATOM     33  H13 UNL     1       1.441   1.744  -2.171  1.00  0.00     0.210 HD
ENDBRANCH   5  32
BRANCH   4  34
HETATM   34  S1  UNL     1       3.422   0.002   0.810  1.00  0.00    -0.075 SA
BRANCH  34  35
HETATM   35  C10 UNL     1       4.473   0.800  -0.420  1.00  0.00     0.329 C 
HETATM   36  O9  UNL     1       5.727   0.990   0.209  1.00  0.00    -0.342 OA
HETATM   37  C11 UNL     1       6.351  -0.241   0.423  1.00  0.00     0.181 C 
HETATM   38  C13 UNL     1       6.833  -0.738  -0.933  1.00  0.00     0.189 C 
HETATM   39  C14 UNL     1       6.032   0.070  -1.964  1.00  0.00     0.229 C 
HETATM   40  O12 UNL     1       4.703   0.016  -1.541  1.00  0.00    -0.333 OA
BRANCH  37  41
HETATM   41  C12 UNL     1       7.569  -0.007   1.276  1.00  0.00     0.199 C 
BRANCH  41  42
HETATM   42  O10 UNL     1       8.254  -1.188   1.541  1.00  0.00    -0.398 OA
ATOM     43  H10 UNL     1       9.023  -1.040   2.079  1.00  0.00     0.209 HD
ENDBRANCH  41  42
ENDBRANCH  37  41
BRANCH  38  44
HETATM   44  O11 UNL     1       8.189  -0.581  -1.090  1.00  0.00    -0.389 OA
ATOM     45  H11 UNL     1       8.490  -0.891  -1.936  1.00  0.00     0.210 HD
ENDBRANCH  38  44
BRANCH  39  46
HETATM   46  S2  UNL     1       6.181  -0.682  -3.592  1.00  0.00    -0.050 SA
HETATM   47  S3  UNL     1       8.186  -0.525  -4.258  1.00  0.00    -0.011 SA
ENDBRANCH  39  46
ENDBRANCH  34  35
ENDBRANCH   4  34
TORSDOF 19
