REMARK  19 active torsions:
REMARK  status: ('A' for Active; 'I' for Inactive)
REMARK    1  A    between atoms: S1_2  and  C2_3 
REMARK    2  A    between atoms: C3_6  and  C4_7 
REMARK    3  A    between atoms: C4_7  and  N2_8 
REMARK    4  A    between atoms: C4_7  and  C5_12 
REMARK    5  A    between atoms: C5_12  and  O2_13 
REMARK    6  A    between atoms: C5_12  and  N3_15 
REMARK    7  A    between atoms: N3_15  and  C6_17 
REMARK    8  A    between atoms: C7_18  and  C8_19 
REMARK    9  A    between atoms: C8_19  and  O3_20 
REMARK   10  A    between atoms: C8_19  and  O4_22 
REMARK   11  A    between atoms: C10_25  and  N4_26 
REMARK   12  A    between atoms: N4_26  and  C11_28 
REMARK   13  A    between atoms: C12_30  and  C13_31 
REMARK   14  A    between atoms: C13_31  and  O6_32 
REMARK   15  A    between atoms: C14_34  and  O7_35 
REMARK   16  A    between atoms: O7_35  and  N5_36 
REMARK   17  A    between atoms: C15_40  and  C16_41 
REMARK   18  A    between atoms: C16_41  and  O9_42 
REMARK   19  A    between atoms: C17_44  and  O10_45 
ROOT
HETATM    1  C6  UNL     1       0.970  -0.128   0.502  1.00  0.00     0.068 A 
HETATM    2  C7  UNL     1       0.116  -0.911   1.253  1.00  0.00     0.027 A 
HETATM    3  C9  UNL     1      -1.256  -0.930   0.973  1.00  0.00     0.046 A 
HETATM    4  C10 UNL     1      -1.817  -0.188  -0.038  1.00  0.00     0.066 A 
HETATM    5  C17 UNL     1      -0.947   0.585  -0.768  1.00  0.00     0.118 A 
HETATM    6  C18 UNL     1       0.436   0.625  -0.511  1.00  0.00     0.108 A 
HETATM    7  N6  UNL     1       1.221   1.524  -1.318  1.00  0.00    -0.097 NA
ENDROOT
BRANCH   1   8
HETATM    8  N3  UNL     1       2.348  -0.111   0.800  1.00  0.00    -0.360 N 
ATOM      9  H3  UNL     1       2.620   0.642   1.431  1.00  0.00     0.162 HD
BRANCH   8  10
HETATM   10  C5  UNL     1       3.415  -0.922   0.402  1.00  0.00     0.252 C 
BRANCH  10  11
HETATM   11  C4  UNL     1       3.940  -0.926  -0.979  1.00  0.00     0.279 C 
BRANCH  11  12
HETATM   12  C3  UNL     1       4.754   0.279  -1.386  1.00  0.00     0.297 C 
HETATM   13  N1  UNL     1       5.516   0.665  -0.225  1.00  0.00    -0.062 NA
HETATM   14  O1  UNL     1       6.274   1.765  -0.407  1.00  0.00    -0.250 OA
HETATM   15  C2  UNL     1       7.469   1.442  -1.060  1.00  0.00     0.358 C 
HETATM   16  S2  UNL     1       6.984   0.689  -2.598  1.00  0.00     0.306 S 
HETATM   17  O11 UNL     1       5.546  -0.136  -2.453  1.00  0.00    -0.246 OA
HETATM   18  O12 UNL     1       6.887   1.709  -3.697  1.00  0.00    -0.195 OA
HETATM   19  O13 UNL     1       8.036  -0.310  -3.016  1.00  0.00    -0.195 OA
BRANCH  15  20
HETATM   20  S1  UNL     1       8.432   0.234  -0.139  1.00  0.00    -0.122 SA
HETATM   21  C1  UNL     1       9.048   0.847   1.432  1.00  0.00     0.093 C 
ENDBRANCH  15  20
ENDBRANCH  11  12
BRANCH  11  22
HETATM   22  N2  UNL     1       3.099  -1.429  -2.011  1.00  0.00    -0.067 N 
ATOM     23  H23 UNL     1       2.493  -0.692  -2.371  1.00  0.00     0.275 HD
ATOM     24  H22 UNL     1       3.642  -1.630  -2.850  1.00  0.00     0.275 HD
ATOM     25  H21 UNL     1       2.549  -2.243  -1.736  1.00  0.00     0.275 HD
ENDBRANCH  11  22
ENDBRANCH  10  11
BRANCH  10  26
HETATM   26  O2  UNL     1       3.169  -2.310   0.689  1.00  0.00    -0.375 OA
ATOM     27  H2  UNL     1       2.831  -2.307   1.577  1.00  0.00     0.212 HD
ENDBRANCH  10  26
ENDBRANCH   8  10
ENDBRANCH   1   8
BRANCH   2  28
HETATM   28  C8  UNL     1       0.522  -1.749   2.404  1.00  0.00     0.290 C 
BRANCH  28  29
HETATM   29  O3  UNL     1      -0.421  -1.507   3.459  1.00  0.00    -0.367 OA
ATOM     30  H3  UNL     1      -0.160  -2.045   4.198  1.00  0.00     0.213 HD
ENDBRANCH  28  29
BRANCH  28  31
HETATM   31  O4  UNL     1       0.290  -3.083   2.061  1.00  0.00    -0.367 OA
ATOM     32  H4  UNL     1       0.551  -3.621   2.800  1.00  0.00     0.213 HD
ENDBRANCH  28  31
ENDBRANCH   2  28
BRANCH   5  33
HETATM   33  O10 UNL     1      -1.397   1.370  -1.803  1.00  0.00    -0.357 OA
ATOM     34  H10 UNL     1      -0.795   1.905  -2.308  1.00  0.00     0.218 HD
ENDBRANCH   5  33
BRANCH   4  35
HETATM   35  N4  UNL     1      -3.202  -0.242  -0.351  1.00  0.00    -0.359 N 
ATOM     36  H4  UNL     1      -3.504   0.240  -1.198  1.00  0.00     0.162 HD
BRANCH  35  37
HETATM   37  C11 UNL     1      -4.215  -0.910   0.412  1.00  0.00     0.253 C 
HETATM   38  O5  UNL     1      -5.277  -1.333  -0.411  1.00  0.00    -0.352 OA
HETATM   39  C12 UNL     1      -5.862  -0.319  -1.091  1.00  0.00     0.205 C 
HETATM   40  C14 UNL     1      -6.091   0.960  -0.355  1.00  0.00     0.319 C 
HETATM   41  O8  UNL     1      -5.008   1.272   0.496  1.00  0.00    -0.344 OA
HETATM   42  C15 UNL     1      -4.869   0.131   1.318  1.00  0.00     0.197 C 
BRANCH  39  43
HETATM   43  C13 UNL     1      -7.229  -0.771  -1.620  1.00  0.00     0.201 C 
BRANCH  43  44
HETATM   44  O6  UNL     1      -7.784   0.283  -2.322  1.00  0.00    -0.398 OA
ATOM     45  H6  UNL     1      -8.631   0.003  -2.650  1.00  0.00     0.209 HD
ENDBRANCH  43  44
ENDBRANCH  39  43
BRANCH  40  46
HETATM   46  O7  UNL     1      -7.257   0.996   0.392  1.00  0.00    -0.252 OA
BRANCH  46  47
HETATM   47  N5  UNL     1      -7.980   2.072   0.054  1.00  0.00    -0.308 N 
ATOM     48  H52 UNL     1      -7.700   2.754  -0.651  1.00  0.00     0.184 HD
ATOM     49  H51 UNL     1      -8.839   2.099   0.604  1.00  0.00     0.184 HD
ENDBRANCH  46  47
ENDBRANCH  40  46
BRANCH  42  50
HETATM   50  C16 UNL     1      -4.109   0.499   2.530  1.00  0.00     0.200 C 
BRANCH  50  51
HETATM   51  O9  UNL     1      -3.914  -0.573   3.406  1.00  0.00    -0.398 OA
ATOM     52  H9  UNL     1      -3.425  -0.336   4.185  1.00  0.00     0.209 HD
ENDBRANCH  50  51
ENDBRANCH  42  50
ENDBRANCH  35  37
ENDBRANCH   4  35
TORSDOF 19
