REMARK  23 active torsions:
REMARK  status: ('A' for Active; 'I' for Inactive)
REMARK    1  A    between atoms: C2_2  and  C3_3 
REMARK    2  A    between atoms: C3_3  and  C4_4 
REMARK    3  A    between atoms: C4_4  and  C5_5 
REMARK    4  A    between atoms: C5_5  and  O1_6 
REMARK    5  A    between atoms: C6_9  and  O3_10 
REMARK    6  A    between atoms: O3_10  and  C7_11 
REMARK    7  A    between atoms: C8_13  and  C9_14 
REMARK    8  A    between atoms: C9_14  and  O5_15 
REMARK    9  A    between atoms: C10_17  and  O6_18 
REMARK   10  A    between atoms: C11_20  and  O7_21 
REMARK   11  A    between atoms: C12_23  and  O8_24 
REMARK   12  A    between atoms: C13_26  and  O9_27 
REMARK   13  A    between atoms: C14_29  and  O10_30 
REMARK   14  A    between atoms: O10_30  and  C15_31 
REMARK   15  A    between atoms: C16_32  and  O11_33 
REMARK   16  A    between atoms: C17_35  and  O12_36 
REMARK   17  A    between atoms: C18_38  and  O13_39 
REMARK   18  A    between atoms: C19_41  and  O14_42 
REMARK   19  A    between atoms: C20_44  and  O15_45 
REMARK   20  A    between atoms: C21_47  and  C22_48 
REMARK   21  A    between atoms: C22_48  and  N1_49 
REMARK   22  A    between atoms: N2_51  and  O16_53 
REMARK   23  A    between atoms: O16_53  and  N3_54 
ROOT
HETATM    1  C5  UNL     1       0.122   2.003  -0.308  1.00  0.00     0.172 C 
HETATM    2  O2  UNL     1       1.261   1.370  -0.833  1.00  0.00    -0.322 OA
HETATM    3  C6  UNL     1       1.642   0.419   0.074  1.00  0.00     0.297 C 
HETATM    4  C13 UNL     1       0.568  -0.519   0.538  1.00  0.00     0.203 C 
HETATM    5  C14 UNL     1      -0.804  -0.271   0.069  1.00  0.00     0.166 C 
HETATM    6  C21 UNL     1      -1.017   1.056  -0.620  1.00  0.00     0.099 C 
ENDROOT
BRANCH   5   7
HETATM    7  O10 UNL     1      -1.698  -0.450   1.127  1.00  0.00    -0.372 OA
BRANCH   7   8
HETATM    8  C15 UNL     1      -2.647  -1.415   0.922  1.00  0.00     0.184 C 
HETATM    9  C16 UNL     1      -2.542  -2.483   1.953  1.00  0.00     0.181 C 
HETATM   10  C17 UNL     1      -3.445  -2.277   3.143  1.00  0.00     0.180 C 
HETATM   11  C18 UNL     1      -4.887  -2.095   2.775  1.00  0.00     0.180 C 
HETATM   12  C19 UNL     1      -5.102  -1.662   1.352  1.00  0.00     0.180 C 
HETATM   13  C20 UNL     1      -3.996  -0.731   0.911  1.00  0.00     0.181 C 
BRANCH   9  14
HETATM   14  O11 UNL     1      -2.750  -3.770   1.398  1.00  0.00    -0.390 OA
ATOM     15  H11 UNL     1      -2.683  -4.452   2.056  1.00  0.00     0.210 HD
ENDBRANCH   9  14
BRANCH  10  16
HETATM   16  O12 UNL     1      -2.931  -1.252   3.917  1.00  0.00    -0.390 OA
ATOM     17  H12 UNL     1      -3.500  -1.122   4.667  1.00  0.00     0.210 HD
ENDBRANCH  10  16
BRANCH  11  18
HETATM   18  O13 UNL     1      -5.642  -3.255   2.984  1.00  0.00    -0.390 OA
ATOM     19  H13 UNL     1      -6.556  -3.140   2.751  1.00  0.00     0.210 HD
ENDBRANCH  11  18
BRANCH  12  20
HETATM   20  O14 UNL     1      -5.296  -2.719   0.476  1.00  0.00    -0.390 OA
ATOM     21  H14 UNL     1      -5.432  -2.445  -0.424  1.00  0.00     0.210 HD
ENDBRANCH  12  20
BRANCH  13  22
HETATM   22  O15 UNL     1      -4.018   0.361   1.782  1.00  0.00    -0.390 OA
ATOM     23  H15 UNL     1      -4.865   0.791   1.775  1.00  0.00     0.210 HD
ENDBRANCH  13  22
ENDBRANCH   7   8
ENDBRANCH   5   7
BRANCH   4  24
HETATM   24  O9  UNL     1       0.659  -0.679   1.924  1.00  0.00    -0.388 OA
ATOM     25  H9  UNL     1      -0.021  -1.273   2.218  1.00  0.00     0.210 HD
ENDBRANCH   4  24
BRANCH   6  26
HETATM   26  C22 UNL     1      -1.229   0.889  -2.104  1.00  0.00     0.154 C 
BRANCH  26  27
HETATM   27  N1  UNL     1      -2.315  -0.014  -2.414  1.00  0.00    -0.315 N 
HETATM   28  N2  UNL     1      -3.358   0.345  -3.036  1.00  0.00    -0.187 N 
ATOM     29  H2  UNL     1      -3.442   1.316  -3.336  1.00  0.00     0.218 HD
ATOM     30  H1  UNL     1      -2.237  -0.987  -2.117  1.00  0.00     0.182 HD
BRANCH  28  31
HETATM   31  O16 UNL     1      -4.365  -0.514  -3.317  1.00  0.00    -0.149 OA
BRANCH  31  32
HETATM   32  N3  UNL     1      -5.213  -0.361  -4.405  1.00  0.00    -0.285 N 
ATOM     33  H32 UNL     1      -5.056   0.443  -5.012  1.00  0.00     0.186 HD
ATOM     34  H31 UNL     1      -5.972  -1.009  -4.617  1.00  0.00     0.186 HD
ENDBRANCH  31  32
ENDBRANCH  28  31
ENDBRANCH  26  27
ENDBRANCH   6  26
BRANCH   3  35
HETATM   35  O3  UNL     1       2.801  -0.274  -0.336  1.00  0.00    -0.326 OA
BRANCH  35  36
HETATM   36  C7  UNL     1       3.899  -0.028   0.441  1.00  0.00     0.294 C 
HETATM   37  O4  UNL     1       4.344  -1.262   0.965  1.00  0.00    -0.348 OA
HETATM   38  C8  UNL     1       4.341  -2.271   0.050  1.00  0.00     0.179 C 
HETATM   39  C10 UNL     1       4.952  -1.971  -1.266  1.00  0.00     0.180 C 
HETATM   40  C11 UNL     1       4.967  -0.527  -1.662  1.00  0.00     0.183 C 
HETATM   41  C12 UNL     1       5.026   0.414  -0.480  1.00  0.00     0.204 C 
BRANCH  38  42
HETATM   42  C9  UNL     1       5.140  -3.427   0.670  1.00  0.00     0.198 C 
BRANCH  42  43
HETATM   43  O5  UNL     1       4.591  -3.870   1.847  1.00  0.00    -0.398 OA
ATOM     44  H5  UNL     1       5.085  -4.585   2.230  1.00  0.00     0.209 HD
ENDBRANCH  42  43
ENDBRANCH  38  42
BRANCH  39  45
HETATM   45  O6  UNL     1       4.207  -2.661  -2.250  1.00  0.00    -0.390 OA
ATOM     46  H6  UNL     1       4.599  -2.469  -3.094  1.00  0.00     0.210 HD
ENDBRANCH  39  45
BRANCH  40  47
HETATM   47  O7  UNL     1       6.026  -0.260  -2.527  1.00  0.00    -0.390 OA
ATOM     48  H7  UNL     1       6.036   0.656  -2.778  1.00  0.00     0.210 HD
ENDBRANCH  40  47
BRANCH  41  49
HETATM   49  O8  UNL     1       6.218   0.217   0.222  1.00  0.00    -0.388 OA
ATOM     50  H8  UNL     1       6.922   0.493  -0.353  1.00  0.00     0.210 HD
ENDBRANCH  41  49
ENDBRANCH  35  36
ENDBRANCH   3  35
BRANCH   1  51
HETATM   51  C4  UNL     1      -0.119   3.361  -0.863  1.00  0.00     0.069 C 
BRANCH  51  52
HETATM   52  C3  UNL     1       0.947   4.359  -0.479  1.00  0.00     0.005 C 
BRANCH  52  53
HETATM   53  C2  UNL     1       0.641   5.731  -1.077  1.00  0.00    -0.004 C 
HETATM   54  C1  UNL     1      -0.665   6.282  -0.612  1.00  0.00     0.005 C 
ENDBRANCH  52  53
ENDBRANCH  51  52
ENDBRANCH   1  51
BRANCH   1  55
HETATM   55  O1  UNL     1       0.162   2.047   1.102  1.00  0.00    -0.365 OA
ATOM     56  H1  UNL     1       0.316   1.179   1.457  1.00  0.00     0.213 HD
ENDBRANCH   1  55
TORSDOF 23
