REMARK  14 active torsions:
REMARK  status: ('A' for Active; 'I' for Inactive)
REMARK    1  A    between atoms: C3_4  and  O2_5 
REMARK    2  A    between atoms: O2_5  and  C4_6 
REMARK    3  A    between atoms: C7_10  and  O4_11 
REMARK    4  A    between atoms: C8_13  and  O5_14 
REMARK    5  A    between atoms: C9_16  and  O6_17 
REMARK    6  A    between atoms: O6_17  and  C10_18 
REMARK    7  A    between atoms: C10_18  and  C11_19 
REMARK    8  A    between atoms: C13_21  and  O7_22 
REMARK    9  A    between atoms: O7_22  and  C14_23 
REMARK   10  A    between atoms: N1_31  and  O8_33 
REMARK   11  A    between atoms: C22_35  and  N2_36 
REMARK   12  A    between atoms: C23_40  and  O9_41 
REMARK   13  A    between atoms: C24_43  and  O10_44 
REMARK   14  A    between atoms: C25_46  and  O11_47 
ROOT
HETATM    1  C4  UNL     1       2.824  -0.193   1.397  1.00  0.00     0.295 C 
HETATM    2  O3  UNL     1       3.236  -0.611   2.637  1.00  0.00    -0.351 OA
HETATM    3  C5  UNL     1       2.703  -1.880   2.899  1.00  0.00     0.152 C 
HETATM    4  C6  UNL     1       3.482  -2.442   4.063  1.00  0.00     0.042 C 
HETATM    5  C7  UNL     1       1.260  -1.755   3.374  1.00  0.00     0.178 C 
HETATM    6  C8  UNL     1       0.724  -0.485   2.696  1.00  0.00     0.183 C 
HETATM    7  C9  UNL     1       1.294  -0.488   1.311  1.00  0.00     0.208 C 
ENDROOT
BRANCH   7   8
HETATM    8  O6  UNL     1       0.706   0.427   0.484  1.00  0.00    -0.378 OA
BRANCH   8   9
HETATM    9  C10 UNL     1       0.296  -0.088  -0.718  1.00  0.00     0.175 C 
BRANCH   9  10
HETATM   10  C11 UNL     1      -0.776  -1.102  -0.578  1.00  0.00     0.048 C 
HETATM   11  C12 UNL     1      -1.984  -0.465   0.057  1.00  0.00     0.041 C 
HETATM   12  C13 UNL     1      -3.244  -0.697  -0.712  1.00  0.00     0.128 C 
HETATM   13  C20 UNL     1      -3.419  -2.217  -0.854  1.00  0.00     0.088 C 
HETATM   14  C21 UNL     1      -2.275  -2.653  -1.668  1.00  0.00     0.043 C 
HETATM   15  N1  UNL     1      -2.238  -3.824  -2.152  1.00  0.00    -0.275 N 
HETATM   16  C22 UNL     1      -1.182  -1.707  -1.908  1.00  0.00     0.237 C 
ATOM     17  H1  UNL     1      -1.414  -4.056  -2.707  1.00  0.00     0.193 HD
BRANCH  12  18
HETATM   18  O7  UNL     1      -4.349  -0.139  -0.084  1.00  0.00    -0.380 OA
BRANCH  18  19
HETATM   19  C14 UNL     1      -4.964   0.747  -0.948  1.00  0.00     0.122 C 
HETATM   20  C15 UNL     1      -5.038   2.146  -0.382  1.00  0.00     0.032 C 
HETATM   21  C16 UNL     1      -5.485   2.024   1.056  1.00  0.00     0.002 C 
HETATM   22  C17 UNL     1      -6.481   0.915   1.197  1.00  0.00     0.000 C 
HETATM   23  C18 UNL     1      -7.240   0.671  -0.081  1.00  0.00     0.002 C 
HETATM   24  C19 UNL     1      -6.367   0.238  -1.216  1.00  0.00     0.032 C 
ENDBRANCH  18  19
ENDBRANCH  12  18
BRANCH  15  25
HETATM   25  O8  UNL     1      -3.169  -4.808  -2.018  1.00  0.00    -0.290 OA
ATOM     26  H8  UNL     1      -3.141  -5.686  -2.381  1.00  0.00     0.244 HD
ENDBRANCH  15  25
BRANCH  16  27
HETATM   27  N2  UNL     1      -0.076  -2.415  -2.526  1.00  0.00    -0.069 N 
ATOM     28  H23 UNL     1       0.744  -1.816  -2.622  1.00  0.00     0.275 HD
ATOM     29  H22 UNL     1       0.315  -3.118  -1.899  1.00  0.00     0.275 HD
ATOM     30  H21 UNL     1      -0.349  -2.822  -3.421  1.00  0.00     0.275 HD
ENDBRANCH  16  27
ENDBRANCH   9  10
ENDBRANCH   8   9
ENDBRANCH   7   8
BRANCH   1  31
HETATM   31  O2  UNL     1       3.017   1.145   1.129  1.00  0.00    -0.326 OA
BRANCH  31  32
HETATM   32  C3  UNL     1       3.775   1.368   0.006  1.00  0.00     0.294 C 
HETATM   33  O1  UNL     1       3.182   2.132  -0.972  1.00  0.00    -0.351 OA
HETATM   34  C2  UNL     1       3.919   2.031  -2.132  1.00  0.00     0.152 C 
HETATM   35  C1  UNL     1       3.282   2.790  -3.278  1.00  0.00     0.042 C 
HETATM   36  C25 UNL     1       5.335   2.551  -2.008  1.00  0.00     0.178 C 
HETATM   37  C24 UNL     1       5.990   1.828  -0.854  1.00  0.00     0.183 C 
HETATM   38  C23 UNL     1       5.097   2.057   0.368  1.00  0.00     0.204 C 
BRANCH  36  39
HETATM   39  O11 UNL     1       5.962   2.264  -3.220  1.00  0.00    -0.390 OA
ATOM     40  H11 UNL     1       6.851   2.590  -3.142  1.00  0.00     0.210 HD
ENDBRANCH  36  39
BRANCH  37  41
HETATM   41  O10 UNL     1       5.952   0.464  -1.120  1.00  0.00    -0.390 OA
ATOM     42  H10 UNL     1       6.506   0.322  -1.878  1.00  0.00     0.210 HD
ENDBRANCH  37  41
BRANCH  38  43
HETATM   43  O9  UNL     1       5.636   1.508   1.510  1.00  0.00    -0.388 OA
ATOM     44  H9  UNL     1       6.455   1.935   1.734  1.00  0.00     0.210 HD
ENDBRANCH  38  43
ENDBRANCH  31  32
ENDBRANCH   1  31
BRANCH   6  45
HETATM   45  O5  UNL     1       1.121   0.642   3.423  1.00  0.00    -0.390 OA
ATOM     46  H5  UNL     1       0.790   1.427   3.004  1.00  0.00     0.210 HD
ENDBRANCH   6  45
BRANCH   5  47
HETATM   47  O4  UNL     1       0.496  -2.817   2.931  1.00  0.00    -0.390 OA
ATOM     48  H4  UNL     1      -0.403  -2.739   3.227  1.00  0.00     0.210 HD
ENDBRANCH   5  47
TORSDOF 14
