REMARK  15 active torsions:
REMARK  status: ('A' for Active; 'I' for Inactive)
REMARK    1  A    between atoms: C2_2  and  O2_4 
REMARK    2  A    between atoms: O2_4  and  C3_5 
REMARK    3  A    between atoms: C6_8  and  C7_9 
REMARK    4  A    between atoms: C7_9  and  O3_10 
REMARK    5  A    between atoms: C10_15  and  O4_16 
REMARK    6  A    between atoms: O4_16  and  C11_17 
REMARK    7  A    between atoms: C12_18  and  C13_19 
REMARK    8  A    between atoms: C19_25  and  O5_26 
REMARK    9  A    between atoms: O5_26  and  C20_27 
REMARK   10  A    between atoms: C21_29  and  C22_30 
REMARK   11  A    between atoms: C22_30  and  O7_31 
REMARK   12  A    between atoms: C23_33  and  O8_34 
REMARK   13  A    between atoms: C24_36  and  O9_37 
REMARK   14  A    between atoms: C25_39  and  O10_40 
REMARK   15  A    between atoms: C26_42  and  O11_43 
ROOT
HETATM    1  C3  UNL     1      -2.376  -1.913  -0.489  1.00  0.00     0.184 C 
HETATM    2  C4  UNL     1      -2.826  -2.212  -1.883  1.00  0.00     0.004 C 
HETATM    3  C5  UNL     1      -3.927  -1.599  -2.311  1.00  0.00    -0.020 C 
HETATM    4  C6  UNL     1      -4.712  -0.660  -1.506  1.00  0.00     0.052 C 
HETATM    5  C8  UNL     1      -4.002  -0.175  -0.246  1.00  0.00     0.134 C 
HETATM    6  C9  UNL     1      -4.480   1.159  -0.008  1.00  0.00     0.067 C 
HETATM    7  N1  UNL     1      -4.888   2.217   0.169  1.00  0.00    -0.197 NA
HETATM    8  C10 UNL     1      -2.539  -0.383  -0.333  1.00  0.00     0.173 C 
ENDROOT
BRANCH   4   9
HETATM    9  C7  UNL     1      -6.030  -1.285  -1.142  1.00  0.00     0.174 C 
BRANCH   9  10
HETATM   10  O3  UNL     1      -6.830  -0.449  -0.378  1.00  0.00    -0.400 OA
ATOM     11  H3  UNL     1      -7.663  -0.844  -0.148  1.00  0.00     0.209 HD
ENDBRANCH   9  10
ENDBRANCH   4   9
BRANCH   8  12
HETATM   12  O4  UNL     1      -1.835   0.056   0.756  1.00  0.00    -0.373 OA
BRANCH  12  13
HETATM   13  C11 UNL     1      -0.771   0.877   0.512  1.00  0.00     0.161 C 
HETATM   14  C12 UNL     1      -0.523   2.057   1.337  1.00  0.00     0.040 C 
HETATM   15  C17 UNL     1       0.600   1.803   2.377  1.00  0.00     0.013 C 
HETATM   16  C18 UNL     1       1.897   1.669   1.613  1.00  0.00     0.035 C 
HETATM   17  C19 UNL     1       1.755   0.677   0.497  1.00  0.00     0.156 C 
HETATM   18  C26 UNL     1       0.461  -0.097   0.575  1.00  0.00     0.176 C 
BRANCH  14  19
HETATM   19  C13 UNL     1      -1.612   2.657   2.102  1.00  0.00    -0.018 C 
HETATM   20  C14 UNL     1      -2.073   3.897   1.870  1.00  0.00    -0.091 C 
HETATM   21  C15 UNL     1      -1.453   4.727   0.772  1.00  0.00     0.042 C 
HETATM   22  C16 UNL     1      -3.173   4.485   2.667  1.00  0.00     0.042 C 
ENDBRANCH  14  19
BRANCH  17  23
HETATM   23  O5  UNL     1       2.776  -0.232   0.396  1.00  0.00    -0.351 OA
BRANCH  23  24
HETATM   24  C20 UNL     1       3.513  -0.263  -0.751  1.00  0.00     0.292 C 
HETATM   25  O6  UNL     1       4.838   0.044  -0.374  1.00  0.00    -0.348 OA
HETATM   26  C21 UNL     1       5.690   0.076  -1.454  1.00  0.00     0.179 C 
HETATM   27  C23 UNL     1       5.816  -1.268  -2.137  1.00  0.00     0.180 C 
HETATM   28  C24 UNL     1       4.470  -1.893  -2.413  1.00  0.00     0.183 C 
HETATM   29  C25 UNL     1       3.562  -1.704  -1.234  1.00  0.00     0.204 C 
BRANCH  26  30
HETATM   30  C22 UNL     1       7.072   0.422  -0.937  1.00  0.00     0.198 C 
BRANCH  30  31
HETATM   31  O7  UNL     1       7.114   1.650  -0.291  1.00  0.00    -0.398 OA
ATOM     32  H7  UNL     1       7.980   1.867   0.033  1.00  0.00     0.209 HD
ENDBRANCH  30  31
ENDBRANCH  26  30
BRANCH  27  33
HETATM   33  O8  UNL     1       6.417  -1.054  -3.375  1.00  0.00    -0.390 OA
ATOM     34  H8  UNL     1       6.496  -1.898  -3.804  1.00  0.00     0.210 HD
ENDBRANCH  27  33
BRANCH  28  35
HETATM   35  O9  UNL     1       4.677  -3.258  -2.580  1.00  0.00    -0.390 OA
ATOM     36  H9  UNL     1       3.830  -3.651  -2.754  1.00  0.00     0.210 HD
ENDBRANCH  28  35
BRANCH  29  37
HETATM   37  O10 UNL     1       4.075  -2.453  -0.174  1.00  0.00    -0.388 OA
ATOM     38  H10 UNL     1       4.106  -3.353  -0.476  1.00  0.00     0.210 HD
ENDBRANCH  29  37
ENDBRANCH  23  24
ENDBRANCH  17  23
BRANCH  18  39
HETATM   39  O11 UNL     1       0.378  -0.936   1.654  1.00  0.00    -0.390 OA
ATOM     40  H11 UNL     1       1.123  -1.525   1.692  1.00  0.00     0.210 HD
ENDBRANCH  18  39
ENDBRANCH  12  13
ENDBRANCH   8  12
BRANCH   1  41
HETATM   41  O2  UNL     1      -3.243  -2.533   0.412  1.00  0.00    -0.310 OA
BRANCH  41  42
HETATM   42  C2  UNL     1      -2.752  -3.481   1.313  1.00  0.00     0.255 C 
HETATM   43  C1  UNL     1      -3.601  -4.182   2.305  1.00  0.00     0.126 C 
HETATM   44  O1  UNL     1      -1.506  -3.729   1.251  1.00  0.00    -0.266 OA
ENDBRANCH  41  42
ENDBRANCH   1  41
TORSDOF 15
