REMARK  12 active torsions:
REMARK  status: ('A' for Active; 'I' for Inactive)
REMARK    1  A    between atoms: C2_2  and  O2_4 
REMARK    2  A    between atoms: O2_4  and  C3_5 
REMARK    3  A    between atoms: C6_8  and  O3_9 
REMARK    4  A    between atoms: C7_11  and  C8_12 
REMARK    5  A    between atoms: C9_13  and  C10_14 
REMARK    6  A    between atoms: C15_19  and  O4_20 
REMARK    7  A    between atoms: O4_20  and  C16_21 
REMARK    8  A    between atoms: C19_26  and  O6_27 
REMARK    9  A    between atoms: C21_30  and  O7_31 
REMARK   10  A    between atoms: O7_31  and  C22_32 
REMARK   11  A    between atoms: C24_38  and  O8_39 
REMARK   12  A    between atoms: C25_41  and  O9_42 
ROOT
HETATM    1  C3  UNL     1      -1.548  -2.922   0.554  1.00  0.00     0.168 C 
HETATM    2  C4  UNL     1      -1.700  -2.341   1.933  1.00  0.00     0.047 C 
HETATM    3  C5  UNL     1      -1.565  -0.872   2.006  1.00  0.00     0.088 C 
HETATM    4  C6  UNL     1      -0.081  -0.536   2.097  1.00  0.00     0.145 C 
HETATM    5  C7  UNL     1       0.152   0.011   0.681  1.00  0.00     0.069 C 
HETATM    6  C15 UNL     1       0.101  -1.171  -0.219  1.00  0.00     0.186 C 
HETATM    7  C18 UNL     1      -1.251  -1.791  -0.408  1.00  0.00     0.290 C 
HETATM    8  N1  UNL     1      -2.342  -0.888  -0.279  1.00  0.00     0.170 N 
HETATM    9  C19 UNL     1      -2.726  -0.214  -1.473  1.00  0.00     0.394 C 
HETATM   10  C20 UNL     1      -2.527   1.256  -1.317  1.00  0.00     0.004 C 
HETATM   11  C21 UNL     1      -3.418   2.151  -1.698  1.00  0.00     0.152 C 
HETATM   12  C23 UNL     1      -1.226   1.630  -0.689  1.00  0.00     0.085 C 
HETATM   13  C24 UNL     1      -1.060   0.916   0.599  1.00  0.00     0.138 C 
HETATM   14  C25 UNL     1      -2.159  -0.096   0.885  1.00  0.00     0.301 C 
ENDROOT
BRANCH   5  15
HETATM   15  C8  UNL     1       1.397   0.759   0.541  1.00  0.00    -0.012 C 
HETATM   16  C9  UNL     1       2.443   0.626   1.333  1.00  0.00    -0.020 C 
BRANCH  16  17
HETATM   17  C10 UNL     1       3.697   1.404   1.163  1.00  0.00    -0.027 C 
HETATM   18  C11 UNL     1       3.672   2.765   1.833  1.00  0.00     0.019 C 
HETATM   19  C12 UNL     1       4.046   1.540  -0.298  1.00  0.00     0.013 C 
HETATM   20  C13 UNL     1       5.207   0.616  -0.067  1.00  0.00     0.002 C 
HETATM   21  C14 UNL     1       4.982   0.651   1.421  1.00  0.00     0.013 C 
ENDBRANCH  16  17
ENDBRANCH   5  15
BRANCH   4  22
HETATM   22  O3  UNL     1       0.185   0.388   3.074  1.00  0.00    -0.394 OA
ATOM     23  H3  UNL     1       1.110   0.597   3.131  1.00  0.00     0.210 HD
ENDBRANCH   4  22
BRANCH   6  24
HETATM   24  O4  UNL     1       0.712  -0.833  -1.454  1.00  0.00    -0.313 OA
BRANCH  24  25
HETATM   25  C16 UNL     1       1.876  -1.481  -1.892  1.00  0.00     0.255 C 
HETATM   26  C17 UNL     1       2.532  -1.139  -3.188  1.00  0.00     0.126 C 
HETATM   27  O5  UNL     1       2.332  -2.366  -1.126  1.00  0.00    -0.266 OA
ENDBRANCH  24  25
ENDBRANCH   6  24
BRANCH  13  28
HETATM   28  O8  UNL     1      -1.056   1.809   1.654  1.00  0.00    -0.383 OA
ATOM     29  H8  UNL     1      -1.816   2.377   1.603  1.00  0.00     0.210 HD
ENDBRANCH  13  28
BRANCH  14  30
HETATM   30  O9  UNL     1      -3.323   0.538   1.308  1.00  0.00    -0.360 OA
ATOM     31  H9  UNL     1      -3.702   1.034   0.592  1.00  0.00     0.212 HD
ENDBRANCH  14  30
BRANCH   1  32
HETATM   32  O2  UNL     1      -0.659  -3.989   0.483  1.00  0.00    -0.314 OA
BRANCH  32  33
HETATM   33  C2  UNL     1      -1.080  -5.257   0.102  1.00  0.00     0.255 C 
HETATM   34  C1  UNL     1      -0.145  -6.412   0.019  1.00  0.00     0.126 C 
HETATM   35  O1  UNL     1      -2.297  -5.407  -0.177  1.00  0.00    -0.266 OA
ENDBRANCH  32  33
ENDBRANCH   1  32
BRANCH   9  36
HETATM   36  O6  UNL     1      -2.052  -0.669  -2.606  1.00  0.00    -0.364 OA
ATOM     37  H6  UNL     1      -2.308  -0.219  -3.403  1.00  0.00     0.212 HD
ENDBRANCH   9  36
BRANCH  11  38
HETATM   38  O7  UNL     1      -3.098   3.502  -1.488  1.00  0.00    -0.294 OA
BRANCH  38  39
HETATM   39  C22 UNL     1      -4.135   4.422  -1.280  1.00  0.00     0.229 C 
HETATM   40  N2  UNL     1      -5.081   4.396  -2.129  1.00  0.00    -0.368 N 
ATOM     41  H22 UNL     1      -5.147   3.772  -2.933  1.00  0.00     0.159 HD
ATOM     42  H21 UNL     1      -5.836   5.065  -1.978  1.00  0.00     0.159 HD
HETATM   43  N3  UNL     1      -4.043   5.290  -0.162  1.00  0.00    -0.056 NA
ENDBRANCH  38  39
ENDBRANCH  11  38
TORSDOF 12
