REMARK  13 active torsions:
REMARK  status: ('A' for Active; 'I' for Inactive)
REMARK    1  A    between atoms: O1_2  and  C2_3 
REMARK    2  A    between atoms: C2_3  and  C3_5 
REMARK    3  A    between atoms: C3_5  and  C4_6 
REMARK    4  A    between atoms: C4_6  and  O3_7 
REMARK    5  A    between atoms: C4_6  and  C5_9 
REMARK    6  A    between atoms: N1_11  and  C6_12 
REMARK    7  A    between atoms: C7_15  and  C8_16 
REMARK    8  A    between atoms: C9_17  and  C10_18 
REMARK    9  A    between atoms: C13_26  and  N6_27 
REMARK   10  A    between atoms: C19_39  and  N9_40 
REMARK   11  A    between atoms: N9_40  and  N10_42 
REMARK   12  A    between atoms: N10_42  and  N11_43 
REMARK   13  A    between atoms: C20_46  and  O5_47 
ROOT
HETATM    1  C6  UNL     1       0.344  -1.254  -0.270  1.00  0.00     0.158 A 
HETATM    2  N2  UNL     1       1.059  -0.140  -0.600  1.00  0.00    -0.330 N 
ATOM      3  H2  UNL     1       0.741   0.583  -1.245  1.00  0.00     0.168 HD
HETATM    4  C7  UNL     1       2.237  -0.127   0.040  1.00  0.00     0.117 A 
HETATM    5  C14 UNL     1       2.325  -1.242   0.812  1.00  0.00     0.094 A 
HETATM    6  C15 UNL     1       1.135  -1.935   0.608  1.00  0.00     0.104 A 
HETATM    7  N7  UNL     1       0.997  -3.155   1.329  1.00  0.00    -0.383 N 
ATOM      8  H7  UNL     1       0.069  -3.530   1.528  1.00  0.00     0.159 HD
HETATM    9  C16 UNL     1       2.194  -3.871   1.785  1.00  0.00     0.139 C 
HETATM   10  C17 UNL     1       3.105  -2.889   2.474  1.00  0.00     0.139 C 
HETATM   11  N8  UNL     1       3.335  -1.723   1.676  1.00  0.00    -0.384 N 
ATOM     12  H8  UNL     1       4.231  -1.238   1.731  1.00  0.00     0.159 HD
ENDROOT
BRANCH   1  13
HETATM   13  N1  UNL     1      -0.941  -1.621  -0.740  1.00  0.00    -0.237 N 
HETATM   14  O4  UNL     1      -1.553  -0.775  -1.591  1.00  0.00    -0.266 OA
HETATM   15  C5  UNL     1      -2.889  -0.578  -1.382  1.00  0.00     0.212 C 
HETATM   16  C20 UNL     1      -3.717  -1.844  -1.354  1.00  0.00     0.181 C 
HETATM   17  C19 UNL     1      -2.816  -3.032  -1.320  1.00  0.00     0.166 C 
HETATM   18  C18 UNL     1      -1.635  -2.830  -0.387  1.00  0.00     0.188 C 
BRANCH  15  19
HETATM   19  C4  UNL     1      -3.243   0.335  -0.249  1.00  0.00     0.161 C 
BRANCH  19  20
HETATM   20  C3  UNL     1      -2.801   1.766  -0.481  1.00  0.00     0.145 C 
BRANCH  20  21
HETATM   21  C2  UNL     1      -3.334   2.678   0.547  1.00  0.00     0.260 C 
HETATM   22  O2  UNL     1      -2.865   2.704   1.709  1.00  0.00    -0.265 OA
BRANCH  21  23
HETATM   23  O1  UNL     1      -4.372   3.525   0.224  1.00  0.00    -0.326 OA
HETATM   24  C1  UNL     1      -4.969   4.437   1.105  1.00  0.00     0.213 C 
ENDBRANCH  21  23
ENDBRANCH  20  21
ENDBRANCH  19  20
BRANCH  19  25
HETATM   25  O3  UNL     1      -2.781  -0.077   0.985  1.00  0.00    -0.392 OA
ATOM     26  H3  UNL     1      -3.058  -0.974   1.130  1.00  0.00     0.210 HD
ENDBRANCH  19  25
ENDBRANCH  15  19
BRANCH  16  27
HETATM   27  O5  UNL     1      -4.620  -1.936  -2.404  1.00  0.00    -0.386 OA
HETATM   28  C21 UNL     1      -5.930  -1.956  -2.004  1.00  0.00     0.202 C 
ENDBRANCH  16  27
BRANCH  17  29
HETATM   29  N9  UNL     1      -3.593  -4.160  -0.839  1.00  0.00    -0.243 N 
ATOM     30  H9  UNL     1      -4.142  -4.730  -1.483  1.00  0.00     0.197 HD
BRANCH  29  31
HETATM   31  N10 UNL     1      -3.573  -4.411   0.365  1.00  0.00    -0.248 NA
BRANCH  31  32
HETATM   32  N11 UNL     1      -3.316  -4.953   1.435  1.00  0.00    -0.261 N 
ATOM     33 2H11 UNL     1      -2.716  -5.679   1.043  1.00  0.00     0.193 HD
ATOM     34 1H11 UNL     1      -3.299  -5.161   2.433  1.00  0.00     0.193 HD
ENDBRANCH  31  32
ENDBRANCH  29  31
ENDBRANCH  17  29
ENDBRANCH   1  13
BRANCH   4  35
HETATM   35  C8  UNL     1       3.245   0.906  -0.077  1.00  0.00    -0.041 C 
HETATM   36  C9  UNL     1       4.094   1.755  -0.189  1.00  0.00    -0.052 C 
BRANCH  36  37
HETATM   37  C10 UNL     1       5.125   2.764  -0.315  1.00  0.00     0.102 A 
HETATM   38  C11 UNL     1       6.457   2.469  -0.122  1.00  0.00     0.139 A 
HETATM   39  N3  UNL     1       6.788   1.114   0.213  1.00  0.00    -0.081 NA
HETATM   40  N4  UNL     1       7.422   3.410  -0.239  1.00  0.00    -0.340 N 
HETATM   41  C12 UNL     1       7.094   4.675  -0.553  1.00  0.00     0.183 A 
ATOM     42  H4  UNL     1       8.399   3.159  -0.089  1.00  0.00     0.167 HD
HETATM   43  N5  UNL     1       5.810   4.995  -0.748  1.00  0.00    -0.338 N 
HETATM   44  C13 UNL     1       4.814   4.068  -0.636  1.00  0.00     0.122 A 
ATOM     45  H5  UNL     1       5.569   5.957  -0.987  1.00  0.00     0.168 HD
BRANCH  44  46
HETATM   46  N6  UNL     1       3.584   4.386  -0.825  1.00  0.00    -0.384 N 
ATOM     47  H62 UNL     1       2.840   3.693  -0.741  1.00  0.00     0.157 HD
ATOM     48  H61 UNL     1       3.354   5.351  -1.063  1.00  0.00     0.157 HD
ENDBRANCH  44  46
ENDBRANCH  36  37
ENDBRANCH   4  35
TORSDOF 13
