REMARK  14 active torsions:
REMARK  status: ('A' for Active; 'I' for Inactive)
REMARK    1  A    between atoms: C3_4  and  O2_5 
REMARK    2  A    between atoms: O2_5  and  C4_6 
REMARK    3  A    between atoms: C5_8  and  C6_9 
REMARK    4  A    between atoms: C6_9  and  O4_10 
REMARK    5  A    between atoms: C7_12  and  O5_13 
REMARK    6  A    between atoms: C8_15  and  O6_16 
REMARK    7  A    between atoms: C9_18  and  O7_19 
REMARK    8  A    between atoms: C10_21  and  O8_22 
REMARK    9  A    between atoms: C11_24  and  O9_25 
REMARK   10  A    between atoms: C12_27  and  O10_28 
REMARK   11  A    between atoms: O10_28  and  C13_29 
REMARK   12  A    between atoms: C18_34  and  O11_35 
REMARK   13  A    between atoms: O11_35  and  C19_36 
REMARK       I    between atoms: C19_36  and  N1_38 
REMARK   14  A    between atoms: N1_38  and  C20_40 
ROOT
HETATM    1  C1  UNL     1       0.036  -2.401  -2.045  1.00  0.00     0.042 C 
HETATM    2  C2  UNL     1       0.685  -1.780  -0.836  1.00  0.00     0.152 C 
HETATM    3  O1  UNL     1       1.659  -0.895  -1.280  1.00  0.00    -0.351 OA
HETATM    4  C3  UNL     1       2.218  -0.166  -0.228  1.00  0.00     0.294 C 
HETATM    5  C10 UNL     1       1.263   0.869   0.234  1.00  0.00     0.204 C 
HETATM    6  C11 UNL     1      -0.163   0.406  -0.007  1.00  0.00     0.183 C 
HETATM    7  C12 UNL     1      -0.310  -1.085   0.084  1.00  0.00     0.182 C 
ENDROOT
BRANCH   4   8
HETATM    8  O2  UNL     1       3.371   0.423  -0.801  1.00  0.00    -0.326 OA
BRANCH   8   9
HETATM    9  C4  UNL     1       4.546  -0.002  -0.156  1.00  0.00     0.294 C 
HETATM   10  O3  UNL     1       5.304  -0.791  -0.989  1.00  0.00    -0.348 OA
HETATM   11  C5  UNL     1       6.279  -0.175  -1.702  1.00  0.00     0.179 C 
HETATM   12  C7  UNL     1       7.209   0.674  -0.894  1.00  0.00     0.180 C 
HETATM   13  C8  UNL     1       6.444   1.680  -0.113  1.00  0.00     0.183 C 
HETATM   14  C9  UNL     1       5.233   1.120   0.524  1.00  0.00     0.204 C 
BRANCH  11  15
HETATM   15  C6  UNL     1       5.781   0.627  -2.880  1.00  0.00     0.198 C 
BRANCH  15  16
HETATM   16  O4  UNL     1       5.089  -0.172  -3.807  1.00  0.00    -0.398 OA
ATOM     17  H4  UNL     1       4.776   0.333  -4.548  1.00  0.00     0.209 HD
ENDBRANCH  15  16
ENDBRANCH  11  15
BRANCH  12  18
HETATM   18  O5  UNL     1       7.967  -0.147  -0.080  1.00  0.00    -0.390 OA
ATOM     19  H5  UNL     1       8.558   0.392   0.433  1.00  0.00     0.210 HD
ENDBRANCH  12  18
BRANCH  13  20
HETATM   20  O6  UNL     1       6.186   2.852  -0.848  1.00  0.00    -0.390 OA
ATOM     21  H6  UNL     1       5.697   3.495  -0.349  1.00  0.00     0.210 HD
ENDBRANCH  13  20
BRANCH  14  22
HETATM   22  O7  UNL     1       5.510   0.808   1.857  1.00  0.00    -0.388 OA
ATOM     23  H7  UNL     1       5.951   1.528   2.293  1.00  0.00     0.210 HD
ENDBRANCH  14  22
ENDBRANCH   8   9
ENDBRANCH   4   8
BRANCH   5  24
HETATM   24  O8  UNL     1       1.477   1.115   1.599  1.00  0.00    -0.388 OA
ATOM     25  H8  UNL     1       0.865   1.778   1.895  1.00  0.00     0.210 HD
ENDBRANCH   5  24
BRANCH   6  26
HETATM   26  O9  UNL     1      -0.906   1.036   1.021  1.00  0.00    -0.390 OA
ATOM     27  H9  UNL     1      -1.798   0.746   0.870  1.00  0.00     0.210 HD
ENDBRANCH   6  26
BRANCH   7  28
HETATM   28  O10 UNL     1      -1.557  -1.531  -0.329  1.00  0.00    -0.373 OA
BRANCH  28  29
HETATM   29  C13 UNL     1      -2.288  -2.203   0.647  1.00  0.00     0.151 C 
HETATM   30  C14 UNL     1      -2.161  -3.723   0.397  1.00  0.00     0.034 C 
HETATM   31  C15 UNL     1      -2.916  -4.489   1.456  1.00  0.00     0.003 C 
HETATM   32  C16 UNL     1      -4.385  -4.199   1.171  1.00  0.00     0.003 C 
HETATM   33  C17 UNL     1      -4.615  -2.769   1.463  1.00  0.00     0.035 C 
HETATM   34  C18 UNL     1      -3.688  -1.788   0.795  1.00  0.00     0.162 C 
BRANCH  34  35
HETATM   35  O11 UNL     1      -3.850  -0.514   1.379  1.00  0.00    -0.296 OA
BRANCH  35  36
HETATM   36  C19 UNL     1      -4.452   0.534   0.700  1.00  0.00     0.361 C 
HETATM   37  O12 UNL     1      -4.869   0.353  -0.476  1.00  0.00    -0.238 OA
HETATM   38  N1  UNL     1      -4.586   1.786   1.342  1.00  0.00    -0.329 N 
ATOM     39  H1  UNL     1      -4.229   1.874   2.293  1.00  0.00     0.165 HD
BRANCH  38  40
HETATM   40  C20 UNL     1      -5.194   2.948   0.742  1.00  0.00     0.024 C 
HETATM   41  C21 UNL     1      -5.188   4.134   1.688  1.00  0.00     0.037 C 
HETATM   42  C22 UNL     1      -4.464   3.336  -0.523  1.00  0.00     0.037 C 
HETATM   43  C23 UNL     1      -6.650   2.705   0.355  1.00  0.00     0.037 C 
ENDBRANCH  38  40
ENDBRANCH  35  36
ENDBRANCH  34  35
ENDBRANCH  28  29
ENDBRANCH   7  28
TORSDOF 14
