REMARK  9 active torsions:
REMARK  status: ('A' for Active; 'I' for Inactive)
REMARK    1  A    between atoms: O1_2  and  C2_3 
REMARK    2  A    between atoms: C7_8  and  O2_9 
REMARK    3  A    between atoms: C8_11  and  N1_12 
REMARK       I    between atoms: N1_12  and  C9_14 
REMARK    4  A    between atoms: C11_17  and  S1_18 
REMARK    5  A    between atoms: C16_29  and  N5_30 
REMARK    6  A    between atoms: C18_39  and  N8_40 
REMARK    7  A    between atoms: N8_40  and  C19_42 
REMARK    8  A    between atoms: C19_42  and  C20_43 
REMARK    9  A    between atoms: C20_43  and  N9_44 
ROOT
HETATM    1  C2  UNL     1       0.502  -3.389  -1.134  1.00  0.00     0.102 A 
HETATM    2  C3  UNL     1       0.731  -2.120  -0.666  1.00  0.00     0.055 A 
HETATM    3  C4  UNL     1      -0.281  -1.315  -0.050  1.00  0.00     0.023 A 
HETATM    4  C5  UNL     1      -1.530  -1.856   0.060  1.00  0.00     0.010 A 
HETATM    5  C6  UNL     1      -1.720  -3.181  -0.440  1.00  0.00     0.054 A 
HETATM    6  C7  UNL     1      -0.733  -3.933  -1.023  1.00  0.00     0.099 A 
HETATM    7  C8  UNL     1      -2.738  -1.348   0.377  1.00  0.00     0.080 C 
HETATM    8  C11 UNL     1      -3.003   0.088   0.639  1.00  0.00     0.098 C 
HETATM    9  N2  UNL     1      -2.764   1.012  -0.178  1.00  0.00    -0.345 N 
ATOM     10  H2  UNL     1      -3.029   1.917   0.211  1.00  0.00     0.167 HD
HETATM   11  C13 UNL     1      -2.249   1.156  -1.443  1.00  0.00     0.182 C 
HETATM   12  N3  UNL     1      -1.267   2.074  -1.527  1.00  0.00    -0.345 N 
ATOM     13  H3  UNL     1      -0.821   2.249  -2.427  1.00  0.00     0.167 HD
HETATM   14  C14 UNL     1      -0.839   2.808  -0.376  1.00  0.00     0.147 A 
HETATM   15  C15 UNL     1      -0.444   2.296   0.811  1.00  0.00     0.155 A 
HETATM   16  N4  UNL     1      -0.178   3.216   1.804  1.00  0.00    -0.174 N 
ATOM     17  H4  UNL     1       0.117   2.855   2.711  1.00  0.00     0.186 HD
HETATM   18  C16 UNL     1      -0.275   4.537   1.673  1.00  0.00     0.680 A 
HETATM   19  N6  UNL     1      -0.661   5.063   0.496  1.00  0.00    -0.154 N 
ATOM     20  H6  UNL     1      -0.742   6.072   0.368  1.00  0.00     0.187 HD
HETATM   21  C17 UNL     1      -0.934   4.214  -0.498  1.00  0.00     0.290 A 
HETATM   22  O4  UNL     1      -1.290   4.763  -1.587  1.00  0.00    -0.265 OA
HETATM   23  N7  UNL     1      -0.148   0.908   1.131  1.00  0.00    -0.325 N 
ATOM     24  H7  UNL     1      -0.310   0.709   2.118  1.00  0.00     0.169 HD
HETATM   25  C18 UNL     1       0.292  -0.206   0.457  1.00  0.00     0.117 C 
ENDROOT
BRANCH  25  26
HETATM   26  N8  UNL     1       1.799  -0.274   0.450  1.00  0.00    -0.353 N 
ATOM     27  H8  UNL     1       2.228  -0.923   1.109  1.00  0.00     0.166 HD
BRANCH  26  28
HETATM   28  C19 UNL     1       2.669   0.456  -0.361  1.00  0.00     0.092 C 
BRANCH  28  29
HETATM   29  C20 UNL     1       4.090   0.098  -0.018  1.00  0.00     0.315 C 
BRANCH  29  30
HETATM   30  N9  UNL     1       5.060   0.799  -0.782  1.00  0.00     0.084 N 
HETATM   31  C21 UNL     1       5.054   0.421  -2.157  1.00  0.00     0.309 C 
HETATM   32  C22 UNL     1       6.338   0.934  -0.170  1.00  0.00     0.309 C 
ENDBRANCH  29  30
ENDBRANCH  28  29
ENDBRANCH  26  28
ENDBRANCH  25  26
BRANCH   1  33
HETATM   33  O1  UNL     1       1.507  -4.151  -1.729  1.00  0.00    -0.353 OA
HETATM   34  C1  UNL     1       2.798  -3.590  -1.849  1.00  0.00     0.210 C 
ENDBRANCH   1  33
BRANCH   7  35
HETATM   35  N1  UNL     1      -3.905  -2.151   0.442  1.00  0.00    -0.324 N 
HETATM   36  C9  UNL     1      -5.191  -1.740   0.704  1.00  0.00     0.218 C 
HETATM   37  C10 UNL     1      -6.331  -2.772   0.769  1.00  0.00     0.117 C 
HETATM   38  O3  UNL     1      -5.606  -0.600   0.909  1.00  0.00    -0.274 OA
ATOM     39  H1  UNL     1      -3.776  -3.149   0.275  1.00  0.00     0.169 HD
ENDBRANCH   7  35
BRANCH   6  40
HETATM   40  O2  UNL     1      -0.993  -5.232  -1.491  1.00  0.00    -0.358 OA
ATOM     41  H2  UNL     1      -1.859  -5.614  -1.413  1.00  0.00     0.217 HD
ENDBRANCH   6  40
BRANCH   8  42
HETATM   42  S1  UNL     1      -3.626   0.544   2.282  1.00  0.00    -0.114 SA
HETATM   43  C12 UNL     1      -3.971   2.309   2.353  1.00  0.00     0.097 C 
ENDBRANCH   8  42
BRANCH  18  44
HETATM   44  N5  UNL     1      -0.012   5.356   2.638  1.00  0.00    -0.234 N 
ATOM     45  H52 UNL     1       0.281   4.957   3.530  1.00  0.00     0.174 HD
ATOM     46  H51 UNL     1      -0.086   6.368   2.538  1.00  0.00     0.174 HD
ENDBRANCH  18  44
TORSDOF 9
