REMARK  6 active torsions:
REMARK  status: ('A' for Active; 'I' for Inactive)
REMARK    1  A    between atoms: C4_8  and  C5_9 
REMARK    2  A    between atoms: C5_9  and  N5_19 
REMARK    3  A    between atoms: N3_10  and  O2_12 
REMARK    4  A    between atoms: O2_12  and  C6_13 
REMARK       I    between atoms: C6_13  and  N4_15 
REMARK    5  A    between atoms: N4_15  and  O4_16 
REMARK    6  A    between atoms: N5_19  and  C7_21 
ROOT
HETATM    1  C5  UNL     1       1.929   0.474   0.148  1.00  0.00     0.139 C 
HETATM    2  N3  UNL     1       2.471   0.995   1.178  1.00  0.00    -0.239 N 
ATOM      3  H3  UNL     1       3.354   0.601   1.504  1.00  0.00     0.196 HD
ENDROOT
BRANCH   1   4
HETATM    4  C4  UNL     1       2.596  -0.647  -0.501  1.00  0.00     0.093 A 
HETATM    5  C3  UNL     1       2.474  -0.865  -1.859  1.00  0.00     0.113 A 
HETATM    6  N2  UNL     1       3.119  -1.918  -2.381  1.00  0.00    -0.318 N 
HETATM    7  C2  UNL     1       3.862  -2.740  -1.621  1.00  0.00     0.328 A 
ATOM      8  H2  UNL     1       3.044  -2.100  -3.382  1.00  0.00     0.170 HD
HETATM    9  N1  UNL     1       3.974  -2.519  -0.304  1.00  0.00    -0.270 N 
HETATM   10  O1  UNL     1       4.463  -3.734  -2.152  1.00  0.00    -0.246 OA
HETATM   11  C1  UNL     1       4.771  -3.396   0.528  1.00  0.00     0.164 C 
HETATM   12  C16 UNL     1       3.357  -1.487   0.279  1.00  0.00     0.266 A 
HETATM   13  O5  UNL     1       3.466  -1.279   1.534  1.00  0.00    -0.267 OA
ENDBRANCH   1   4
BRANCH   1  14
HETATM   14  N5  UNL     1       0.705   0.925  -0.408  1.00  0.00    -0.369 N 
ATOM     15  H5  UNL     1       0.640   1.899  -0.702  1.00  0.00     0.161 HD
BRANCH  14  16
HETATM   16  C7  UNL     1      -0.461   0.077  -0.582  1.00  0.00     0.088 C 
HETATM   17  C8  UNL     1      -0.879  -0.432   0.749  1.00  0.00     0.055 C 
HETATM   18  C9  UNL     1      -2.324  -0.244   1.077  1.00  0.00     0.021 C 
HETATM   19  C10 UNL     1      -2.492   1.114   1.736  1.00  0.00     0.037 C 
HETATM   20  C11 UNL     1      -2.705  -1.277   2.125  1.00  0.00     0.037 C 
HETATM   21  N6  UNL     1      -3.160  -0.431  -0.049  1.00  0.00    -0.405 N 
HETATM   22  C12 UNL     1      -2.900   0.400  -1.173  1.00  0.00     0.021 C 
ATOM     23  H6  UNL     1      -3.908  -1.124  -0.054  1.00  0.00     0.154 HD
HETATM   24  C13 UNL     1      -3.430  -0.372  -2.393  1.00  0.00     0.037 C 
HETATM   25  C14 UNL     1      -3.801   1.617  -1.058  1.00  0.00     0.037 C 
HETATM   26  C15 UNL     1      -1.486   0.802  -1.371  1.00  0.00     0.055 C 
ENDBRANCH  14  16
ENDBRANCH   1  14
BRANCH   2  27
HETATM   27  O2  UNL     1       1.942   2.053   1.877  1.00  0.00    -0.176 OA
BRANCH  27  28
HETATM   28  C6  UNL     1       2.254   3.354   1.558  1.00  0.00     0.438 C 
HETATM   29  O3  UNL     1       3.053   3.525   0.589  1.00  0.00    -0.231 OA
HETATM   30  N4  UNL     1       1.732   4.483   2.251  1.00  0.00    -0.017 N 
HETATM   31  F1  UNL     1       0.893   4.342   3.272  1.00  0.00    -0.065 F 
BRANCH  30  32
HETATM   32  O4  UNL     1       2.094   5.728   1.870  1.00  0.00    -0.255 OA
ATOM     33  H4  UNL     1       1.746   6.481   2.332  1.00  0.00     0.248 HD
ENDBRANCH  30  32
ENDBRANCH  27  28
ENDBRANCH   2  27
TORSDOF 6
