REMARK  7 active torsions:
REMARK  status: ('A' for Active; 'I' for Inactive)
REMARK    1  A    between atoms: O1_2  and  C2_3 
REMARK    2  A    between atoms: C8_11  and  C9_12 
REMARK    3  A    between atoms: C10_14  and  O3_15 
REMARK    4  A    between atoms: C15_23  and  O5_25 
REMARK    5  A    between atoms: C17_27  and  N3_30 
REMARK    6  A    between atoms: N3_30  and  N4_32 
REMARK    7  A    between atoms: N4_32  and  N5_33 
ROOT
HETATM    1  C2  UNL     1       1.623   1.368   0.407  1.00  0.00     0.096 A 
HETATM    2  C3  UNL     1       0.316   1.728   0.348  1.00  0.00     0.051 A 
HETATM    3  C4  UNL     1      -0.745   0.851   0.073  1.00  0.00     0.005 A 
HETATM    4  C5  UNL     1      -0.369  -0.494  -0.156  1.00  0.00    -0.001 A 
HETATM    5  C6  UNL     1       0.949  -0.897  -0.074  1.00  0.00     0.046 A 
HETATM    6  C7  UNL     1       1.956   0.052   0.199  1.00  0.00     0.081 A 
HETATM    7  N1  UNL     1       3.290  -0.397   0.285  1.00  0.00    -0.348 N 
ATOM      8  H1  UNL     1       4.036   0.282   0.438  1.00  0.00     0.166 HD
HETATM    9  C8  UNL     1       3.617  -1.769   0.164  1.00  0.00     0.107 C 
HETATM   10  C10 UNL     1       2.624  -2.641   0.008  1.00  0.00     0.135 C 
HETATM   11  C11 UNL     1       1.255  -2.154  -0.077  1.00  0.00     0.165 C 
HETATM   12  F1  UNL     1       0.349  -3.079   0.338  1.00  0.00    -0.202 F 
HETATM   13  C12 UNL     1      -1.209  -1.296  -0.818  1.00  0.00    -0.001 C 
HETATM   14  C13 UNL     1      -1.103  -2.665  -1.228  1.00  0.00     0.053 C 
HETATM   15  C14 UNL     1      -2.519  -0.595  -1.146  1.00  0.00     0.194 C 
HETATM   16  O4  UNL     1      -3.083  -0.884  -2.209  1.00  0.00    -0.289 OA
HETATM   17  C15 UNL     1      -3.128   0.405  -0.246  1.00  0.00     0.164 C 
HETATM   18  C16 UNL     1      -4.202   1.111  -1.025  1.00  0.00     0.059 C 
HETATM   19  C17 UNL     1      -2.081   1.407   0.138  1.00  0.00     0.213 C 
HETATM   20  C18 UNL     1      -2.163   2.610  -0.692  1.00  0.00     0.102 C 
HETATM   21  N2  UNL     1      -2.227   3.587  -1.343  1.00  0.00    -0.194 NA
ENDROOT
BRANCH  19  22
HETATM   22  N3  UNL     1      -2.330   1.841   1.518  1.00  0.00    -0.220 N 
ATOM     23  H3  UNL     1      -2.675   2.788   1.677  1.00  0.00     0.199 HD
BRANCH  22  24
HETATM   24  N4  UNL     1      -2.142   1.118   2.482  1.00  0.00    -0.246 NA
BRANCH  24  25
HETATM   25  N5  UNL     1      -1.874   0.242   3.307  1.00  0.00    -0.261 N 
ATOM     26  H52 UNL     1      -1.539  -0.347   2.545  1.00  0.00     0.193 HD
ATOM     27  H51 UNL     1      -1.717  -0.363   4.113  1.00  0.00     0.193 HD
ENDBRANCH  24  25
ENDBRANCH  22  24
ENDBRANCH  19  22
BRANCH  17  28
HETATM   28  O5  UNL     1      -3.664  -0.138   0.908  1.00  0.00    -0.378 OA
ATOM     29  H5  UNL     1      -4.056   0.505   1.487  1.00  0.00     0.211 HD
ENDBRANCH  17  28
BRANCH   1  30
HETATM   30  O1  UNL     1       2.652   2.279   0.671  1.00  0.00    -0.354 OA
HETATM   31  C1  UNL     1       2.433   3.643   0.899  1.00  0.00     0.210 C 
ENDBRANCH   1  30
BRANCH  10  32
HETATM   32  O3  UNL     1       2.929  -4.002  -0.091  1.00  0.00    -0.356 OA
ATOM     33  H3  UNL     1       2.220  -4.625  -0.202  1.00  0.00     0.218 HD
ENDBRANCH  10  32
BRANCH   9  34
HETATM   34  C9  UNL     1       4.998  -2.182   0.204  1.00  0.00     0.290 C 
HETATM   35  O2  UNL     1       5.907  -1.338   0.344  1.00  0.00    -0.300 OA
ENDBRANCH   9  34
TORSDOF 7
