REMARK  3 active torsions:
REMARK  status: ('A' for Active; 'I' for Inactive)
REMARK    1  A    between atoms: C3_4  and  O1_5 
REMARK    2  A    between atoms: C4_9  and  N3_10 
REMARK    3  A    between atoms: C8_21  and  S2_22 
ROOT
HETATM    1  N1  UNL     1       4.938   0.327  -0.830  1.00  0.00    -0.191 NA
HETATM    2  C1  UNL     1       3.813   0.569  -0.670  1.00  0.00     0.105 C 
HETATM    3  C2  UNL     1       2.441   0.873  -0.498  1.00  0.00     0.121 A 
HETATM    4  C3  UNL     1       1.848   2.130  -0.525  1.00  0.00     0.164 A 
HETATM    5  N2  UNL     1       0.532   1.954  -0.318  1.00  0.00    -0.319 N 
ATOM      6  H2  UNL     1      -0.158   2.704  -0.285  1.00  0.00     0.169 HD
HETATM    7  C4  UNL     1       0.255   0.646  -0.160  1.00  0.00     0.159 A 
HETATM    8  C8  UNL     1       1.439  -0.048  -0.270  1.00  0.00     0.145 A 
ENDROOT
BRANCH   4   9
HETATM    9  O1  UNL     1       2.573   3.292  -0.735  1.00  0.00    -0.345 OA
ATOM     10  H1  UNL     1       2.168   4.151  -0.753  1.00  0.00     0.219 HD
ENDBRANCH   4   9
BRANCH   8  11
HETATM   11  S2  UNL     1       1.634  -1.771  -0.144  1.00  0.00     0.267 S 
HETATM   12  O4  UNL     1       0.431  -2.523  -0.587  1.00  0.00    -0.206 OA
HETATM   13  O5  UNL     1       2.864  -2.241  -0.888  1.00  0.00    -0.206 OA
HETATM   14 CL1  UNL     1       1.988  -2.196   1.869  1.00  0.00     0.024 Cl
ENDBRANCH   8  11
BRANCH   7  15
HETATM   15  N3  UNL     1      -1.001   0.010   0.079  1.00  0.00    -0.184 N 
HETATM   16  N4  UNL     1      -1.752  -0.462  -0.902  1.00  0.00    -0.251 N 
HETATM   17  C5  UNL     1      -2.935  -1.060  -0.669  1.00  0.00     0.298 A 
ATOM     18  H4  UNL     1      -1.425  -0.370  -1.864  1.00  0.00     0.191 HD
HETATM   19  O2  UNL     1      -3.649  -1.511  -1.621  1.00  0.00    -0.263 OA
HETATM   20  C6  UNL     1      -3.427  -1.212   0.611  1.00  0.00     0.174 A 
HETATM   21  S1  UNL     1      -4.862  -1.938   0.903  1.00  0.00    -0.054 SA
HETATM   22  N5  UNL     1      -2.650  -0.726   1.604  1.00  0.00    -0.293 N 
HETATM   23  C7  UNL     1      -1.471  -0.133   1.333  1.00  0.00     0.348 A 
ATOM     24  H5  UNL     1      -2.960  -0.809   2.572  1.00  0.00     0.171 HD
HETATM   25  O3  UNL     1      -0.750   0.319   2.260  1.00  0.00    -0.245 OA
ENDBRANCH   7  15
TORSDOF 3
