REMARK  6 active torsions:
REMARK  status: ('A' for Active; 'I' for Inactive)
REMARK    1  A    between atoms: C4_9  and  C5_10 
REMARK    2  A    between atoms: C6_13  and  N4_14 
REMARK    3  A    between atoms: N4_14  and  N5_16 
REMARK    4  A    between atoms: C11_24  and  N7_25 
REMARK    5  A    between atoms: C12_28  and  N8_29 
REMARK    6  A    between atoms: N8_29  and  O3_31 
ROOT
HETATM    1  C5  UNL     1       1.807   0.162  -0.209  1.00  0.00     0.111 A 
HETATM    2  N3  UNL     1       0.694  -0.516   0.249  1.00  0.00    -0.185 N 
ATOM      3  H3  UNL     1       0.831  -1.362   0.802  1.00  0.00     0.184 HD
HETATM    4  C6  UNL     1      -0.554  -0.110  -0.002  1.00  0.00     0.699 A 
HETATM    5  N6  UNL     1      -0.782   0.995  -0.721  1.00  0.00    -0.173 N 
ATOM      6  H6  UNL     1      -1.739   1.296  -0.904  1.00  0.00     0.186 HD
HETATM    7  C11 UNL     1       0.231   1.696  -1.193  1.00  0.00     0.146 A 
HETATM    8  C12 UNL     1       1.557   1.277  -0.938  1.00  0.00     0.127 A 
ENDROOT
BRANCH   1   9
HETATM    9  C4  UNL     1       3.115  -0.399   0.018  1.00  0.00     0.107 A 
HETATM   10  N1  UNL     1       4.220   0.173   0.473  1.00  0.00    -0.290 N 
HETATM   11  C1  UNL     1       4.494   1.548   0.854  1.00  0.00     0.178 C 
HETATM   12  N2  UNL     1       5.192  -0.760   0.649  1.00  0.00    -0.263 N 
HETATM   13  C2  UNL     1       4.718  -1.963   0.308  1.00  0.00     0.284 A 
ATOM     14  H2  UNL     1       6.135  -0.572   0.988  1.00  0.00     0.190 HD
HETATM   15  O1  UNL     1       5.355  -3.064   0.349  1.00  0.00    -0.265 OA
HETATM   16  C3  UNL     1       3.435  -1.769  -0.086  1.00  0.00     0.133 A 
HETATM   17 CL1  UNL     1       2.321  -2.976  -0.664  1.00  0.00    -0.076 Cl
ENDBRANCH   1   9
BRANCH   8  18
HETATM   18  N8  UNL     1       2.601   2.022  -1.548  1.00  0.00    -0.263 N 
ATOM     19  H8  UNL     1       2.895   2.934  -1.198  1.00  0.00     0.194 HD
BRANCH  18  20
HETATM   20  O3  UNL     1       3.143   1.479  -2.555  1.00  0.00    -0.289 OA
ATOM     21  H3  UNL     1       3.841   1.977  -2.963  1.00  0.00     0.244 HD
ENDBRANCH  18  20
ENDBRANCH   8  18
BRANCH   4  22
HETATM   22  N4  UNL     1      -1.498  -0.839   0.486  1.00  0.00    -0.134 N 
ATOM     23  H4  UNL     1      -1.224  -1.663   1.021  1.00  0.00     0.205 HD
BRANCH  22  24
HETATM   24  N5  UNL     1      -2.843  -0.597   0.345  1.00  0.00    -0.310 N 
HETATM   25  C7  UNL     1      -3.561  -0.063   1.492  1.00  0.00     0.169 C 
HETATM   26  C8  UNL     1      -5.015   0.068   1.127  1.00  0.00     0.189 C 
HETATM   27  O2  UNL     1      -5.482  -1.146   0.640  1.00  0.00    -0.388 OA
HETATM   28  C9  UNL     1      -4.937  -1.490  -0.580  1.00  0.00     0.189 C 
HETATM   29  C10 UNL     1      -3.614  -0.831  -0.857  1.00  0.00     0.169 C 
ENDBRANCH  22  24
ENDBRANCH   4  22
BRANCH   7  30
HETATM   30  N7  UNL     1       0.063   2.767  -1.891  1.00  0.00    -0.383 N 
ATOM     31  H72 UNL     1      -0.894   3.069  -2.075  1.00  0.00     0.157 HD
ATOM     32  H71 UNL     1       0.846   3.309  -2.256  1.00  0.00     0.157 HD
ENDBRANCH   7  30
TORSDOF 6
