REMARK  5 active torsions:
REMARK  status: ('A' for Active; 'I' for Inactive)
REMARK    1  A    between atoms: O1_2  and  C2_3 
REMARK    2  A    between atoms: C2_3  and  C3_5 
REMARK    3  A    between atoms: C4_6  and  N1_7 
REMARK    4  A    between atoms: N1_7  and  C5_9 
REMARK    5  A    between atoms: N5_25  and  N6_26 
ROOT
HETATM    1  C3  UNL     1      -1.585  -0.537  -0.017  1.00  0.00     0.166 A 
HETATM    2  C4  UNL     1      -0.542  -0.738  -0.892  1.00  0.00     0.152 A 
HETATM    3  C9  UNL     1      -0.373  -1.995  -1.453  1.00  0.00     0.277 A 
HETATM    4  O4  UNL     1       0.565  -2.219  -2.255  1.00  0.00    -0.266 OA
HETATM    5  N4  UNL     1      -1.209  -3.003  -1.152  1.00  0.00    -0.297 N 
ATOM      6  H4  UNL     1      -1.074  -3.923  -1.571  1.00  0.00     0.171 HD
HETATM    7  C10 UNL     1      -2.228  -2.794  -0.293  1.00  0.00     0.200 A 
HETATM    8  S1  UNL     1      -3.263  -4.017   0.088  1.00  0.00    -0.038 SA
HETATM    9  N5  UNL     1      -2.400  -1.560   0.262  1.00  0.00    -0.228 N 
ENDROOT
BRANCH   2  10
HETATM   10  N1  UNL     1       0.329   0.334  -1.198  1.00  0.00    -0.183 N 
ATOM     11  H1  UNL     1      -0.017   1.063  -1.822  1.00  0.00     0.184 HD
BRANCH  10  12
HETATM   12  C5  UNL     1       1.524   0.454  -0.745  1.00  0.00     0.686 A 
HETATM   13  N2  UNL     1       2.102  -0.432   0.084  1.00  0.00    -0.181 N 
HETATM   14  C6  UNL     1       3.360  -0.253   0.527  1.00  0.00     0.124 A 
ATOM     15  H2  UNL     1       1.578  -1.255   0.383  1.00  0.00     0.185 HD
HETATM   16 CL1  UNL     1       4.096  -1.416   1.605  1.00  0.00    -0.064 Cl
HETATM   17  C7  UNL     1       4.059   0.852   0.123  1.00  0.00     0.117 A 
HETATM   18  C8  UNL     1       3.473   1.757  -0.721  1.00  0.00     0.262 A 
HETATM   19  O3  UNL     1       4.162   2.757  -1.061  1.00  0.00    -0.268 OA
HETATM   20  N3  UNL     1       2.218   1.540  -1.138  1.00  0.00    -0.156 N 
ATOM     21  H3  UNL     1       1.778   2.212  -1.767  1.00  0.00     0.187 HD
ENDBRANCH  10  12
ENDBRANCH   2  10
BRANCH   1  22
HETATM   22  C2  UNL     1      -1.833   0.750   0.615  1.00  0.00     0.314 C 
HETATM   23  O2  UNL     1      -2.774   0.921   1.400  1.00  0.00    -0.257 OA
BRANCH  22  24
HETATM   24  O1  UNL     1      -1.013   1.861   0.361  1.00  0.00    -0.321 OA
HETATM   25  C1  UNL     1      -1.207   3.115   0.941  1.00  0.00     0.213 C 
ENDBRANCH  22  24
ENDBRANCH   1  22
BRANCH   9  26
HETATM   26  N6  UNL     1      -3.451  -1.342   1.149  1.00  0.00    -0.336 N 
ATOM     27  H62 UNL     1      -3.580  -0.419   1.564  1.00  0.00     0.177 HD
ATOM     28  H61 UNL     1      -4.073  -2.122   1.362  1.00  0.00     0.177 HD
ENDBRANCH   9  26
TORSDOF 5
