REMARK  3 active torsions:
REMARK  status: ('A' for Active; 'I' for Inactive)
REMARK    1  A    between atoms: C3_5  and  S1_6 
REMARK    2  A    between atoms: S1_6  and  C4_7 
REMARK    3  A    between atoms: C10_22  and  N6_23 
ROOT
HETATM    1  C4  UNL     1      -0.713   0.329  -0.072  1.00  0.00     0.109 A 
HETATM    2  N2  UNL     1      -0.728  -0.773   0.677  1.00  0.00    -0.291 N 
ATOM      3  H2  UNL     1       0.095  -1.205   1.097  1.00  0.00     0.187 HD
HETATM    4  N3  UNL     1      -1.978  -1.230   0.798  1.00  0.00    -0.283 N 
ATOM      5  H3  UNL     1      -2.252  -2.061   1.322  1.00  0.00     0.188 HD
HETATM    6  C5  UNL     1      -2.814  -0.431   0.127  1.00  0.00     0.144 A 
HETATM    7  C6  UNL     1      -2.024   0.562  -0.429  1.00  0.00     0.113 A 
HETATM    8  C7  UNL     1      -2.662   1.534  -1.189  1.00  0.00     0.266 A 
HETATM    9  O1  UNL     1      -1.976   2.442  -1.704  1.00  0.00    -0.267 OA
HETATM   10  N4  UNL     1      -4.011   1.501  -1.371  1.00  0.00    -0.274 N 
ATOM     11  H4  UNL     1      -4.465   2.222  -1.931  1.00  0.00     0.173 HD
HETATM   12  C8  UNL     1      -4.745   0.526  -0.818  1.00  0.00     0.330 A 
HETATM   13  O2  UNL     1      -5.985   0.539  -1.015  1.00  0.00    -0.246 OA
HETATM   14  N5  UNL     1      -4.157  -0.427  -0.079  1.00  0.00    -0.288 N 
HETATM   15  C9  UNL     1      -4.932  -1.476   0.518  1.00  0.00     0.163 C 
ENDROOT
BRANCH   1  16
HETATM   16  S1  UNL     1       0.645   1.372  -0.576  1.00  0.00    -0.063 SA
BRANCH  16  17
HETATM   17  C3  UNL     1       2.188   0.796   0.050  1.00  0.00     0.089 A 
HETATM   18  C2  UNL     1       2.966  -0.109  -0.660  1.00  0.00     0.130 A 
HETATM   19  N1  UNL     1       4.147  -0.559  -0.198  1.00  0.00    -0.293 N 
HETATM   20 CL1  UNL     1       2.421  -0.709  -2.222  1.00  0.00    -0.063 Cl
HETATM   21  C1  UNL     1       4.943  -1.514  -0.974  1.00  0.00     0.162 C 
HETATM   22  C11 UNL     1       4.547  -0.090   0.997  1.00  0.00     0.328 A 
HETATM   23  N7  UNL     1       3.816   0.788   1.712  1.00  0.00    -0.293 N 
HETATM   24  O3  UNL     1       5.653  -0.515   1.424  1.00  0.00    -0.246 OA
HETATM   25  C10 UNL     1       2.634   1.253   1.272  1.00  0.00     0.123 A 
ATOM     26  H7  UNL     1       4.170   1.109   2.613  1.00  0.00     0.172 HD
BRANCH  25  27
HETATM   27  N6  UNL     1       1.954   2.105   1.995  1.00  0.00    -0.384 N 
ATOM     28  H62 UNL     1       1.057   2.458   1.661  1.00  0.00     0.157 HD
ATOM     29  H61 UNL     1       2.284   2.443   2.899  1.00  0.00     0.157 HD
ENDBRANCH  25  27
ENDBRANCH  16  17
ENDBRANCH   1  16
TORSDOF 3
