REMARK  4 active torsions:
REMARK  status: ('A' for Active; 'I' for Inactive)
REMARK    1  A    between atoms: O1_2  and  C2_3 
REMARK    2  A    between atoms: C2_3  and  O2_4 
REMARK    3  A    between atoms: C2_3  and  C3_6 
REMARK    4  A    between atoms: N3_24  and  O4_26 
ROOT
HETATM    1  C3  UNL     1      -1.008  -0.017   0.185  1.00  0.00     0.168 C 
HETATM    2  C4  UNL     1      -1.412  -0.011   1.621  1.00  0.00     0.057 C 
HETATM    3  O3  UNL     1      -1.248  -1.266  -0.429  1.00  0.00    -0.361 OA
HETATM    4  C5  UNL     1      -0.917  -2.288   0.433  1.00  0.00     0.182 A 
HETATM    5  C6  UNL     1      -0.715  -3.635  -0.206  1.00  0.00     0.267 A 
HETATM    6  N1  UNL     1       0.705  -3.483   0.005  1.00  0.00    -0.063 N 
ATOM      7  H11 UNL     1       1.325  -3.514  -0.805  1.00  0.00     0.277 HD
ATOM      8  H12 UNL     1       1.215  -4.241   0.460  1.00  0.00     0.277 HD
HETATM    9  C7  UNL     1       0.551  -2.230   0.712  1.00  0.00     0.260 A 
HETATM   10  C8  UNL     1       1.252  -1.052   0.135  1.00  0.00     0.191 C 
HETATM   11  C9  UNL     1       1.835  -1.345  -1.236  1.00  0.00     0.059 C 
HETATM   12  F1  UNL     1       2.357  -0.821   0.972  1.00  0.00    -0.236 F 
HETATM   13  C10 UNL     1       0.467   0.224   0.095  1.00  0.00     0.306 C 
HETATM   14  N2  UNL     1       0.890   1.166   1.115  1.00  0.00    -0.029 N 
ATOM     15  H21 UNL     1       1.047   0.731   2.024  1.00  0.00     0.281 HD
ATOM     16  H22 UNL     1       0.149   1.805   1.405  1.00  0.00     0.281 HD
HETATM   17  C11 UNL     1       2.067   1.849   0.593  1.00  0.00     0.322 C 
HETATM   18  C12 UNL     1       2.036   1.599  -0.857  1.00  0.00     0.166 C 
HETATM   19  N3  UNL     1       2.920   1.889  -1.720  1.00  0.00    -0.249 N 
ATOM     20  H3  UNL     1       2.758   1.652  -2.699  1.00  0.00     0.196 HD
HETATM   21  O5  UNL     1       0.807   0.964  -1.088  1.00  0.00    -0.291 OA
ENDROOT
BRANCH   1  22
HETATM   22  C2  UNL     1      -1.833   0.959  -0.597  1.00  0.00     0.295 C 
BRANCH  22  23
HETATM   23  O1  UNL     1      -1.762   2.264  -0.170  1.00  0.00    -0.363 OA
HETATM   24  C1  UNL     1      -3.008   2.764   0.210  1.00  0.00     0.204 C 
ENDBRANCH  22  23
BRANCH  22  25
HETATM   25  O2  UNL     1      -1.574   0.865  -1.978  1.00  0.00    -0.368 OA
ATOM     26  H2  UNL     1      -1.623  -0.037  -2.273  1.00  0.00     0.212 HD
ENDBRANCH  22  25
ENDBRANCH   1  22
BRANCH  19  27
HETATM   27  O4  UNL     1       4.080   2.510  -1.369  1.00  0.00    -0.288 OA
ATOM     28  H4  UNL     1       4.742   2.727  -2.015  1.00  0.00     0.244 HD
ENDBRANCH  19  27
TORSDOF 4
