REMARK  6 active torsions:
REMARK  status: ('A' for Active; 'I' for Inactive)
REMARK    1  A    between atoms: C3_5  and  N2_6 
REMARK    2  A    between atoms: C5_14  and  S1_15 
REMARK    3  A    between atoms: S1_15  and  C6_16 
REMARK    4  A    between atoms: C6_16  and  C7_18 
REMARK    5  A    between atoms: C8_20  and  N5_21 
REMARK    6  A    between atoms: N5_21  and  O3_23 
ROOT
HETATM    1  C1  UNL     1      -3.283   1.317  -1.062  1.00  0.00     0.161 C 
HETATM    2  N1  UNL     1      -2.735   0.377  -0.118  1.00  0.00    -0.298 N 
HETATM    3  C2  UNL     1      -3.446  -0.214   0.867  1.00  0.00     0.292 A 
HETATM    4  O1  UNL     1      -4.667   0.068   0.979  1.00  0.00    -0.264 OA
HETATM    5  C3  UNL     1      -2.906  -1.114   1.762  1.00  0.00     0.170 A 
HETATM    6  N3  UNL     1      -1.603  -1.414   1.641  1.00  0.00    -0.321 N 
ATOM      7  H3  UNL     1      -1.171  -2.076   2.285  1.00  0.00     0.169 HD
HETATM    8  C4  UNL     1      -0.859  -0.836   0.660  1.00  0.00     0.153 A 
HETATM    9  N4  UNL     1       0.455  -1.127   0.528  1.00  0.00    -0.330 N 
ATOM     10  H4  UNL     1       0.877  -1.790   1.178  1.00  0.00     0.168 HD
HETATM   11  C5  UNL     1       1.229  -0.575  -0.428  1.00  0.00     0.125 A 
HETATM   12  C8  UNL     1       0.647   0.328  -1.309  1.00  0.00     0.161 A 
HETATM   13  N6  UNL     1      -0.668   0.617  -1.175  1.00  0.00    -0.322 N 
ATOM     14  H6  UNL     1      -1.095   1.280  -1.822  1.00  0.00     0.169 HD
HETATM   15  C9  UNL     1      -1.432   0.061  -0.218  1.00  0.00     0.157 A 
ENDROOT
BRANCH  11  16
HETATM   16  S1  UNL     1       2.965  -0.959  -0.618  1.00  0.00    -0.028 SA
BRANCH  16  17
HETATM   17  C6  UNL     1       3.942   0.143   0.382  1.00  0.00     0.220 C 
HETATM   18  O2  UNL     1       3.452   1.004   1.095  1.00  0.00    -0.282 OA
BRANCH  17  19
HETATM   19  C7  UNL     1       5.420   0.018   0.355  1.00  0.00     0.313 C 
HETATM   20  F1  UNL     1       5.820  -0.898   1.308  1.00  0.00    -0.247 F 
ENDBRANCH  17  19
ENDBRANCH  16  17
ENDBRANCH  11  16
BRANCH  12  21
HETATM   21  N5  UNL     1       1.338   0.895  -2.248  1.00  0.00    -0.251 N 
ATOM     22  H5  UNL     1       0.881   1.553  -2.879  1.00  0.00     0.196 HD
BRANCH  21  23
HETATM   23  O3  UNL     1       2.675   0.624  -2.407  1.00  0.00    -0.288 OA
ATOM     24  H3  UNL     1       3.181   1.039  -3.095  1.00  0.00     0.244 HD
ENDBRANCH  21  23
ENDBRANCH  12  21
BRANCH   5  25
HETATM   25  N2  UNL     1      -3.651  -1.642   2.687  1.00  0.00    -0.381 N 
ATOM     26  H22 UNL     1      -4.641  -1.414   2.779  1.00  0.00     0.157 HD
ATOM     27  H21 UNL     1      -3.252  -2.308   3.349  1.00  0.00     0.157 HD
ENDBRANCH   5  25
TORSDOF 6
