REMARK  4 active torsions:
REMARK  status: ('A' for Active; 'I' for Inactive)
REMARK    1  A    between atoms: C3_3  and  O1_5 
REMARK    2  A    between atoms: O1_5  and  C4_6 
REMARK    3  A    between atoms: C6_11  and  O2_12 
REMARK    4  A    between atoms: C11_20  and  N4_21 
ROOT
HETATM    1  C1  UNL     1       5.839   1.788  -1.836  1.00  0.00     0.017 C 
HETATM    2  C2  UNL     1       5.205   0.786  -1.624  1.00  0.00    -0.052 C 
HETATM    3  C3  UNL     1       4.421  -0.447  -1.337  1.00  0.00     0.395 C 
HETATM    4  F1  UNL     1       5.009  -1.515  -2.034  1.00  0.00    -0.205 F 
ENDROOT
BRANCH   3   5
HETATM    5  O1  UNL     1       3.111  -0.239  -1.722  1.00  0.00    -0.284 OA
BRANCH   5   6
HETATM    6  C4  UNL     1       1.972  -0.250  -0.951  1.00  0.00     0.213 A 
HETATM    7  N1  UNL     1       0.702  -0.033  -1.410  1.00  0.00    -0.164 N 
HETATM    8  C5  UNL     1      -0.157  -0.115  -0.402  1.00  0.00     0.717 A 
ATOM      9  H1  UNL     1       0.453   0.162  -2.380  1.00  0.00     0.186 HD
HETATM   10  N2  UNL     1       0.494  -0.383   0.730  1.00  0.00    -0.087 N 
HETATM   11  N6  UNL     1      -1.593   0.034  -0.369  1.00  0.00    -0.086 N 
HETATM   12  C6  UNL     1       1.801  -0.466   0.396  1.00  0.00     0.218 A 
HETATM   13  C7  UNL     1      -0.185  -0.523   1.957  1.00  0.00     0.251 A 
HETATM   14  O3  UNL     1       0.512  -0.778   2.989  1.00  0.00    -0.272 OA
HETATM   15  C8  UNL     1      -1.633  -0.388   2.085  1.00  0.00     0.166 A 
HETATM   16  C9  UNL     1      -2.265  -0.092   0.775  1.00  0.00     0.089 A 
HETATM   17  C10 UNL     1      -3.618   0.108   0.466  1.00  0.00     0.116 A 
HETATM   18  N3  UNL     1      -4.680   0.057   1.417  1.00  0.00    -0.096 NA
HETATM   19  C11 UNL     1      -3.677   0.348  -0.879  1.00  0.00     0.141 A 
HETATM   20  N5  UNL     1      -2.436   0.301  -1.382  1.00  0.00    -0.263 N 
ATOM     21  H5  UNL     1      -2.177   0.442  -2.358  1.00  0.00     0.190 HD
BRANCH  12  22
HETATM   22  O2  UNL     1       2.792  -0.734   1.320  1.00  0.00    -0.342 OA
ATOM     23  H2  UNL     1       2.674  -0.883   2.251  1.00  0.00     0.219 HD
ENDBRANCH  12  22
BRANCH  19  24
HETATM   24  N4  UNL     1      -4.779   0.583  -1.545  1.00  0.00    -0.383 N 
ATOM     25  H42 UNL     1      -5.724   0.619  -1.162  1.00  0.00     0.157 HD
ATOM     26  H41 UNL     1      -4.823   0.762  -2.548  1.00  0.00     0.157 HD
ENDBRANCH  19  24
ENDBRANCH   5   6
ENDBRANCH   3   5
TORSDOF 4
