REMARK  4 active torsions:
REMARK  status: ('A' for Active; 'I' for Inactive)
REMARK    1  A    between atoms: C2_2  and  C3_8 
REMARK    2  A    between atoms: N1_3  and  N2_5 
REMARK    3  A    between atoms: C4_12  and  N5_13 
REMARK    4  A    between atoms: C5_18  and  N7_19 
ROOT
HETATM    1  C3  UNL     1       1.228  -0.010  -0.054  1.00  0.00     0.141 A 
HETATM    2  N3  UNL     1       0.414   1.034  -0.116  1.00  0.00    -0.271 N 
ATOM      3  H3  UNL     1       0.791   1.974  -0.239  1.00  0.00     0.188 HD
HETATM    4  N4  UNL     1      -0.893   0.845  -0.017  1.00  0.00    -0.067 N 
HETATM    5  C4  UNL     1      -1.654   1.961  -0.090  1.00  0.00     0.700 A 
HETATM    6  N6  UNL     1      -2.986   1.854   0.002  1.00  0.00    -0.174 N 
ATOM      7  H6  UNL     1      -3.558   2.697  -0.052  1.00  0.00     0.186 HD
HETATM    8  C5  UNL     1      -3.587   0.665   0.163  1.00  0.00     0.140 A 
HETATM    9  C6  UNL     1      -2.802  -0.482   0.237  1.00  0.00     0.124 A 
HETATM   10 CL1  UNL     1      -3.574  -2.032   0.448  1.00  0.00    -0.076 Cl
HETATM   11  C7  UNL     1      -1.437  -0.399   0.147  1.00  0.00     0.175 A 
HETATM   12  N8  UNL     1      -0.655  -1.489   0.215  1.00  0.00    -0.299 N 
HETATM   13  C8  UNL     1      -1.190  -2.789   0.384  1.00  0.00     0.161 C 
HETATM   14  C9  UNL     1       0.696  -1.258   0.109  1.00  0.00     0.279 A 
HETATM   15  O1  UNL     1       1.459  -2.290   0.172  1.00  0.00    -0.265 OA
ENDROOT
BRANCH   1  16
HETATM   16  C2  UNL     1       2.660   0.194  -0.162  1.00  0.00     0.055 C 
HETATM   17  C1  UNL     1       3.218   1.547  -0.338  1.00  0.00     0.072 C 
HETATM   18  N1  UNL     1       3.433  -0.812  -0.102  1.00  0.00    -0.309 N 
ATOM     19  H1  UNL     1       2.987  -1.721   0.021  1.00  0.00     0.186 HD
BRANCH  18  20
HETATM   20  N2  UNL     1       4.806  -0.808  -0.185  1.00  0.00    -0.345 N 
ATOM     21  H22 UNL     1       5.233   0.110  -0.308  1.00  0.00     0.176 HD
ATOM     22  H21 UNL     1       5.427  -1.616  -0.137  1.00  0.00     0.176 HD
ENDBRANCH  18  20
ENDBRANCH   1  16
BRANCH   5  23
HETATM   23  N5  UNL     1      -1.096   3.125  -0.246  1.00  0.00    -0.233 N 
ATOM     24  H52 UNL     1      -0.082   3.206  -0.316  1.00  0.00     0.174 HD
ATOM     25  H51 UNL     1      -1.670   3.966  -0.301  1.00  0.00     0.174 HD
ENDBRANCH   5  23
BRANCH   8  26
HETATM   26  N7  UNL     1      -4.848   0.535   0.253  1.00  0.00    -0.384 N 
ATOM     27  H72 UNL     1      -5.423   1.376   0.199  1.00  0.00     0.157 HD
ATOM     28  H71 UNL     1      -5.305  -0.369   0.375  1.00  0.00     0.157 HD
ENDBRANCH   8  26
TORSDOF 4
