REMARK  5 active torsions:
REMARK  status: ('A' for Active; 'I' for Inactive)
REMARK    1  A    between atoms: C2_3  and  N2_4 
REMARK    2  A    between atoms: C6_13  and  C7_14 
REMARK    3  A    between atoms: C7_14  and  O1_15 
REMARK    4  A    between atoms: C7_14  and  O2_17 
REMARK    5  A    between atoms: N4_19  and  N5_20 
ROOT
HETATM    1  C1  UNL     1      -3.943  -0.092  -1.161  1.00  0.00     0.179 C 
HETATM    2  N1  UNL     1      -2.607   0.014  -0.544  1.00  0.00    -0.151 N 
HETATM    3  C2  UNL     1      -2.442   0.283   0.749  1.00  0.00     0.682 A 
HETATM    4  N3  UNL     1      -1.240   0.370   1.351  1.00  0.00    -0.174 N 
ATOM      5  H3  UNL     1      -1.158   0.578   2.346  1.00  0.00     0.186 HD
HETATM    6  C3  UNL     1      -0.153   0.171   0.585  1.00  0.00     0.166 A 
HETATM    7  C4  UNL     1      -0.260  -0.112  -0.763  1.00  0.00     0.103 A 
HETATM    8  C5  UNL     1       0.990  -0.270  -1.278  1.00  0.00     0.083 A 
HETATM    9 CL1  UNL     1       1.368  -0.653  -2.950  1.00  0.00    -0.081 Cl
HETATM   10  C6  UNL     1       1.881  -0.086  -0.250  1.00  0.00     0.119 A 
HETATM   11  N4  UNL     1       1.165   0.175   0.853  1.00  0.00    -0.177 N 
HETATM   12  C8  UNL     1      -1.530  -0.187  -1.321  1.00  0.00     0.277 A 
HETATM   13  O5  UNL     1      -1.662  -0.437  -2.531  1.00  0.00    -0.266 OA
ENDROOT
BRANCH  10  14
HETATM   14  C7  UNL     1       3.359  -0.182  -0.427  1.00  0.00     0.309 C 
BRANCH  14  15
HETATM   15  O1  UNL     1       3.693   0.569  -1.557  1.00  0.00    -0.366 OA
ATOM     16  H1  UNL     1       4.634   0.508  -1.670  1.00  0.00     0.213 HD
ENDBRANCH  14  15
BRANCH  14  17
HETATM   17  O2  UNL     1       4.068   0.163   0.697  1.00  0.00    -0.366 OA
ATOM     18  H2  UNL     1       5.009   0.102   0.584  1.00  0.00     0.213 HD
ENDBRANCH  14  17
ENDBRANCH  10  14
BRANCH  11  19
HETATM   19  N5  UNL     1       1.706   0.430   2.122  1.00  0.00    -0.030 N 
HETATM   20  O3  UNL     1       2.180   1.554   2.409  1.00  0.00    -0.516 OA
HETATM   21  O4  UNL     1       1.744  -0.537   3.095  1.00  0.00    -0.516 OA
ENDBRANCH  11  19
BRANCH   3  22
HETATM   22  N2  UNL     1      -3.507   0.460   1.453  1.00  0.00    -0.234 N 
ATOM     23  H22 UNL     1      -4.417   0.394   0.997  1.00  0.00     0.174 HD
ATOM     24  H21 UNL     1      -3.381   0.666   2.444  1.00  0.00     0.174 HD
ENDBRANCH   3  22
TORSDOF 5
