REMARK  3 active torsions:
REMARK  status: ('A' for Active; 'I' for Inactive)
REMARK       I    between atoms: C2_2  and  N1_4 
REMARK    1  A    between atoms: N1_4  and  N2_6 
REMARK    2  A    between atoms: C4_9  and  N3_10 
REMARK    3  A    between atoms: C7_20  and  N6_21 
ROOT
HETATM    1  N2  UNL     1       1.046  -0.620   0.896  1.00  0.00    -0.278 N 
ATOM      2  H2  UNL     1       1.494  -1.367   1.426  1.00  0.00     0.189 HD
HETATM    3  C3  UNL     1      -0.178  -0.796   0.777  1.00  0.00     0.196 A 
HETATM    4  C4  UNL     1      -0.743  -1.928   1.352  1.00  0.00     0.236 A 
HETATM    5  N4  UNL     1      -2.066  -2.162   1.249  1.00  0.00    -0.276 N 
ATOM      6  H4  UNL     1      -2.473  -2.995   1.674  1.00  0.00     0.189 HD
HETATM    7  N5  UNL     1      -2.841  -1.300   0.589  1.00  0.00    -0.281 N 
ATOM      8  H5  UNL     1      -3.842  -1.479   0.511  1.00  0.00     0.188 HD
HETATM    9  C5  UNL     1      -2.316  -0.199   0.026  1.00  0.00     0.169 A 
HETATM   10  C6  UNL     1      -2.923   0.803  -0.687  1.00  0.00     0.126 A 
HETATM   11 CL1  UNL     1      -4.613   0.936  -1.078  1.00  0.00    -0.076 Cl
HETATM   12  C7  UNL     1      -1.921   1.683  -1.030  1.00  0.00     0.140 A 
HETATM   13  N7  UNL     1      -0.787   1.199  -0.532  1.00  0.00    -0.274 N 
ATOM     14  H7  UNL     1       0.120   1.653  -0.638  1.00  0.00     0.189 HD
HETATM   15  N8  UNL     1      -0.971   0.064   0.115  1.00  0.00    -0.214 N 
ENDROOT
BRANCH   1  16
HETATM   16  N1  UNL     1       1.932   0.325   0.492  1.00  0.00    -0.269 N 
HETATM   17  C2  UNL     1       2.903   0.054  -0.511  1.00  0.00     0.232 C 
HETATM   18  C1  UNL     1       3.894   1.030  -0.996  1.00  0.00     0.119 C 
HETATM   19  O1  UNL     1       2.938  -1.092  -1.034  1.00  0.00    -0.272 OA
ATOM     20  H1  UNL     1       1.901   1.251   0.918  1.00  0.00     0.190 HD
ENDBRANCH   1  16
BRANCH   4  21
HETATM   21  N3  UNL     1       0.125  -2.806   2.038  1.00  0.00    -0.092 N 
HETATM   22  O2  UNL     1       1.121  -2.347   2.615  1.00  0.00    -0.530 OA
HETATM   23  O3  UNL     1      -0.088  -4.155   2.094  1.00  0.00    -0.530 OA
ENDBRANCH   4  21
BRANCH  12  24
HETATM   24  N6  UNL     1      -2.053   2.773  -1.708  1.00  0.00    -0.383 N 
ATOM     25  H62 UNL     1      -2.923   3.144  -2.090  1.00  0.00     0.157 HD
ATOM     26  H61 UNL     1      -1.311   3.425  -1.962  1.00  0.00     0.157 HD
ENDBRANCH  12  24
TORSDOF 3
