REMARK  2 active torsions:
REMARK  status: ('A' for Active; 'I' for Inactive)
REMARK    1  A    between atoms: C3_3  and  C4_4 
REMARK    2  A    between atoms: C9_17  and  C10_18 
ROOT
HETATM    1  C1  UNL     1      -2.139   1.006  -0.001  1.00  0.00     0.052 C 
HETATM    2  C2  UNL     1      -0.808   0.411   0.032  1.00  0.00    -0.000 C 
HETATM    3  C3  UNL     1      -0.760  -0.888   0.214  1.00  0.00     0.102 C 
HETATM    4  C5  UNL     1       0.493  -1.691   0.210  1.00  0.00     0.228 C 
HETATM    5  O3  UNL     1       0.475  -2.787   0.816  1.00  0.00    -0.284 OA
HETATM    6  C6  UNL     1       1.771  -1.359  -0.425  1.00  0.00     0.189 A 
HETATM    7  O4  UNL     1       2.748  -2.202  -0.659  1.00  0.00    -0.228 OA
HETATM    8  N1  UNL     1       3.747  -1.607  -1.232  1.00  0.00    -0.223 N 
ATOM      9  H1  UNL     1       4.617  -2.063  -1.507  1.00  0.00     0.198 HD
HETATM   10  C7  UNL     1       3.474  -0.302  -1.412  1.00  0.00     0.302 A 
HETATM   11  O5  UNL     1       4.192   0.599  -1.933  1.00  0.00    -0.263 OA
HETATM   12  C8  UNL     1       2.198  -0.134  -0.893  1.00  0.00     0.185 A 
HETATM   13  O6  UNL     1       1.498   1.068  -0.862  1.00  0.00    -0.294 OA
HETATM   14  C9  UNL     1       0.321   1.366  -0.144  1.00  0.00     0.159 C 
ENDROOT
BRANCH   3  15
HETATM   15  C4  UNL     1      -1.977  -1.651   0.376  1.00  0.00     0.214 C 
HETATM   16  O1  UNL     1      -2.446  -2.290  -0.771  1.00  0.00    -0.644 OA
HETATM   17  O2  UNL     1      -2.983  -1.086   1.132  1.00  0.00    -0.644 OA
ENDBRANCH   3  15
BRANCH  14  18
HETATM   18  C10 UNL     1       0.190   2.541   0.413  1.00  0.00     0.234 C 
HETATM   19  O7  UNL     1      -0.877   2.991   1.145  1.00  0.00    -0.642 OA
HETATM   20  O8  UNL     1       1.241   3.457   0.256  1.00  0.00    -0.642 OA
ENDBRANCH  14  18
TORSDOF 2
