REMARK  4 active torsions:
REMARK  status: ('A' for Active; 'I' for Inactive)
REMARK    1  A    between atoms: N1_2  and  C2_4 
REMARK    2  A    between atoms: N2_7  and  O1_8 
REMARK    3  A    between atoms: C6_11  and  O2_12 
REMARK    4  A    between atoms: O2_12  and  C7_13 
ROOT
HETATM    1  C2  UNL     1      -1.159   0.643  -0.117  1.00  0.00     0.112 A 
HETATM    2  C3  UNL     1      -1.799  -0.417  -0.711  1.00  0.00     0.112 A 
HETATM    3  C4  UNL     1      -1.052  -1.409  -1.294  1.00  0.00     0.165 A 
HETATM    4  N2  UNL     1       0.291  -1.331  -1.278  1.00  0.00    -0.200 N 
HETATM    5  C5  UNL     1       0.968  -0.321  -0.714  1.00  0.00     0.139 A 
HETATM    6  C6  UNL     1       2.282  -0.327  -0.748  1.00  0.00     0.182 C 
HETATM    7  C9  UNL     1       0.237   0.689  -0.120  1.00  0.00     0.231 A 
HETATM    8  O4  UNL     1       0.798   1.663   0.425  1.00  0.00    -0.283 OA
HETATM    9  N3  UNL     1      -1.820  -2.318  -1.798  1.00  0.00    -0.311 N 
ATOM     10  H3  UNL     1      -1.493  -3.154  -2.283  1.00  0.00     0.170 HD
HETATM   11  C10 UNL     1      -3.163  -1.993  -1.584  1.00  0.00     0.179 A 
HETATM   12  N4  UNL     1      -4.172  -2.710  -1.973  1.00  0.00    -0.371 N 
ATOM     13  H41 UNL     1      -5.152  -2.473  -1.817  1.00  0.00     0.159 HD
ATOM     14  H42 UNL     1      -4.165  -3.595  -2.480  1.00  0.00     0.159 HD
HETATM   15  N5  UNL     1      -3.173  -0.764  -0.880  1.00  0.00    -0.323 N 
ATOM     16  H5  UNL     1      -3.988  -0.239  -0.562  1.00  0.00     0.169 HD
ENDROOT
BRANCH   4  17
HETATM   17  O1  UNL     1       1.006  -2.344  -1.872  1.00  0.00    -0.281 OA
ATOM     18  H1  UNL     1       1.954  -2.289  -1.861  1.00  0.00     0.245 HD
ENDBRANCH   4  17
BRANCH   6  19
HETATM   19  O2  UNL     1       3.107   0.642  -0.211  1.00  0.00    -0.289 OA
BRANCH  19  20
HETATM   20  C7  UNL     1       3.613   0.612   1.082  1.00  0.00     0.259 C 
HETATM   21  C8  UNL     1       4.491   1.653   1.640  1.00  0.00     0.126 C 
HETATM   22  O3  UNL     1       3.297  -0.365   1.807  1.00  0.00    -0.265 OA
ENDBRANCH  19  20
ENDBRANCH   6  19
BRANCH   1  23
HETATM   23  N1  UNL     1      -1.950   1.658   0.480  1.00  0.00    -0.389 N 
HETATM   24  C1  UNL     1      -2.367   1.616   1.867  1.00  0.00     0.146 C 
ATOM     25  H1  UNL     1      -2.238   2.452  -0.092  1.00  0.00     0.159 HD
ENDBRANCH   1  23
TORSDOF 4
