REMARK  5 active torsions:
REMARK  status: ('A' for Active; 'I' for Inactive)
REMARK    1  A    between atoms: C3_4  and  O1_5 
REMARK    2  A    between atoms: O1_5  and  N2_6 
REMARK    3  A    between atoms: N2_6  and  O2_7 
REMARK    4  A    between atoms: N2_6  and  O3_9 
REMARK    5  A    between atoms: C7_18  and  N5_19 
ROOT
HETATM    1  C1  UNL     1      -0.729  -2.239  -1.686  1.00  0.00     0.151 C 
HETATM    2  N1  UNL     1      -0.285  -1.420  -0.578  1.00  0.00    -0.367 N 
HETATM    3  C2  UNL     1       0.901  -1.802   0.159  1.00  0.00     0.159 C 
HETATM    4  C3  UNL     1       1.696  -0.541   0.419  1.00  0.00     0.186 C 
HETATM    5  C4  UNL     1       1.358   0.065   1.762  1.00  0.00     0.155 C 
HETATM    6  N3  UNL     1       0.021   0.659   1.749  1.00  0.00    -0.382 N 
ATOM      7  H3  UNL     1      -0.248   1.155   2.599  1.00  0.00     0.160 HD
HETATM    8  C5  UNL     1      -0.948   0.641   0.723  1.00  0.00     0.111 A 
HETATM    9  C6  UNL     1      -1.090  -0.279  -0.315  1.00  0.00     0.148 A 
HETATM   10  N4  UNL     1      -2.079  -0.136  -1.209  1.00  0.00    -0.175 N 
ATOM     11  H4  UNL     1      -2.184  -0.808  -1.969  1.00  0.00     0.186 HD
HETATM   12  C7  UNL     1      -2.930   0.895  -1.100  1.00  0.00     0.678 A 
HETATM   13  N6  UNL     1      -2.784   1.775  -0.096  1.00  0.00    -0.180 N 
ATOM     14  H6  UNL     1      -3.446   2.549  -0.037  1.00  0.00     0.185 HD
HETATM   15  C8  UNL     1      -1.822   1.699   0.833  1.00  0.00     0.159 A 
HETATM   16  C9  UNL     1      -1.660   2.631   1.903  1.00  0.00     0.120 C 
HETATM   17  N7  UNL     1      -1.546   3.395   2.766  1.00  0.00    -0.190 NA
ENDROOT
BRANCH  12  18
HETATM   18  N5  UNL     1      -3.907   1.053  -1.967  1.00  0.00    -0.234 N 
ATOM     19  H52 UNL     1      -4.018   0.385  -2.730  1.00  0.00     0.174 HD
ATOM     20  H51 UNL     1      -4.554   1.837  -1.884  1.00  0.00     0.174 HD
ENDBRANCH  12  18
BRANCH   4  21
HETATM   21  O1  UNL     1       3.032  -0.868   0.408  1.00  0.00    -0.247 OA
BRANCH  21  22
HETATM   22  N2  UNL     1       3.744  -0.175  -0.506  1.00  0.00     0.074 NA
BRANCH  22  23
HETATM   23  O2  UNL     1       3.061   0.050  -1.638  1.00  0.00    -0.265 OA
ATOM     24  H2  UNL     1       3.562   0.538  -2.281  1.00  0.00     0.242 HD
ENDBRANCH  22  23
BRANCH  22  25
HETATM   25  O3  UNL     1       4.221   0.969   0.036  1.00  0.00    -0.265 OA
ATOM     26  H3  UNL     1       4.722   1.457  -0.607  1.00  0.00     0.242 HD
ENDBRANCH  22  25
ENDBRANCH  21  22
ENDBRANCH   4  21
TORSDOF 5
