REMARK  3 active torsions:
REMARK  status: ('A' for Active; 'I' for Inactive)
REMARK    1  A    between atoms: S1_2  and  C2_5 
REMARK    2  A    between atoms: C4_9  and  N2_10 
REMARK    3  A    between atoms: C5_15  and  N4_16 
ROOT
HETATM    1  C2  UNL     1       1.127   0.717  -0.050  1.00  0.00     0.204 A 
HETATM    2  N1  UNL     1      -0.032   1.397  -0.112  1.00  0.00    -0.327 N 
ATOM      3  H1  UNL     1      -0.117   2.413  -0.097  1.00  0.00     0.168 HD
HETATM    4  C3  UNL     1      -1.060   0.537  -0.196  1.00  0.00     0.131 A 
HETATM    5  C4  UNL     1      -2.440   0.651  -0.284  1.00  0.00     0.218 A 
HETATM    6  N3  UNL     1      -3.246  -0.443  -0.359  1.00  0.00    -0.169 N 
ATOM      7  H3  UNL     1      -4.258  -0.337  -0.423  1.00  0.00     0.186 HD
HETATM    8  C5  UNL     1      -2.688  -1.663  -0.348  1.00  0.00     0.679 A 
HETATM    9  N5  UNL     1      -1.371  -1.788  -0.264  1.00  0.00    -0.174 N 
ATOM     10  H5  UNL     1      -0.970  -2.726  -0.257  1.00  0.00     0.186 HD
HETATM   11  C6  UNL     1      -0.528  -0.718  -0.187  1.00  0.00     0.154 A 
HETATM   12  N6  UNL     1       0.801  -0.582  -0.097  1.00  0.00    -0.317 N 
ATOM     13  H6  UNL     1       1.467  -1.354  -0.068  1.00  0.00     0.169 HD
ENDROOT
BRANCH   1  14
HETATM   14  S1  UNL     1       2.743   1.425   0.070  1.00  0.00     0.203 S 
HETATM   15  C1  UNL     1       3.913   0.076   0.120  1.00  0.00     0.170 C 
HETATM   16  O1  UNL     1       3.061   2.256  -1.140  1.00  0.00    -0.220 OA
HETATM   17  O2  UNL     1       2.850   2.244   1.347  1.00  0.00    -0.220 OA
ENDBRANCH   1  14
BRANCH   5  18
HETATM   18  N2  UNL     1      -3.016   1.941  -0.294  1.00  0.00    -0.095 N 
HETATM   19  O3  UNL     1      -2.482   2.875   0.321  1.00  0.00    -0.530 OA
HETATM   20  O4  UNL     1      -4.173   2.178  -0.983  1.00  0.00    -0.530 OA
ENDBRANCH   5  18
BRANCH   8  21
HETATM   21  N4  UNL     1      -3.438  -2.723  -0.418  1.00  0.00    -0.234 N 
ATOM     22  H42 UNL     1      -4.451  -2.627  -0.483  1.00  0.00     0.174 HD
ATOM     23  H41 UNL     1      -3.014  -3.651  -0.410  1.00  0.00     0.174 HD
ENDBRANCH   8  21
TORSDOF 3
