REMARK  4 active torsions:
REMARK  status: ('A' for Active; 'I' for Inactive)
REMARK    1  A    between atoms: N1_2  and  C3_4 
REMARK    2  A    between atoms: C4_7  and  N3_8 
REMARK    3  A    between atoms: C6_14  and  N5_15 
REMARK    4  A    between atoms: N5_15  and  C7_17 
ROOT
HETATM    1  C3  UNL     1      -2.384  -0.175  -0.088  1.00  0.00     0.682 A 
HETATM    2  N2  UNL     1      -1.673   0.465  -1.061  1.00  0.00    -0.175 N 
ATOM      3  H2  UNL     1      -2.166   0.829  -1.876  1.00  0.00     0.186 HD
HETATM    4  C4  UNL     1      -0.344   0.630  -0.977  1.00  0.00     0.145 A 
HETATM    5  C5  UNL     1       0.369   0.159   0.100  1.00  0.00     0.123 A 
HETATM    6  N4  UNL     1       1.687   0.290   0.234  1.00  0.00    -0.335 N 
ATOM      7  H4  UNL     1       2.215   0.766  -0.497  1.00  0.00     0.168 HD
HETATM    8  C6  UNL     1       2.340  -0.187   1.304  1.00  0.00     0.137 A 
HETATM    9  C8  UNL     1       1.630  -0.851   2.326  1.00  0.00     0.139 A 
HETATM   10  N10 UNL     1       0.309  -0.982   2.190  1.00  0.00    -0.346 N 
ATOM     11  H10 UNL     1      -0.225  -1.458   2.918  1.00  0.00     0.167 HD
HETATM   12  C9  UNL     1      -0.341  -0.491   1.095  1.00  0.00     0.151 A 
HETATM   13  N11 UNL     1      -1.663  -0.623   0.953  1.00  0.00    -0.174 N 
ATOM     14  H11 UNL     1      -2.167  -1.104   1.698  1.00  0.00     0.186 HD
ENDROOT
BRANCH   8  15
HETATM   15  N5  UNL     1       3.725  -0.105   1.485  1.00  0.00    -0.172 N 
ATOM     16  H5  UNL     1       4.056  -0.404   2.402  1.00  0.00     0.186 HD
BRANCH  15  17
HETATM   17  C7  UNL     1       4.616   0.275   0.705  1.00  0.00     0.715 A 
HETATM   18  N6  UNL     1       5.953   0.299   1.028  1.00  0.00    -0.115 N 
HETATM   19  N7  UNL     1       6.627   0.755  -0.022  1.00  0.00    -0.213 N 
ATOM     20  H6  UNL     1       6.357   0.015   1.920  1.00  0.00     0.207 HD
HETATM   21  N8  UNL     1       5.798   1.018  -0.979  1.00  0.00    -0.213 N 
ATOM     22  H7  UNL     1       7.639   0.878  -0.066  1.00  0.00     0.210 HD
HETATM   23  N9  UNL     1       4.574   0.738  -0.565  1.00  0.00    -0.115 N 
ATOM     24  H8  UNL     1       6.047   1.381  -1.899  1.00  0.00     0.210 HD
ATOM     25  H9  UNL     1       3.726   0.854  -1.120  1.00  0.00     0.207 HD
ENDBRANCH  15  17
ENDBRANCH   8  15
BRANCH   4  26
HETATM   26  N3  UNL     1       0.317   1.244  -1.922  1.00  0.00    -0.383 N 
ATOM     27  H32 UNL     1      -0.212   1.593  -2.721  1.00  0.00     0.157 HD
ATOM     28  H31 UNL     1       1.327   1.369  -1.858  1.00  0.00     0.157 HD
ENDBRANCH   4  26
BRANCH   1  29
HETATM   29  N1  UNL     1      -3.783  -0.359  -0.170  1.00  0.00    -0.226 N 
HETATM   30  C1  UNL     1      -4.637   0.519   0.588  1.00  0.00     0.168 C 
HETATM   31  C2  UNL     1      -4.400  -1.378  -0.982  1.00  0.00     0.168 C 
ENDBRANCH   1  29
TORSDOF 4
