REMARK  4 active torsions:
REMARK  status: ('A' for Active; 'I' for Inactive)
REMARK    1  A    between atoms: C2_2  and  C3_3 
REMARK       I    between atoms: C3_3  and  N1_5 
REMARK    2  A    between atoms: N1_5  and  O2_7 
REMARK    3  A    between atoms: O2_7  and  C4_8 
REMARK       I    between atoms: C4_8  and  N2_10 
REMARK    4  A    between atoms: C7_20  and  N6_21 
ROOT
HETATM    1  C4  UNL     1       0.087   0.026  -0.040  1.00  0.00     0.411 C 
HETATM    2  O3  UNL     1       0.206  -1.184   0.267  1.00  0.00    -0.234 OA
HETATM    3  N2  UNL     1       1.234   0.848  -0.221  1.00  0.00    -0.164 N 
HETATM    4  N3  UNL     1       1.222   2.140  -0.547  1.00  0.00    -0.229 N 
ATOM      5  H3  UNL     1       0.376   2.688  -0.707  1.00  0.00     0.209 HD
HETATM    6  N4  UNL     1       2.448   2.617  -0.636  1.00  0.00    -0.277 N 
ATOM      7  H4  UNL     1       2.715   3.573  -0.870  1.00  0.00     0.189 HD
HETATM    8  C5  UNL     1       3.276   1.599  -0.359  1.00  0.00     0.165 A 
HETATM    9  C6  UNL     1       4.639   1.462  -0.289  1.00  0.00     0.291 A 
HETATM   10  O4  UNL     1       5.368   2.477  -0.526  1.00  0.00    -0.265 OA
HETATM   11  N5  UNL     1       5.209   0.299   0.018  1.00  0.00    -0.154 N 
ATOM     12  H5  UNL     1       6.226   0.237   0.059  1.00  0.00     0.187 HD
HETATM   13  C7  UNL     1       4.471  -0.796   0.275  1.00  0.00     0.680 A 
HETATM   14  N7  UNL     1       3.119  -0.677   0.210  1.00  0.00    -0.172 N 
ATOM     15  H7  UNL     1       2.549  -1.500   0.402  1.00  0.00     0.186 HD
HETATM   16  C8  UNL     1       2.498   0.476  -0.096  1.00  0.00     0.183 A 
ENDROOT
BRANCH   1  17
HETATM   17  O2  UNL     1      -1.205   0.507  -0.188  1.00  0.00    -0.177 OA
BRANCH  17  18
HETATM   18  N1  UNL     1      -2.277  -0.324  -0.002  1.00  0.00    -0.224 N 
HETATM   19  C3  UNL     1      -3.617   0.147  -0.091  1.00  0.00     0.241 C 
HETATM   20  O1  UNL     1      -3.851   1.337  -0.345  1.00  0.00    -0.271 OA
ATOM     21  H1  UNL     1      -2.111  -1.309   0.206  1.00  0.00     0.198 HD
BRANCH  19  22
HETATM   22  C2  UNL     1      -4.720  -0.818   0.126  1.00  0.00     0.100 C 
HETATM   23  C1  UNL     1      -6.046  -0.095  -0.001  1.00  0.00     0.014 C 
ENDBRANCH  19  22
ENDBRANCH  17  18
ENDBRANCH   1  17
BRANCH  13  24
HETATM   24  N6  UNL     1       5.065  -1.887   0.564  1.00  0.00    -0.234 N 
ATOM     25  H62 UNL     1       6.080  -1.976   0.613  1.00  0.00     0.174 HD
ATOM     26  H61 UNL     1       4.505  -2.717   0.759  1.00  0.00     0.174 HD
ENDBRANCH  13  24
TORSDOF 4
