REMARK  6 active torsions:
REMARK  status: ('A' for Active; 'I' for Inactive)
REMARK    1  A    between atoms: C4_5  and  C5_6 
REMARK       I    between atoms: C5_6  and  N2_8 
REMARK    2  A    between atoms: N2_8  and  C6_10 
REMARK    3  A    between atoms: C7_16  and  N5_17 
REMARK    4  A    between atoms: N5_17  and  N6_19 
REMARK       I    between atoms: N6_19  and  C8_21 
REMARK    5  A    between atoms: C8_21  and  C9_23 
REMARK    6  A    between atoms: C13_29  and  O6_30 
ROOT
HETATM    1  N1  UNL     1       3.980   3.285  -1.643  1.00  0.00    -0.191 NA
HETATM    2  C1  UNL     1       4.273   2.198  -1.358  1.00  0.00     0.102 C 
HETATM    3  C2  UNL     1       4.621   0.853  -0.991  1.00  0.00     0.084 A 
HETATM    4  C3  UNL     1       3.672  -0.115  -0.752  1.00  0.00     0.045 A 
HETATM    5  C4  UNL     1       4.004  -1.432  -0.393  1.00  0.00     0.067 A 
HETATM    6  C13 UNL     1       5.330  -1.728  -0.286  1.00  0.00     0.084 A 
HETATM    7  C14 UNL     1       6.311  -0.738  -0.531  1.00  0.00     0.081 A 
HETATM    8  C15 UNL     1       5.965   0.528  -0.876  1.00  0.00     0.139 A 
HETATM    9  F1  UNL     1       6.888   1.510  -1.120  1.00  0.00    -0.204 F 
ENDROOT
BRANCH   5  10
HETATM   10  C5  UNL     1       2.915  -2.354  -0.169  1.00  0.00     0.260 C 
HETATM   11  O1  UNL     1       3.078  -3.532   0.150  1.00  0.00    -0.267 OA
HETATM   12  N2  UNL     1       1.544  -1.943  -0.307  1.00  0.00    -0.304 N 
ATOM     13  H2  UNL     1       1.025  -2.081  -1.174  1.00  0.00     0.171 HD
BRANCH  12  14
HETATM   14  C6  UNL     1       1.007  -1.389   0.728  1.00  0.00     0.178 A 
HETATM   15  N3  UNL     1       1.547  -1.133   1.941  1.00  0.00    -0.222 N 
HETATM   16  O2  UNL     1       0.651  -0.567   2.676  1.00  0.00    -0.153 OA
ATOM     17  H3  UNL     1       2.502  -1.351   2.226  1.00  0.00     0.198 HD
HETATM   18  N4  UNL     1      -0.463  -0.421   2.042  1.00  0.00    -0.221 N 
HETATM   19  C7  UNL     1      -0.299  -0.923   0.803  1.00  0.00     0.189 A 
ATOM     20  H4  UNL     1      -1.315  -0.001   2.413  1.00  0.00     0.198 HD
BRANCH  19  21
HETATM   21  N5  UNL     1      -1.126  -0.997  -0.175  1.00  0.00    -0.278 N 
ATOM     22  H5  UNL     1      -0.814  -1.417  -1.051  1.00  0.00     0.189 HD
BRANCH  21  23
HETATM   23  N6  UNL     1      -2.435  -0.525  -0.086  1.00  0.00    -0.262 N 
HETATM   24  C8  UNL     1      -2.833   0.761  -0.505  1.00  0.00     0.295 C 
HETATM   25  O3  UNL     1      -2.037   1.590  -0.995  1.00  0.00    -0.264 OA
ATOM     26  H6  UNL     1      -3.145  -1.145   0.304  1.00  0.00     0.190 HD
BRANCH  24  27
HETATM   27  C9  UNL     1      -4.239   1.185  -0.377  1.00  0.00     0.160 C 
HETATM   28  C10 UNL     1      -4.635   2.380  -0.762  1.00  0.00     0.177 C 
HETATM   29  O4  UNL     1      -5.948   2.769  -0.640  1.00  0.00    -0.358 OA
HETATM   30  C11 UNL     1      -6.808   2.042   0.211  1.00  0.00     0.201 C 
HETATM   31  C12 UNL     1      -6.555   0.565  -0.113  1.00  0.00     0.202 C 
HETATM   32  O5  UNL     1      -5.191   0.324   0.158  1.00  0.00    -0.342 OA
ENDBRANCH  24  27
ENDBRANCH  21  23
ENDBRANCH  19  21
ENDBRANCH  12  14
ENDBRANCH   5  10
BRANCH   6  33
HETATM   33  O6  UNL     1       5.775  -2.967   0.054  1.00  0.00    -0.360 OA
ATOM     34  H6  UNL     1       6.699  -3.173   0.129  1.00  0.00     0.217 HD
ENDBRANCH   6  33
TORSDOF 6
