REMARK  4 active torsions:
REMARK  status: ('A' for Active; 'I' for Inactive)
REMARK    1  A    between atoms: C4_8  and  N4_9 
REMARK    2  A    between atoms: N4_9  and  N5_11 
REMARK    3  A    between atoms: N5_11  and  C5_13 
REMARK    4  A    between atoms: N8_24  and  N9_26 
ROOT
HETATM    1  N1  UNL     1       3.854   0.469   2.646  1.00  0.00    -0.191 NA
HETATM    2  C1  UNL     1       2.815   0.464   2.094  1.00  0.00     0.107 C 
HETATM    3  C2  UNL     1       1.551   0.486   1.451  1.00  0.00     0.132 A 
HETATM    4  C3  UNL     1       0.618   1.416   1.922  1.00  0.00     0.156 A 
HETATM    5  N2  UNL     1       0.959   2.282   2.998  1.00  0.00    -0.080 NA
HETATM    6  N3  UNL     1      -0.609   1.484   1.347  1.00  0.00    -0.176 N 
ATOM      7  H3  UNL     1      -1.292   2.160   1.689  1.00  0.00     0.185 HD
HETATM    8  C4  UNL     1      -0.930   0.667   0.331  1.00  0.00     0.699 A 
HETATM    9  N7  UNL     1      -0.038  -0.221  -0.119  1.00  0.00    -0.172 N 
ATOM     10  H7  UNL     1      -0.301  -0.833  -0.891  1.00  0.00     0.186 HD
HETATM   11  C10 UNL     1       1.227  -0.340   0.424  1.00  0.00     0.160 A 
HETATM   12  N8  UNL     1       2.022  -1.199  -0.047  1.00  0.00    -0.283 N 
ATOM     13  H8  UNL     1       1.686  -1.774  -0.820  1.00  0.00     0.188 HD
ENDROOT
BRANCH  12  14
HETATM   14  N9  UNL     1       3.293  -1.421   0.393  1.00  0.00    -0.289 N 
HETATM   15  C11 UNL     1       4.250  -1.984  -0.220  1.00  0.00     0.131 C 
HETATM   16  S1  UNL     1       5.897  -2.244   0.416  1.00  0.00    -0.107 SA
HETATM   17  C14 UNL     1       4.266  -2.548  -1.554  1.00  0.00     0.184 C 
HETATM   18  C12 UNL     1       6.596  -3.042  -1.092  1.00  0.00     0.089 C 
HETATM   19  C13 UNL     1       5.632  -2.519  -2.138  1.00  0.00     0.097 C 
HETATM   20  O1  UNL     1       3.226  -3.010  -2.146  1.00  0.00    -0.290 OA
ATOM     21  H9  UNL     1       3.501  -1.092   1.336  1.00  0.00     0.188 HD
ENDBRANCH  12  14
BRANCH   8  22
HETATM   22  N4  UNL     1      -2.112   0.728  -0.226  1.00  0.00    -0.130 N 
ATOM     23  H4  UNL     1      -2.341   0.101  -0.997  1.00  0.00     0.205 HD
BRANCH  22  24
HETATM   24  N5  UNL     1      -3.069   1.651   0.229  1.00  0.00    -0.271 N 
ATOM     25  H5  UNL     1      -2.755   2.506   0.688  1.00  0.00     0.189 HD
BRANCH  24  26
HETATM   26  C5  UNL     1      -4.338   1.446   0.081  1.00  0.00     0.120 A 
HETATM   27  C6  UNL     1      -5.194   2.408   0.559  1.00  0.00     0.051 A 
HETATM   28  C7  UNL     1      -6.544   2.238   0.428  1.00  0.00     0.029 A 
HETATM   29  C8  UNL     1      -7.028   1.116  -0.176  1.00  0.00     0.049 A 
HETATM   30 CL1  UNL     1      -8.767   0.881  -0.353  1.00  0.00    -0.083 Cl
HETATM   31  C9  UNL     1      -6.168   0.155  -0.653  1.00  0.00     0.113 A 
HETATM   32  N6  UNL     1      -4.846   0.365  -0.502  1.00  0.00    -0.350 N 
ATOM     33  H6  UNL     1      -4.201  -0.343  -0.854  1.00  0.00     0.166 HD
ENDBRANCH  24  26
ENDBRANCH  22  24
ENDBRANCH   8  22
TORSDOF 4
