REMARK  3 active torsions:
REMARK  status: ('A' for Active; 'I' for Inactive)
REMARK    1  A    between atoms: C2_3  and  N2_4 
REMARK       I    between atoms: N2_4  and  C3_6 
REMARK    2  A    between atoms: C3_6  and  C4_8 
REMARK    3  A    between atoms: C11_17  and  O2_18 
ROOT
HETATM    1  N1  UNL     1       4.021   3.776  -0.886  1.00  0.00    -0.196 NA
HETATM    2  C1  UNL     1       3.729   2.673  -1.102  1.00  0.00     0.078 C 
HETATM    3  C2  UNL     1       3.383   1.285  -1.385  1.00  0.00     0.247 C 
ENDROOT
BRANCH   3   4
HETATM    4  N2  UNL     1       2.960   0.591  -0.196  1.00  0.00    -0.348 N 
HETATM    5  C3  UNL     1       2.584  -0.767  -0.271  1.00  0.00     0.227 C 
HETATM    6  O1  UNL     1       2.637  -1.323  -1.415  1.00  0.00    -0.273 OA
ATOM      7  H2  UNL     1       2.932   1.080   0.699  1.00  0.00     0.163 HD
BRANCH   5   8
HETATM    8  C4  UNL     1       2.139  -1.554   0.897  1.00  0.00     0.123 C 
HETATM    9  C5  UNL     1       3.194  -1.806   1.878  1.00  0.00     0.099 C 
HETATM   10  S1  UNL     1       3.059  -0.339   2.963  1.00  0.00    -0.121 SA
HETATM   11  C6  UNL     1       1.305  -0.178   2.641  1.00  0.00     0.051 A 
HETATM   12  S2  UNL     1      -0.125   0.501   3.185  1.00  0.00    -0.065 SA
HETATM   13  C9  UNL     1       0.939  -0.877   1.526  1.00  0.00    -0.011 A 
HETATM   14  C7  UNL     1      -1.211  -0.100   1.995  1.00  0.00     0.081 A 
HETATM   15  C8  UNL     1      -0.384  -0.835   1.188  1.00  0.00    -0.011 A 
HETATM   16  N5  UNL     1      -2.623   0.026   1.761  1.00  0.00    -0.337 N 
HETATM   17  C10 UNL     1      -1.134  -1.482   0.016  1.00  0.00     0.109 C 
HETATM   18  C11 UNL     1      -2.135  -0.482  -0.504  1.00  0.00     0.205 C 
HETATM   19  N3  UNL     1      -1.525   0.770  -0.863  1.00  0.00    -0.306 N 
HETATM   20  C14 UNL     1      -3.236  -0.241   0.487  1.00  0.00     0.308 C 
HETATM   21  C12 UNL     1      -2.351   1.796  -1.390  1.00  0.00     0.325 C 
ATOM     22  H3  UNL     1      -0.523   0.917  -0.742  1.00  0.00     0.167 HD
HETATM   23  O3  UNL     1      -1.960   2.646  -2.213  1.00  0.00    -0.247 OA
HETATM   24  N4  UNL     1      -3.712   1.834  -0.932  1.00  0.00    -0.275 N 
HETATM   25  C13 UNL     1      -4.112   0.840   0.010  1.00  0.00     0.292 C 
ATOM     26  H4  UNL     1      -4.365   2.542  -1.266  1.00  0.00     0.173 HD
HETATM   27  O4  UNL     1      -5.288   0.896   0.459  1.00  0.00    -0.267 OA
HETATM   28  F1  UNL     1      -3.920  -1.444   0.612  1.00  0.00    -0.203 F 
ATOM     29  H5  UNL     1      -3.219   0.319   2.535  1.00  0.00     0.164 HD
BRANCH  18  30
HETATM   30  O2  UNL     1      -2.704  -1.033  -1.650  1.00  0.00    -0.365 OA
ATOM     31  H2  UNL     1      -3.335  -0.403  -1.978  1.00  0.00     0.212 HD
ENDBRANCH  18  30
ENDBRANCH   5   8
ENDBRANCH   3   4
TORSDOF 3
