REMARK  5 active torsions:
REMARK  status: ('A' for Active; 'I' for Inactive)
REMARK    1  A    between atoms: O1_2  and  C2_3 
REMARK    2  A    between atoms: C2_3  and  C3_5 
REMARK    3  A    between atoms: N1_10  and  C7_11 
REMARK    4  A    between atoms: C7_11  and  C8_12 
REMARK    5  A    between atoms: N2_13  and  C9_15 
ROOT
HETATM    1  C3  UNL     1      -1.522   1.828   0.332  1.00  0.00     0.103 C 
HETATM    2  C4  UNL     1      -0.206   1.191  -0.091  1.00  0.00     0.025 C 
HETATM    3  C5  UNL     1       0.467   0.571   1.112  1.00  0.00     0.105 C 
HETATM    4  C6  UNL     1       1.904   0.390   0.844  1.00  0.00     0.235 C 
HETATM    5  O3  UNL     1       2.688   1.360   1.108  1.00  0.00    -0.272 OA
HETATM    6  N1  UNL     1       2.488  -0.776   0.314  1.00  0.00    -0.260 N 
HETATM    7  N4  UNL     1       1.710  -1.635  -0.489  1.00  0.00    -0.134 NA
HETATM    8  C10 UNL     1       1.436  -2.808   0.293  1.00  0.00     0.161 C 
HETATM    9  C11 UNL     1       0.294  -3.570  -0.346  1.00  0.00     0.185 C 
HETATM   10  O4  UNL     1      -0.879  -2.907  -0.030  1.00  0.00    -0.388 OA
HETATM   11  C12 UNL     1      -1.927  -3.229  -0.897  1.00  0.00     0.195 C 
HETATM   12  C13 UNL     1      -3.218  -3.030  -0.104  1.00  0.00     0.258 C 
HETATM   13  N5  UNL     1      -3.213  -1.654   0.346  1.00  0.00    -0.072 N 
ATOM     14  H51 UNL     1      -2.263  -1.319   0.507  1.00  0.00     0.277 HD
ATOM     15  H52 UNL     1      -3.574  -1.573   1.297  1.00  0.00     0.277 HD
HETATM   16  C14 UNL     1      -3.937  -0.779  -0.575  1.00  0.00     0.251 C 
HETATM   17  C15 UNL     1      -4.255   0.498   0.138  1.00  0.00     0.141 C 
HETATM   18  N6  UNL     1      -3.817   1.681  -0.497  1.00  0.00    -0.419 N 
ATOM     19  H6  UNL     1      -4.456   2.457  -0.671  1.00  0.00     0.153 HD
HETATM   20  C16 UNL     1      -2.458   1.748  -0.882  1.00  0.00     0.128 C 
ENDROOT
BRANCH   6  21
HETATM   21  C7  UNL     1       3.878  -1.147   0.557  1.00  0.00     0.192 C 
BRANCH  21  22
HETATM   22  C8  UNL     1       4.782  -0.593  -0.463  1.00  0.00     0.086 C 
HETATM   23  N2  UNL     1       5.922  -0.138  -0.118  1.00  0.00    -0.331 N 
ATOM     24  H2  UNL     1       6.160  -0.181   0.873  1.00  0.00     0.168 HD
BRANCH  23  25
HETATM   25  C9  UNL     1       6.878   0.416  -0.982  1.00  0.00     0.259 C 
HETATM   26  N3  UNL     1       6.991   1.711  -1.129  1.00  0.00    -0.361 N 
ATOM     27  H32 UNL     1       6.378   2.341  -0.611  1.00  0.00     0.160 HD
ATOM     28  H31 UNL     1       7.686   2.114  -1.757  1.00  0.00     0.160 HD
HETATM   29  F1  UNL     1       7.691  -0.419  -1.669  1.00  0.00    -0.166 F 
ENDBRANCH  23  25
ENDBRANCH  21  22
ENDBRANCH   6  21
BRANCH   1  30
HETATM   30  C2  UNL     1      -1.289   3.249   0.688  1.00  0.00     0.264 C 
HETATM   31  O2  UNL     1      -1.555   3.654   1.848  1.00  0.00    -0.265 OA
BRANCH  30  32
HETATM   32  O1  UNL     1      -0.782   4.171  -0.213  1.00  0.00    -0.326 OA
HETATM   33  C1  UNL     1      -0.557   5.526   0.118  1.00  0.00     0.213 C 
ENDBRANCH  30  32
ENDBRANCH   1  30
TORSDOF 5
