REMARK  8 active torsions:
REMARK  status: ('A' for Active; 'I' for Inactive)
REMARK    1  A    between atoms: O1_2  and  C2_3 
REMARK    2  A    between atoms: C2_3  and  O2_4 
REMARK    3  A    between atoms: C2_3  and  C3_6 
REMARK    4  A    between atoms: C3_6  and  C4_7 
REMARK    5  A    between atoms: C8_14  and  O5_15 
REMARK    6  A    between atoms: C8_14  and  C9_17 
REMARK    7  A    between atoms: C10_20  and  C12_22 
REMARK    8  A    between atoms: N2_24  and  O7_26 
ROOT
HETATM    1  C4  UNL     1       0.664  -0.089  -0.020  1.00  0.00     0.013 C 
HETATM    2  C5  UNL     1       1.066  -1.428   0.317  1.00  0.00     0.173 C 
HETATM    3  O3  UNL     1       1.776  -1.505   1.351  1.00  0.00    -0.291 OA
HETATM    4  C6  UNL     1       0.783  -2.711  -0.339  1.00  0.00     0.156 C 
HETATM    5 BR1  UNL     1       1.762  -3.004  -1.962  1.00  0.00    -0.081 Br
HETATM    6  C7  UNL     1      -0.688  -2.900  -0.644  1.00  0.00     0.196 C 
HETATM    7  O4  UNL     1      -1.208  -1.791  -1.252  1.00  0.00    -0.345 OA
HETATM    8  C8  UNL     1      -1.703  -0.815  -0.387  1.00  0.00     0.260 C 
HETATM    9  C10 UNL     1      -0.734   0.320  -0.409  1.00  0.00     0.092 C 
HETATM   10  C11 UNL     1      -0.579   0.754  -1.877  1.00  0.00     0.033 C 
ENDROOT
BRANCH   9  11
HETATM   11  C12 UNL     1      -1.098   1.482   0.414  1.00  0.00     0.025 C 
HETATM   12  C13 UNL     1      -1.137   1.476   1.880  1.00  0.00     0.066 C 
HETATM   13  N2  UNL     1      -1.410   2.589  -0.177  1.00  0.00    -0.277 N 
ATOM     14  H2  UNL     1      -1.391   2.614  -1.197  1.00  0.00     0.193 HD
BRANCH  13  15
HETATM   15  O7  UNL     1      -1.765   3.732   0.493  1.00  0.00    -0.290 OA
ATOM     16  H7  UNL     1      -1.994   4.545   0.059  1.00  0.00     0.244 HD
ENDBRANCH  13  15
ENDBRANCH   9  11
BRANCH   1  17
HETATM   17  C3  UNL     1       1.521   0.885  -0.049  1.00  0.00     0.075 C 
BRANCH  17  18
HETATM   18  C2  UNL     1       2.930   0.941   0.199  1.00  0.00     0.178 C 
BRANCH  18  19
HETATM   19  O1  UNL     1       3.810  -0.038   0.529  1.00  0.00    -0.336 OA
HETATM   20  C1  UNL     1       5.173   0.242   0.727  1.00  0.00     0.212 C 
ENDBRANCH  18  19
BRANCH  18  21
HETATM   21  O2  UNL     1       3.476   2.117   0.093  1.00  0.00    -0.341 OA
ATOM     22  H2  UNL     1       2.860   2.802  -0.138  1.00  0.00     0.220 HD
ENDBRANCH  18  21
ENDBRANCH  17  18
ENDBRANCH   1  17
BRANCH   8  23
HETATM   23  O5  UNL     1      -1.937  -1.328   0.885  1.00  0.00    -0.357 OA
ATOM     24  H5  UNL     1      -2.274  -0.663   1.474  1.00  0.00     0.213 HD
ENDBRANCH   8  23
BRANCH   8  25
HETATM   25  C9  UNL     1      -3.017  -0.380  -0.915  1.00  0.00     0.295 C 
HETATM   26  N1  UNL     1      -4.227  -0.487  -0.174  1.00  0.00    -0.057 NA
HETATM   27  O6  UNL     1      -3.103   0.109  -2.064  1.00  0.00    -0.271 OA
ENDBRANCH   8  25
TORSDOF 8
