REMARK  5 active torsions:
REMARK  status: ('A' for Active; 'I' for Inactive)
REMARK    1  A    between atoms: C2_2  and  N1_3 
REMARK    2  A    between atoms: C2_2  and  C9_27 
REMARK    3  A    between atoms: N1_3  and  C3_5 
REMARK    4  A    between atoms: C5_12  and  N4_13 
REMARK       I    between atoms: N4_13  and  C6_15 
REMARK    5  A    between atoms: C6_15  and  C7_17 
ROOT
HETATM    1  C3  UNL     1       0.604  -1.014  -0.920  1.00  0.00     0.695 A 
HETATM    2  N2  UNL     1       0.122  -1.603  -2.027  1.00  0.00    -0.165 N 
ATOM      3  H2  UNL     1       0.746  -1.828  -2.802  1.00  0.00     0.186 HD
HETATM    4  C4  UNL     1      -1.183  -1.893  -2.107  1.00  0.00     0.208 A 
HETATM    5 CL1  UNL     1      -1.838  -2.661  -3.538  1.00  0.00    -0.044 Cl
HETATM    6  N3  UNL     1      -2.004  -1.608  -1.108  1.00  0.00    -0.164 N 
ATOM      7  H3  UNL     1      -2.995  -1.836  -1.183  1.00  0.00     0.186 HD
HETATM    8  C5  UNL     1      -1.541  -1.026  -0.009  1.00  0.00     0.702 A 
HETATM    9  N7  UNL     1      -0.222  -0.721   0.097  1.00  0.00    -0.022 N 
ATOM     10  H7  UNL     1       0.137  -0.274   0.940  1.00  0.00     0.203 HD
ENDROOT
BRANCH   8  11
HETATM   11  N4  UNL     1      -2.345  -0.749   0.964  1.00  0.00    -0.153 N 
HETATM   12  C6  UNL     1      -3.716  -1.059   0.870  1.00  0.00     0.295 C 
HETATM   13  O1  UNL     1      -4.173  -2.215   1.051  1.00  0.00    -0.265 OA
ATOM     14  H4  UNL     1      -1.984  -0.302   1.807  1.00  0.00     0.187 HD
BRANCH  12  15
HETATM   15  C7  UNL     1      -4.705  -0.004   0.545  1.00  0.00     0.163 A 
HETATM   16  N5  UNL     1      -6.015  -0.110   0.417  1.00  0.00    -0.286 N 
HETATM   17  N6  UNL     1      -6.717   0.912   0.131  1.00  0.00    -0.259 N 
ATOM     18  H5  UNL     1      -6.466  -1.015   0.548  1.00  0.00     0.188 HD
HETATM   19  C8  UNL     1      -6.099   2.086  -0.035  1.00  0.00     0.304 A 
ATOM     20  H6  UNL     1      -7.729   0.837   0.031  1.00  0.00     0.191 HD
HETATM   21  O2  UNL     1      -6.653   3.206  -0.324  1.00  0.00    -0.258 OA
HETATM   22  S1  UNL     1      -4.467   1.659   0.237  1.00  0.00    -0.003 SA
ENDBRANCH  12  15
ENDBRANCH   8  11
BRANCH   1  23
HETATM   23  N1  UNL     1       1.865  -0.738  -0.856  1.00  0.00    -0.220 N 
ATOM     24  H1  UNL     1       2.448  -0.981  -1.657  1.00  0.00     0.178 HD
BRANCH  23  25
HETATM   25  C2  UNL     1       2.493  -0.115   0.264  1.00  0.00     0.115 C 
HETATM   26  C1  UNL     1       2.630  -1.054   1.422  1.00  0.00     0.034 C 
BRANCH  25  27
HETATM   27  C9  UNL     1       3.859   0.396  -0.217  1.00  0.00     0.119 C 
HETATM   28  C10 UNL     1       4.503   1.104   0.907  1.00  0.00     0.116 C 
HETATM   29  C11 UNL     1       5.493   2.069   0.387  1.00  0.00     0.203 C 
HETATM   30  O3  UNL     1       6.427   2.521   0.954  1.00  0.00    -0.284 OA
HETATM   31  S2  UNL     1       4.979   2.411  -1.287  1.00  0.00     0.013 SA
HETATM   32  N8  UNL     1       3.575   1.298  -1.304  1.00  0.00    -0.164 NA
ENDBRANCH  25  27
ENDBRANCH  23  25
ENDBRANCH   1  23
TORSDOF 5
