REMARK  4 active torsions:
REMARK  status: ('A' for Active; 'I' for Inactive)
REMARK    1  A    between atoms: C1_2  and  C2_4 
REMARK       I    between atoms: C2_4  and  N1_6 
REMARK    2  A    between atoms: N1_6  and  C3_8 
REMARK    3  A    between atoms: C4_11  and  C5_12 
REMARK    4  A    between atoms: C8_19  and  C9_20 
REMARK       I    between atoms: C9_20  and  N4_22 
ROOT
HETATM    1  C3  UNL     1       2.655   1.045  -0.765  1.00  0.00     0.152 A 
HETATM    2  N2  UNL     1       2.132  -0.170  -0.733  1.00  0.00    -0.335 N 
ATOM      3  H2  UNL     1       2.663  -0.967  -1.084  1.00  0.00     0.168 HD
HETATM    4  C4  UNL     1       0.914  -0.345  -0.242  1.00  0.00     0.090 A 
HETATM    5  C8  UNL     1       0.253   0.754   0.213  1.00  0.00     0.103 A 
HETATM    6  S2  UNL     1       1.437   2.006  -0.097  1.00  0.00    -0.046 SA
ENDROOT
BRANCH   5   7
HETATM    7  C9  UNL     1      -1.032   0.974   0.868  1.00  0.00     0.266 C 
HETATM    8  O5  UNL     1      -1.319   2.209   1.100  1.00  0.00    -0.267 OA
HETATM    9  N4  UNL     1      -1.956   0.056   1.268  1.00  0.00    -0.301 N 
HETATM   10  C10 UNL     1      -3.214   0.179   1.510  1.00  0.00     0.169 A 
ATOM     11  H4  UNL     1      -1.589  -0.887   1.397  1.00  0.00     0.171 HD
HETATM   12  N5  UNL     1      -4.060   1.207   1.463  1.00  0.00    -0.278 N 
HETATM   13  S1  UNL     1      -4.272  -1.093   2.021  1.00  0.00    -0.021 SA
HETATM   14  N6  UNL     1      -5.280   1.019   1.769  1.00  0.00    -0.282 N 
ATOM     15  H5  UNL     1      -3.734   2.133   1.185  1.00  0.00     0.189 HD
HETATM   16  C11 UNL     1      -5.709  -0.177   2.127  1.00  0.00     0.163 A 
ATOM     17  H6  UNL     1      -5.934   1.801   1.737  1.00  0.00     0.188 HD
HETATM   18 CL1  UNL     1      -7.347  -0.655   2.587  1.00  0.00    -0.055 Cl
ENDBRANCH   5   7
BRANCH   4  19
HETATM   19  C5  UNL     1       0.335  -1.752  -0.302  1.00  0.00     0.373 C 
HETATM   20  N3  UNL     1       0.778  -2.392  -1.553  1.00  0.00    -0.041 N 
HETATM   21  C6  UNL     1      -0.095  -3.558  -1.563  1.00  0.00     0.262 C 
ATOM     22  H32 UNL     1       0.747  -1.806  -2.387  1.00  0.00     0.280 HD
ATOM     23  H31 UNL     1       1.777  -2.584  -1.625  1.00  0.00     0.280 HD
HETATM   24  C7  UNL     1      -1.240  -3.154  -0.640  1.00  0.00     0.198 C 
HETATM   25  O4  UNL     1      -1.013  -1.783  -0.523  1.00  0.00    -0.353 OA
ENDBRANCH   4  19
BRANCH   1  26
HETATM   26  N1  UNL     1       3.852   1.389  -1.220  1.00  0.00    -0.298 N 
HETATM   27  C2  UNL     1       4.152   2.765  -1.133  1.00  0.00     0.324 C 
HETATM   28  O3  UNL     1       4.208   3.424  -2.198  1.00  0.00    -0.260 OA
ATOM     29  H1  UNL     1       4.508   0.709  -1.605  1.00  0.00     0.171 HD
BRANCH  27  30
HETATM   30  C1  UNL     1       4.397   3.446   0.137  1.00  0.00     0.270 C 
HETATM   31  O1  UNL     1       4.351   2.824   1.230  1.00  0.00    -0.640 OA
HETATM   32  O2  UNL     1       4.690   4.800   0.201  1.00  0.00    -0.640 OA
ENDBRANCH  27  30
ENDBRANCH   1  26
TORSDOF 4
