REMARK  5 active torsions:
REMARK  status: ('A' for Active; 'I' for Inactive)
REMARK    1  A    between atoms: O1_2  and  C2_3 
REMARK    2  A    between atoms: C5_8  and  N2_9 
REMARK    3  A    between atoms: N2_9  and  N3_11 
REMARK    4  A    between atoms: C6_16  and  N5_17 
REMARK    5  A    between atoms: N5_17  and  C7_19 
ROOT
HETATM    1  C7  UNL     1       1.543  -0.370   0.966  1.00  0.00     0.192 C 
HETATM    2  C8  UNL     1       1.983  -1.253  -0.193  1.00  0.00     0.045 C 
HETATM    3  C9  UNL     1       2.008  -0.536  -1.499  1.00  0.00     0.025 C 
HETATM    4  C10 UNL     1       3.480  -0.284  -1.847  1.00  0.00     0.155 C 
HETATM    5  N6  UNL     1       4.206   0.273  -0.736  1.00  0.00    -0.198 N 
HETATM    6  C11 UNL     1       5.578   0.010  -0.708  1.00  0.00     0.195 C 
HETATM    7  N7  UNL     1       6.726  -0.205  -0.698  1.00  0.00    -0.171 NA
HETATM    8  S1  UNL     1       3.610   1.222   0.566  1.00  0.00     0.329 S 
HETATM    9  O2  UNL     1       2.762   2.362   0.089  1.00  0.00    -0.186 OA
HETATM   10  O3  UNL     1       4.742   1.817   1.356  1.00  0.00    -0.186 OA
HETATM   11  N8  UNL     1       2.731   0.200   1.627  1.00  0.00    -0.076 NA
HETATM   12 CL1  UNL     1       3.764  -1.069   2.201  1.00  0.00    -0.002 Cl
ENDROOT
BRANCH   1  13
HETATM   13  N5  UNL     1       0.610   0.595   0.637  1.00  0.00    -0.355 N 
ATOM     14  H5  UNL     1       1.099   1.484   0.531  1.00  0.00     0.162 HD
BRANCH  13  15
HETATM   15  C6  UNL     1      -0.586   0.790   0.423  1.00  0.00     0.147 A 
HETATM   16  N4  UNL     1      -1.011   2.065   0.106  1.00  0.00    -0.173 N 
HETATM   17  C5  UNL     1      -2.274   2.372  -0.139  1.00  0.00     0.698 A 
ATOM     18  H4  UNL     1      -0.315   2.809   0.058  1.00  0.00     0.186 HD
HETATM   19  N1  UNL     1      -3.228   1.441  -0.092  1.00  0.00    -0.188 N 
HETATM   20  C4  UNL     1      -2.919   0.167   0.208  1.00  0.00     0.084 A 
ATOM     21  H1  UNL     1      -4.197   1.697  -0.285  1.00  0.00     0.184 HD
HETATM   22  C3  UNL     1      -3.709  -0.973   0.321  1.00  0.00     0.088 A 
HETATM   23  C12 UNL     1      -1.581  -0.153   0.467  1.00  0.00     0.106 A 
HETATM   24  C2  UNL     1      -2.849  -1.978   0.648  1.00  0.00     0.144 A 
HETATM   25  N9  UNL     1      -1.601  -1.455   0.725  1.00  0.00    -0.332 N 
ATOM     26  H9  UNL     1      -0.770  -2.001   0.955  1.00  0.00     0.168 HD
BRANCH  17  27
HETATM   27  N2  UNL     1      -2.671   3.579  -0.439  1.00  0.00    -0.138 N 
ATOM     28  H2  UNL     1      -3.661   3.747  -0.617  1.00  0.00     0.205 HD
BRANCH  27  29
HETATM   29  N3  UNL     1      -1.776   4.645  -0.522  1.00  0.00    -0.331 N 
ATOM     30  H32 UNL     1      -0.789   4.460  -0.341  1.00  0.00     0.177 HD
ATOM     31  H31 UNL     1      -2.086   5.588  -0.756  1.00  0.00     0.177 HD
ENDBRANCH  27  29
ENDBRANCH  17  27
BRANCH  24  32
HETATM   32  O1  UNL     1      -3.187  -3.314   0.866  1.00  0.00    -0.341 OA
HETATM   33  C1  UNL     1      -4.521  -3.696   0.748  1.00  0.00     0.211 C 
ENDBRANCH  24  32
ENDBRANCH  13  15
ENDBRANCH   1  13
TORSDOF 5
