REMARK  9 active torsions:
REMARK  status: ('A' for Active; 'I' for Inactive)
REMARK    1  A    between atoms: O1_2  and  C2_3 
REMARK    2  A    between atoms: C4_5  and  C5_6 
REMARK    3  A    between atoms: C6_7  and  C7_8 
REMARK    4  A    between atoms: C9_12  and  N2_13 
REMARK    5  A    between atoms: N2_13  and  C10_15 
REMARK    6  A    between atoms: C10_15  and  N3_17 
REMARK    7  A    between atoms: N3_17  and  N4_19 
REMARK    8  A    between atoms: N5_22  and  N6_23 
REMARK    9  A    between atoms: C12_28  and  N7_29 
ROOT
HETATM    1  C7  UNL     1       0.933   0.245   0.439  1.00  0.00     0.104 A 
HETATM    2  C8  UNL     1       1.395   1.476   0.846  1.00  0.00     0.132 A 
HETATM    3  N1  UNL     1       2.701   1.687   0.873  1.00  0.00    -0.198 N 
ATOM      4  H1  UNL     1       3.032   2.603   1.176  1.00  0.00     0.183 HD
HETATM    5  C9  UNL     1       3.638   0.747   0.517  1.00  0.00     0.708 A 
HETATM    6  N5  UNL     1       3.223  -0.449   0.120  1.00  0.00    -0.053 N 
HETATM    7  C11 UNL     1       1.878  -0.681   0.087  1.00  0.00     0.301 A 
HETATM    8  O2  UNL     1       1.438  -1.820  -0.289  1.00  0.00    -0.264 OA
ENDROOT
BRANCH   1   9
HETATM    9  C6  UNL     1      -0.479  -0.011   0.400  1.00  0.00    -0.054 C 
HETATM   10  C5  UNL     1      -1.664  -0.240   0.384  1.00  0.00    -0.059 C 
BRANCH  10  11
HETATM   11  C4  UNL     1      -3.077  -0.509   0.339  1.00  0.00     0.053 A 
HETATM   12  C3  UNL     1      -3.968   0.498   0.018  1.00  0.00     0.063 A 
HETATM   13  C2  UNL     1      -5.321   0.233  -0.026  1.00  0.00     0.108 A 
HETATM   14  C14 UNL     1      -5.837  -1.026   0.242  1.00  0.00     0.152 A 
HETATM   15  C13 UNL     1      -4.950  -2.024   0.560  1.00  0.00     0.082 A 
HETATM   16  F1  UNL     1      -7.190  -1.230   0.183  1.00  0.00    -0.203 F 
HETATM   17  C12 UNL     1      -3.586  -1.764   0.607  1.00  0.00     0.124 A 
BRANCH  13  18
HETATM   18  O1  UNL     1      -6.210   1.235  -0.346  1.00  0.00    -0.353 OA
HETATM   19  C1  UNL     1      -5.830   2.545  -0.637  1.00  0.00     0.210 C 
ENDBRANCH  13  18
BRANCH  17  20
HETATM   20  N7  UNL     1      -2.735  -2.852   0.943  1.00  0.00    -0.114 N 
HETATM   21  O3  UNL     1      -3.055  -4.042   0.701  1.00  0.00    -0.532 OA
HETATM   22  O4  UNL     1      -1.520  -2.680   1.548  1.00  0.00    -0.532 OA
ENDBRANCH  17  20
ENDBRANCH  10  11
ENDBRANCH   1   9
BRANCH   6  23
HETATM   23  N6  UNL     1       4.042  -1.508  -0.274  1.00  0.00    -0.321 N 
ATOM     24  H62 UNL     1       5.047  -1.335  -0.249  1.00  0.00     0.178 HD
ATOM     25  H61 UNL     1       3.723  -2.427  -0.579  1.00  0.00     0.178 HD
ENDBRANCH   6  23
BRANCH   5  26
HETATM   26  N2  UNL     1       4.859   1.064   0.583  1.00  0.00    -0.163 N 
ATOM     27  H2  UNL     1       5.023   2.018   0.905  1.00  0.00     0.187 HD
BRANCH  26  28
HETATM   28  C10 UNL     1       6.018   0.358   0.300  1.00  0.00     0.204 C 
HETATM   29  S1  UNL     1       6.750  -0.473   1.530  1.00  0.00    -0.039 SA
BRANCH  28  30
HETATM   30  N3  UNL     1       6.618   0.323  -0.981  1.00  0.00    -0.282 N 
ATOM     31  H3  UNL     1       7.472  -0.217  -1.120  1.00  0.00     0.189 HD
BRANCH  30  32
HETATM   32  N4  UNL     1       6.061   1.015  -2.056  1.00  0.00    -0.343 N 
ATOM     33  H42 UNL     1       5.207   1.550  -1.899  1.00  0.00     0.176 HD
ATOM     34  H41 UNL     1       6.494   0.990  -2.979  1.00  0.00     0.176 HD
ENDBRANCH  30  32
ENDBRANCH  28  30
ENDBRANCH  26  28
ENDBRANCH   5  26
TORSDOF 9
