REMARK  3 active torsions:
REMARK  status: ('A' for Active; 'I' for Inactive)
REMARK    1  A    between atoms: N1_5  and  C5_6 
REMARK    2  A    between atoms: C7_14  and  C8_15 
REMARK       I    between atoms: C8_15  and  N5_17 
REMARK    3  A    between atoms: N5_17  and  C9_19 
ROOT
HETATM    1  C1  UNL     1      -7.098  -0.669   2.033  1.00  0.00     0.012 C 
HETATM    2  C2  UNL     1      -6.198  -0.636   1.271  1.00  0.00    -0.109 C 
HETATM    3  C3  UNL     1      -5.077  -0.598   0.330  1.00  0.00     0.100 C 
HETATM    4  C4  UNL     1      -3.823  -1.247   0.848  1.00  0.00     0.143 C 
HETATM    5  N1  UNL     1      -3.072  -0.118   0.372  1.00  0.00    -0.363 N 
HETATM    6  C14 UNL     1      -4.271   0.672   0.407  1.00  0.00     0.143 C 
ENDROOT
BRANCH   5   7
HETATM    7  C5  UNL     1      -1.719   0.099   0.017  1.00  0.00     0.143 A 
HETATM    8  N2  UNL     1      -1.302   0.071  -1.258  1.00  0.00    -0.175 N 
HETATM    9  C6  UNL     1      -0.041   0.258  -1.634  1.00  0.00     0.686 A 
ATOM     10  H2  UNL     1      -1.996  -0.105  -1.984  1.00  0.00     0.186 HD
HETATM   11  N3  UNL     1       0.207   0.194  -2.888  1.00  0.00    -0.234 N 
HETATM   12  N4  UNL     1       0.918   0.496  -0.715  1.00  0.00    -0.122 N 
ATOM     13  H32 UNL     1      -0.518   0.014  -3.583  1.00  0.00     0.174 HD
ATOM     14  H31 UNL     1       1.175   0.338  -3.177  1.00  0.00     0.174 HD
HETATM   15  C7  UNL     1       2.237   0.712  -0.783  1.00  0.00     0.199 A 
HETATM   16  C12 UNL     1       0.533   0.532   0.602  1.00  0.00     0.122 A 
HETATM   17  N10 UNL     1       2.693   0.887   0.507  1.00  0.00    -0.326 N 
HETATM   18  C10 UNL     1       1.668   0.778   1.333  1.00  0.00     0.145 A 
ATOM     19  H10 UNL     1       3.659   1.070   0.778  1.00  0.00     0.168 HD
HETATM   20  C11 UNL     1       1.713   0.894   2.789  1.00  0.00     0.120 C 
HETATM   21  N11 UNL     1       1.748   0.966   3.957  1.00  0.00    -0.190 NA
HETATM   22  C13 UNL     1      -0.764   0.340   0.993  1.00  0.00     0.109 A 
HETATM   23 CL1  UNL     1      -1.189   0.399   2.697  1.00  0.00    -0.078 Cl
BRANCH  15  24
HETATM   24  C8  UNL     1       3.104   0.783  -1.951  1.00  0.00     0.305 C 
HETATM   25  O1  UNL     1       2.701   0.668  -3.108  1.00  0.00    -0.263 OA
HETATM   26  N5  UNL     1       4.528   0.997  -1.721  1.00  0.00    -0.150 N 
ATOM     27  H5  UNL     1       4.973   1.855  -2.048  1.00  0.00     0.188 HD
BRANCH  26  28
HETATM   28  C9  UNL     1       5.211   0.125  -1.119  1.00  0.00     0.716 A 
HETATM   29  N6  UNL     1       4.849  -1.074  -0.606  1.00  0.00    -0.115 N 
HETATM   30  N7  UNL     1       5.915  -1.614  -0.067  1.00  0.00    -0.213 N 
ATOM     31  H6  UNL     1       3.915  -1.484  -0.634  1.00  0.00     0.207 HD
HETATM   32  N8  UNL     1       6.968  -0.820  -0.203  1.00  0.00    -0.213 N 
ATOM     33  H7  UNL     1       5.932  -2.523   0.395  1.00  0.00     0.210 HD
HETATM   34  N9  UNL     1       6.545   0.236  -0.841  1.00  0.00    -0.115 N 
ATOM     35  H8  UNL     1       7.917  -0.999   0.125  1.00  0.00     0.210 HD
ATOM     36  H9  UNL     1       7.128   1.033  -1.097  1.00  0.00     0.207 HD
ENDBRANCH  26  28
ENDBRANCH  15  24
ENDBRANCH   5   7
TORSDOF 3
