REMARK  7 active torsions:
REMARK  status: ('A' for Active; 'I' for Inactive)
REMARK    1  A    between atoms: N1_2  and  C2_4 
REMARK    2  A    between atoms: C5_7  and  C6_8 
REMARK    3  A    between atoms: N2_9  and  O1_11 
REMARK    4  A    between atoms: O1_11  and  C7_12 
REMARK    5  A    between atoms: C8_13  and  O2_14 
REMARK    6  A    between atoms: C11_17  and  O3_18 
REMARK    7  A    between atoms: C12_20  and  O4_21 
ROOT
HETATM    1  C6  UNL     1       1.026  -2.518  -0.100  1.00  0.00     0.125 C 
HETATM    2  N2  UNL     1      -0.063  -2.285  -0.600  1.00  0.00    -0.277 N 
ATOM      3  H2  UNL     1      -0.528  -3.145  -0.892  1.00  0.00     0.193 HD
ENDROOT
BRANCH   2   4
HETATM    4  O1  UNL     1      -0.800  -1.232  -0.865  1.00  0.00    -0.270 OA
BRANCH   4   5
HETATM    5  C7  UNL     1      -2.021  -0.939  -0.257  1.00  0.00     0.212 C 
HETATM    6  C8  UNL     1      -2.261   0.537  -0.118  1.00  0.00     0.157 C 
HETATM    7  C10 UNL     1      -3.757   0.532   0.185  1.00  0.00     0.069 C 
HETATM    8  C11 UNL     1      -4.326  -0.646  -0.576  1.00  0.00     0.152 C 
HETATM    9  C12 UNL     1      -3.148  -1.252  -1.281  1.00  0.00     0.180 C 
BRANCH   6  10
HETATM   10  O2  UNL     1      -2.007   1.135  -1.341  1.00  0.00    -0.388 OA
HETATM   11  C9  UNL     1      -1.190   2.228  -1.324  1.00  0.00     0.202 C 
ENDBRANCH   6  10
BRANCH   8  12
HETATM   12  O3  UNL     1      -5.283  -0.246  -1.484  1.00  0.00    -0.393 OA
ATOM     13  H3  UNL     1      -5.640  -0.985  -1.962  1.00  0.00     0.210 HD
ENDBRANCH   8  12
BRANCH   9  14
HETATM   14  O4  UNL     1      -3.251  -2.610  -1.486  1.00  0.00    -0.390 OA
ATOM     15  H4  UNL     1      -3.940  -2.801  -2.112  1.00  0.00     0.210 HD
ENDBRANCH   9  14
ENDBRANCH   4   5
ENDBRANCH   2   4
BRANCH   1  16
HETATM   16  C5  UNL     1       1.966  -1.534   0.427  1.00  0.00    -0.019 A 
HETATM   17  C4  UNL     1       1.754  -0.182   0.409  1.00  0.00     0.015 A 
HETATM   18  C3  UNL     1       2.659   0.698   0.915  1.00  0.00     0.030 A 
HETATM   19  C2  UNL     1       3.846   0.297   1.480  1.00  0.00     0.027 A 
HETATM   20  C14 UNL     1       4.075  -1.074   1.506  1.00  0.00     0.030 A 
HETATM   21  C13 UNL     1       3.173  -1.967   1.000  1.00  0.00     0.015 A 
BRANCH  19  22
HETATM   22  N1  UNL     1       4.797   1.211   2.008  1.00  0.00    -0.394 N 
HETATM   23  C1  UNL     1       4.515   2.625   1.941  1.00  0.00     0.146 C 
ATOM     24  H1  UNL     1       5.664   0.874   2.427  1.00  0.00     0.159 HD
ENDBRANCH  19  22
ENDBRANCH   1  16
TORSDOF 7
