REMARK  9 active torsions:
REMARK  status: ('A' for Active; 'I' for Inactive)
REMARK    1  A    between atoms: C2_2  and  O1_4 
REMARK    2  A    between atoms: C2_2  and  C4_6 
REMARK    3  A    between atoms: C4_6  and  C5_7 
REMARK    4  A    between atoms: C5_7  and  C6_8 
REMARK    5  A    between atoms: C6_8  and  O2_11 
REMARK    6  A    between atoms: O2_11  and  C9_12 
REMARK    7  A    between atoms: C11_14  and  N1_16 
REMARK    8  A    between atoms: C13_20  and  C14_21 
REMARK    9  A    between atoms: C14_21  and  O3_22 
ROOT
HETATM    1  C9  UNL     1       1.551   0.219  -0.020  1.00  0.00     0.264 C 
HETATM    2  C10 UNL     1       2.517   1.006  -0.876  1.00  0.00     0.102 C 
HETATM    3  C11 UNL     1       3.801   0.234  -0.541  1.00  0.00     0.152 C 
HETATM    4  C12 UNL     1       4.002  -0.919  -1.487  1.00  0.00     0.049 C 
HETATM    5  C13 UNL     1       3.506  -0.217   0.854  1.00  0.00     0.183 C 
HETATM    6  O4  UNL     1       2.243   0.265   1.195  1.00  0.00    -0.351 OA
ENDROOT
BRANCH   1   7
HETATM    7  O2  UNL     1       0.332   0.782   0.130  1.00  0.00    -0.351 OA
BRANCH   7   8
HETATM    8  C6  UNL     1      -0.750  -0.040  -0.073  1.00  0.00     0.057 C 
HETATM    9  C7  UNL     1      -0.722  -0.472  -1.541  1.00  0.00     0.045 C 
HETATM   10  C8  UNL     1      -0.811  -1.243   0.789  1.00  0.00     0.045 C 
BRANCH   8  11
HETATM   11  C5  UNL     1      -2.048   0.720   0.128  1.00  0.00     0.040 C 
BRANCH  11  12
HETATM   12  C4  UNL     1      -3.160  -0.280  -0.220  1.00  0.00     0.040 C 
BRANCH  12  13
HETATM   13  C2  UNL     1      -4.521   0.355  -0.060  1.00  0.00     0.051 C 
HETATM   14  C1  UNL     1      -4.750   0.820   1.346  1.00  0.00     0.045 C 
HETATM   15  C3  UNL     1      -5.545  -0.707  -0.402  1.00  0.00     0.045 C 
BRANCH  13  16
HETATM   16  O1  UNL     1      -4.719   1.402  -0.974  1.00  0.00    -0.391 OA
ATOM     17  H1  UNL     1      -4.574   1.107  -1.865  1.00  0.00     0.210 HD
ENDBRANCH  13  16
ENDBRANCH  12  13
ENDBRANCH  11  12
ENDBRANCH   8  11
ENDBRANCH   7   8
ENDBRANCH   1   7
BRANCH   3  18
HETATM   18  N1  UNL     1       4.892   1.138  -0.660  1.00  0.00    -0.068 N 
ATOM     19  H13 UNL     1       4.931   1.595  -1.571  1.00  0.00     0.275 HD
ATOM     20  H12 UNL     1       4.775   1.978  -0.093  1.00  0.00     0.275 HD
ATOM     21  H11 UNL     1       5.745   0.625  -0.437  1.00  0.00     0.275 HD
ENDBRANCH   3  18
BRANCH   5  22
HETATM   22  C14 UNL     1       4.570   0.277   1.810  1.00  0.00     0.198 C 
BRANCH  22  23
HETATM   23  O3  UNL     1       4.311  -0.127   3.100  1.00  0.00    -0.398 OA
ATOM     24  H3  UNL     1       4.979   0.183   3.700  1.00  0.00     0.209 HD
ENDBRANCH  22  23
ENDBRANCH   5  22
TORSDOF 9
