REMARK  9 active torsions:
REMARK  status: ('A' for Active; 'I' for Inactive)
REMARK    1  A    between atoms: O1_2  and  C2_3 
REMARK    2  A    between atoms: C2_3  and  C3_4 
REMARK    3  A    between atoms: C3_4  and  C4_5 
REMARK    4  A    between atoms: C4_5  and  C5_6 
REMARK    5  A    between atoms: C5_6  and  O2_7 
REMARK    6  A    between atoms: C6_9  and  O3_10 
REMARK    7  A    between atoms: O3_10  and  C7_11 
REMARK    8  A    between atoms: C13_17  and  O4_18 
REMARK    9  A    between atoms: C14_20  and  O5_21 
ROOT
HETATM    1  C3  UNL     1      -1.110  -0.181  -0.395  1.00  0.00     0.038 C 
HETATM    2  C6  UNL     1       0.215   0.516  -0.520  1.00  0.00     0.137 C 
HETATM    3  C12 UNL     1      -0.107   1.936  -0.932  1.00  0.00     0.067 C 
HETATM    4  C13 UNL     1      -1.262   1.762  -1.858  1.00  0.00     0.150 C 
HETATM    5  C14 UNL     1      -1.774   0.350  -1.685  1.00  0.00     0.160 C 
ENDROOT
BRANCH   1   6
HETATM    6  C2  UNL     1      -1.925   0.175   0.767  1.00  0.00     0.181 C 
BRANCH   6   7
HETATM    7  O1  UNL     1      -2.177   1.532   0.935  1.00  0.00    -0.395 OA
HETATM    8  C1  UNL     1      -2.958   1.764   2.065  1.00  0.00     0.201 C 
ENDBRANCH   6   7
ENDBRANCH   1   6
BRANCH   1   9
HETATM    9  C4  UNL     1      -0.878  -1.641  -0.466  1.00  0.00     0.043 C 
BRANCH   9  10
HETATM   10  C5  UNL     1      -2.030  -2.558  -0.585  1.00  0.00     0.165 C 
BRANCH  10  11
HETATM   11  O2  UNL     1      -2.946  -2.568   0.441  1.00  0.00    -0.401 OA
ATOM     12  H2  UNL     1      -3.687  -3.158   0.364  1.00  0.00     0.209 HD
ENDBRANCH  10  11
ENDBRANCH   9  10
ENDBRANCH   1   9
BRANCH   2  13
HETATM   13  O3  UNL     1       1.057   0.426   0.540  1.00  0.00    -0.380 OA
BRANCH  13  14
HETATM   14  C7  UNL     1       2.248  -0.170   0.175  1.00  0.00     0.122 C 
HETATM   15  C8  UNL     1       3.392   0.829   0.396  1.00  0.00     0.032 C 
HETATM   16  C9  UNL     1       4.617  -0.010   0.678  1.00  0.00     0.002 C 
HETATM   17  C10 UNL     1       4.165  -1.451   0.610  1.00  0.00     0.002 C 
HETATM   18  C11 UNL     1       2.694  -1.308   1.024  1.00  0.00     0.032 C 
ENDBRANCH  13  14
ENDBRANCH   2  13
BRANCH   5  19
HETATM   19  O5  UNL     1      -3.152   0.348  -1.546  1.00  0.00    -0.392 OA
ATOM     20  H5  UNL     1      -3.560   0.675  -2.339  1.00  0.00     0.210 HD
ENDBRANCH   5  19
BRANCH   4  21
HETATM   21  O4  UNL     1      -2.264   2.717  -1.696  1.00  0.00    -0.393 OA
ATOM     22  H4  UNL     1      -3.000   2.606  -2.286  1.00  0.00     0.210 HD
ENDBRANCH   4  21
TORSDOF 9
