REMARK  10 active torsions:
REMARK  status: ('A' for Active; 'I' for Inactive)
REMARK    1  A    between atoms: C3_3  and  C4_4 
REMARK    2  A    between atoms: C3_3  and  C6_12 
REMARK    3  A    between atoms: C4_4  and  N1_5 
REMARK    4  A    between atoms: C4_4  and  C5_9 
REMARK    5  A    between atoms: C6_12  and  O3_13 
REMARK    6  A    between atoms: C6_12  and  C7_15 
REMARK    7  A    between atoms: C7_15  and  O4_16 
REMARK    8  A    between atoms: C7_15  and  C8_18 
REMARK    9  A    between atoms: C12_24  and  C13_25 
REMARK   10  A    between atoms: C13_25  and  N3_27 
REMARK       I    between atoms: N3_27  and  C15_29 
ROOT
HETATM    1  C1  UNL     1       3.458   1.595  -0.949  1.00  0.00     0.012 C 
HETATM    2  C2  UNL     1       3.066   0.892  -0.054  1.00  0.00    -0.107 C 
HETATM    3  C3  UNL     1       2.641   0.047   1.012  1.00  0.00     0.136 C 
ENDROOT
BRANCH   3   4
HETATM    4  C4  UNL     1       3.945  -0.596   1.574  1.00  0.00     0.301 C 
BRANCH   4   5
HETATM    5  N1  UNL     1       4.530  -1.327   0.466  1.00  0.00    -0.064 N 
ATOM      6  H13 UNL     1       3.894  -2.000   0.038  1.00  0.00     0.275 HD
ATOM      7  H12 UNL     1       4.681  -0.757  -0.366  1.00  0.00     0.275 HD
ATOM      8  H11 UNL     1       5.383  -1.748   0.834  1.00  0.00     0.275 HD
ENDBRANCH   4   5
BRANCH   4   9
HETATM    9  C5  UNL     1       4.871   0.468   2.010  1.00  0.00     0.205 C 
HETATM   10  O1  UNL     1       5.974   0.640   1.448  1.00  0.00    -0.646 OA
HETATM   11  O2  UNL     1       4.533   1.301   3.056  1.00  0.00    -0.646 OA
ENDBRANCH   4   9
ENDBRANCH   3   4
BRANCH   3  12
HETATM   12  C6  UNL     1       1.705  -1.032   0.826  1.00  0.00     0.165 C 
BRANCH  12  13
HETATM   13  O3  UNL     1       1.700  -1.666   2.195  1.00  0.00    -0.392 OA
ATOM     14  H3  UNL     1       1.083  -2.378   2.072  1.00  0.00     0.210 HD
ENDBRANCH  12  13
BRANCH  12  15
HETATM   15  C7  UNL     1       0.279  -0.966   0.488  1.00  0.00     0.154 C 
BRANCH  15  16
HETATM   16  O4  UNL     1      -0.318  -0.196   1.600  1.00  0.00    -0.393 OA
ATOM     17  H4  UNL     1      -1.241  -0.153   1.381  1.00  0.00     0.210 HD
ENDBRANCH  15  16
BRANCH  15  18
HETATM   18  C8  UNL     1      -0.318  -0.363  -0.684  1.00  0.00     0.041 C 
HETATM   19  C9  UNL     1      -0.319   1.070  -0.973  1.00  0.00     0.011 C 
HETATM   20  C10 UNL     1      -0.179   1.203  -2.504  1.00  0.00     0.020 C 
HETATM   21  C11 UNL     1      -0.896   0.128  -3.218  1.00  0.00     0.114 C 
HETATM   22  N2  UNL     1      -1.891  -0.587  -2.519  1.00  0.00    -0.415 N 
HETATM   23  C12 UNL     1      -1.576  -1.020  -1.189  1.00  0.00     0.105 C 
ATOM     24  H2  UNL     1      -2.797  -0.788  -2.942  1.00  0.00     0.153 HD
BRANCH  23  25
HETATM   25  C13 UNL     1      -2.771  -1.040  -0.320  1.00  0.00     0.103 C 
HETATM   26  C14 UNL     1      -3.877  -1.839  -1.096  1.00  0.00     0.034 C 
BRANCH  25  27
HETATM   27  N3  UNL     1      -3.371   0.241  -0.000  1.00  0.00    -0.355 N 
HETATM   28  C15 UNL     1      -3.786   0.653   1.287  1.00  0.00     0.213 C 
HETATM   29  C16 UNL     1      -4.393   1.967   1.592  1.00  0.00     0.117 C 
HETATM   30  O5  UNL     1      -3.632  -0.147   2.240  1.00  0.00    -0.274 OA
ATOM     31  H3  UNL     1      -3.505   0.899  -0.767  1.00  0.00     0.162 HD
ENDBRANCH  25  27
ENDBRANCH  23  25
ENDBRANCH  15  18
ENDBRANCH  12  15
ENDBRANCH   3  12
TORSDOF 10
