REMARK  12 active torsions:
REMARK  status: ('A' for Active; 'I' for Inactive)
REMARK    1  A    between atoms: C2_2  and  O1_3 
REMARK    2  A    between atoms: C3_5  and  C4_6 
REMARK       I    between atoms: C4_6  and  N1_8 
REMARK    3  A    between atoms: N1_8  and  C5_10 
REMARK    4  A    between atoms: C5_10  and  C6_11 
REMARK    5  A    between atoms: C6_11  and  C7_12 
REMARK    6  A    between atoms: C7_12  and  C8_13 
REMARK    7  A    between atoms: C8_13  and  N2_14 
REMARK    8  A    between atoms: C12_18  and  O3_19 
REMARK    9  A    between atoms: C13_21  and  O4_22 
REMARK   10  A    between atoms: C14_24  and  C15_25 
REMARK   11  A    between atoms: C15_25  and  O5_26 
REMARK   12  A    between atoms: C15_25  and  O6_28 
ROOT
HETATM    1  C1  UNL     1      -1.353  -0.794  -0.962  1.00  0.00     0.047 C 
HETATM    2  C2  UNL     1      -1.883   0.491  -0.406  1.00  0.00     0.079 C 
HETATM    3  C3  UNL     1      -2.267   0.243   1.038  1.00  0.00     0.143 C 
HETATM    4  C12 UNL     1      -3.460  -0.678   0.841  1.00  0.00     0.163 C 
HETATM    5  C13 UNL     1      -4.150  -0.162  -0.419  1.00  0.00     0.159 C 
HETATM    6  C14 UNL     1      -3.234   0.872  -0.947  1.00  0.00     0.106 C 
ENDROOT
BRANCH   3   7
HETATM    7  C4  UNL     1      -1.218  -0.319   1.873  1.00  0.00     0.227 C 
HETATM    8  O2  UNL     1      -1.366  -1.459   2.364  1.00  0.00    -0.273 OA
HETATM    9  N1  UNL     1      -0.040   0.402   2.137  1.00  0.00    -0.361 N 
ATOM     10  H1  UNL     1       0.044   1.328   1.717  1.00  0.00     0.162 HD
BRANCH   9  11
HETATM   11  C5  UNL     1       1.062  -0.056   2.952  1.00  0.00     0.122 C 
BRANCH  11  12
HETATM   12  C6  UNL     1       1.696  -1.291   2.401  1.00  0.00     0.021 C 
BRANCH  12  13
HETATM   13  C7  UNL     1       2.266  -1.088   1.012  1.00  0.00     0.029 C 
BRANCH  13  14
HETATM   14  C8  UNL     1       3.336  -0.013   1.007  1.00  0.00     0.236 C 
BRANCH  14  15
HETATM   15  N2  UNL     1       3.850   0.142  -0.337  1.00  0.00    -0.079 N 
HETATM   16  C9  UNL     1       3.630  -1.035  -1.154  1.00  0.00     0.271 C 
HETATM   17  C10 UNL     1       3.170   1.252  -0.991  1.00  0.00     0.271 C 
HETATM   18  C11 UNL     1       5.249   0.466  -0.268  1.00  0.00     0.271 C 
ENDBRANCH  14  15
ENDBRANCH  13  14
ENDBRANCH  12  13
ENDBRANCH  11  12
ENDBRANCH   9  11
ENDBRANCH   3   7
BRANCH   2  19
HETATM   19  O1  UNL     1      -1.004   1.535  -0.558  1.00  0.00    -0.389 OA
ATOM     20  H1  UNL     1      -1.340   2.350  -0.205  1.00  0.00     0.210 HD
ENDBRANCH   2  19
BRANCH   4  21
HETATM   21  O3  UNL     1      -4.267  -0.553   1.971  1.00  0.00    -0.392 OA
ATOM     22  H3  UNL     1      -5.013  -1.129   1.848  1.00  0.00     0.210 HD
ENDBRANCH   4  21
BRANCH   6  23
HETATM   23  C15 UNL     1      -3.271   1.078  -2.421  1.00  0.00     0.263 C 
BRANCH  23  24
HETATM   24  O5  UNL     1      -2.920  -0.007  -3.175  1.00  0.00    -0.371 OA
ATOM     25  H5  UNL     1      -2.944   0.124  -4.116  1.00  0.00     0.212 HD
ENDBRANCH  23  24
BRANCH  23  26
HETATM   26  O6  UNL     1      -4.584   1.428  -2.764  1.00  0.00    -0.371 OA
ATOM     27  H6  UNL     1      -4.608   1.559  -3.705  1.00  0.00     0.212 HD
ENDBRANCH  23  26
ENDBRANCH   6  23
BRANCH   5  28
HETATM   28  O4  UNL     1      -4.502  -1.164  -1.292  1.00  0.00    -0.392 OA
ATOM     29  H4  UNL     1      -4.931  -0.843  -2.076  1.00  0.00     0.210 HD
ENDBRANCH   5  28
TORSDOF 12
