REMARK  12 active torsions:
REMARK  status: ('A' for Active; 'I' for Inactive)
REMARK    1  A    between atoms: C6_7  and  C7_8 
REMARK    2  A    between atoms: C7_8  and  C8_9 
REMARK    3  A    between atoms: C8_9  and  C9_10 
REMARK    4  A    between atoms: C9_10  and  C10_11 
REMARK    5  A    between atoms: C10_11  and  O1_12 
REMARK    6  A    between atoms: C10_11  and  N2_14 
REMARK    7  A    between atoms: N2_14  and  C11_16 
REMARK    8  A    between atoms: C12_17  and  O2_18 
REMARK    9  A    between atoms: C13_21  and  C14_22 
REMARK   10  A    between atoms: C14_22  and  O4_23 
REMARK   11  A    between atoms: C15_25  and  O5_26 
REMARK   12  A    between atoms: C16_28  and  O6_29 
ROOT
HETATM    1  C11 UNL     1      -2.097  -0.086   0.259  1.00  0.00     0.165 C 
HETATM    2  C12 UNL     1      -2.563  -1.423  -0.255  1.00  0.00     0.282 C 
HETATM    3  O3  UNL     1      -3.297  -1.251  -1.395  1.00  0.00    -0.349 OA
HETATM    4  C13 UNL     1      -4.497  -0.591  -1.213  1.00  0.00     0.179 C 
HETATM    5  C15 UNL     1      -4.278   0.787  -0.615  1.00  0.00     0.180 C 
HETATM    6  C16 UNL     1      -3.299   0.792   0.492  1.00  0.00     0.176 C 
ENDROOT
BRANCH   1   7
HETATM    7  N2  UNL     1      -1.346  -0.203   1.479  1.00  0.00    -0.386 N 
ATOM      8  H2  UNL     1      -1.609  -0.874   2.201  1.00  0.00     0.156 HD
BRANCH   7   9
HETATM    9  C10 UNL     1      -0.242   0.637   1.638  1.00  0.00     0.213 C 
BRANCH   9  10
HETATM   10  C9  UNL     1       0.931   0.497   0.733  1.00  0.00     0.053 C 
BRANCH  10  11
HETATM   11  C8  UNL     1       1.701  -0.773   0.944  1.00  0.00     0.010 C 
BRANCH  11  12
HETATM   12  C7  UNL     1       2.890  -0.910   0.063  1.00  0.00     0.057 C 
BRANCH  12  13
HETATM   13  C6  UNL     1       3.984   0.053   0.281  1.00  0.00     0.010 A 
HETATM   14  N1  UNL     1       4.983   0.015  -0.629  1.00  0.00    -0.364 N 
HETATM   15  C1  UNL     1       4.997  -0.910  -1.758  1.00  0.00     0.155 C 
HETATM   16  C2  UNL     1       6.065   0.833  -0.549  1.00  0.00     0.090 A 
HETATM   17  C3  UNL     1       6.172   1.738   0.480  1.00  0.00     0.017 A 
HETATM   18  C4  UNL     1       5.153   1.775   1.409  1.00  0.00     0.003 A 
HETATM   19  C5  UNL     1       4.064   0.938   1.312  1.00  0.00     0.025 A 
ENDBRANCH  12  13
ENDBRANCH  11  12
ENDBRANCH  10  11
ENDBRANCH   9  10
BRANCH   9  20
HETATM   20  O1  UNL     1       0.178   0.621   2.994  1.00  0.00    -0.377 OA
ATOM     21  H1  UNL     1      -0.571   0.710   3.572  1.00  0.00     0.212 HD
ENDBRANCH   9  20
ENDBRANCH   7   9
ENDBRANCH   1   7
BRANCH   2  22
HETATM   22  O2  UNL     1      -1.493  -2.281  -0.514  1.00  0.00    -0.369 OA
ATOM     23  H2  UNL     1      -1.787  -3.124  -0.838  1.00  0.00     0.212 HD
ENDBRANCH   2  22
BRANCH   6  24
HETATM   24  O6  UNL     1      -2.893   2.132   0.711  1.00  0.00    -0.391 OA
ATOM     25  H6  UNL     1      -3.651   2.686   0.858  1.00  0.00     0.210 HD
ENDBRANCH   6  24
BRANCH   5  26
HETATM   26  O5  UNL     1      -3.997   1.704  -1.612  1.00  0.00    -0.390 OA
ATOM     27  H5  UNL     1      -3.860   2.566  -1.238  1.00  0.00     0.210 HD
ENDBRANCH   5  26
BRANCH   4  28
HETATM   28  C14 UNL     1      -5.501  -1.359  -0.380  1.00  0.00     0.198 C 
BRANCH  28  29
HETATM   29  O4  UNL     1      -6.654  -0.542  -0.303  1.00  0.00    -0.398 OA
ATOM     30  H4  UNL     1      -7.284  -1.024   0.220  1.00  0.00     0.209 HD
ENDBRANCH  28  29
ENDBRANCH   4  28
TORSDOF 12
