REMARK  3 active torsions:
REMARK  status: ('A' for Active; 'I' for Inactive)
REMARK    1  A    between atoms: N1_1  and  C1_4 
REMARK    2  A    between atoms: C2_5  and  C3_6 
REMARK    3  A    between atoms: N5_13  and  S1_14 
ROOT
HETATM    1  C1  UNL     1      -0.226   0.147  -0.095  1.00  0.00     0.170 A 
HETATM    2  C2  UNL     1      -1.127  -0.685  -0.722  1.00  0.00     0.161 A 
HETATM    3  N3  UNL     1      -0.502  -1.133  -1.825  1.00  0.00    -0.277 N 
ATOM      4  H3  UNL     1      -0.908  -1.774  -2.507  1.00  0.00     0.189 HD
HETATM    5  N4  UNL     1       0.719  -0.620  -1.897  1.00  0.00    -0.222 N 
ATOM      6  H4  UNL     1       1.403  -0.796  -2.633  1.00  0.00     0.210 HD
HETATM    7  N5  UNL     1       0.889   0.157  -0.849  1.00  0.00    -0.129 N 
ENDROOT
BRANCH   7   8
HETATM    8  S1  UNL     1       2.327   1.054  -0.495  1.00  0.00     0.233 S 
HETATM    9  O2  UNL     1       1.984   2.500  -0.407  1.00  0.00    -0.576 OA
HETATM   10  O3  UNL     1       3.336   0.855  -1.568  1.00  0.00    -0.576 OA
HETATM   11  O4  UNL     1       2.981   0.549   0.958  1.00  0.00    -0.576 OA
ENDBRANCH   7   8
BRANCH   1  12
HETATM   12  N1  UNL     1      -0.439   0.776   0.997  1.00  0.00    -0.381 N 
ATOM     13  H12 UNL     1      -1.284   0.768   1.568  1.00  0.00     0.157 HD
ATOM     14  H11 UNL     1       0.228   1.392   1.461  1.00  0.00     0.157 HD
ENDBRANCH   1  12
BRANCH   2  15
HETATM   15  C3  UNL     1      -2.486  -1.017  -0.282  1.00  0.00     0.286 C 
HETATM   16  N2  UNL     1      -3.006  -0.465   0.906  1.00  0.00    -0.056 NA
HETATM   17  O1  UNL     1      -3.216  -1.793  -0.942  1.00  0.00    -0.269 OA
ENDBRANCH   2  15
TORSDOF 3
