REMARK  4 active torsions:
REMARK  status: ('A' for Active; 'I' for Inactive)
REMARK    1  A    between atoms: N1_1  and  N2_4 
REMARK    2  A    between atoms: N2_4  and  C1_5 
REMARK    3  A    between atoms: C1_5  and  C2_6 
REMARK    4  A    between atoms: C1_5  and  C3_9 
REMARK       I    between atoms: N4_11  and  C5_12 
ROOT
HETATM    1  C3  UNL     1      -0.092   0.103   0.452  1.00  0.00     0.074 A 
HETATM    2  C4  UNL     1       0.897  -0.192  -0.462  1.00  0.00     0.151 A 
HETATM    3  N4  UNL     1       2.075   0.236  -0.010  1.00  0.00    -0.203 N 
HETATM    4  C5  UNL     1       3.308   0.102  -0.687  1.00  0.00     0.354 C 
HETATM    5  N5  UNL     1       4.469   0.617  -0.058  1.00  0.00    -0.038 NA
HETATM    6  O2  UNL     1       3.358  -0.465  -1.824  1.00  0.00    -0.249 OA
HETATM    7  N6  UNL     1       1.833   0.787   1.160  1.00  0.00    -0.233 N 
ATOM      8  H6  UNL     1       2.545   1.209   1.755  1.00  0.00     0.209 HD
HETATM    9  N7  UNL     1       0.545   0.723   1.466  1.00  0.00    -0.286 N 
ATOM     10  H7  UNL     1       0.112   1.080   2.318  1.00  0.00     0.188 HD
ENDROOT
BRANCH   1  11
HETATM   11  C1  UNL     1      -1.561  -0.205   0.336  1.00  0.00     0.240 C 
BRANCH  11  12
HETATM   12  N2  UNL     1      -1.651  -1.568  -0.132  1.00  0.00    -0.128 NA
BRANCH  12  13
HETATM   13  N1  UNL     1      -2.939  -2.004  -0.351  1.00  0.00    -0.347 N 
ATOM     14  H12 UNL     1      -3.748  -1.404  -0.192  1.00  0.00     0.172 HD
ATOM     15  H11 UNL     1      -3.003  -2.967  -0.682  1.00  0.00     0.172 HD
ENDBRANCH  12  13
ENDBRANCH  11  12
BRANCH  11  16
HETATM   16  C2  UNL     1      -2.155   0.729  -0.647  1.00  0.00     0.258 C 
HETATM   17  N3  UNL     1      -2.210   2.132  -0.457  1.00  0.00    -0.060 NA
HETATM   18  O1  UNL     1      -2.637   0.259  -1.703  1.00  0.00    -0.275 OA
ENDBRANCH  11  16
ENDBRANCH   1  11
TORSDOF 4
