REMARK  10 active torsions:
REMARK  status: ('A' for Active; 'I' for Inactive)
REMARK    1  A    between atoms: O1_2  and  C2_3 
REMARK    2  A    between atoms: C5_6  and  O2_7 
REMARK    3  A    between atoms: O2_7  and  C6_8 
REMARK    4  A    between atoms: C8_11  and  O3_12 
REMARK    5  A    between atoms: O3_12  and  C9_13 
REMARK    6  A    between atoms: C9_13  and  C10_14 
REMARK    7  A    between atoms: C12_16  and  C13_17 
REMARK    8  A    between atoms: C17_21  and  N1_22 
REMARK    9  A    between atoms: N1_22  and  C18_24 
REMARK   10  A    between atoms: C19_27  and  N3_28 
ROOT
HETATM    1  C13 UNL     1      -0.762   0.661   1.424  1.00  0.00    -0.024 A 
HETATM    2  C14 UNL     1      -0.567  -0.562   2.020  1.00  0.00     0.012 A 
HETATM    3  C15 UNL     1      -1.615  -1.380   2.361  1.00  0.00     0.003 A 
HETATM    4  C16 UNL     1      -2.920  -1.008   2.118  1.00  0.00     0.029 A 
HETATM    5  C17 UNL     1      -3.154   0.207   1.524  1.00  0.00     0.034 A 
HETATM    6  C26 UNL     1      -2.083   1.003   1.195  1.00  0.00     0.041 A 
ENDROOT
BRANCH   1   7
HETATM    7  C12 UNL     1       0.335   1.547   1.053  1.00  0.00    -0.025 A 
HETATM    8  C11 UNL     1       1.540   1.035   0.668  1.00  0.00     0.024 A 
HETATM    9  C10 UNL     1       2.617   1.833   0.306  1.00  0.00     0.005 A 
HETATM   10  C29 UNL     1       2.489   3.205   0.329  1.00  0.00     0.124 A 
HETATM   11  C28 UNL     1       1.272   3.737   0.718  1.00  0.00     0.044 A 
HETATM   12  F1  UNL     1       3.520   4.040  -0.018  1.00  0.00    -0.205 F 
HETATM   13  C27 UNL     1       0.199   2.918   1.079  1.00  0.00     0.015 A 
BRANCH   9  14
HETATM   14  C9  UNL     1       3.912   1.238  -0.107  1.00  0.00     0.217 C 
BRANCH  14  15
HETATM   15  O3  UNL     1       3.887  -0.162  -0.082  1.00  0.00    -0.344 OA
BRANCH  15  16
HETATM   16  C8  UNL     1       5.045  -0.851  -0.451  1.00  0.00     0.105 A 
HETATM   17  C2  UNL     1       4.966  -2.238  -0.407  1.00  0.00     0.101 A 
HETATM   18  C3  UNL     1       6.111  -2.906  -0.773  1.00  0.00     0.042 A 
HETATM   19  C4  UNL     1       7.246  -2.249  -1.151  1.00  0.00     0.040 A 
HETATM   20  C5  UNL     1       7.303  -0.847  -1.187  1.00  0.00     0.073 A 
HETATM   21  C7  UNL     1       6.176  -0.172  -0.828  1.00  0.00     0.076 A 
BRANCH  17  22
HETATM   22  O1  UNL     1       3.800  -2.857  -0.020  1.00  0.00    -0.353 OA
HETATM   23  C1  UNL     1       3.626  -4.245   0.055  1.00  0.00     0.210 C 
ENDBRANCH  17  22
BRANCH  20  24
HETATM   24  O2  UNL     1       8.482  -0.229  -1.581  1.00  0.00    -0.337 OA
BRANCH  24  25
HETATM   25  C6  UNL     1       8.607   1.156  -1.619  1.00  0.00     0.290 C 
HETATM   26 CL1  UNL     1       8.397   1.810   0.018  1.00  0.00    -0.102 Cl
ENDBRANCH  24  25
ENDBRANCH  20  24
ENDBRANCH  15  16
ENDBRANCH  14  15
ENDBRANCH   9  14
ENDBRANCH   1   7
BRANCH   5  27
HETATM   27  N1  UNL     1      -4.496   0.599   1.270  1.00  0.00    -0.341 N 
ATOM     28  H1  UNL     1      -4.867   1.349   1.853  1.00  0.00     0.167 HD
BRANCH  27  29
HETATM   29  C18 UNL     1      -5.274   0.126   0.410  1.00  0.00     0.134 A 
HETATM   30  N2  UNL     1      -4.906  -0.857  -0.411  1.00  0.00    -0.176 N 
HETATM   31  C19 UNL     1      -5.719  -1.386  -1.344  1.00  0.00     0.677 A 
ATOM     32  H2  UNL     1      -3.959  -1.228  -0.328  1.00  0.00     0.186 HD
HETATM   33  N4  UNL     1      -6.981  -0.939  -1.501  1.00  0.00    -0.191 N 
HETATM   34  C20 UNL     1      -7.399   0.053  -0.695  1.00  0.00     0.063 A 
ATOM     35  H4  UNL     1      -7.598  -1.340  -2.207  1.00  0.00     0.184 HD
HETATM   36  C21 UNL     1      -8.696   0.497  -0.872  1.00  0.00     0.032 A 
HETATM   37  C25 UNL     1      -6.555   0.609   0.280  1.00  0.00     0.037 A 
HETATM   38  C22 UNL     1      -9.178   1.510  -0.075  1.00  0.00     0.026 A 
HETATM   39  C23 UNL     1      -8.363   2.066   0.885  1.00  0.00     0.035 A 
HETATM   40 CL2  UNL     1      -8.955   3.349   1.904  1.00  0.00    -0.084 Cl
HETATM   41  C24 UNL     1      -7.062   1.618   1.061  1.00  0.00     0.041 A 
BRANCH  31  42
HETATM   42  N3  UNL     1      -5.344  -2.346  -2.138  1.00  0.00    -0.234 N 
ATOM     43  H32 UNL     1      -4.389  -2.684  -2.019  1.00  0.00     0.174 HD
ATOM     44  H31 UNL     1      -5.960  -2.747  -2.845  1.00  0.00     0.174 HD
ENDBRANCH  31  42
ENDBRANCH  27  29
ENDBRANCH   5  27
TORSDOF 10
