REMARK  12 active torsions:
REMARK  status: ('A' for Active; 'I' for Inactive)
REMARK    1  A    between atoms: C2_2  and  C4_4 
REMARK    2  A    between atoms: C4_4  and  N1_5 
REMARK    3  A    between atoms: C4_4  and  C5_9 
REMARK    4  A    between atoms: C5_9  and  O1_10 
REMARK    5  A    between atoms: O1_10  and  C6_11 
REMARK    6  A    between atoms: C10_17  and  N3_18 
REMARK    7  A    between atoms: N3_18  and  C11_20 
REMARK    8  A    between atoms: C14_23  and  O2_24 
REMARK    9  A    between atoms: O2_24  and  C15_25 
REMARK   10  A    between atoms: C23_35  and  N5_36 
REMARK   11  A    between atoms: N5_36  and  C24_38 
REMARK   12  A    between atoms: C27_41  and  C28_42 
ROOT
HETATM    1  C6  UNL     1      -2.719   1.283  -0.478  1.00  0.00     0.069 A 
HETATM    2  C7  UNL     1      -1.743   2.290  -0.469  1.00  0.00     0.039 A 
HETATM    3  C8  UNL     1      -0.441   1.903  -0.393  1.00  0.00     0.034 A 
HETATM    4  C9  UNL     1      -0.063   0.577  -0.323  1.00  0.00     0.063 A 
HETATM    5  N2  UNL     1       1.250   0.258  -0.238  1.00  0.00    -0.191 N 
ATOM      6  H2  UNL     1       1.950   0.999  -0.228  1.00  0.00     0.184 HD
HETATM    7  C10 UNL     1       1.635  -1.012  -0.168  1.00  0.00     0.684 A 
HETATM    8  N4  UNL     1       0.681  -2.007  -0.185  1.00  0.00    -0.175 N 
ATOM      9  H4  UNL     1       0.999  -2.975  -0.136  1.00  0.00     0.186 HD
HETATM   10  C23 UNL     1      -0.634  -1.784  -0.262  1.00  0.00     0.134 A 
HETATM   11  C31 UNL     1      -1.017  -0.431  -0.334  1.00  0.00     0.038 A 
HETATM   12  C32 UNL     1      -2.347  -0.053  -0.413  1.00  0.00     0.054 A 
ENDROOT
BRANCH   7  13
HETATM   13  N3  UNL     1       2.897  -1.338  -0.023  1.00  0.00    -0.192 N 
ATOM     14  H3  UNL     1       3.194  -2.312   0.030  1.00  0.00     0.184 HD
BRANCH  13  15
HETATM   15  C11 UNL     1       3.827  -0.273   0.056  1.00  0.00     0.049 A 
HETATM   16  C12 UNL     1       4.196   0.515  -1.014  1.00  0.00     0.033 A 
HETATM   17  C13 UNL     1       5.088   1.570  -0.857  1.00  0.00     0.039 A 
HETATM   18  C14 UNL     1       5.611   1.842   0.358  1.00  0.00     0.076 A 
HETATM   19  C21 UNL     1       5.277   1.095   1.456  1.00  0.00     0.039 A 
HETATM   20  C22 UNL     1       4.398   0.056   1.297  1.00  0.00     0.033 A 
BRANCH  18  21
HETATM   21  O2  UNL     1       6.527   2.896   0.549  1.00  0.00    -0.311 OA
BRANCH  21  22
HETATM   22  C15 UNL     1       7.829   2.574   0.221  1.00  0.00     0.076 A 
HETATM   23  C16 UNL     1       8.199   2.850  -1.112  1.00  0.00     0.037 A 
HETATM   24  C17 UNL     1       9.481   2.525  -1.461  1.00  0.00     0.003 A 
HETATM   25  C18 UNL     1      10.403   1.960  -0.621  1.00  0.00     0.000 A 
HETATM   26  C19 UNL     1      10.047   1.686   0.689  1.00  0.00     0.003 A 
HETATM   27  C20 UNL     1       8.735   2.014   1.062  1.00  0.00     0.037 A 
ENDBRANCH  21  22
ENDBRANCH  18  21
ENDBRANCH  13  15
ENDBRANCH   7  13
BRANCH  10  28
HETATM   28  N5  UNL     1      -1.483  -2.654  -0.245  1.00  0.00    -0.341 N 
ATOM     29  H5  UNL     1      -2.393  -2.200  -0.326  1.00  0.00     0.167 HD
BRANCH  28  30
HETATM   30  C24 UNL     1      -1.699  -4.000  -0.160  1.00  0.00     0.033 A 
HETATM   31  C25 UNL     1      -2.997  -4.451  -0.459  1.00  0.00     0.030 A 
HETATM   32  C26 UNL     1      -3.343  -5.779  -0.362  1.00  0.00     0.018 A 
HETATM   33  C27 UNL     1      -2.404  -6.692   0.026  1.00  0.00     0.048 A 
HETATM   34  C29 UNL     1      -1.135  -6.283   0.320  1.00  0.00     0.018 A 
HETATM   35  C30 UNL     1      -0.806  -4.973   0.225  1.00  0.00     0.030 A 
BRANCH  33  36
HETATM   36  C28 UNL     1      -2.735  -8.144   0.185  1.00  0.00     0.417 C 
HETATM   37  F1  UNL     1      -1.529  -8.862   0.236  1.00  0.00    -0.166 F 
HETATM   38  F2  UNL     1      -3.371  -8.405   1.390  1.00  0.00    -0.166 F 
HETATM   39  F3  UNL     1      -3.519  -8.631  -0.806  1.00  0.00    -0.166 F 
ENDBRANCH  33  36
ENDBRANCH  28  30
ENDBRANCH  10  28
BRANCH   1  40
HETATM   40  O1  UNL     1      -4.033   1.672  -0.550  1.00  0.00    -0.349 OA
BRANCH  40  41
HETATM   41  C5  UNL     1      -4.394   3.044  -0.705  1.00  0.00     0.208 C 
BRANCH  41  42
HETATM   42  C4  UNL     1      -5.914   3.135  -0.664  1.00  0.00     0.211 C 
BRANCH  42  43
HETATM   43  C2  UNL     1      -6.509   3.185   0.674  1.00  0.00     0.010 C 
HETATM   44  C1  UNL     1      -6.394   1.987   1.547  1.00  0.00     0.011 C 
HETATM   45  C3  UNL     1      -8.060   3.355   0.423  1.00  0.00     0.011 C 
ENDBRANCH  42  43
BRANCH  42  46
HETATM   46  N1  UNL     1      -6.487   2.154  -1.556  1.00  0.00    -0.073 N 
ATOM     47  H13 UNL     1      -6.460   1.230  -1.125  1.00  0.00     0.274 HD
ATOM     48  H12 UNL     1      -7.496   2.290  -1.625  1.00  0.00     0.274 HD
ATOM     49  H11 UNL     1      -6.073   2.119  -2.487  1.00  0.00     0.274 HD
ENDBRANCH  42  46
ENDBRANCH  41  42
ENDBRANCH  40  41
ENDBRANCH   1  40
TORSDOF 12
