REMARK  11 active torsions:
REMARK  status: ('A' for Active; 'I' for Inactive)
REMARK    1  A    between atoms: C2_2  and  O1_3 
REMARK    2  A    between atoms: O1_3  and  C3_4 
REMARK    3  A    between atoms: C6_7  and  C7_8 
REMARK    4  A    between atoms: C11_12  and  C12_13 
REMARK    5  A    between atoms: C13_14  and  C14_15 
REMARK    6  A    between atoms: C17_18  and  C18_19 
REMARK    7  A    between atoms: N1_20  and  N2_22 
REMARK    8  A    between atoms: N2_22  and  C19_24 
REMARK    9  A    between atoms: C19_24  and  N3_26 
REMARK   10  A    between atoms: N3_26  and  C20_28 
REMARK   11  A    between atoms: C23_31  and  C24_32 
ROOT
HETATM    1  C14 UNL     1       1.294  -0.095  -0.927  1.00  0.00     0.032 A 
HETATM    2  C15 UNL     1       2.437   0.138  -0.226  1.00  0.00     0.030 A 
HETATM    3  C16 UNL     1       3.706   0.180  -0.828  1.00  0.00     0.016 A 
HETATM    4  C17 UNL     1       3.822  -0.018  -2.182  1.00  0.00    -0.004 A 
HETATM    5  C27 UNL     1       2.640  -0.252  -2.861  1.00  0.00     0.101 A 
HETATM    6  N4  UNL     1       1.433  -0.290  -2.268  1.00  0.00    -0.365 N 
ATOM      7  H4  UNL     1       0.604  -0.469  -2.835  1.00  0.00     0.165 HD
ENDROOT
BRANCH   1   8
HETATM    8  C13 UNL     1      -0.041  -0.121  -0.351  1.00  0.00     0.032 C 
HETATM    9  C12 UNL     1      -0.288   0.068   0.917  1.00  0.00     0.034 C 
BRANCH   9  10
HETATM   10  C11 UNL     1      -1.586   0.056   1.546  1.00  0.00     0.060 A 
HETATM   11  C10 UNL     1      -2.864   0.042   1.015  1.00  0.00     0.020 A 
HETATM   12  C9  UNL     1      -3.336   0.115  -0.271  1.00  0.00     0.017 A 
HETATM   13  C28 UNL     1      -3.810  -0.056   2.023  1.00  0.00     0.061 A 
HETATM   14  C8  UNL     1      -4.697   0.087  -0.512  1.00  0.00     0.013 A 
HETATM   15  C7  UNL     1      -5.648  -0.014   0.512  1.00  0.00    -0.024 A 
HETATM   16  C29 UNL     1      -5.167  -0.083   1.794  1.00  0.00     0.044 A 
HETATM   17  N6  UNL     1      -3.099  -0.095   3.152  1.00  0.00    -0.299 N 
HETATM   18  N5  UNL     1      -1.806  -0.031   2.904  1.00  0.00    -0.299 N 
ATOM     19  H6  UNL     1      -3.504  -0.165   4.086  1.00  0.00     0.187 HD
ATOM     20  H5  UNL     1      -1.074  -0.044   3.614  1.00  0.00     0.187 HD
BRANCH  15  21
HETATM   21  C6  UNL     1      -7.033  -0.042   0.144  1.00  0.00    -0.026 A 
HETATM   22  C5  UNL     1      -7.999  -0.709   0.828  1.00  0.00     0.015 A 
HETATM   23  C4  UNL     1      -9.330  -0.728   0.390  1.00  0.00     0.037 A 
HETATM   24  C3  UNL     1      -9.731  -0.083  -0.742  1.00  0.00     0.068 A 
HETATM   25  C31 UNL     1      -8.735   0.606  -1.447  1.00  0.00     0.037 A 
HETATM   26  C30 UNL     1      -7.456   0.615  -1.010  1.00  0.00     0.015 A 
BRANCH  24  27
HETATM   27  O1  UNL     1     -11.006  -0.042  -1.251  1.00  0.00    -0.352 OA
BRANCH  27  28
HETATM   28  C2  UNL     1     -12.100  -0.658  -0.663  1.00  0.00     0.171 C 
HETATM   29  C1  UNL     1     -12.365  -0.061   0.699  1.00  0.00     0.034 C 
ENDBRANCH  27  28
ENDBRANCH  24  27
ENDBRANCH  15  21
ENDBRANCH   9  10
ENDBRANCH   1   8
BRANCH   4  30
HETATM   30  C18 UNL     1       5.070   0.057  -2.914  1.00  0.00     0.120 C 
HETATM   31  N1  UNL     1       6.159   0.356  -2.509  1.00  0.00    -0.309 N 
ATOM     32  H1  UNL     1       6.760   0.285  -3.330  1.00  0.00     0.186 HD
BRANCH  31  33
HETATM   33  N2  UNL     1       6.971   0.728  -1.546  1.00  0.00    -0.276 N 
ATOM     34  H2  UNL     1       7.609   0.024  -1.176  1.00  0.00     0.189 HD
BRANCH  33  35
HETATM   35  C19 UNL     1       7.037   2.039  -0.970  1.00  0.00     0.191 C 
HETATM   36  S1  UNL     1       6.057   3.190  -1.513  1.00  0.00    -0.039 SA
BRANCH  35  37
HETATM   37  N3  UNL     1       7.968   2.304   0.047  1.00  0.00    -0.332 N 
ATOM     38  H3  UNL     1       8.030   3.219   0.493  1.00  0.00     0.168 HD
BRANCH  37  39
HETATM   39  C20 UNL     1       8.828   1.220   0.425  1.00  0.00     0.034 A 
HETATM   40  C21 UNL     1      10.003   0.991  -0.310  1.00  0.00     0.030 A 
HETATM   41  C22 UNL     1      10.859  -0.043  -0.022  1.00  0.00     0.018 A 
HETATM   42  C23 UNL     1      10.586  -0.904   1.022  1.00  0.00     0.048 A 
HETATM   43  C25 UNL     1       9.440  -0.689   1.748  1.00  0.00     0.018 A 
HETATM   44  C26 UNL     1       8.565   0.366   1.454  1.00  0.00     0.030 A 
BRANCH  42  45
HETATM   45  C24 UNL     1      11.508  -2.039   1.355  1.00  0.00     0.417 C 
HETATM   46  F1  UNL     1      11.940  -1.990   2.657  1.00  0.00    -0.166 F 
HETATM   47  F2  UNL     1      10.886  -3.256   1.155  1.00  0.00    -0.166 F 
HETATM   48  F3  UNL     1      12.624  -2.014   0.529  1.00  0.00    -0.166 F 
ENDBRANCH  42  45
ENDBRANCH  37  39
ENDBRANCH  35  37
ENDBRANCH  33  35
ENDBRANCH  31  33
ENDBRANCH   4  30
TORSDOF 11
