REMARK  11 active torsions:
REMARK  status: ('A' for Active; 'I' for Inactive)
REMARK    1  A    between atoms: C2_2  and  N1_3 
REMARK    2  A    between atoms: N1_3  and  C3_4 
REMARK    3  A    between atoms: N1_3  and  C10_11 
REMARK    4  A    between atoms: C3_4  and  C4_5 
REMARK    5  A    between atoms: C10_11  and  C11_12 
REMARK    6  A    between atoms: C14_15  and  N2_16 
REMARK    7  A    between atoms: N2_16  and  C15_18 
REMARK    8  A    between atoms: C20_27  and  N5_28 
REMARK    9  A    between atoms: C21_31  and  C22_32 
REMARK   10  A    between atoms: C25_35  and  O1_36 
REMARK   11  A    between atoms: O1_36  and  C26_37 
ROOT
HETATM    1  C11 UNL     1       1.765   0.304  -1.364  1.00  0.00    -0.009 A 
HETATM    2  C12 UNL     1       1.503   0.341  -0.013  1.00  0.00     0.013 A 
HETATM    3  C13 UNL     1       0.261   0.019   0.504  1.00  0.00     0.030 A 
HETATM    4  C14 UNL     1      -0.787  -0.358  -0.306  1.00  0.00     0.034 A 
HETATM    5  C30 UNL     1      -0.532  -0.395  -1.656  1.00  0.00     0.052 A 
HETATM    6  C31 UNL     1       0.711  -0.073  -2.180  1.00  0.00     0.054 A 
HETATM    7  C32 UNL     1       0.949  -0.125  -3.594  1.00  0.00     0.100 C 
HETATM    8  N6  UNL     1       1.147  -0.189  -4.721  1.00  0.00    -0.191 NA
ENDROOT
BRANCH   1   9
HETATM    9  C10 UNL     1       3.068   0.686  -1.906  1.00  0.00     0.313 C 
BRANCH   9  10
HETATM   10  N1  UNL     1       4.088   0.944  -0.883  1.00  0.00     0.096 N 
BRANCH  10  11
HETATM   11  C2  UNL     1       5.216   1.552  -1.583  1.00  0.00     0.268 C 
HETATM   12  C1  UNL     1       4.986   2.983  -1.909  1.00  0.00     0.037 C 
ENDBRANCH  10  11
BRANCH  10  13
HETATM   13  C3  UNL     1       4.578  -0.356  -0.399  1.00  0.00     0.311 C 
BRANCH  13  14
HETATM   14  C4  UNL     1       5.555  -0.282   0.673  1.00  0.00    -0.030 A 
HETATM   15  C5  UNL     1       6.213  -1.450   1.074  1.00  0.00     0.009 A 
HETATM   16  C6  UNL     1       7.134  -1.423   2.108  1.00  0.00     0.001 A 
HETATM   17  C7  UNL     1       7.438  -0.257   2.775  1.00  0.00     0.000 A 
HETATM   18  C8  UNL     1       6.798   0.916   2.396  1.00  0.00     0.001 A 
HETATM   19  C9  UNL     1       5.883   0.847   1.358  1.00  0.00     0.009 A 
ENDBRANCH  13  14
ENDBRANCH  10  13
ENDBRANCH   9  10
ENDBRANCH   1   9
BRANCH   4  20
HETATM   20  N2  UNL     1      -2.074  -0.704   0.161  1.00  0.00    -0.355 N 
ATOM     21  H2  UNL     1      -2.855  -0.072  -0.016  1.00  0.00     0.166 HD
BRANCH  20  22
HETATM   22  C15 UNL     1      -2.281  -1.782   0.795  1.00  0.00     0.047 A 
HETATM   23  C16 UNL     1      -1.220  -2.663   1.045  1.00  0.00     0.047 A 
HETATM   24  C17 UNL     1      -1.493  -3.801   1.779  1.00  0.00     0.090 A 
HETATM   25  N3  UNL     1      -2.698  -4.085   2.246  1.00  0.00    -0.364 N 
HETATM   26  C18 UNL     1      -3.744  -3.268   2.029  1.00  0.00     0.061 A 
ATOM     27  H3  UNL     1      -2.837  -4.942   2.782  1.00  0.00     0.165 HD
HETATM   28  C19 UNL     1      -4.996  -3.588   2.521  1.00  0.00     0.120 A 
HETATM   29  C29 UNL     1      -3.547  -2.086   1.288  1.00  0.00     0.034 A 
HETATM   30  N4  UNL     1      -6.007  -2.761   2.279  1.00  0.00    -0.350 N 
HETATM   31  C20 UNL     1      -5.851  -1.631   1.577  1.00  0.00     0.111 A 
ATOM     32  H4  UNL     1      -6.932  -2.994   2.640  1.00  0.00     0.166 HD
HETATM   33  C21 UNL     1      -4.588  -1.260   1.053  1.00  0.00     0.033 A 
BRANCH  31  34
HETATM   34  N5  UNL     1      -6.852  -0.852   1.357  1.00  0.00    -0.385 N 
ATOM     35  H52 UNL     1      -7.761  -1.119   1.734  1.00  0.00     0.157 HD
ATOM     36  H51 UNL     1      -6.733   0.009   0.822  1.00  0.00     0.157 HD
ENDBRANCH  31  34
BRANCH  33  37
HETATM   37  C22 UNL     1      -4.544  -0.039   0.296  1.00  0.00    -0.021 A 
HETATM   38  C23 UNL     1      -4.781  -0.022  -1.083  1.00  0.00     0.015 A 
HETATM   39  C24 UNL     1      -4.810   1.161  -1.785  1.00  0.00     0.038 A 
HETATM   40  C25 UNL     1      -4.605   2.377  -1.153  1.00  0.00     0.078 A 
HETATM   41  C27 UNL     1      -4.371   2.354   0.201  1.00  0.00     0.038 A 
HETATM   42  C28 UNL     1      -4.340   1.164   0.927  1.00  0.00     0.015 A 
BRANCH  40  43
HETATM   43  O1  UNL     1      -4.639   3.568  -1.891  1.00  0.00    -0.255 OA
BRANCH  43  44
HETATM   44  C26 UNL     1      -5.826   4.297  -2.082  1.00  0.00     0.530 C 
HETATM   45  F1  UNL     1      -5.489   5.406  -2.848  1.00  0.00    -0.144 F 
HETATM   46  F2  UNL     1      -6.324   4.810  -0.898  1.00  0.00    -0.144 F 
HETATM   47  F3  UNL     1      -6.824   3.580  -2.682  1.00  0.00    -0.144 F 
ENDBRANCH  43  44
ENDBRANCH  40  43
ENDBRANCH  33  37
ENDBRANCH  20  22
ENDBRANCH   4  20
TORSDOF 11
