REMARK  4 active torsions:
REMARK  status: ('A' for Active; 'I' for Inactive)
REMARK    1  A    between atoms: C2_2  and  C3_4 
REMARK    2  A    between atoms: C4_5  and  C5_6 
REMARK    3  A    between atoms: C5_6  and  N1_7 
REMARK       I    between atoms: N1_7  and  C6_9 
REMARK       I    between atoms: C6_9  and  N2_11 
REMARK    4  A    between atoms: N2_11  and  C8_13 
ROOT
HETATM    1  N1  UNL     1       0.292  -0.280  -1.392  1.00  0.00    -0.343 N 
ATOM      2  H1  UNL     1       0.674  -0.097  -2.320  1.00  0.00     0.164 HD
HETATM    3  C6  UNL     1       1.227  -0.293  -0.347  1.00  0.00     0.318 C 
HETATM    4  O1  UNL     1       0.885  -0.504   0.828  1.00  0.00    -0.247 OA
HETATM    5  N2  UNL     1       2.615  -0.062  -0.589  1.00  0.00    -0.334 N 
HETATM    6  C7  UNL     1       3.051   0.189  -1.950  1.00  0.00     0.154 C 
ENDROOT
BRANCH   1   7
HETATM    7  C5  UNL     1      -1.128  -0.488  -1.339  1.00  0.00     0.130 C 
BRANCH   7   8
HETATM    8  C4  UNL     1      -1.788   0.513  -0.484  1.00  0.00     0.018 A 
HETATM    9  C3  UNL     1      -3.241   0.611  -0.260  1.00  0.00     0.014 A 
HETATM   10  C12 UNL     1      -2.421   0.131   0.846  1.00  0.00    -0.037 A 
HETATM   11  C13 UNL     1      -2.517  -1.276   1.327  1.00  0.00     0.015 C 
HETATM   12  C14 UNL     1      -2.138   1.125   1.991  1.00  0.00     0.015 C 
BRANCH   9  13
HETATM   13  C2  UNL     1      -4.258  -0.152  -1.027  1.00  0.00     0.059 C 
HETATM   14  C1  UNL     1      -5.634   0.215  -0.501  1.00  0.00     0.022 C 
HETATM   15 BR1  UNL     1      -4.128  -2.010  -1.137  1.00  0.00    -0.091 Br
ENDBRANCH   9  13
ENDBRANCH   7   8
ENDBRANCH   1   7
BRANCH   5  16
HETATM   16  C8  UNL     1       3.577  -0.071   0.461  1.00  0.00     0.088 C 
HETATM   17  C9  UNL     1       4.737  -1.021   0.169  1.00  0.00     0.025 C 
HETATM   18  C10 UNL     1       5.677   0.098   0.493  1.00  0.00     0.004 C 
HETATM   19  C11 UNL     1       4.546   1.105   0.481  1.00  0.00     0.025 C 
ENDBRANCH   5  16
TORSDOF 4
