REMARK  15 active torsions:
REMARK  status: ('A' for Active; 'I' for Inactive)
REMARK    1  A    between atoms: C2_2  and  C3_3 
REMARK    2  A    between atoms: C3_3  and  C4_4 
REMARK    3  A    between atoms: C3_3  and  S1_13 
REMARK    4  A    between atoms: C4_4  and  C5_5 
REMARK    5  A    between atoms: C6_6  and  C7_7 
REMARK    6  A    between atoms: C7_7  and  C10_10 
REMARK    7  A    between atoms: C10_10  and  O1_11 
REMARK    8  A    between atoms: S1_13  and  C11_14 
REMARK    9  A    between atoms: C13_16  and  C14_17 
REMARK   10  A    between atoms: C17_20  and  C18_21 
REMARK   11  A    between atoms: C21_29  and  N2_30 
REMARK   12  A    between atoms: N2_30  and  C22_32 
REMARK   13  A    between atoms: C22_32  and  C23_33 
REMARK   14  A    between atoms: C23_33  and  O2_34 
REMARK   15  A    between atoms: C23_33  and  C24_36 
ROOT
HETATM    1  C11 UNL     1      -0.251   0.969  -0.793  1.00  0.00     0.088 A 
HETATM    2  C12 UNL     1      -0.623   2.235  -0.439  1.00  0.00     0.068 A 
HETATM    3  C13 UNL     1      -1.946   2.532  -0.034  1.00  0.00     0.062 A 
HETATM    4  N1  UNL     1      -2.821   1.545  -0.001  1.00  0.00    -0.191 N 
ATOM      5  H1  UNL     1      -3.780   1.742   0.285  1.00  0.00     0.184 HD
HETATM    6  C21 UNL     1      -2.477   0.258  -0.341  1.00  0.00     0.679 A 
HETATM    7  N3  UNL     1      -1.242   0.012  -0.714  1.00  0.00    -0.186 N 
ATOM      8  H3  UNL     1      -1.000  -0.948  -0.961  1.00  0.00     0.185 HD
ENDROOT
BRANCH   1   9
HETATM    9  S1  UNL     1       1.261   0.483  -1.459  1.00  0.00    -0.106 SA
BRANCH   9  10
HETATM   10  C3  UNL     1       2.550  -0.230  -0.504  1.00  0.00     0.064 C 
BRANCH  10  11
HETATM   11  C2  UNL     1       3.218   0.679   0.478  1.00  0.00     0.012 C 
HETATM   12  C1  UNL     1       3.832   1.910  -0.124  1.00  0.00     0.006 C 
ENDBRANCH  10  11
BRANCH  10  13
HETATM   13  C4  UNL     1       3.622  -0.648  -1.521  1.00  0.00     0.109 C 
BRANCH  13  14
HETATM   14  C5  UNL     1       4.705  -1.314  -0.905  1.00  0.00    -0.105 C 
HETATM   15  C6  UNL     1       5.651  -1.884  -0.434  1.00  0.00    -0.095 C 
BRANCH  15  16
HETATM   16  C7  UNL     1       6.862  -2.577   0.082  1.00  0.00     0.037 C 
HETATM   17  C8  UNL     1       6.562  -3.602   1.094  1.00  0.00     0.031 C 
HETATM   18  C9  UNL     1       7.544  -3.275  -1.119  1.00  0.00     0.031 C 
BRANCH  16  19
HETATM   19  C10 UNL     1       7.865  -1.560   0.602  1.00  0.00     0.185 C 
BRANCH  19  20
HETATM   20  O1  UNL     1       7.329  -0.801   1.654  1.00  0.00    -0.399 OA
ATOM     21  H1  UNL     1       7.956  -0.165   1.979  1.00  0.00     0.209 HD
ENDBRANCH  19  20
ENDBRANCH  16  19
ENDBRANCH  15  16
ENDBRANCH  13  14
ENDBRANCH  10  13
ENDBRANCH   9  10
ENDBRANCH   1   9
BRANCH   3  22
HETATM   22  C14 UNL     1      -2.250   3.941   0.149  1.00  0.00    -0.009 A 
HETATM   23  C15 UNL     1      -3.382   4.474  -0.424  1.00  0.00     0.014 A 
HETATM   24  C16 UNL     1      -3.781   5.800  -0.275  1.00  0.00     0.017 A 
HETATM   25  C17 UNL     1      -2.983   6.614   0.499  1.00  0.00     0.048 A 
HETATM   26  C19 UNL     1      -1.858   6.107   1.078  1.00  0.00     0.017 A 
HETATM   27  C20 UNL     1      -1.473   4.796   0.924  1.00  0.00     0.014 A 
BRANCH  25  28
HETATM   28  C18 UNL     1      -3.384   8.033   0.661  1.00  0.00     0.417 C 
HETATM   29  F1  UNL     1      -4.692   8.069   1.114  1.00  0.00    -0.166 F 
HETATM   30  F2  UNL     1      -2.515   8.715   1.491  1.00  0.00    -0.166 F 
HETATM   31  F3  UNL     1      -3.379   8.686  -0.539  1.00  0.00    -0.166 F 
ENDBRANCH  25  28
ENDBRANCH   3  22
BRANCH   6  32
HETATM   32  N2  UNL     1      -3.405  -0.644  -0.258  1.00  0.00    -0.224 N 
ATOM     33  H2  UNL     1      -4.328  -0.346   0.057  1.00  0.00     0.177 HD
BRANCH  32  34
HETATM   34  C22 UNL     1      -3.228  -2.023  -0.576  1.00  0.00     0.170 C 
BRANCH  34  35
HETATM   35  C23 UNL     1      -3.972  -2.930   0.348  1.00  0.00     0.143 C 
BRANCH  35  36
HETATM   36  O2  UNL     1      -3.707  -2.762   1.683  1.00  0.00    -0.393 OA
ATOM     37  H2  UNL     1      -4.180  -3.339   2.271  1.00  0.00     0.210 HD
ENDBRANCH  35  36
BRANCH  35  38
HETATM   38  C24 UNL     1      -5.389  -3.267   0.066  1.00  0.00    -0.024 C 
HETATM   39  C25 UNL     1      -6.355  -2.126  -0.037  1.00  0.00     0.017 C 
HETATM   40  C26 UNL     1      -5.487  -4.045  -1.268  1.00  0.00     0.017 C 
HETATM   41  C27 UNL     1      -5.835  -4.227   1.195  1.00  0.00     0.017 C 
ENDBRANCH  35  38
ENDBRANCH  34  35
ENDBRANCH  32  34
ENDBRANCH   6  32
TORSDOF 15
