REMARK  9 active torsions:
REMARK  status: ('A' for Active; 'I' for Inactive)
REMARK    1  A    between atoms: C2_2  and  C3_3 
REMARK    2  A    between atoms: C3_3  and  N1_7 
REMARK    3  A    between atoms: C4_4  and  O1_5 
REMARK    4  A    between atoms: N1_7  and  C6_9 
REMARK    5  A    between atoms: C8_11  and  C9_12 
REMARK    6  A    between atoms: N2_20  and  C15_21 
REMARK    7  A    between atoms: C18_24  and  C19_25 
REMARK    8  A    between atoms: C23_34  and  C24_35 
REMARK    9  A    between atoms: C24_35  and  O2_36 
ROOT
HETATM    1  C6  UNL     1      -2.002   0.558  -0.282  1.00  0.00     0.122 A 
HETATM    2  C7  UNL     1      -1.441   1.545  -1.155  1.00  0.00     0.082 A 
HETATM    3  C8  UNL     1      -0.053   1.502  -0.971  1.00  0.00     0.072 A 
HETATM    4  N2  UNL     1       0.244   0.599  -0.077  1.00  0.00    -0.254 N 
HETATM    5  N5  UNL     1      -0.978   0.036   0.327  1.00  0.00    -0.278 N 
ATOM      6  H5  UNL     1      -1.054  -0.704   1.025  1.00  0.00     0.189 HD
ENDROOT
BRANCH   4   7
HETATM    7  C15 UNL     1       1.412   0.077   0.469  1.00  0.00     0.065 A 
HETATM    8  C16 UNL     1       2.033   0.667   1.555  1.00  0.00     0.033 A 
HETATM    9  C17 UNL     1       3.147   0.131   2.133  1.00  0.00     0.015 A 
HETATM   10  C18 UNL     1       3.707  -1.033   1.664  1.00  0.00    -0.021 A 
HETATM   11  C22 UNL     1       3.105  -1.650   0.581  1.00  0.00     0.024 A 
HETATM   12  C23 UNL     1       1.967  -1.081  -0.004  1.00  0.00    -0.005 A 
BRANCH  10  13
HETATM   13  C19 UNL     1       4.940  -1.561   2.280  1.00  0.00     0.031 A 
HETATM   14  C20 UNL     1       5.194  -2.870   2.690  1.00  0.00     0.122 A 
HETATM   15  N3  UNL     1       6.434  -2.897   3.251  1.00  0.00    -0.310 N 
HETATM   16  N4  UNL     1       6.990  -1.703   3.229  1.00  0.00    -0.289 N 
ATOM     17  H3  UNL     1       6.875  -3.732   3.637  1.00  0.00     0.186 HD
HETATM   18  C21 UNL     1       6.071  -0.847   2.620  1.00  0.00     0.130 A 
ATOM     19  H4  UNL     1       7.912  -1.453   3.587  1.00  0.00     0.188 HD
HETATM   20 CL3  UNL     1       6.328   0.861   2.295  1.00  0.00    -0.062 Cl
ENDBRANCH  10  13
BRANCH  12  21
HETATM   21  C24 UNL     1       1.489  -1.705  -1.263  1.00  0.00     0.205 C 
BRANCH  21  22
HETATM   22  O2  UNL     1       0.203  -2.271  -1.263  1.00  0.00    -0.396 OA
ATOM     23  H2  UNL     1      -0.103  -2.670  -2.069  1.00  0.00     0.209 HD
ENDBRANCH  21  22
ENDBRANCH  12  21
ENDBRANCH   4   7
BRANCH   3  24
HETATM   24  C9  UNL     1       0.766   2.238  -1.967  1.00  0.00     0.016 A 
HETATM   25  C10 UNL     1       0.520   1.800  -3.308  1.00  0.00     0.039 A 
HETATM   26  C11 UNL     1       1.137   2.395  -4.382  1.00  0.00     0.035 A 
HETATM   27 CL1  UNL     1       0.973   1.754  -6.029  1.00  0.00    -0.084 Cl
HETATM   28  C12 UNL     1       2.014   3.451  -4.100  1.00  0.00     0.025 A 
HETATM   29  C13 UNL     1       2.223   3.839  -2.809  1.00  0.00     0.026 A 
HETATM   30  C14 UNL     1       1.601   3.228  -1.729  1.00  0.00     0.046 A 
HETATM   31 CL2  UNL     1       2.000   3.900  -0.114  1.00  0.00    -0.083 Cl
ENDBRANCH   3  24
BRANCH   1  32
HETATM   32  N1  UNL     1      -3.241   0.345  -0.260  1.00  0.00    -0.343 N 
ATOM     33  H1  UNL     1      -3.748   0.958  -0.899  1.00  0.00     0.167 HD
BRANCH  32  34
HETATM   34  C3  UNL     1      -4.086  -0.515   0.417  1.00  0.00     0.032 C 
HETATM   35  C4  UNL     1      -4.804  -0.307   1.645  1.00  0.00     0.159 C 
BRANCH  34  36
HETATM   36  C2  UNL     1      -3.864  -1.993   0.011  1.00  0.00     0.054 C 
HETATM   37  C1  UNL     1      -5.219  -2.657  -0.305  1.00  0.00     0.011 C 
ENDBRANCH  34  36
BRANCH  35  38
HETATM   38  O1  UNL     1      -5.786   0.575   1.690  1.00  0.00    -0.366 OA
HETATM   39  C5  UNL     1      -5.638   1.882   1.577  1.00  0.00     0.209 C 
ENDBRANCH  35  38
ENDBRANCH  32  34
ENDBRANCH   1  32
TORSDOF 9
