REMARK  10 active torsions:
REMARK  status: ('A' for Active; 'I' for Inactive)
REMARK    1  A    between atoms: C2_2  and  C18_31 
REMARK    2  A    between atoms: N1_3  and  N2_5 
REMARK    3  A    between atoms: N2_5  and  C3_7 
REMARK    4  A    between atoms: C9_15  and  C10_16 
REMARK    5  A    between atoms: C13_22  and  C14_23 
REMARK    6  A    between atoms: C14_23  and  C17_26 
REMARK    7  A    between atoms: C17_26  and  O1_27 
REMARK    8  A    between atoms: C18_31  and  N5_34 
REMARK    9  A    between atoms: N5_34  and  C21_36 
REMARK   10  A    between atoms: C21_36  and  C23_38 
ROOT
HETATM    1  C3  UNL     1      -1.488   0.005  -0.200  1.00  0.00     0.697 A 
HETATM    2  N3  UNL     1      -2.339   1.025  -0.179  1.00  0.00    -0.190 N 
ATOM      3  H3  UNL     1      -1.955   1.966  -0.267  1.00  0.00     0.184 HD
HETATM    4  C4  UNL     1      -3.707   0.898  -0.046  1.00  0.00     0.061 A 
HETATM    5  C5  UNL     1      -4.525   2.078  -0.154  1.00  0.00    -0.008 A 
HETATM    6  C6  UNL     1      -4.131   2.986  -1.132  1.00  0.00     0.014 A 
HETATM    7  C7  UNL     1      -4.764   4.197  -1.270  1.00  0.00     0.002 A 
HETATM    8  C8  UNL     1      -5.801   4.545  -0.442  1.00  0.00     0.016 A 
HETATM    9  C9  UNL     1      -6.179   3.624   0.544  1.00  0.00     0.048 A 
HETATM   10  C11 UNL     1      -5.563   2.399   0.698  1.00  0.00     0.029 A 
HETATM   11  C12 UNL     1      -4.157  -0.396   0.077  1.00  0.00     0.057 A 
HETATM   12  C13 UNL     1      -3.304  -1.450   0.052  1.00  0.00     0.039 A 
HETATM   13  N4  UNL     1      -1.953  -1.240  -0.086  1.00  0.00    -0.193 N 
ATOM     14  H4  UNL     1      -1.310  -2.031  -0.101  1.00  0.00     0.184 HD
ENDROOT
BRANCH   1  15
HETATM   15  N2  UNL     1      -0.209   0.183  -0.296  1.00  0.00    -0.132 N 
ATOM     16  H2  UNL     1       0.167   1.129  -0.364  1.00  0.00     0.205 HD
BRANCH  15  17
HETATM   17  N1  UNL     1       0.628  -0.870  -0.307  1.00  0.00    -0.292 N 
HETATM   18  C2  UNL     1       1.879  -1.016  -0.133  1.00  0.00     0.027 C 
HETATM   19  C1  UNL     1       2.371  -2.460  -0.240  1.00  0.00     0.068 C 
ATOM     20  H1  UNL     1       0.151  -1.751  -0.498  1.00  0.00     0.187 HD
BRANCH  18  21
HETATM   21  C18 UNL     1       2.893  -0.014   0.212  1.00  0.00     0.058 C 
HETATM   22  C19 UNL     1       3.123  -0.211   1.687  1.00  0.00     0.044 C 
HETATM   23  C20 UNL     1       2.468   1.388  -0.037  1.00  0.00     0.044 C 
BRANCH  21  24
HETATM   24  N5  UNL     1       4.065  -0.252  -0.588  1.00  0.00    -0.401 N 
ATOM     25  H5  UNL     1       4.035  -0.042  -1.586  1.00  0.00     0.155 HD
BRANCH  24  26
HETATM   26  C21 UNL     1       5.244  -0.763  -0.035  1.00  0.00     0.107 C 
HETATM   27  C22 UNL     1       5.939  -1.617  -1.106  1.00  0.00     0.037 C 
BRANCH  26  28
HETATM   28  C23 UNL     1       6.165   0.453   0.035  1.00  0.00    -0.036 A 
HETATM   29  C24 UNL     1       6.387   1.081  -1.162  1.00  0.00     0.009 A 
HETATM   30  C25 UNL     1       7.174   2.231  -1.187  1.00  0.00     0.001 A 
HETATM   31  C26 UNL     1       7.728   2.737  -0.025  1.00  0.00     0.000 A 
HETATM   32  C27 UNL     1       7.480   2.073   1.169  1.00  0.00     0.001 A 
HETATM   33  C28 UNL     1       6.717   0.962   1.144  1.00  0.00     0.009 A 
ENDBRANCH  26  28
ENDBRANCH  24  26
ENDBRANCH  21  24
ENDBRANCH  18  21
ENDBRANCH  15  17
ENDBRANCH   1  15
BRANCH  12  34
HETATM   34  C14 UNL     1      -3.675  -2.905   0.032  1.00  0.00     0.017 C 
HETATM   35  C15 UNL     1      -3.160  -3.342  -1.377  1.00  0.00     0.023 C 
HETATM   36  C16 UNL     1      -2.912  -3.642   1.076  1.00  0.00     0.023 C 
BRANCH  34  37
HETATM   37  C17 UNL     1      -5.127  -3.167   0.138  1.00  0.00     0.179 C 
BRANCH  37  38
HETATM   38  O1  UNL     1      -5.344  -4.555   0.093  1.00  0.00    -0.400 OA
ATOM     39  H1  UNL     1      -6.276  -4.723   0.161  1.00  0.00     0.209 HD
ENDBRANCH  37  38
ENDBRANCH  34  37
ENDBRANCH  12  34
BRANCH   9  40
HETATM   40  C10 UNL     1      -7.259   4.003   1.482  1.00  0.00     0.417 C 
HETATM   41  F1  UNL     1      -7.820   5.217   1.119  1.00  0.00    -0.166 F 
HETATM   42  F2  UNL     1      -6.625   4.223   2.739  1.00  0.00    -0.166 F 
HETATM   43  F3  UNL     1      -8.214   3.046   1.636  1.00  0.00    -0.166 F 
ENDBRANCH   9  40
TORSDOF 10
