REMARK  8 active torsions:
REMARK  status: ('A' for Active; 'I' for Inactive)
REMARK    1  A    between atoms: C3_5  and  S1_6 
REMARK    2  A    between atoms: S1_6  and  N2_9 
REMARK    3  A    between atoms: N2_9  and  C5_11 
REMARK    4  A    between atoms: C5_11  and  C6_12 
REMARK    5  A    between atoms: C6_12  and  C7_13 
REMARK    6  A    between atoms: C7_13  and  N3_14 
REMARK    7  A    between atoms: N3_14  and  C8_17 
REMARK    8  A    between atoms: C8_17  and  C9_18 
ROOT
HETATM    1  N2  UNL     1      -1.067  -1.045  -1.317  1.00  0.00    -0.347 N 
ATOM      2  H2  UNL     1      -1.136  -1.892  -0.754  1.00  0.00     0.169 HD
ENDROOT
BRANCH   1   3
HETATM    3  S1  UNL     1      -2.058   0.582  -0.980  1.00  0.00     0.065 S 
HETATM    4  C4  UNL     1      -3.155   0.238  -2.424  1.00  0.00     0.143 C 
HETATM    5  O1  UNL     1      -1.136   0.737   0.298  1.00  0.00    -0.244 OA
BRANCH   3   6
HETATM    6  C3  UNL     1      -3.578   0.238   0.261  1.00  0.00     0.121 A 
HETATM    7  N1  UNL     1      -3.807  -1.012   0.612  1.00  0.00    -0.338 N 
HETATM    8  C2  UNL     1      -4.859  -1.245   1.443  1.00  0.00     0.078 A 
ATOM      9  H1  UNL     1      -3.219  -1.774   0.274  1.00  0.00     0.168 HD
HETATM   10  C1  UNL     1      -5.181  -2.634   1.885  1.00  0.00     0.089 C 
HETATM   11  N5  UNL     1      -5.602  -0.209   1.858  1.00  0.00    -0.344 N 
HETATM   12  C22 UNL     1      -5.376   1.072   1.504  1.00  0.00     0.068 A 
ATOM     13  H5  UNL     1      -6.387  -0.402   2.480  1.00  0.00     0.167 HD
HETATM   14  C17 UNL     1      -4.305   1.298   0.661  1.00  0.00     0.031 A 
HETATM   15  C21 UNL     1      -6.167   2.096   1.958  1.00  0.00     0.063 A 
HETATM   16  C18 UNL     1      -4.058   2.599   0.288  1.00  0.00     0.040 A 
HETATM   17  C19 UNL     1      -4.838   3.667   0.728  1.00  0.00     0.036 A 
HETATM   18 CL2  UNL     1      -4.464   5.299   0.212  1.00  0.00    -0.084 Cl
HETATM   19  C20 UNL     1      -5.896   3.388   1.569  1.00  0.00     0.050 A 
HETATM   20 CL3  UNL     1      -7.519   1.762   3.031  1.00  0.00    -0.082 Cl
ENDBRANCH   3   6
ENDBRANCH   1   3
BRANCH   1  21
HETATM   21  C5  UNL     1      -0.244  -0.902  -2.436  1.00  0.00     0.131 C 
BRANCH  21  22
HETATM   22  C6  UNL     1       0.569  -2.116  -2.786  1.00  0.00     0.048 C 
BRANCH  22  23
HETATM   23  C7  UNL     1       1.501  -2.557  -1.711  1.00  0.00     0.234 C 
BRANCH  23  24
HETATM   24  N3  UNL     1       2.479  -1.589  -1.327  1.00  0.00    -0.070 N 
ATOM     25  H32 UNL     1       3.019  -1.259  -2.127  1.00  0.00     0.277 HD
ATOM     26  H31 UNL     1       2.050  -0.704  -1.056  1.00  0.00     0.277 HD
BRANCH  24  27
HETATM   27  C8  UNL     1       3.320  -2.107  -0.297  1.00  0.00     0.289 C 
BRANCH  27  28
HETATM   28  C9  UNL     1       4.337  -1.090   0.098  1.00  0.00     0.036 A 
HETATM   29  C10 UNL     1       5.326  -1.216   1.058  1.00  0.00     0.040 A 
HETATM   30  C11 UNL     1       6.043  -0.038   1.098  1.00  0.00    -0.006 A 
HETATM   31  C12 UNL     1       7.117   0.399   1.844  1.00  0.00     0.037 A 
HETATM   32  C16 UNL     1       5.473   0.794   0.152  1.00  0.00     0.042 A 
HETATM   33  C13 UNL     1       7.634   1.663   1.659  1.00  0.00     0.035 A 
HETATM   34 CL1  UNL     1       8.998   2.242   2.593  1.00  0.00    -0.084 Cl
HETATM   35  C14 UNL     1       7.084   2.501   0.728  1.00  0.00     0.026 A 
HETATM   36  C15 UNL     1       6.018   2.052  -0.004  1.00  0.00     0.032 A 
HETATM   37  N4  UNL     1       4.453   0.141  -0.433  1.00  0.00    -0.357 N 
ATOM     38  H4  UNL     1       3.857   0.522  -1.168  1.00  0.00     0.166 HD
ENDBRANCH  27  28
ENDBRANCH  24  27
ENDBRANCH  23  24
ENDBRANCH  22  23
ENDBRANCH  21  22
ENDBRANCH   1  21
TORSDOF 8
