REMARK  1 active torsions:
REMARK  status: ('A' for Active; 'I' for Inactive)
REMARK    1  A    between atoms: C1_2  and  C2_3 
ROOT
HETATM    1  C2  UNL     1       1.026   0.734  -0.062  1.00  0.00     0.052 C 
HETATM    2 CL2  UNL     1       1.588   2.357  -0.447  1.00  0.00    -0.086 Cl
HETATM    3  C3  UNL     1      -0.242   0.435   0.055  1.00  0.00     0.074 C 
HETATM    4  N1  UNL     1      -1.372   1.287  -0.089  1.00  0.00    -0.346 N 
ATOM      5  H1  UNL     1      -1.346   2.307  -0.098  1.00  0.00     0.167 HD
HETATM    6  C4  UNL     1      -2.435   0.566  -0.206  1.00  0.00     0.229 C 
HETATM    7  O1  UNL     1      -2.128  -0.780  -0.153  1.00  0.00    -0.320 OA
HETATM    8  C5  UNL     1      -0.821  -0.887   0.372  1.00  0.00     0.276 C 
HETATM    9 CL3  UNL     1      -0.978  -1.086   2.145  1.00  0.00    -0.088 Cl
ENDROOT
BRANCH   1  10
HETATM   10  C1  UNL     1       2.117  -0.294   0.124  1.00  0.00     0.168 C 
HETATM   11 CL1  UNL     1       2.715  -0.459  -0.652  1.00  0.00    -0.125 Cl
ENDBRANCH   1  10
TORSDOF 1
