REMARK  1 active torsions:
REMARK  status: ('A' for Active; 'I' for Inactive)
REMARK    1  A    between atoms: O1_1  and  N1_3 
ROOT
HETATM    1  N1  UNL     1      -0.618  -0.974  -0.050  1.00  0.00    -0.246 N 
HETATM    2  C1  UNL     1       0.787  -1.169  -0.028  1.00  0.00     0.142 A 
HETATM    3  C2  UNL     1       1.652  -0.179   0.020  1.00  0.00     0.053 A 
HETATM    4 CL1  UNL     1       3.390  -0.481   0.045  1.00  0.00    -0.083 Cl
HETATM    5  C3  UNL     1       1.146   1.182   0.052  1.00  0.00     0.048 A 
HETATM    6  C4  UNL     1      -0.139   1.425   0.034  1.00  0.00     0.053 A 
HETATM    7 CL2  UNL     1      -0.720   3.094   0.075  1.00  0.00    -0.085 Cl
HETATM    8  C5  UNL     1      -1.143   0.363  -0.019  1.00  0.00     0.254 A 
HETATM    9 CL3  UNL     1      -2.161   0.571  -1.477  1.00  0.00    -0.094 Cl
ENDROOT
BRANCH   1  10
HETATM   10  O1  UNL     1      -1.415  -1.998  -0.098  1.00  0.00    -0.286 OA
ATOM     11  H1  UNL     1      -2.356  -1.867  -0.113  1.00  0.00     0.244 HD
ENDBRANCH   1  10
TORSDOF 1
