REMARK  0 active torsions:
REMARK  status: ('A' for Active; 'I' for Inactive)
ROOT
HETATM    1  O1  UNL     1       0.280  -2.329  -0.163  1.00  0.00    -0.289 OA
HETATM    2  C1  UNL     1       0.207  -1.100  -0.054  1.00  0.00     0.197 A 
HETATM    3  C2  UNL     1       1.402  -0.293   0.085  1.00  0.00     0.097 A 
HETATM    4 CL1  UNL     1       2.954  -1.105   0.096  1.00  0.00    -0.079 Cl
HETATM    5  C3  UNL     1       1.334   1.035   0.203  1.00  0.00     0.116 A 
HETATM    6  N1  UNL     1       0.057   1.625   0.188  1.00  0.00    -0.357 N 
ATOM      7  H1  UNL     1       0.007   2.640   0.279  1.00  0.00     0.166 HD
HETATM    8  C4  UNL     1      -1.045   0.990   0.069  1.00  0.00     0.106 A 
HETATM    9 CL2  UNL     1      -2.590   1.886   0.067  1.00  0.00    -0.067 Cl
HETATM   10  C5  UNL     1      -1.112  -0.453  -0.067  1.00  0.00     0.219 A 
HETATM   11 CL3  UNL     1      -2.033  -0.948  -1.519  1.00  0.00    -0.109 Cl
ENDROOT
TORSDOF 0
