REMARK  4 active torsions:
REMARK  status: ('A' for Active; 'I' for Inactive)
REMARK    1  A    between atoms: C1_4  and  C2_6 
REMARK    2  A    between atoms: C3_9  and  N4_10 
REMARK    3  A    between atoms: N6_18  and  C6_19 
REMARK    4  A    between atoms: C6_19  and  C7_20 
ROOT
HETATM    1  C2  UNL     1       1.890   0.343  -0.070  1.00  0.00     0.150 A 
HETATM    2  N3  UNL     1       2.389  -0.748  -0.701  1.00  0.00    -0.324 N 
ATOM      3  H3  UNL     1       3.371  -0.753  -0.978  1.00  0.00     0.169 HD
HETATM    4  C3  UNL     1       1.632  -1.822  -0.972  1.00  0.00     0.131 A 
HETATM    5  C4  UNL     1       0.310  -1.768  -0.576  1.00  0.00     0.125 A 
HETATM    6  N5  UNL     1      -0.719  -2.657  -0.687  1.00  0.00    -0.302 N 
ATOM      7  H5  UNL     1      -0.673  -3.581  -1.116  1.00  0.00     0.171 HD
HETATM    8  C5  UNL     1      -1.809  -2.092  -0.127  1.00  0.00     0.329 A 
HETATM    9  O1  UNL     1      -2.937  -2.660  -0.066  1.00  0.00    -0.246 OA
HETATM   10  N6  UNL     1      -1.517  -0.872   0.340  1.00  0.00    -0.275 N 
HETATM   11  C8  UNL     1      -0.203  -0.672   0.061  1.00  0.00     0.144 A 
HETATM   12  N8  UNL     1       0.619   0.369   0.299  1.00  0.00    -0.324 N 
ATOM     13  H8  UNL     1       0.254   1.195   0.774  1.00  0.00     0.169 HD
ENDROOT
BRANCH   1  14
HETATM   14  C1  UNL     1       2.756   1.484   0.201  1.00  0.00     0.154 C 
HETATM   15  N1  UNL     1       2.297   2.520   0.796  1.00  0.00    -0.385 N 
ATOM     16  H12 UNL     1       2.903   3.318   0.986  1.00  0.00     0.157 HD
ATOM     17  H11 UNL     1       1.314   2.509   1.067  1.00  0.00     0.157 HD
HETATM   18  N2  UNL     1       4.126   1.500  -0.176  1.00  0.00    -0.079 NA
ENDBRANCH   1  14
BRANCH   4  19
HETATM   19  N4  UNL     1       2.072  -2.878  -1.571  1.00  0.00    -0.383 N 
ATOM     20  H42 UNL     1       3.048  -2.918  -1.863  1.00  0.00     0.157 HD
ATOM     21  H41 UNL     1       1.496  -3.695  -1.777  1.00  0.00     0.157 HD
ENDBRANCH   4  19
BRANCH  10  22
HETATM   22  C6  UNL     1      -2.379   0.080   1.011  1.00  0.00     0.235 C 
BRANCH  22  23
HETATM   23  C7  UNL     1      -3.047   0.990   0.032  1.00  0.00     0.249 C 
HETATM   24  N7  UNL     1      -3.926   1.983   0.513  1.00  0.00    -0.061 NA
HETATM   25  O2  UNL     1      -2.794   0.827  -1.180  1.00  0.00    -0.275 OA
ENDBRANCH  22  23
ENDBRANCH  10  22
TORSDOF 4
