REMARK  5 active torsions:
REMARK  status: ('A' for Active; 'I' for Inactive)
REMARK    1  A    between atoms: C2_2  and  N1_3 
REMARK    2  A    between atoms: N1_3  and  N2_5 
REMARK    3  A    between atoms: C4_10  and  O1_11 
REMARK    4  A    between atoms: C4_10  and  C5_13 
REMARK    5  A    between atoms: C7_20  and  N7_21 
ROOT
HETATM    1  C5  UNL     1      -1.412  -0.027   0.328  1.00  0.00     0.100 A 
HETATM    2  N5  UNL     1      -1.241   1.291   0.295  1.00  0.00    -0.304 N 
ATOM      3  H5  UNL     1      -0.407   1.670  -0.153  1.00  0.00     0.171 HD
HETATM    4  C6  UNL     1      -2.155   2.162   0.847  1.00  0.00     0.326 A 
HETATM    5  O2  UNL     1      -1.928   3.390   0.779  1.00  0.00    -0.247 OA
HETATM    6  N6  UNL     1      -3.272   1.756   1.452  1.00  0.00    -0.293 N 
ATOM      7  H6  UNL     1      -3.931   2.424   1.852  1.00  0.00     0.172 HD
HETATM    8  C7  UNL     1      -3.494   0.435   1.513  1.00  0.00     0.129 A 
HETATM    9  C8  UNL     1      -2.591  -0.448   0.966  1.00  0.00     0.119 A 
HETATM   10  N8  UNL     1      -2.812  -1.850   1.022  1.00  0.00    -0.096 NA
ENDROOT
BRANCH   1  11
HETATM   11  C4  UNL     1      -0.501  -1.002  -0.228  1.00  0.00     0.118 C 
HETATM   12  C2  UNL     1       0.736  -0.809  -0.910  1.00  0.00     0.057 C 
HETATM   13  C1  UNL     1       1.499  -2.017  -1.393  1.00  0.00     0.072 C 
BRANCH  12  14
HETATM   14  N1  UNL     1       1.252   0.326  -1.144  1.00  0.00    -0.300 N 
ATOM     15  H1  UNL     1       0.738   1.145  -0.818  1.00  0.00     0.186 HD
BRANCH  14  16
HETATM   16  N2  UNL     1       2.445   0.553  -1.799  1.00  0.00    -0.276 N 
HETATM   17  C3  UNL     1       3.496   0.849  -1.131  1.00  0.00     0.215 C 
HETATM   18  N3  UNL     1       3.452   0.946   0.277  1.00  0.00    -0.065 NA
HETATM   19  N4  UNL     1       4.711   1.080  -1.809  1.00  0.00    -0.065 NA
ATOM     20  H2  UNL     1       2.489   0.485  -2.816  1.00  0.00     0.189 HD
ENDBRANCH  14  16
ENDBRANCH  12  14
BRANCH  11  21
HETATM   21  O1  UNL     1      -0.843  -2.257  -0.097  1.00  0.00    -0.357 OA
ATOM     22  H1  UNL     1      -1.667  -2.386   0.357  1.00  0.00     0.218 HD
ENDBRANCH  11  21
ENDBRANCH   1  11
BRANCH   8  23
HETATM   23  N7  UNL     1      -4.566  -0.002   2.091  1.00  0.00    -0.384 N 
ATOM     24  H72 UNL     1      -5.235   0.652   2.496  1.00  0.00     0.157 HD
ATOM     25  H71 UNL     1      -4.735  -1.007   2.137  1.00  0.00     0.157 HD
ENDBRANCH   8  23
TORSDOF 5
