REMARK  6 active torsions:
REMARK  status: ('A' for Active; 'I' for Inactive)
REMARK    1  A    between atoms: C1_2  and  C2_4 
REMARK    2  A    between atoms: C4_10  and  N4_11 
REMARK    3  A    between atoms: N4_11  and  C5_13 
REMARK    4  A    between atoms: C5_13  and  N5_14 
REMARK    5  A    between atoms: C5_13  and  C6_18 
REMARK    6  A    between atoms: C6_18  and  O2_19 
ROOT
HETATM    1  C2  UNL     1       3.349   0.398  -0.939  1.00  0.00     0.142 A 
HETATM    2  N2  UNL     1       2.772   1.169  -1.863  1.00  0.00    -0.293 N 
ATOM      3  H2  UNL     1       3.252   1.613  -2.646  1.00  0.00     0.187 HD
HETATM    4  N3  UNL     1       1.478   1.266  -1.601  1.00  0.00    -0.294 N 
ATOM      5  H3  UNL     1       0.806   1.798  -2.154  1.00  0.00     0.187 HD
HETATM    6  C3  UNL     1       1.184   0.562  -0.504  1.00  0.00     0.121 A 
HETATM    7  C4  UNL     1       0.010   0.315   0.212  1.00  0.00     0.134 A 
HETATM    8  N7  UNL     1       0.085  -0.463   1.301  1.00  0.00    -0.337 N 
ATOM      9  H7  UNL     1      -0.762  -0.655   1.836  1.00  0.00     0.168 HD
HETATM   10  C8  UNL     1       1.252  -0.997   1.705  1.00  0.00     0.182 A 
HETATM   11  N8  UNL     1       2.387  -0.769   1.028  1.00  0.00    -0.348 N 
ATOM     12  H8  UNL     1       3.268  -1.178   1.340  1.00  0.00     0.167 HD
HETATM   13  C9  UNL     1       2.346  -0.000  -0.059  1.00  0.00     0.099 A 
ENDROOT
BRANCH   7  14
HETATM   14  N4  UNL     1      -1.036   0.842  -0.218  1.00  0.00    -0.343 N 
ATOM     15  H4  UNL     1      -0.864   1.393  -1.059  1.00  0.00     0.163 HD
BRANCH  14  16
HETATM   16  C5  UNL     1      -2.386   0.873   0.156  1.00  0.00     0.348 C 
BRANCH  16  17
HETATM   17  N5  UNL     1      -2.596   1.055   1.567  1.00  0.00    -0.053 N 
ATOM     18  H53 UNL     1      -2.093   0.345   2.099  1.00  0.00     0.277 HD
ATOM     19  H52 UNL     1      -2.113   1.891   1.897  1.00  0.00     0.277 HD
ATOM     20  H51 UNL     1      -3.579   1.078   1.839  1.00  0.00     0.277 HD
ENDBRANCH  16  17
BRANCH  16  21
HETATM   21  C6  UNL     1      -3.139  -0.305  -0.425  1.00  0.00     0.294 A 
HETATM   22  C7  UNL     1      -4.468  -0.676   0.226  1.00  0.00     0.308 A 
HETATM   23  N6  UNL     1      -3.279  -1.506   0.341  1.00  0.00    -0.033 N 
ATOM     24  H62 UNL     1      -3.095  -2.487   0.132  1.00  0.00     0.281 HD
ATOM     25  H61 UNL     1      -2.770  -1.881   1.141  1.00  0.00     0.281 HD
BRANCH  21  26
HETATM   26  O2  UNL     1      -3.120  -0.381  -1.819  1.00  0.00    -0.361 OA
ATOM     27  H2  UNL     1      -3.592  -1.120  -2.184  1.00  0.00     0.212 HD
ENDBRANCH  21  26
ENDBRANCH  16  21
ENDBRANCH  14  16
ENDBRANCH   7  14
BRANCH   1  28
HETATM   28  C1  UNL     1       4.753   0.017  -0.829  1.00  0.00     0.285 C 
HETATM   29  N1  UNL     1       5.206  -0.813   0.218  1.00  0.00    -0.056 NA
HETATM   30  O1  UNL     1       5.586   0.429  -1.674  1.00  0.00    -0.269 OA
ENDBRANCH   1  28
TORSDOF 6
