REMARK  4 active torsions:
REMARK  status: ('A' for Active; 'I' for Inactive)
REMARK    1  A    between atoms: N1_1  and  C1_4 
REMARK    2  A    between atoms: C3_8  and  C4_9 
REMARK    3  A    between atoms: C5_10  and  N3_11 
REMARK    4  A    between atoms: C6_18  and  N7_19 
REMARK       I    between atoms: N7_19  and  C7_21 
REMARK       I    between atoms: C7_21  and  N8_22 
REMARK       I    between atoms: C7_21  and  N9_26 
ROOT
HETATM    1  N3  UNL     1      -0.751  -0.097   0.356  1.00  0.00    -0.081 N 
HETATM    2  N4  UNL     1      -0.435  -1.135   1.112  1.00  0.00    -0.207 N 
ATOM      3  H4  UNL     1       0.518  -1.393   1.369  1.00  0.00     0.211 HD
HETATM    4  N5  UNL     1      -1.501  -1.786   1.486  1.00  0.00    -0.213 N 
ATOM      5  H5  UNL     1      -1.519  -2.620   2.072  1.00  0.00     0.210 HD
HETATM    6  N6  UNL     1      -2.549  -1.177   0.974  1.00  0.00    -0.115 N 
ATOM      7  H6  UNL     1      -3.521  -1.461   1.097  1.00  0.00     0.207 HD
HETATM    8  C6  UNL     1      -2.128  -0.123   0.265  1.00  0.00     0.719 A 
ENDROOT
BRANCH   1   9
HETATM    9  C5  UNL     1       0.035   0.881  -0.284  1.00  0.00     0.138 C 
HETATM   10  C4  UNL     1       1.259   1.099  -0.519  1.00  0.00     0.038 C 
BRANCH  10  11
HETATM   11  C3  UNL     1       2.473   0.421  -0.245  1.00  0.00     0.050 A 
HETATM   12  C2  UNL     1       2.596  -0.908  -0.006  1.00  0.00     0.123 A 
HETATM   13  N2  UNL     1       3.794  -1.461   0.348  1.00  0.00    -0.201 N 
HETATM   14  C1  UNL     1       4.921  -0.755   0.483  1.00  0.00     0.678 A 
ATOM     15  H2  UNL     1       3.830  -2.466   0.518  1.00  0.00     0.183 HD
HETATM   16  N10 UNL     1       4.816   0.563   0.247  1.00  0.00    -0.156 N 
HETATM   17  C8  UNL     1       3.677   1.153  -0.098  1.00  0.00     0.271 A 
ATOM     18  H10 UNL     1       5.653   1.140   0.337  1.00  0.00     0.187 HD
HETATM   19  O1  UNL     1       3.612   2.392  -0.312  1.00  0.00    -0.267 OA
BRANCH  14  20
HETATM   20  N1  UNL     1       6.026  -1.323   0.820  1.00  0.00    -0.234 N 
ATOM     21  H12 UNL     1       6.106  -2.324   0.999  1.00  0.00     0.174 HD
ATOM     22  H11 UNL     1       6.886  -0.784   0.923  1.00  0.00     0.174 HD
ENDBRANCH  14  20
ENDBRANCH  10  11
ENDBRANCH   1   9
BRANCH   8  23
HETATM   23  N7  UNL     1      -2.848   0.725  -0.392  1.00  0.00    -0.170 N 
HETATM   24  C7  UNL     1      -4.286   0.635  -0.443  1.00  0.00     0.494 C 
HETATM   25  N8  UNL     1      -4.804   0.776   0.889  1.00  0.00    -0.032 N 
HETATM   26  N9  UNL     1      -4.681  -0.579  -1.040  1.00  0.00    -0.032 N 
ATOM     27  H83 UNL     1      -4.394   0.106   1.540  1.00  0.00     0.278 HD
ATOM     28  H82 UNL     1      -4.482   1.630   1.344  1.00  0.00     0.278 HD
ATOM     29  H81 UNL     1      -5.821   0.712   0.853  1.00  0.00     0.278 HD
ATOM     30  H93 UNL     1      -4.260  -0.705  -1.960  1.00  0.00     0.278 HD
ATOM     31  H92 UNL     1      -4.266  -1.385  -0.572  1.00  0.00     0.278 HD
ATOM     32  H91 UNL     1      -5.698  -0.643  -1.076  1.00  0.00     0.278 HD
ATOM     33  H7  UNL     1      -2.384   1.484  -0.891  1.00  0.00     0.181 HD
ENDBRANCH   8  23
TORSDOF 4
