REMARK  4 active torsions:
REMARK  status: ('A' for Active; 'I' for Inactive)
REMARK       I    between atoms: N1_2  and  C2_4 
REMARK    1  A    between atoms: C2_4  and  C3_6 
REMARK    2  A    between atoms: C3_6  and  N2_7 
REMARK    3  A    between atoms: C5_9  and  C6_10 
REMARK    4  A    between atoms: C7_15  and  N5_16 
ROOT
HETATM    1  N2  UNL     1       0.105  -0.860   0.938  1.00  0.00    -0.169 N 
HETATM    2  C4  UNL     1      -1.112  -0.538   0.481  1.00  0.00     0.129 A 
HETATM    3  C5  UNL     1      -1.763   0.606   0.110  1.00  0.00     0.145 A 
HETATM    4  N4  UNL     1      -3.060   0.514  -0.310  1.00  0.00    -0.184 N 
ATOM      5  H4  UNL     1      -3.550   1.364  -0.590  1.00  0.00     0.184 HD
HETATM    6  C7  UNL     1      -3.710  -0.661  -0.366  1.00  0.00     0.678 A 
HETATM    7  N6  UNL     1      -3.097  -1.815  -0.004  1.00  0.00    -0.174 N 
ATOM      8  H6  UNL     1      -3.619  -2.690  -0.058  1.00  0.00     0.186 HD
HETATM    9  C8  UNL     1      -1.830  -1.842   0.422  1.00  0.00     0.166 A 
HETATM   10  N7  UNL     1      -0.980  -2.793   0.843  1.00  0.00    -0.174 N 
ATOM     11  H7  UNL     1      -1.189  -3.789   0.912  1.00  0.00     0.186 HD
HETATM   12  C9  UNL     1       0.181  -2.221   1.156  1.00  0.00     0.680 A 
HETATM   13  N8  UNL     1       1.234  -2.833   1.599  1.00  0.00    -0.234 N 
ATOM     14  H81 UNL     1       1.290  -3.839   1.760  1.00  0.00     0.174 HD
ATOM     15  H82 UNL     1       2.123  -2.395   1.839  1.00  0.00     0.174 HD
ENDROOT
BRANCH   1  16
HETATM   16  C3  UNL     1       1.226   0.005   1.153  1.00  0.00     0.250 C 
BRANCH  16  17
HETATM   17  C2  UNL     1       2.152   0.044  -0.039  1.00  0.00     0.236 C 
HETATM   18  N1  UNL     1       3.310   0.858   0.019  1.00  0.00    -0.364 N 
HETATM   19  C1  UNL     1       4.236   0.946  -1.074  1.00  0.00     0.149 C 
ATOM     20  H1  UNL     1       3.491   1.399   0.865  1.00  0.00     0.161 HD
HETATM   21  O1  UNL     1       1.846  -0.646  -1.018  1.00  0.00    -0.272 OA
ENDBRANCH  16  17
ENDBRANCH   1  16
BRANCH   3  22
HETATM   22  C6  UNL     1      -1.162   1.904   0.159  1.00  0.00     0.284 C 
HETATM   23  N3  UNL     1      -0.419   2.487  -0.891  1.00  0.00    -0.056 NA
HETATM   24  O2  UNL     1      -1.319   2.582   1.238  1.00  0.00    -0.269 OA
ENDBRANCH   3  22
BRANCH   6  25
HETATM   25  N5  UNL     1      -4.936  -0.735  -0.765  1.00  0.00    -0.234 N 
ATOM     26  H52 UNL     1      -5.397   0.133  -1.037  1.00  0.00     0.174 HD
ATOM     27  H51 UNL     1      -5.429  -1.627  -0.808  1.00  0.00     0.174 HD
ENDBRANCH   6  25
TORSDOF 4
