REMARK  7 active torsions:
REMARK  status: ('A' for Active; 'I' for Inactive)
REMARK    1  A    between atoms: O1_2  and  C2_3 
REMARK    2  A    between atoms: C2_3  and  C3_4 
REMARK    3  A    between atoms: C3_4  and  N1_5 
REMARK    4  A    between atoms: N1_5  and  C4_8 
REMARK    5  A    between atoms: C4_8  and  C5_9 
REMARK    6  A    between atoms: C5_9  and  O2_10 
REMARK    7  A    between atoms: C9_16  and  O4_17 
ROOT
HETATM    1  C4  UNL     1      -0.543  -0.383  -0.085  1.00  0.00     0.151 C 
HETATM    2  C6  UNL     1      -0.519   1.077   0.094  1.00  0.00     0.043 C 
HETATM    3  C7  UNL     1      -1.681   1.830  -0.471  1.00  0.00     0.029 C 
HETATM    4  C8  UNL     1      -2.934   1.635   0.390  1.00  0.00     0.171 C 
HETATM    5  O3  UNL     1      -3.301   0.308   0.162  1.00  0.00    -0.361 OA
HETATM    6  C9  UNL     1      -2.755  -0.455   1.148  1.00  0.00     0.259 C 
HETATM    7  C10 UNL     1      -1.473  -1.104   0.893  1.00  0.00     0.101 C 
ENDROOT
BRANCH   1   8
HETATM    8  N1  UNL     1       0.755  -0.928   0.261  1.00  0.00    -0.062 N 
ATOM      9  H12 UNL     1       0.843  -1.883  -0.086  1.00  0.00     0.278 HD
ATOM     10  H11 UNL     1       0.812  -1.100   1.265  1.00  0.00     0.278 HD
BRANCH   8  11
HETATM   11  C3  UNL     1       1.869  -0.133  -0.174  1.00  0.00     0.259 C 
BRANCH  11  12
HETATM   12  C2  UNL     1       3.062  -1.062  -0.164  1.00  0.00     0.194 C 
BRANCH  12  13
HETATM   13  O1  UNL     1       4.181  -0.389  -0.577  1.00  0.00    -0.394 OA
HETATM   14  C1  UNL     1       4.527   0.680   0.198  1.00  0.00     0.201 C 
ENDBRANCH  12  13
ENDBRANCH  11  12
ENDBRANCH   8  11
ENDBRANCH   1   8
BRANCH   1  15
HETATM   15  C5  UNL     1      -0.933  -0.851  -1.455  1.00  0.00     0.203 C 
BRANCH  15  16
HETATM   16  O2  UNL     1      -0.109  -0.509  -2.473  1.00  0.00    -0.398 OA
ATOM     17  H2  UNL     1      -0.356  -0.806  -3.341  1.00  0.00     0.209 HD
ENDBRANCH  15  16
ENDBRANCH   1  15
BRANCH   6  18
HETATM   18  O4  UNL     1      -3.705  -1.451   1.482  1.00  0.00    -0.371 OA
ATOM     19  H4  UNL     1      -3.324  -1.984   2.170  1.00  0.00     0.212 HD
ENDBRANCH   6  18
TORSDOF 7
