REMARK  2 active torsions:
REMARK  status: ('A' for Active; 'I' for Inactive)
REMARK    1  A    between atoms: O1_1  and  C1_3 
REMARK    2  A    between atoms: C9_11  and  O2_12 
ROOT
HETATM    1  C1  UNL     1       4.093   0.989   0.568  1.00  0.00     0.066 A 
HETATM    2  C2  UNL     1       4.609  -0.060  -0.163  1.00  0.00     0.039 A 
HETATM    3  C3  UNL     1       3.728  -0.977  -0.737  1.00  0.00     0.040 A 
HETATM    4  C4  UNL     1       2.370  -0.882  -0.606  1.00  0.00     0.080 A 
HETATM    5  C5  UNL     1       1.857   0.181   0.135  1.00  0.00     0.011 A 
HETATM    6  C6  UNL     1       2.721   1.089   0.702  1.00  0.00     0.051 A 
HETATM    7  C7  UNL     1       0.406   0.241   0.247  1.00  0.00    -0.009 A 
HETATM    8  C8  UNL     1      -0.121   1.283   0.973  1.00  0.00     0.052 A 
HETATM    9  C9  UNL     1      -1.514   1.361   1.095  1.00  0.00     0.102 A 
HETATM   10  C10 UNL     1      -2.349   0.435   0.513  1.00  0.00     0.136 A 
HETATM   11  C11 UNL     1      -1.812  -0.600  -0.210  1.00  0.00     0.114 A 
HETATM   12  C12 UNL     1      -0.439  -0.689  -0.338  1.00  0.00     0.013 A 
HETATM   13  C13 UNL     1       0.123  -1.799  -1.112  1.00  0.00     0.218 A 
HETATM   14  O3  UNL     1       1.499  -1.794  -1.176  1.00  0.00    -0.346 OA
HETATM   15  O4  UNL     1      -2.619  -1.529  -0.795  1.00  0.00    -0.345 OA
HETATM   16  C14 UNL     1      -4.037  -1.506  -0.701  1.00  0.00     0.202 C 
HETATM   17  C15 UNL     1      -4.551  -0.132  -0.365  1.00  0.00     0.202 C 
HETATM   18  O5  UNL     1      -3.746   0.513   0.634  1.00  0.00    -0.344 OA
ENDROOT
BRANCH   1  19
HETATM   19  O1  UNL     1       4.989   1.887   1.127  1.00  0.00    -0.361 OA
ATOM     20  H1  UNL     1       4.633   2.610   1.631  1.00  0.00     0.217 HD
ENDBRANCH   1  19
BRANCH   9  21
HETATM   21  O2  UNL     1      -2.100   2.395   1.818  1.00  0.00    -0.358 OA
ATOM     22  H2  UNL     1      -3.045   2.448   1.901  1.00  0.00     0.217 HD
ENDBRANCH   9  21
TORSDOF 2
