REMARK  8 active torsions:
REMARK  status: ('A' for Active; 'I' for Inactive)
REMARK    1  A    between atoms: C2_2  and  O1_3 
REMARK    2  A    between atoms: C2_2  and  C3_5 
REMARK    3  A    between atoms: C3_5  and  C4_6 
REMARK    4  A    between atoms: C3_5  and  O3_10 
REMARK    5  A    between atoms: C4_6  and  C5_7 
REMARK    6  A    between atoms: C5_7  and  O2_8 
REMARK    7  A    between atoms: O3_10  and  C6_11 
REMARK    8  A    between atoms: C9_14  and  N1_15 
ROOT
HETATM    1  C6  UNL     1       0.381   0.064  -0.539  1.00  0.00     0.267 C 
HETATM    2  C7  UNL     1       1.424  -1.097  -0.782  1.00  0.00     0.063 C 
HETATM    3  C8  UNL     1       2.765  -0.477  -0.885  1.00  0.00     0.040 C 
HETATM    4  C9  UNL     1       3.090   0.000   0.545  1.00  0.00     0.207 C 
HETATM    5  C10 UNL     1       1.842   0.441   1.262  1.00  0.00     0.203 C 
HETATM    6  O4  UNL     1       0.869   0.904   0.427  1.00  0.00    -0.359 OA
ENDROOT
BRANCH   1   7
HETATM    7  O3  UNL     1      -0.783  -0.556  -0.419  1.00  0.00    -0.310 OA
BRANCH   7   8
HETATM    8  C3  UNL     1      -2.105  -0.396  -0.256  1.00  0.00     0.147 C 
BRANCH   8   9
HETATM    9  C2  UNL     1      -2.819  -1.718  -0.112  1.00  0.00     0.097 C 
HETATM   10  C1  UNL     1      -2.061  -2.816  -0.152  1.00  0.00     0.054 C 
BRANCH   9  11
HETATM   11  O1  UNL     1      -4.164  -1.791   0.066  1.00  0.00    -0.358 OA
ATOM     12  H1  UNL     1      -4.703  -1.010   0.094  1.00  0.00     0.217 HD
ENDBRANCH   9  11
ENDBRANCH   8   9
BRANCH   8  13
HETATM   13  C4  UNL     1      -2.655   0.707  -0.246  1.00  0.00    -0.091 C 
BRANCH  13  14
HETATM   14  C5  UNL     1      -3.297   1.991  -0.234  1.00  0.00     0.251 C 
BRANCH  14  15
HETATM   15  O2  UNL     1      -2.786   2.751   0.872  1.00  0.00    -0.390 OA
ATOM     16  H2  UNL     1      -3.211   3.601   0.880  1.00  0.00     0.210 HD
ENDBRANCH  14  15
ENDBRANCH  13  14
ENDBRANCH   8  13
ENDBRANCH   7   8
ENDBRANCH   1   7
BRANCH   4  17
HETATM   17  N1  UNL     1       4.019   1.100   0.464  1.00  0.00    -0.073 N 
ATOM     18  H13 UNL     1       4.856   0.866  -0.069  1.00  0.00     0.274 HD
ATOM     19  H12 UNL     1       3.679   1.855  -0.132  1.00  0.00     0.274 HD
ATOM     20  H11 UNL     1       4.234   1.416   1.410  1.00  0.00     0.274 HD
ENDBRANCH   4  17
TORSDOF 8
