REMARK  4 active torsions:
REMARK  status: ('A' for Active; 'I' for Inactive)
REMARK    1  A    between atoms: C10_11  and  C11_12 
REMARK    2  A    between atoms: C11_12  and  C12_13 
REMARK    3  A    between atoms: C12_13  and  O2_14 
REMARK    4  A    between atoms: C13_16  and  O3_17 
ROOT
HETATM    1  C1  UNL     1      -2.904  -0.997  -1.201  1.00  0.00     0.020 C 
HETATM    2  C2  UNL     1      -2.114  -0.515  -0.032  1.00  0.00    -0.016 C 
HETATM    3  C3  UNL     1      -2.071  -1.668   0.980  1.00  0.00     0.020 C 
HETATM    4  C4  UNL     1      -2.853   0.627   0.616  1.00  0.00     0.040 C 
HETATM    5  C5  UNL     1      -2.085   1.297   1.702  1.00  0.00     0.176 C 
HETATM    6  O1  UNL     1      -0.709   0.894   1.769  1.00  0.00    -0.348 OA
HETATM    7  C6  UNL     1      -0.028   0.559   0.601  1.00  0.00     0.109 A 
HETATM    8  C7  UNL     1      -0.709  -0.156  -0.354  1.00  0.00    -0.014 A 
HETATM    9  C8  UNL     1      -0.077  -0.507  -1.526  1.00  0.00     0.011 A 
HETATM   10  C9  UNL     1       1.233  -0.142  -1.735  1.00  0.00     0.011 A 
HETATM   11  C10 UNL     1       1.952   0.577  -0.795  1.00  0.00    -0.020 A 
HETATM   12  C13 UNL     1       1.296   0.924   0.380  1.00  0.00     0.105 A 
ENDROOT
BRANCH  11  13
HETATM   13  C11 UNL     1       3.359   0.911  -1.035  1.00  0.00     0.067 C 
BRANCH  13  14
HETATM   14  C12 UNL     1       4.231  -0.117  -0.365  1.00  0.00     0.168 C 
BRANCH  14  15
HETATM   15  O2  UNL     1       4.019  -0.160   0.984  1.00  0.00    -0.401 OA
ATOM     16  H2  UNL     1       4.569  -0.809   1.407  1.00  0.00     0.209 HD
ENDBRANCH  14  15
ENDBRANCH  13  14
ENDBRANCH  11  13
BRANCH  12  17
HETATM   17  O3  UNL     1       1.942   1.647   1.369  1.00  0.00    -0.357 OA
ATOM     18  H3  UNL     1       2.846   1.896   1.218  1.00  0.00     0.217 HD
ENDBRANCH  12  17
TORSDOF 4
