REMARK  4 active torsions:
REMARK  status: ('A' for Active; 'I' for Inactive)
REMARK    1  A    between atoms: O1_2  and  C2_3 
REMARK    2  A    between atoms: C4_5  and  C5_6 
REMARK    3  A    between atoms: C11_12  and  O2_13 
REMARK    4  A    between atoms: C12_15  and  O3_16 
ROOT
HETATM    1  C2  UNL     1      -1.586   0.515  -0.155  1.00  0.00     0.105 A 
HETATM    2  C3  UNL     1      -0.225   0.737  -0.154  1.00  0.00     0.052 A 
HETATM    3  C4  UNL     1       0.673  -0.175   0.358  1.00  0.00    -0.021 A 
HETATM    4  C10 UNL     1       0.165  -1.345   0.882  1.00  0.00     0.052 A 
HETATM    5  C11 UNL     1      -1.187  -1.607   0.902  1.00  0.00     0.102 A 
HETATM    6  C12 UNL     1      -2.071  -0.679   0.384  1.00  0.00     0.135 A 
ENDROOT
BRANCH   3   7
HETATM    7  C5  UNL     1       2.117   0.097   0.340  1.00  0.00    -0.029 A 
HETATM    8  C6  UNL     1       3.096  -0.667   0.787  1.00  0.00    -0.011 A 
HETATM    9  C7  UNL     1       4.414  -0.003   0.570  1.00  0.00     0.055 A 
HETATM   10  C8  UNL     1       4.035   1.267  -0.073  1.00  0.00    -0.022 A 
HETATM   11  C9  UNL     1       2.742   1.302  -0.192  1.00  0.00     0.008 A 
ENDBRANCH   3   7
BRANCH   1  12
HETATM   12  O1  UNL     1      -2.482   1.439  -0.672  1.00  0.00    -0.353 OA
HETATM   13  C1  UNL     1      -1.961   2.634  -1.207  1.00  0.00     0.210 C 
ENDBRANCH   1  12
BRANCH   5  14
HETATM   14  O2  UNL     1      -1.671  -2.808   1.444  1.00  0.00    -0.358 OA
ATOM     15  H2  UNL     1      -2.604  -2.989   1.458  1.00  0.00     0.217 HD
ENDBRANCH   5  14
BRANCH   6  16
HETATM   16  O3  UNL     1      -3.448  -0.901   0.382  1.00  0.00    -0.351 OA
HETATM   17  C13 UNL     1      -4.090  -1.542  -0.704  1.00  0.00     0.210 C 
ENDBRANCH   6  16
TORSDOF 4
