REMARK  6 active torsions:
REMARK  status: ('A' for Active; 'I' for Inactive)
REMARK    1  A    between atoms: C2_2  and  C3_3 
REMARK    2  A    between atoms: C5_5  and  O1_6 
REMARK    3  A    between atoms: O1_6  and  C6_7 
REMARK    4  A    between atoms: C6_7  and  C7_8 
REMARK    5  A    between atoms: C7_8  and  O2_9 
REMARK    6  A    between atoms: C8_11  and  O3_12 
ROOT
HETATM    1  C3  UNL     1      -0.780   0.961   0.459  1.00  0.00    -0.027 A 
HETATM    2  C4  UNL     1       0.513   0.845   0.002  1.00  0.00     0.051 A 
HETATM    3  C5  UNL     1       0.963  -0.211  -0.770  1.00  0.00     0.103 A 
HETATM    4  C8  UNL     1       0.005  -1.197  -1.080  1.00  0.00     0.105 A 
HETATM    5  C9  UNL     1      -1.294  -1.105  -0.636  1.00  0.00    -0.015 A 
HETATM    6  C10 UNL     1      -1.699  -0.043   0.128  1.00  0.00    -0.039 A 
HETATM    7  C11 UNL     1      -3.148  -0.172   0.495  1.00  0.00     0.040 C 
HETATM    8  C12 UNL     1      -3.315  -1.700   0.387  1.00  0.00     0.009 C 
HETATM    9  C13 UNL     1      -2.488  -2.000  -0.832  1.00  0.00     0.042 C 
ENDROOT
BRANCH   3  10
HETATM   10  O1  UNL     1       2.245  -0.359  -1.239  1.00  0.00    -0.346 OA
BRANCH  10  11
HETATM   11  C6  UNL     1       3.342   0.425  -1.053  1.00  0.00     0.201 C 
BRANCH  11  12
HETATM   12  C7  UNL     1       3.876   0.583   0.338  1.00  0.00     0.190 C 
BRANCH  12  13
HETATM   13  O2  UNL     1       4.252  -0.672   0.878  1.00  0.00    -0.399 OA
ATOM     14  H2  UNL     1       4.591  -0.572   1.760  1.00  0.00     0.209 HD
ENDBRANCH  12  13
ENDBRANCH  11  12
ENDBRANCH  10  11
ENDBRANCH   3  10
BRANCH   4  15
HETATM   15  O3  UNL     1       0.429  -2.277  -1.860  1.00  0.00    -0.357 OA
ATOM     16  H3  UNL     1      -0.217  -2.942  -2.069  1.00  0.00     0.217 HD
ENDBRANCH   4  15
BRANCH   1  17
HETATM   17  C2  UNL     1      -1.252   2.070   1.273  1.00  0.00     0.002 C 
HETATM   18  C1  UNL     1      -0.441   3.035   1.627  1.00  0.00     0.012 C 
ENDBRANCH   1  17
TORSDOF 6
