REMARK  5 active torsions:
REMARK  status: ('A' for Active; 'I' for Inactive)
REMARK    1  A    between atoms: O1_1  and  C1_3 
REMARK    2  A    between atoms: C1_3  and  C2_4 
REMARK    3  A    between atoms: C5_7  and  C6_8 
REMARK    4  A    between atoms: C6_8  and  O2_9 
REMARK    5  A    between atoms: C6_8  and  C7_11 
ROOT
HETATM    1  C6  UNL     1       0.357   1.172  -0.808  1.00  0.00     0.179 C 
ENDROOT
BRANCH   1   2
HETATM    2  C5  UNL     1       1.650   0.701  -0.231  1.00  0.00     0.082 A 
HETATM    3  C4  UNL     1       2.069   1.032   1.034  1.00  0.00     0.038 A 
HETATM    4  C3  UNL     1       3.290   0.414   1.193  1.00  0.00     0.037 A 
HETATM    5  C2  UNL     1       3.579  -0.270   0.032  1.00  0.00     0.076 A 
HETATM    6  O3  UNL     1       2.557  -0.064  -0.795  1.00  0.00    -0.315 OA
BRANCH   5   7
HETATM    7  C1  UNL     1       4.797  -1.072  -0.223  1.00  0.00     0.229 C 
BRANCH   7   8
HETATM    8  O1  UNL     1       5.599  -1.026   0.891  1.00  0.00    -0.394 OA
ATOM      9  H1  UNL     1       6.381  -1.541   0.727  1.00  0.00     0.209 HD
ENDBRANCH   7   8
ENDBRANCH   5   7
ENDBRANCH   1   2
BRANCH   1  10
HETATM   10  O2  UNL     1       0.119   2.514  -0.545  1.00  0.00    -0.389 OA
ATOM     11  H2  UNL     1      -0.704   2.814  -0.912  1.00  0.00     0.210 HD
ENDBRANCH   1  10
BRANCH   1  12
HETATM   12  C7  UNL     1      -0.810   0.271  -0.453  1.00  0.00     0.021 C 
HETATM   13  C8  UNL     1      -0.974   0.213   1.001  1.00  0.00     0.007 C 
HETATM   14  C9  UNL     1      -2.222  -0.292   1.574  1.00  0.00     0.000 C 
HETATM   15  C10 UNL     1      -3.405  -0.407   0.672  1.00  0.00     0.000 C 
HETATM   16  C11 UNL     1      -3.058  -1.317  -0.486  1.00  0.00     0.000 C 
HETATM   17  C12 UNL     1      -2.879  -0.437  -1.694  1.00  0.00     0.000 C 
HETATM   18  C13 UNL     1      -1.993   0.732  -1.244  1.00  0.00     0.007 C 
ENDBRANCH   1  12
TORSDOF 5
