REMARK  9 active torsions:
REMARK  status: ('A' for Active; 'I' for Inactive)
REMARK    1  A    between atoms: C4_5  and  N1_6 
REMARK    2  A    between atoms: N1_6  and  C5_8 
REMARK    3  A    between atoms: C6_11  and  N3_12 
REMARK    4  A    between atoms: N3_12  and  C7_14 
REMARK    5  A    between atoms: C7_14  and  C8_15 
REMARK    6  A    between atoms: C8_15  and  C9_16 
REMARK    7  A    between atoms: C14_25  and  N6_26 
REMARK    8  A    between atoms: N6_26  and  C15_28 
REMARK    9  A    between atoms: C15_28  and  C16_29 
ROOT
HETATM    1  C5  UNL     1       0.365   2.380   0.512  1.00  0.00     0.713 A 
HETATM    2  N2  UNL     1      -0.593   1.538   0.935  1.00  0.00    -0.021 N 
ATOM      3  H2  UNL     1      -1.349   1.924   1.500  1.00  0.00     0.203 HD
HETATM    4  C6  UNL     1      -0.624   0.213   0.663  1.00  0.00     0.707 A 
HETATM    5  N5  UNL     1       0.380  -0.278  -0.083  1.00  0.00    -0.022 N 
ATOM      6  H5  UNL     1       0.398  -1.271  -0.315  1.00  0.00     0.203 HD
HETATM    7  C14 UNL     1       1.374   0.538  -0.533  1.00  0.00     0.707 A 
HETATM    8  N7  UNL     1       1.372   1.838  -0.245  1.00  0.00    -0.021 N 
ATOM      9  H7  UNL     1       2.124   2.435  -0.590  1.00  0.00     0.203 HD
ENDROOT
BRANCH   4  10
HETATM   10  N3  UNL     1      -1.588  -0.493   1.134  1.00  0.00    -0.225 N 
ATOM     11  H3  UNL     1      -2.297  -0.026   1.699  1.00  0.00     0.177 HD
BRANCH  10  12
HETATM   12  C7  UNL     1      -1.720  -1.898   0.909  1.00  0.00     0.144 C 
BRANCH  12  13
HETATM   13  C8  UNL     1      -2.644  -2.196  -0.249  1.00  0.00     0.077 C 
BRANCH  13  14
HETATM   14  C9  UNL     1      -4.031  -1.760  -0.012  1.00  0.00     0.010 A 
HETATM   15  C10 UNL     1      -4.511  -1.247   1.174  1.00  0.00     0.025 A 
HETATM   16  C11 UNL     1      -5.833  -0.858   1.268  1.00  0.00     0.003 A 
HETATM   17  C12 UNL     1      -6.694  -0.967   0.213  1.00  0.00     0.017 A 
HETATM   18  C13 UNL     1      -6.181  -1.485  -0.964  1.00  0.00     0.088 A 
HETATM   19  N4  UNL     1      -4.902  -1.852  -1.031  1.00  0.00    -0.369 N 
ATOM     20  H4  UNL     1      -4.561  -2.228  -1.916  1.00  0.00     0.165 HD
ENDBRANCH  13  14
ENDBRANCH  12  13
ENDBRANCH  10  12
ENDBRANCH   4  10
BRANCH   1  21
HETATM   21  N1  UNL     1       0.413   3.602   0.712  1.00  0.00    -0.175 N 
ATOM     22  H1  UNL     1       1.243   4.029   0.301  1.00  0.00     0.186 HD
BRANCH  21  23
HETATM   23  C4  UNL     1      -0.379   4.518   1.352  1.00  0.00     0.120 A 
HETATM   24  C3  UNL     1      -0.807   4.288   2.659  1.00  0.00     0.050 A 
HETATM   25  C2  UNL     1      -1.589   5.250   3.263  1.00  0.00     0.024 A 
HETATM   26  C1  UNL     1      -1.941   6.397   2.605  1.00  0.00     0.026 A 
HETATM   27 BR1  UNL     1      -3.029   7.767   3.436  1.00  0.00    -0.050 Br
HETATM   28  C21 UNL     1      -1.507   6.604   1.312  1.00  0.00     0.108 A 
HETATM   29  N8  UNL     1      -0.752   5.678   0.729  1.00  0.00    -0.351 N 
ATOM     30  H8  UNL     1      -0.436   5.840  -0.227  1.00  0.00     0.166 HD
ENDBRANCH  21  23
ENDBRANCH   1  21
BRANCH   7  31
HETATM   31  N6  UNL     1       2.307   0.074  -1.265  1.00  0.00    -0.223 N 
ATOM     32  H6  UNL     1       3.043   0.701  -1.591  1.00  0.00     0.177 HD
BRANCH  31  33
HETATM   33  C15 UNL     1       2.347  -1.319  -1.644  1.00  0.00     0.170 C 
BRANCH  33  34
HETATM   34  C16 UNL     1       3.634  -1.594  -2.450  1.00  0.00     0.139 C 
HETATM   35  C17 UNL     1       4.841  -1.141  -1.687  1.00  0.00     0.034 C 
HETATM   36  C18 UNL     1       5.817  -2.182  -1.301  1.00  0.00     0.005 C 
HETATM   37  C19 UNL     1       5.398  -3.599  -1.412  1.00  0.00     0.026 C 
HETATM   38  C20 UNL     1       4.001  -3.824  -1.897  1.00  0.00     0.168 C 
HETATM   39  O1  UNL     1       3.653  -2.905  -2.839  1.00  0.00    -0.384 OA
ENDBRANCH  33  34
ENDBRANCH  31  33
ENDBRANCH   7  31
TORSDOF 9
