REMARK  7 active torsions:
REMARK  status: ('A' for Active; 'I' for Inactive)
REMARK    1  A    between atoms: O1_2  and  C2_3 
REMARK    2  A    between atoms: C4_5  and  N1_6 
REMARK    3  A    between atoms: C7_9  and  N2_10 
REMARK    4  A    between atoms: N2_10  and  S1_12 
REMARK    5  A    between atoms: S1_12  and  C8_15 
REMARK    6  A    between atoms: C16_23  and  N3_24 
REMARK    7  A    between atoms: N3_24  and  C17_26 
ROOT
HETATM    1  C17 UNL     1      -5.487  -0.580  -0.909  1.00  0.00     0.684 A 
HETATM    2  N4  UNL     1      -6.766  -0.790  -1.219  1.00  0.00    -0.200 N 
ATOM      3  H4  UNL     1      -7.060  -1.634  -1.711  1.00  0.00     0.183 HD
HETATM    4  C18 UNL     1      -7.650   0.148  -0.861  1.00  0.00     0.134 A 
HETATM    5  C19 UNL     1      -7.275   1.320  -0.182  1.00  0.00     0.095 A 
HETATM    6 CL1  UNL     1      -8.486   2.499   0.253  1.00  0.00    -0.079 Cl
HETATM    7  C20 UNL     1      -5.956   1.528   0.134  1.00  0.00     0.153 A 
HETATM    8  N5  UNL     1      -5.477   2.533   0.741  1.00  0.00    -0.277 N 
ATOM      9  H5  UNL     1      -4.468   2.516   0.890  1.00  0.00     0.179 HD
HETATM   10  C21 UNL     1      -6.113   3.617   1.215  1.00  0.00     0.183 C 
HETATM   11  N6  UNL     1      -6.633   4.570   1.638  1.00  0.00    -0.172 NA
HETATM   12  N7  UNL     1      -5.107   0.520  -0.266  1.00  0.00    -0.174 N 
ATOM     13  H7  UNL     1      -4.115   0.625  -0.054  1.00  0.00     0.186 HD
ENDROOT
BRANCH   1  14
HETATM   14  N3  UNL     1      -4.557  -1.449  -1.223  1.00  0.00    -0.189 N 
ATOM     15  H3  UNL     1      -4.815  -2.304  -1.716  1.00  0.00     0.184 HD
BRANCH  14  16
HETATM   16  C16 UNL     1      -3.186  -1.218  -0.886  1.00  0.00     0.083 A 
HETATM   17  C2  UNL     1      -2.656  -1.726   0.283  1.00  0.00     0.097 A 
HETATM   18  C3  UNL     1      -1.331  -1.479   0.567  1.00  0.00     0.069 A 
HETATM   19  C4  UNL     1      -0.501  -0.735  -0.282  1.00  0.00     0.038 A 
HETATM   20  C13 UNL     1      -1.033  -0.238  -1.433  1.00  0.00    -0.033 A 
HETATM   21  C14 UNL     1      -0.204   0.549  -2.374  1.00  0.00     0.050 C 
HETATM   22  C15 UNL     1      -2.384  -0.484  -1.732  1.00  0.00     0.042 A 
BRANCH  17  23
HETATM   23  O1  UNL     1      -3.472  -2.469   1.136  1.00  0.00    -0.354 OA
HETATM   24  C1  UNL     1      -3.035  -3.025   2.337  1.00  0.00     0.210 C 
ENDBRANCH  17  23
BRANCH  19  25
HETATM   25  N1  UNL     1       0.859  -0.504   0.067  1.00  0.00    -0.380 N 
HETATM   26  C5  UNL     1       1.417   0.773   0.336  1.00  0.00     0.125 C 
HETATM   27  C6  UNL     1       2.759   0.948  -0.301  1.00  0.00     0.045 C 
HETATM   28  C7  UNL     1       3.638  -0.229   0.035  1.00  0.00     0.096 C 
HETATM   29  C11 UNL     1       2.945  -1.435  -0.646  1.00  0.00     0.045 C 
HETATM   30  C12 UNL     1       1.701  -1.690   0.163  1.00  0.00     0.125 C 
BRANCH  28  31
HETATM   31  N2  UNL     1       4.991  -0.121  -0.449  1.00  0.00    -0.314 N 
ATOM     32  H2  UNL     1       5.250   0.107  -1.409  1.00  0.00     0.172 HD
BRANCH  31  33
HETATM   33  S1  UNL     1       6.106  -0.431   0.820  1.00  0.00     0.231 S 
HETATM   34  O2  UNL     1       5.320  -0.835   2.060  1.00  0.00    -0.206 OA
HETATM   35  O3  UNL     1       7.049  -1.567   0.438  1.00  0.00    -0.206 OA
BRANCH  33  36
HETATM   36  C8  UNL     1       7.057   1.011   1.191  1.00  0.00     0.129 A 
HETATM   37  C9  UNL     1       7.430   1.918   0.074  1.00  0.00     0.023 A 
HETATM   38  C10 UNL     1       6.443   2.383   1.104  1.00  0.00     0.023 A 
ENDBRANCH  33  36
ENDBRANCH  31  33
ENDBRANCH  28  31
ENDBRANCH  19  25
ENDBRANCH  14  16
ENDBRANCH   1  14
TORSDOF 7
