REMARK  8 active torsions:
REMARK  status: ('A' for Active; 'I' for Inactive)
REMARK    1  A    between atoms: C2_2  and  C3_3 
REMARK    2  A    between atoms: C3_3  and  N1_4 
REMARK    3  A    between atoms: N1_4  and  C4_7 
REMARK    4  A    between atoms: C4_7  and  C5_8 
REMARK    5  A    between atoms: C5_8  and  C6_9 
REMARK    6  A    between atoms: C6_9  and  C7_10 
REMARK    7  A    between atoms: C7_10  and  C8_11 
REMARK    8  A    between atoms: C8_11  and  C9_12 
ROOT
HETATM    1  C6  UNL     1       0.232   1.719   1.052  1.00  0.00     0.002 C 
ENDROOT
BRANCH   1   2
HETATM    2  C5  UNL     1       1.504   0.881   0.904  1.00  0.00     0.027 C 
BRANCH   2   3
HETATM    3  C4  UNL     1       2.392   1.544  -0.125  1.00  0.00     0.232 C 
BRANCH   3   4
HETATM    4  N1  UNL     1       3.618   0.817  -0.327  1.00  0.00    -0.072 N 
ATOM      5  H12 UNL     1       4.114   0.707   0.557  1.00  0.00     0.277 HD
ATOM      6  H11 UNL     1       4.290   1.391  -0.836  1.00  0.00     0.277 HD
BRANCH   4   7
HETATM    7  C3  UNL     1       3.462  -0.452  -0.969  1.00  0.00     0.259 C 
BRANCH   7   8
HETATM    8  C2  UNL     1       4.812  -1.089  -1.071  1.00  0.00    -0.010 C 
HETATM    9  C1  UNL     1       5.898  -0.488  -0.605  1.00  0.00     0.008 C 
ENDBRANCH   7   8
ENDBRANCH   4   7
ENDBRANCH   3   4
ENDBRANCH   2   3
ENDBRANCH   1   2
BRANCH   1  10
HETATM   10  C7  UNL     1      -0.688   1.124   2.082  1.00  0.00     0.000 C 
BRANCH  10  11
HETATM   11  C8  UNL     1      -1.129  -0.278   1.752  1.00  0.00     0.004 C 
BRANCH  11  12
HETATM   12  C9  UNL     1      -1.889  -0.351   0.447  1.00  0.00    -0.014 C 
HETATM   13  C10 UNL     1      -2.321  -1.779   0.146  1.00  0.00     0.004 C 
HETATM   14  C11 UNL     1      -2.606  -1.823  -1.357  1.00  0.00     0.000 C 
HETATM   15  C12 UNL     1      -3.479  -0.623  -1.742  1.00  0.00     0.000 C 
HETATM   16  C13 UNL     1      -4.118  -0.017  -0.516  1.00  0.00     0.000 C 
HETATM   17  C14 UNL     1      -3.157   0.477   0.506  1.00  0.00     0.004 C 
ENDBRANCH  11  12
ENDBRANCH  10  11
ENDBRANCH   1  10
TORSDOF 8
