REMARK  9 active torsions:
REMARK  status: ('A' for Active; 'I' for Inactive)
REMARK    1  A    between atoms: N1_1  and  C1_5 
REMARK    2  A    between atoms: C1_5  and  C2_6 
REMARK    3  A    between atoms: C2_6  and  C3_7 
REMARK    4  A    between atoms: C3_7  and  C4_8 
REMARK    5  A    between atoms: C4_8  and  C5_9 
REMARK    6  A    between atoms: C5_9  and  C6_10 
REMARK    7  A    between atoms: C6_10  and  C7_11 
REMARK    8  A    between atoms: C7_11  and  C8_12 
REMARK    9  A    between atoms: C8_12  and  C9_13 
ROOT
HETATM    1  C5  UNL     1      -0.874   0.820   0.379  1.00  0.00     0.000 C 
ENDROOT
BRANCH   1   2
HETATM    2  C4  UNL     1      -2.373   0.702   0.212  1.00  0.00     0.000 C 
BRANCH   2   3
HETATM    3  C3  UNL     1      -2.838  -0.599  -0.300  1.00  0.00     0.002 C 
BRANCH   3   4
HETATM    4  C2  UNL     1      -4.288  -0.803  -0.516  1.00  0.00     0.027 C 
BRANCH   4   5
HETATM    5  C1  UNL     1      -5.212  -0.686   0.643  1.00  0.00     0.229 C 
BRANCH   5   6
HETATM    6  N1  UNL     1      -5.240   0.606   1.248  1.00  0.00    -0.079 N 
ATOM      7  H13 UNL     1      -4.298   0.895   1.514  1.00  0.00     0.274 HD
ATOM      8  H12 UNL     1      -5.452   1.320   0.551  1.00  0.00     0.274 HD
ATOM      9  H11 UNL     1      -5.874   0.686   2.043  1.00  0.00     0.274 HD
ENDBRANCH   5   6
ENDBRANCH   4   5
ENDBRANCH   3   4
ENDBRANCH   2   3
ENDBRANCH   1   2
BRANCH   1  10
HETATM   10  C6  UNL     1      -0.191   0.642  -0.917  1.00  0.00     0.000 C 
BRANCH  10  11
HETATM   11  C7  UNL     1       1.308   0.774  -0.850  1.00  0.00     0.005 C 
BRANCH  11  12
HETATM   12  C8  UNL     1       1.965  -0.212   0.054  1.00  0.00     0.038 C 
BRANCH  12  13
HETATM   13  C9  UNL     1       3.434   0.011   0.041  1.00  0.00    -0.058 A 
HETATM   14  C10 UNL     1       4.268  -0.628  -0.860  1.00  0.00     0.007 A 
HETATM   15  C11 UNL     1       5.621  -0.409  -0.857  1.00  0.00     0.001 A 
HETATM   16  C12 UNL     1       6.198   0.455   0.044  1.00  0.00     0.000 A 
HETATM   17  C13 UNL     1       5.391   1.102   0.948  1.00  0.00     0.001 A 
HETATM   18  C14 UNL     1       4.026   0.881   0.945  1.00  0.00     0.007 A 
ENDBRANCH  12  13
ENDBRANCH  11  12
ENDBRANCH  10  11
ENDBRANCH   1  10
TORSDOF 9
