REMARK  10 active torsions:
REMARK  status: ('A' for Active; 'I' for Inactive)
REMARK    1  A    between atoms: N1_1  and  C1_5 
REMARK    2  A    between atoms: C1_5  and  C2_6 
REMARK    3  A    between atoms: C2_6  and  C3_7 
REMARK    4  A    between atoms: C3_7  and  C4_8 
REMARK    5  A    between atoms: C4_8  and  C5_9 
REMARK    6  A    between atoms: C5_9  and  C6_10 
REMARK    7  A    between atoms: C6_10  and  C7_11 
REMARK    8  A    between atoms: C7_11  and  C8_12 
REMARK    9  A    between atoms: C8_12  and  C9_13 
REMARK   10  A    between atoms: C9_13  and  C10_14 
ROOT
HETATM    1  C5  UNL     1       1.300   0.839  -0.190  1.00  0.00     0.000 C 
ENDROOT
BRANCH   1   2
HETATM    2  C4  UNL     1       2.738   0.854  -0.639  1.00  0.00     0.000 C 
BRANCH   2   3
HETATM    3  C3  UNL     1       3.498  -0.182   0.148  1.00  0.00     0.002 C 
BRANCH   3   4
HETATM    4  C2  UNL     1       4.959  -0.265  -0.209  1.00  0.00     0.027 C 
BRANCH   4   5
HETATM    5  C1  UNL     1       5.718   1.010   0.014  1.00  0.00     0.229 C 
BRANCH   5   6
HETATM    6  N1  UNL     1       5.629   1.373   1.427  1.00  0.00    -0.079 N 
ATOM      7  H13 UNL     1       4.664   1.432   1.753  1.00  0.00     0.274 HD
ATOM      8  H12 UNL     1       5.941   0.622   2.042  1.00  0.00     0.274 HD
ATOM      9  H11 UNL     1       6.145   2.240   1.579  1.00  0.00     0.274 HD
ENDBRANCH   5   6
ENDBRANCH   4   5
ENDBRANCH   3   4
ENDBRANCH   2   3
ENDBRANCH   1   2
BRANCH   1  10
HETATM   10  C6  UNL     1       0.634  -0.498  -0.406  1.00  0.00     0.000 C 
BRANCH  10  11
HETATM   11  C7  UNL     1      -0.826  -0.284   0.116  1.00  0.00     0.000 C 
BRANCH  11  12
HETATM   12  C8  UNL     1      -1.531  -1.569  -0.071  1.00  0.00     0.001 C 
BRANCH  12  13
HETATM   13  C9  UNL     1      -2.920  -1.677   0.392  1.00  0.00     0.008 C 
BRANCH  13  14
HETATM   14  C10 UNL     1      -3.905  -0.785  -0.262  1.00  0.00     0.008 C 
HETATM   15  C11 UNL     1      -5.277  -1.040   0.300  1.00  0.00    -0.026 C 
HETATM   16  C12 UNL     1      -5.915   0.083   0.505  1.00  0.00    -0.030 C 
HETATM   17  C13 UNL     1      -5.095   1.245   0.124  1.00  0.00     0.027 C 
HETATM   18  C14 UNL     1      -3.727   0.678  -0.113  1.00  0.00     0.012 C 
ENDBRANCH  13  14
ENDBRANCH  12  13
ENDBRANCH  11  12
ENDBRANCH  10  11
ENDBRANCH   1  10
TORSDOF 10
