REMARK  11 active torsions:
REMARK  status: ('A' for Active; 'I' for Inactive)
REMARK    1  A    between atoms: C2_2  and  C3_3 
REMARK    2  A    between atoms: C4_4  and  C5_5 
REMARK    3  A    between atoms: C6_6  and  C7_7 
REMARK    4  A    between atoms: C7_7  and  C8_8 
REMARK    5  A    between atoms: C8_8  and  N1_9 
REMARK    6  A    between atoms: N1_9  and  C9_11 
REMARK    7  A    between atoms: C9_11  and  C10_12 
REMARK    8  A    between atoms: C10_12  and  O1_13 
REMARK    9  A    between atoms: C10_12  and  C11_15 
REMARK   10  A    between atoms: C11_15  and  N2_16 
REMARK   11  A    between atoms: C14_19  and  N3_20 
ROOT
HETATM    1  C10 UNL     1       0.140   2.311  -1.075  1.00  0.00     0.173 C 
ENDROOT
BRANCH   1   2
HETATM    2  C9  UNL     1       1.139   1.418  -0.472  1.00  0.00     0.150 C 
BRANCH   2   3
HETATM    3  N1  UNL     1       2.435   2.069  -0.246  1.00  0.00    -0.418 N 
ATOM      4  H1  UNL     1       2.786   2.282   0.688  1.00  0.00     0.153 HD
BRANCH   3   5
HETATM    5  C8  UNL     1       3.162   2.380  -1.423  1.00  0.00     0.126 C 
BRANCH   5   6
HETATM    6  C7  UNL     1       3.663   1.161  -2.165  1.00  0.00     0.114 C 
BRANCH   6   7
HETATM    7  C6  UNL     1       4.549   0.459  -1.208  1.00  0.00    -0.091 C 
HETATM    8  C5  UNL     1       5.258  -0.122  -0.417  1.00  0.00    -0.015 C 
BRANCH   8   9
HETATM    9  C4  UNL     1       6.077  -0.823   0.517  1.00  0.00    -0.015 C 
HETATM   10  C3  UNL     1       6.757  -1.432   1.308  1.00  0.00    -0.093 C 
BRANCH  10  11
HETATM   11  C2  UNL     1       7.562  -2.174   2.285  1.00  0.00     0.090 C 
HETATM   12  C1  UNL     1       6.731  -2.292   3.543  1.00  0.00     0.018 C 
ENDBRANCH  10  11
ENDBRANCH   8   9
ENDBRANCH   6   7
ENDBRANCH   5   6
ENDBRANCH   3   5
ENDBRANCH   2   3
ENDBRANCH   1   2
BRANCH   1  13
HETATM   13  O1  UNL     1      -0.138   3.410  -0.259  1.00  0.00    -0.389 OA
ATOM     14  H1  UNL     1      -0.784   3.987  -0.649  1.00  0.00     0.210 HD
ENDBRANCH   1  13
BRANCH   1  15
HETATM   15  C11 UNL     1      -1.072   1.613  -1.594  1.00  0.00     0.096 C 
BRANCH  15  16
HETATM   16  N2  UNL     1      -1.949   1.144  -0.614  1.00  0.00    -0.371 N 
HETATM   17  C12 UNL     1      -1.574   0.047   0.160  1.00  0.00     0.065 C 
HETATM   18  C13 UNL     1      -2.690  -0.940   0.473  1.00  0.00     0.072 C 
HETATM   19  C14 UNL     1      -3.596  -1.243  -0.663  1.00  0.00     0.122 C 
HETATM   20  C17 UNL     1      -3.691  -0.170  -1.717  1.00  0.00     0.048 C 
HETATM   21  C18 UNL     1      -3.330   1.153  -1.069  1.00  0.00     0.129 C 
BRANCH  19  22
HETATM   22  N3  UNL     1      -4.939  -1.444  -0.135  1.00  0.00    -0.254 N 
HETATM   23  N4  UNL     1      -5.554  -0.959   0.933  1.00  0.00    -0.288 N 
HETATM   24  C15 UNL     1      -6.804  -1.437   1.006  1.00  0.00     0.081 A 
ATOM     25  H4  UNL     1      -5.136  -0.314   1.604  1.00  0.00     0.188 HD
HETATM   26  C16 UNL     1      -8.011  -1.361   1.849  1.00  0.00     0.079 C 
HETATM   27  S1  UNL     1      -6.384  -2.255  -0.422  1.00  0.00     0.019 SA
ENDBRANCH  19  22
ENDBRANCH  15  16
ENDBRANCH   1  15
TORSDOF 11
