REMARK  10 active torsions:
REMARK  status: ('A' for Active; 'I' for Inactive)
REMARK    1  A    between atoms: C2_2  and  C3_3 
REMARK    2  A    between atoms: C3_3  and  C4_4 
REMARK    3  A    between atoms: C4_4  and  O2_6 
REMARK    4  A    between atoms: O2_6  and  C5_7 
REMARK    5  A    between atoms: C6_8  and  C7_9 
REMARK    6  A    between atoms: C7_9  and  O3_10 
REMARK    7  A    between atoms: C8_12  and  O4_13 
REMARK    8  A    between atoms: C9_15  and  O5_16 
REMARK    9  A    between atoms: O5_16  and  C10_17 
REMARK   10  A    between atoms: C10_17  and  O6_18 
ROOT
HETATM    1  C5  UNL     1      -0.370   0.414   0.384  1.00  0.00     0.151 C 
HETATM    2  C6  UNL     1       0.299   0.735  -0.910  1.00  0.00     0.071 C 
HETATM    3  C8  UNL     1       1.635   1.312  -0.638  1.00  0.00     0.158 C 
HETATM    4  C9  UNL     1       2.476   0.656   0.378  1.00  0.00     0.183 C 
HETATM    5  C12 UNL     1       1.839  -0.096   1.468  1.00  0.00     0.170 C 
HETATM    6  O7  UNL     1       2.415  -1.379   1.636  1.00  0.00    -0.354 OA
HETATM    7  C13 UNL     1       1.534  -2.368   1.311  1.00  0.00     0.138 C 
HETATM    8  C14 UNL     1       0.309  -1.844   1.125  1.00  0.00    -0.053 C 
HETATM    9  C15 UNL     1      -0.846  -2.698   0.761  1.00  0.00     0.046 C 
HETATM   10  C16 UNL     1       0.389  -0.386   1.354  1.00  0.00     0.078 C 
ENDROOT
BRANCH   1  11
HETATM   11  O2  UNL     1      -1.665  -0.147   0.214  1.00  0.00    -0.314 OA
BRANCH  11  12
HETATM   12  C4  UNL     1      -2.817   0.530   0.588  1.00  0.00     0.271 C 
HETATM   13  O1  UNL     1      -2.639   1.687   1.096  1.00  0.00    -0.264 OA
BRANCH  12  14
HETATM   14  C3  UNL     1      -4.195   0.004   0.435  1.00  0.00     0.065 A 
HETATM   15  C17 UNL     1      -4.597  -1.229   1.270  1.00  0.00     0.025 A 
HETATM   16  C18 UNL     1      -4.456  -1.282  -0.214  1.00  0.00     0.025 A 
BRANCH  14  17
HETATM   17  C2  UNL     1      -5.261   1.074   0.448  1.00  0.00    -0.017 C 
HETATM   18  C1  UNL     1      -6.536   0.736   0.370  1.00  0.00     0.008 C 
ENDBRANCH  14  17
ENDBRANCH  12  14
ENDBRANCH  11  12
ENDBRANCH   1  11
BRANCH   2  19
HETATM   19  C7  UNL     1       0.289  -0.355  -1.936  1.00  0.00     0.174 C 
BRANCH  19  20
HETATM   20  O3  UNL     1       0.938   0.044  -3.117  1.00  0.00    -0.400 OA
ATOM     21  H3  UNL     1       0.932  -0.648  -3.768  1.00  0.00     0.209 HD
ENDBRANCH  19  20
ENDBRANCH   2  19
BRANCH   3  22
HETATM   22  O4  UNL     1       1.465   2.673  -0.291  1.00  0.00    -0.392 OA
ATOM     23  H4  UNL     1       2.322   3.043  -0.116  1.00  0.00     0.210 HD
ENDBRANCH   3  22
BRANCH   4  24
HETATM   24  O5  UNL     1       3.333   1.655   0.902  1.00  0.00    -0.357 OA
BRANCH  24  25
HETATM   25  C10 UNL     1       4.655   1.444   0.598  1.00  0.00     0.337 C 
BRANCH  25  26
HETATM   26  O6  UNL     1       4.888   1.420  -0.770  1.00  0.00    -0.372 OA
HETATM   27  C11 UNL     1       6.241   1.204  -1.030  1.00  0.00     0.204 C 
ENDBRANCH  25  26
ENDBRANCH  24  25
ENDBRANCH   4  24
TORSDOF 10
