REMARK  9 active torsions:
REMARK  status: ('A' for Active; 'I' for Inactive)
REMARK    1  A    between atoms: C2_2  and  C4_4 
REMARK    2  A    between atoms: C4_4  and  C5_5 
REMARK    3  A    between atoms: C6_6  and  C7_7 
REMARK    4  A    between atoms: C7_7  and  C8_8 
REMARK    5  A    between atoms: C9_10  and  C10_11 
REMARK    6  A    between atoms: C10_11  and  O2_12 
REMARK    7  A    between atoms: O2_12  and  S1_13 
REMARK    8  A    between atoms: S1_13  and  N1_14 
REMARK    9  A    between atoms: C15_24  and  O5_25 
ROOT
HETATM    1  S1  UNL     1      -4.469  -1.945  -0.037  1.00  0.00     0.238 S 
HETATM    2  O3  UNL     1      -5.151  -2.100   1.366  1.00  0.00    -0.206 OA
HETATM    3  C11 UNL     1      -3.785  -3.871  -0.216  1.00  0.00     0.200 C 
HETATM    4  N2  UNL     1      -3.375  -4.963  -0.306  1.00  0.00    -0.179 NA
ENDROOT
BRANCH   1   5
HETATM    5  O2  UNL     1      -3.414  -0.805   0.471  1.00  0.00    -0.278 OA
BRANCH   5   6
HETATM    6  C10 UNL     1      -2.153  -0.527   0.076  1.00  0.00     0.221 C 
BRANCH   6   7
HETATM    7  C9  UNL     1      -1.650   0.654   0.906  1.00  0.00     0.149 C 
HETATM    8  O1  UNL     1      -0.395   0.947   0.529  1.00  0.00    -0.375 OA
HETATM    9  C8  UNL     1      -0.131   1.545  -0.636  1.00  0.00     0.156 C 
HETATM   10  C15 UNL     1      -0.040   3.073  -0.555  1.00  0.00     0.178 C 
HETATM   11  C14 UNL     1      -1.151   3.496   0.340  1.00  0.00     0.182 A 
HETATM   12  C13 UNL     1      -2.364   2.763  -0.211  1.00  0.00     0.156 A 
HETATM   13  O4  UNL     1      -2.296   4.091  -0.011  1.00  0.00    -0.373 OA
HETATM   14  C12 UNL     1      -2.682   1.729   0.804  1.00  0.00     0.069 C 
BRANCH   9  15
HETATM   15  C7  UNL     1       1.292   1.126  -1.056  1.00  0.00     0.061 C 
BRANCH  15  16
HETATM   16  C6  UNL     1       1.401  -0.321  -1.215  1.00  0.00    -0.028 C 
HETATM   17  C5  UNL     1       2.201  -1.113  -0.551  1.00  0.00    -0.030 C 
BRANCH  17  18
HETATM   18  C4  UNL     1       3.138  -0.672   0.480  1.00  0.00     0.030 C 
BRANCH  18  19
HETATM   19  C2  UNL     1       4.588  -1.013   0.111  1.00  0.00    -0.019 C 
HETATM   20  C1  UNL     1       5.497  -0.533   1.213  1.00  0.00     0.010 C 
HETATM   21  C3  UNL     1       4.755  -2.510  -0.014  1.00  0.00     0.010 C 
ENDBRANCH  18  19
ENDBRANCH  17  18
ENDBRANCH  15  16
ENDBRANCH   9  15
BRANCH  10  22
HETATM   22  O5  UNL     1      -0.071   3.635  -1.809  1.00  0.00    -0.390 OA
ATOM     23  H5  UNL     1      -0.015   4.582  -1.759  1.00  0.00     0.210 HD
ENDBRANCH  10  22
ENDBRANCH   6   7
ENDBRANCH   5   6
ENDBRANCH   1   5
BRANCH   1  24
HETATM   24  N1  UNL     1      -6.150  -1.852  -0.898  1.00  0.00    -0.328 N 
ATOM     25  H12 UNL     1      -6.441  -0.890  -1.073  1.00  0.00     0.168 HD
ATOM     26  H11 UNL     1      -6.808  -2.564  -1.215  1.00  0.00     0.168 HD
ENDBRANCH   1  24
TORSDOF 9
