REMARK  7 active torsions:
REMARK  status: ('A' for Active; 'I' for Inactive)
REMARK    1  A    between atoms: O1_2  and  C2_3 
REMARK    2  A    between atoms: C5_6  and  O2_7 
REMARK    3  A    between atoms: C5_6  and  C6_9 
REMARK    4  A    between atoms: C6_9  and  N1_10 
REMARK    5  A    between atoms: N1_10  and  C7_11 
REMARK    6  A    between atoms: N1_10  and  C11_15 
REMARK    7  A    between atoms: C7_11  and  C8_12 
ROOT
HETATM    1  N1  UNL     1      -1.208  -0.153  -0.539  1.00  0.00    -0.384 N 
ENDROOT
BRANCH   1   2
HETATM    2  C6  UNL     1      -0.166  -0.765   0.178  1.00  0.00     0.096 C 
BRANCH   2   3
HETATM    3  C5  UNL     1       1.164  -0.055   0.210  1.00  0.00     0.089 C 
HETATM    4  C4  UNL     1       1.758   0.015  -1.197  1.00  0.00     0.046 C 
HETATM    5  C3  UNL     1       3.067   0.755  -1.090  1.00  0.00     0.035 C 
HETATM    6  C2  UNL     1       3.993   0.158  -0.065  1.00  0.00     0.121 C 
HETATM    7  C16 UNL     1       3.404  -1.197   0.321  1.00  0.00     0.035 C 
HETATM    8  C15 UNL     1       2.103  -0.929   1.024  1.00  0.00     0.046 C 
BRANCH   6   9
HETATM    9  O1  UNL     1       5.284  -0.020  -0.532  1.00  0.00    -0.391 OA
HETATM   10  C1  UNL     1       6.190   0.579   0.330  1.00  0.00     0.202 C 
ENDBRANCH   6   9
BRANCH   3  11
HETATM   11  O2  UNL     1       1.180   1.192   0.771  1.00  0.00    -0.384 OA
ATOM     12  H2  UNL     1       0.811   1.149   1.645  1.00  0.00     0.211 HD
ENDBRANCH   3  11
ENDBRANCH   2   3
ENDBRANCH   1   2
BRANCH   1  13
HETATM   13  C7  UNL     1      -2.298  -0.975  -0.898  1.00  0.00     0.126 C 
BRANCH  13  14
HETATM   14  C8  UNL     1      -3.219  -1.514   0.116  1.00  0.00    -0.005 C 
HETATM   15  C9  UNL     1      -4.290  -2.362  -0.629  1.00  0.00     0.011 C 
HETATM   16  C10 UNL     1      -2.625  -2.457   1.126  1.00  0.00     0.011 C 
ENDBRANCH  13  14
ENDBRANCH   1  13
BRANCH   1  17
HETATM   17  C11 UNL     1      -1.485   1.213  -0.349  1.00  0.00     0.110 C 
HETATM   18  C12 UNL     1      -1.973   1.721   0.941  1.00  0.00     0.054 C 
HETATM   19  C13 UNL     1      -2.521   3.105   0.510  1.00  0.00     0.234 C 
HETATM   20  N2  UNL     1      -2.700   3.051  -0.905  1.00  0.00    -0.073 N 
HETATM   21  C14 UNL     1      -2.647   1.621  -1.273  1.00  0.00     0.257 C 
ATOM     22  H22 UNL     1      -3.547   3.521  -1.225  1.00  0.00     0.277 HD
ATOM     23  H21 UNL     1      -2.035   3.627  -1.420  1.00  0.00     0.277 HD
ENDBRANCH   1  17
TORSDOF 7
