REMARK  8 active torsions:
REMARK  status: ('A' for Active; 'I' for Inactive)
REMARK    1  A    between atoms: O1_1  and  C1_3 
REMARK    2  A    between atoms: C1_3  and  C2_4 
REMARK    3  A    between atoms: C2_4  and  C3_5 
REMARK    4  A    between atoms: C3_5  and  C4_6 
REMARK    5  A    between atoms: C4_6  and  O2_7 
REMARK    6  A    between atoms: O2_7  and  C5_8 
REMARK    7  A    between atoms: N1_11  and  C8_12 
REMARK    8  A    between atoms: C15_19  and  O3_20 
ROOT
HETATM    1  C5  UNL     1       1.177   0.144   0.450  1.00  0.00     0.153 C 
HETATM    2  C6  UNL     1       0.114   0.255   1.530  1.00  0.00     0.054 C 
HETATM    3  C7  UNL     1      -0.871  -0.896   1.437  1.00  0.00     0.120 C 
HETATM    4  N1  UNL     1      -1.543  -0.959   0.192  1.00  0.00    -0.406 N 
HETATM    5  C14 UNL     1      -0.815  -0.483  -0.931  1.00  0.00     0.151 C 
HETATM    6  C15 UNL     1       0.650  -0.677  -0.712  1.00  0.00     0.164 C 
ENDROOT
BRANCH   1   7
HETATM    7  O2  UNL     1       2.307  -0.448   0.979  1.00  0.00    -0.383 OA
BRANCH   7   8
HETATM    8  C4  UNL     1       3.448   0.312   0.965  1.00  0.00     0.168 C 
BRANCH   8   9
HETATM    9  C3  UNL     1       3.854   0.639  -0.428  1.00  0.00     0.028 C 
BRANCH   9  10
HETATM   10  C2  UNL     1       5.122   1.479  -0.476  1.00  0.00     0.028 C 
BRANCH  10  11
HETATM   11  C1  UNL     1       6.274   0.755   0.168  1.00  0.00     0.164 C 
BRANCH  11  12
HETATM   12  O1  UNL     1       6.459  -0.437  -0.552  1.00  0.00    -0.401 OA
ATOM     13  H1  UNL     1       7.186  -0.894  -0.146  1.00  0.00     0.209 HD
ENDBRANCH  11  12
ENDBRANCH  10  11
ENDBRANCH   9  10
ENDBRANCH   8   9
ENDBRANCH   7   8
ENDBRANCH   1   7
BRANCH   6  14
HETATM   14  O3  UNL     1       0.957  -2.029  -0.586  1.00  0.00    -0.391 OA
ATOM     15  H3  UNL     1       0.627  -2.543  -1.314  1.00  0.00     0.210 HD
ENDBRANCH   6  14
BRANCH   4  16
HETATM   16  C8  UNL     1      -2.933  -0.734   0.187  1.00  0.00     0.079 C 
HETATM   17  C9  UNL     1      -3.361   0.635   0.643  1.00  0.00     0.025 C 
HETATM   18  C10 UNL     1      -4.878   0.680   0.557  1.00  0.00     0.002 C 
HETATM   19  C11 UNL     1      -5.355   0.537  -0.869  1.00  0.00     0.000 C 
HETATM   20  C12 UNL     1      -4.941  -0.862  -1.325  1.00  0.00     0.002 C 
HETATM   21  C13 UNL     1      -3.455  -0.994  -1.221  1.00  0.00     0.025 C 
ENDBRANCH   4  16
TORSDOF 8
