REMARK  7 active torsions:
REMARK  status: ('A' for Active; 'I' for Inactive)
REMARK    1  A    between atoms: C4_8  and  C5_9 
REMARK    2  A    between atoms: C5_9  and  C6_10 
REMARK    3  A    between atoms: C6_10  and  O3_11 
REMARK    4  A    between atoms: N2_13  and  C7_14 
REMARK    5  A    between atoms: C7_14  and  C8_15 
REMARK    6  A    between atoms: C8_15  and  C9_16 
REMARK    7  A    between atoms: C9_16  and  C10_17 
ROOT
HETATM    1  O1  UNL     1      -0.645   0.675   2.308  1.00  0.00    -0.247 OA
HETATM    2  C1  UNL     1      -1.330   0.008   1.504  1.00  0.00     0.320 C 
HETATM    3  N1  UNL     1      -1.876  -1.231   1.925  1.00  0.00    -0.341 N 
ATOM      4  H1  UNL     1      -1.362  -1.735   2.648  1.00  0.00     0.164 HD
HETATM    5  C2  UNL     1      -3.061  -1.842   1.447  1.00  0.00     0.150 C 
HETATM    6  C3  UNL     1      -3.294  -1.847  -0.014  1.00  0.00     0.190 C 
HETATM    7  O2  UNL     1      -2.794  -0.932  -0.821  1.00  0.00    -0.365 OA
HETATM    8  C4  UNL     1      -2.709   0.378  -0.603  1.00  0.00     0.229 C 
HETATM    9  N2  UNL     1      -1.489   0.590   0.216  1.00  0.00    -0.307 N 
ENDROOT
BRANCH   9  10
HETATM   10  C7  UNL     1      -0.453   1.397  -0.360  1.00  0.00     0.130 C 
BRANCH  10  11
HETATM   11  C8  UNL     1       0.515   0.715  -1.235  1.00  0.00     0.020 C 
BRANCH  11  12
HETATM   12  C9  UNL     1       1.379  -0.351  -0.706  1.00  0.00     0.006 C 
BRANCH  12  13
HETATM   13  C10 UNL     1       2.358   0.019   0.358  1.00  0.00    -0.014 C 
HETATM   14  C11 UNL     1       3.121  -1.246   0.732  1.00  0.00     0.004 C 
HETATM   15  C12 UNL     1       4.233  -1.445  -0.242  1.00  0.00     0.000 C 
HETATM   16  C13 UNL     1       5.296  -0.378  -0.106  1.00  0.00     0.000 C 
HETATM   17  C14 UNL     1       4.705   0.956   0.288  1.00  0.00     0.000 C 
HETATM   18  C15 UNL     1       3.275   1.107  -0.160  1.00  0.00     0.004 C 
ENDBRANCH  12  13
ENDBRANCH  11  12
ENDBRANCH  10  11
ENDBRANCH   9  10
BRANCH   8  19
HETATM   19  C5  UNL     1      -3.815   1.137  -0.008  1.00  0.00     0.080 C 
BRANCH  19  20
HETATM   20  C6  UNL     1      -5.072   1.073  -0.842  1.00  0.00     0.168 C 
BRANCH  20  21
HETATM   21  O3  UNL     1      -4.785   1.611  -2.106  1.00  0.00    -0.401 OA
ATOM     22  H3  UNL     1      -5.576   1.571  -2.631  1.00  0.00     0.209 HD
ENDBRANCH  20  21
ENDBRANCH  19  20
ENDBRANCH   8  19
TORSDOF 7
