REMARK  7 active torsions:
REMARK  status: ('A' for Active; 'I' for Inactive)
REMARK    1  A    between atoms: C2_2  and  C4_4 
REMARK    2  A    between atoms: C5_8  and  C6_9 
REMARK    3  A    between atoms: N2_10  and  O1_12 
REMARK    4  A    between atoms: O1_12  and  C7_13 
REMARK    5  A    between atoms: C7_13  and  C8_14 
REMARK    6  A    between atoms: C8_14  and  N3_15 
REMARK    7  A    between atoms: N4_22  and  O2_23 
ROOT
HETATM    1  C4  UNL     1      -3.458  -0.541  -0.275  1.00  0.00     0.314 C 
HETATM    2  N1  UNL     1      -2.293  -1.376  -0.025  1.00  0.00    -0.042 N 
ATOM      3  H11 UNL     1      -2.136  -2.099  -0.728  1.00  0.00     0.280 HD
ATOM      4  H12 UNL     1      -2.395  -2.012   0.766  1.00  0.00     0.280 HD
HETATM    5  C5  UNL     1      -1.182  -0.409   0.111  1.00  0.00     0.252 C 
HETATM    6  C12 UNL     1      -1.849   0.913   0.205  1.00  0.00     0.067 C 
HETATM    7  C13 UNL     1      -1.955   1.580  -1.145  1.00  0.00     0.037 C 
HETATM    8  C14 UNL     1      -1.216   1.875   1.180  1.00  0.00     0.037 C 
HETATM    9  N4  UNL     1      -3.202   0.581   0.650  1.00  0.00    -0.153 NA
ENDROOT
BRANCH   5  10
HETATM   10  C6  UNL     1      -0.351  -0.802   1.240  1.00  0.00     0.122 C 
HETATM   11  N2  UNL     1       0.869  -0.562   1.407  1.00  0.00    -0.280 N 
ATOM     12  H2  UNL     1       1.209  -0.950   2.287  1.00  0.00     0.193 HD
BRANCH  11  13
HETATM   13  O1  UNL     1       1.824   0.054   0.753  1.00  0.00    -0.279 OA
BRANCH  13  14
HETATM   14  C7  UNL     1       1.940   0.435  -0.569  1.00  0.00     0.229 C 
BRANCH  14  15
HETATM   15  C8  UNL     1       3.261   1.125  -0.869  1.00  0.00     0.264 C 
BRANCH  15  16
HETATM   16  N3  UNL     1       4.386   0.267  -0.586  1.00  0.00    -0.076 N 
HETATM   17  C9  UNL     1       5.560   0.665  -1.357  1.00  0.00     0.271 C 
HETATM   18  C10 UNL     1       4.123  -1.120  -0.934  1.00  0.00     0.271 C 
HETATM   19  C11 UNL     1       4.751   0.340   0.829  1.00  0.00     0.271 C 
ENDBRANCH  15  16
ENDBRANCH  14  15
ENDBRANCH  13  14
ENDBRANCH  11  13
ENDBRANCH   5  10
BRANCH   1  20
HETATM   20  C2  UNL     1      -4.737  -1.162   0.052  1.00  0.00    -0.047 C 
HETATM   21  C1  UNL     1      -5.579  -0.567   0.876  1.00  0.00     0.017 C 
HETATM   22  C3  UNL     1      -5.098  -2.468  -0.556  1.00  0.00     0.046 C 
ENDBRANCH   1  20
BRANCH   9  23
HETATM   23  O2  UNL     1      -3.037   0.080   1.919  1.00  0.00    -0.310 OA
ATOM     24  H2  UNL     1      -2.872   0.802   2.514  1.00  0.00     0.237 HD
ENDBRANCH   9  23
TORSDOF 7
