REMARK  6 active torsions:
REMARK  status: ('A' for Active; 'I' for Inactive)
REMARK    1  A    between atoms: C2_2  and  C4_4 
REMARK    2  A    between atoms: C4_4  and  C5_5 
REMARK    3  A    between atoms: C7_8  and  N1_9 
REMARK    4  A    between atoms: N1_9  and  C8_12 
REMARK    5  A    between atoms: C8_12  and  C9_13 
REMARK    6  A    between atoms: C9_13  and  N2_14 
ROOT
HETATM    1  N1  UNL     1      -0.117  -1.661   0.350  1.00  0.00    -0.021 N 
ATOM      2  H11 UNL     1      -0.019  -2.659   0.539  1.00  0.00     0.282 HD
ATOM      3  H12 UNL     1       0.220  -1.336   1.256  1.00  0.00     0.282 HD
ENDROOT
BRANCH   1   4
HETATM    4  C7  UNL     1      -1.497  -1.245   0.043  1.00  0.00     0.524 C 
HETATM    5  O1  UNL     1      -1.455   0.118  -0.069  1.00  0.00    -0.337 OA
HETATM    6  C6  UNL     1      -2.141   0.632   1.059  1.00  0.00     0.205 C 
HETATM    7  C5  UNL     1      -3.213  -0.377   1.232  1.00  0.00     0.215 C 
HETATM    8  N3  UNL     1      -2.396  -1.615   1.101  1.00  0.00    -0.017 N 
ATOM      9  H32 UNL     1      -1.951  -1.938   1.960  1.00  0.00     0.282 HD
ATOM     10  H31 UNL     1      -2.925  -2.473   0.945  1.00  0.00     0.282 HD
BRANCH   7  11
HETATM   11  C4  UNL     1      -4.241  -0.435   0.198  1.00  0.00     0.039 C 
BRANCH  11  12
HETATM   12  C2  UNL     1      -5.145   0.681  -0.109  1.00  0.00    -0.021 C 
HETATM   13  C1  UNL     1      -4.478   1.918  -0.593  1.00  0.00     0.009 C 
HETATM   14  C3  UNL     1      -6.139   0.150  -1.171  1.00  0.00     0.009 C 
ENDBRANCH  11  12
ENDBRANCH   7  11
ENDBRANCH   1   4
BRANCH   1  15
HETATM   15  C8  UNL     1       0.681  -1.193  -0.778  1.00  0.00     0.268 C 
BRANCH  15  16
HETATM   16  C9  UNL     1       2.124  -1.518  -0.629  1.00  0.00     0.300 C 
BRANCH  16  17
HETATM   17  N2  UNL     1       2.662  -0.920   0.552  1.00  0.00     0.090 N 
HETATM   18  C10 UNL     1       4.064  -1.312   0.698  1.00  0.00     0.273 C 
HETATM   19  C11 UNL     1       4.947  -0.587  -0.273  1.00  0.00     0.034 C 
HETATM   20  C12 UNL     1       4.787   0.908  -0.034  1.00  0.00    -0.015 C 
HETATM   21  C13 UNL     1       5.760   1.696  -0.869  1.00  0.00     0.010 C 
HETATM   22  C14 UNL     1       3.338   1.249  -0.350  1.00  0.00     0.034 C 
HETATM   23  C15 UNL     1       2.505   0.497   0.666  1.00  0.00     0.273 C 
ENDBRANCH  16  17
ENDBRANCH  15  16
ENDBRANCH   1  15
TORSDOF 6
