REMARK  9 active torsions:
REMARK  status: ('A' for Active; 'I' for Inactive)
REMARK    1  A    between atoms: C2_2  and  C3_3 
REMARK    2  A    between atoms: C3_3  and  C4_4 
REMARK    3  A    between atoms: C7_7  and  O1_8 
REMARK    4  A    between atoms: O1_8  and  C8_9 
REMARK    5  A    between atoms: C9_11  and  C10_12 
REMARK    6  A    between atoms: C10_12  and  N1_13 
REMARK    7  A    between atoms: C11_17  and  O3_18 
REMARK    8  A    between atoms: C12_20  and  O4_21 
REMARK    9  A    between atoms: C13_23  and  O5_24 
ROOT
HETATM    1  C8  UNL     1      -1.638  -0.041  -0.146  1.00  0.00     0.292 C 
HETATM    2  O2  UNL     1      -2.365   1.040   0.333  1.00  0.00    -0.349 OA
HETATM    3  C9  UNL     1      -3.529   1.283  -0.343  1.00  0.00     0.181 C 
HETATM    4  C11 UNL     1      -3.758   0.353  -1.491  1.00  0.00     0.180 C 
HETATM    5  C12 UNL     1      -3.578  -1.095  -1.153  1.00  0.00     0.183 C 
HETATM    6  C13 UNL     1      -2.409  -1.311  -0.190  1.00  0.00     0.207 C 
ENDROOT
BRANCH   1   7
HETATM    7  O1  UNL     1      -0.444  -0.097   0.525  1.00  0.00    -0.351 OA
BRANCH   7   8
HETATM    8  C7  UNL     1       0.675   0.171  -0.234  1.00  0.00     0.156 C 
HETATM    9  C6  UNL     1       1.486   1.319   0.206  1.00  0.00     0.035 C 
HETATM   10  C5  UNL     1       2.911   0.971   0.598  1.00  0.00     0.010 C 
HETATM   11  C4  UNL     1       3.511   0.183  -0.521  1.00  0.00     0.017 C 
HETATM   12  C16 UNL     1       2.789  -1.135  -0.601  1.00  0.00     0.157 A 
HETATM   13  C15 UNL     1       1.436  -1.138  -0.351  1.00  0.00     0.180 A 
HETATM   14  O6  UNL     1       2.228  -1.573   0.681  1.00  0.00    -0.372 OA
BRANCH  11  15
HETATM   15  C3  UNL     1       4.970  -0.093  -0.331  1.00  0.00     0.007 C 
BRANCH  15  16
HETATM   16  C2  UNL     1       5.804   1.166  -0.227  1.00  0.00    -0.004 C 
HETATM   17  C1  UNL     1       7.254   0.712  -0.037  1.00  0.00     0.005 C 
ENDBRANCH  15  16
ENDBRANCH  11  15
ENDBRANCH   7   8
ENDBRANCH   1   7
BRANCH   6  18
HETATM   18  O5  UNL     1      -2.886  -1.818   0.951  1.00  0.00    -0.383 OA
HETATM   19  C14 UNL     1      -2.562  -3.063   1.349  1.00  0.00     0.202 C 
ENDBRANCH   6  18
BRANCH   3  20
HETATM   20  C10 UNL     1      -4.654   1.324   0.645  1.00  0.00     0.264 C 
BRANCH  20  21
HETATM   21  N1  UNL     1      -5.940   1.575   0.046  1.00  0.00    -0.077 N 
ATOM     22  H13 UNL     1      -5.918   2.430  -0.510  1.00  0.00     0.274 HD
ATOM     23  H12 UNL     1      -6.133   0.897  -0.691  1.00  0.00     0.274 HD
ATOM     24  H11 UNL     1      -6.706   1.603   0.719  1.00  0.00     0.274 HD
ENDBRANCH  20  21
ENDBRANCH   3  20
BRANCH   5  25
HETATM   25  O4  UNL     1      -3.426  -1.801  -2.328  1.00  0.00    -0.390 OA
ATOM     26  H4  UNL     1      -3.312  -2.719  -2.114  1.00  0.00     0.210 HD
ENDBRANCH   5  25
BRANCH   4  27
HETATM   27  O3  UNL     1      -5.035   0.515  -2.011  1.00  0.00    -0.390 OA
ATOM     28  H3  UNL     1      -5.181  -0.076  -2.740  1.00  0.00     0.210 HD
ENDBRANCH   4  27
TORSDOF 9
