REMARK  10 active torsions:
REMARK  status: ('A' for Active; 'I' for Inactive)
REMARK    1  A    between atoms: C4_4  and  C5_5 
REMARK    2  A    between atoms: C5_5  and  C6_6 
REMARK    3  A    between atoms: C6_6  and  O1_9 
REMARK    4  A    between atoms: O1_9  and  C9_10 
REMARK    5  A    between atoms: C10_12  and  C11_13 
REMARK    6  A    between atoms: C11_13  and  O3_14 
REMARK    7  A    between atoms: O3_14  and  S1_15 
REMARK    8  A    between atoms: S1_15  and  N1_16 
REMARK    9  A    between atoms: C12_21  and  O6_22 
REMARK   10  A    between atoms: C13_24  and  O7_25 
ROOT
HETATM    1  C9  UNL     1       0.386   0.202   0.307  1.00  0.00     0.292 C 
HETATM    2  O2  UNL     1       1.622  -0.423   0.598  1.00  0.00    -0.348 OA
HETATM    3  C10 UNL     1       2.492   0.616   0.893  1.00  0.00     0.181 C 
HETATM    4  C12 UNL     1       2.220   1.574  -0.267  1.00  0.00     0.182 C 
HETATM    5  C13 UNL     1       0.784   1.323  -0.622  1.00  0.00     0.204 C 
ENDROOT
BRANCH   1   6
HETATM    6  O1  UNL     1      -0.382  -0.769  -0.292  1.00  0.00    -0.348 OA
BRANCH   6   7
HETATM    7  C6  UNL     1      -1.556  -1.091   0.337  1.00  0.00     0.060 C 
HETATM    8  C7  UNL     1      -2.212  -2.267  -0.338  1.00  0.00     0.046 C 
HETATM    9  C8  UNL     1      -1.317  -1.506   1.786  1.00  0.00     0.046 C 
BRANCH   7  10
HETATM   10  C5  UNL     1      -2.467   0.107   0.394  1.00  0.00     0.064 C 
BRANCH  10  11
HETATM   11  C4  UNL     1      -2.892   0.567  -0.941  1.00  0.00    -0.022 C 
HETATM   12  C2  UNL     1      -4.164   0.609  -1.259  1.00  0.00    -0.091 C 
HETATM   13  C1  UNL     1      -5.185   0.191  -0.269  1.00  0.00     0.042 C 
HETATM   14  C3  UNL     1      -4.595   1.077  -2.616  1.00  0.00     0.042 C 
ENDBRANCH  10  11
ENDBRANCH   7  10
ENDBRANCH   6   7
ENDBRANCH   1   6
BRANCH   5  15
HETATM   15  O7  UNL     1       0.100   2.522  -0.332  1.00  0.00    -0.388 OA
ATOM     16  H7  UNL     1       0.351   3.228  -0.917  1.00  0.00     0.210 HD
ENDBRANCH   5  15
BRANCH   3  17
HETATM   17  C11 UNL     1       3.935   0.205   0.790  1.00  0.00     0.226 C 
BRANCH  17  18
HETATM   18  O3  UNL     1       4.227  -0.849   1.685  1.00  0.00    -0.257 OA
BRANCH  18  19
HETATM   19  S1  UNL     1       5.842  -1.278   1.540  1.00  0.00     0.355 S 
HETATM   20  O4  UNL     1       5.982  -2.748   1.692  1.00  0.00    -0.176 OA
HETATM   21  O5  UNL     1       6.578  -0.558   2.657  1.00  0.00    -0.176 OA
BRANCH  19  22
HETATM   22  N1  UNL     1       6.530  -0.739   0.061  1.00  0.00    -0.306 N 
ATOM     23  H12 UNL     1       6.003  -0.218  -0.640  1.00  0.00     0.171 HD
ATOM     24  H11 UNL     1       7.512  -1.000  -0.027  1.00  0.00     0.171 HD
ENDBRANCH  19  22
ENDBRANCH  18  19
ENDBRANCH  17  18
ENDBRANCH   3  17
BRANCH   4  25
HETATM   25  O6  UNL     1       3.023   1.200  -1.340  1.00  0.00    -0.390 OA
ATOM     26  H6  UNL     1       2.854   1.795  -2.061  1.00  0.00     0.210 HD
ENDBRANCH   4  25
TORSDOF 10
