REMARK  8 active torsions:
REMARK  status: ('A' for Active; 'I' for Inactive)
REMARK    1  A    between atoms: C2_2  and  C3_3 
REMARK    2  A    between atoms: C2_2  and  C4_6 
REMARK    3  A    between atoms: C3_3  and  O1_4 
REMARK    4  A    between atoms: C4_6  and  N1_7 
REMARK    5  A    between atoms: C7_11  and  C8_12 
REMARK    6  A    between atoms: C8_12  and  C10_14 
REMARK    7  A    between atoms: C10_14  and  N2_15 
REMARK    8  A    between atoms: N2_15  and  C11_17 
ROOT
HETATM    1  N1  UNL     1      -2.145  -0.331  -0.881  1.00  0.00     0.093 N 
HETATM    2  C5  UNL     1      -2.301  -1.719  -0.946  1.00  0.00     0.298 C 
HETATM    3  C6  UNL     1      -2.115  -2.258   0.470  1.00  0.00     0.198 C 
HETATM    4  O2  UNL     1      -0.852  -1.932   0.865  1.00  0.00    -0.382 OA
HETATM    5  C7  UNL     1      -0.541  -0.577   0.845  1.00  0.00     0.158 C 
HETATM    6  C17 UNL     1      -0.716  -0.030  -0.510  1.00  0.00     0.305 C 
ENDROOT
BRANCH   5   7
HETATM    7  C8  UNL     1       0.757  -0.409   1.544  1.00  0.00     0.050 C 
HETATM    8  C9  UNL     1       0.569  -0.906   2.978  1.00  0.00     0.018 C 
BRANCH   7   9
HETATM    9  C10 UNL     1       1.444   0.887   1.478  1.00  0.00     0.062 C 
BRANCH   9  10
HETATM   10  N2  UNL     1       1.906   1.413   0.280  1.00  0.00    -0.397 N 
ATOM     11  H2  UNL     1       1.372   2.173  -0.140  1.00  0.00     0.159 HD
BRANCH  10  12
HETATM   12  C11 UNL     1       3.046   0.978  -0.390  1.00  0.00     0.080 C 
HETATM   13  C12 UNL     1       4.345   1.193   0.367  1.00  0.00     0.025 C 
HETATM   14  C13 UNL     1       5.365   0.155  -0.018  1.00  0.00     0.002 C 
HETATM   15  C14 UNL     1       5.516  -0.048  -1.495  1.00  0.00     0.000 C 
HETATM   16  C15 UNL     1       4.198  -0.428  -2.078  1.00  0.00     0.002 C 
HETATM   17  C16 UNL     1       3.070  -0.384  -1.024  1.00  0.00     0.025 C 
ENDBRANCH  10  12
ENDBRANCH   9  10
ENDBRANCH   7   9
ENDBRANCH   5   7
BRANCH   1  18
HETATM   18  C4  UNL     1      -3.004   0.538  -0.240  1.00  0.00     0.279 C 
BRANCH  18  19
HETATM   19  C2  UNL     1      -4.340   0.835  -0.791  1.00  0.00     0.033 C 
HETATM   20  C1  UNL     1      -5.024   1.892   0.171  1.00  0.00     0.014 C 
BRANCH  19  21
HETATM   21  C3  UNL     1      -5.342  -0.297  -0.741  1.00  0.00     0.170 C 
BRANCH  21  22
HETATM   22  O1  UNL     1      -6.607   0.188  -1.183  1.00  0.00    -0.400 OA
ATOM     23  H1  UNL     1      -7.236  -0.523  -1.152  1.00  0.00     0.209 HD
ENDBRANCH  21  22
ENDBRANCH  19  21
ENDBRANCH  18  19
ENDBRANCH   1  18
TORSDOF 8
