REMARK  7 active torsions:
REMARK  status: ('A' for Active; 'I' for Inactive)
REMARK    1  A    between atoms: C2_2  and  C4_4 
REMARK    2  A    between atoms: C4_4  and  N1_5 
REMARK    3  A    between atoms: C4_4  and  C10_16 
REMARK       I    between atoms: N1_5  and  C5_7 
REMARK    4  A    between atoms: C5_7  and  C6_9 
REMARK    5  A    between atoms: C10_16  and  N4_17 
REMARK    6  A    between atoms: C10_16  and  C14_22 
REMARK    7  A    between atoms: N4_17  and  C11_19 
ROOT
HETATM    1  C4  UNL     1      -0.524  -0.518  -0.752  1.00  0.00     0.134 C 
ENDROOT
BRANCH   1   2
HETATM    2  C2  UNL     1      -0.231  -0.895  -2.162  1.00  0.00     0.006 C 
HETATM    3  C1  UNL     1      -1.347  -1.033  -3.125  1.00  0.00     0.012 C 
HETATM    4  C3  UNL     1       0.936  -0.091  -2.757  1.00  0.00     0.012 C 
ENDBRANCH   1   2
BRANCH   1   5
HETATM    5  N1  UNL     1       0.875  -0.542  -0.201  1.00  0.00    -0.347 N 
HETATM    6  C5  UNL     1       1.393  -1.460   0.672  1.00  0.00     0.255 C 
HETATM    7  O1  UNL     1       0.713  -2.407   1.127  1.00  0.00    -0.268 OA
ATOM      8  H1  UNL     1       1.502   0.201  -0.509  1.00  0.00     0.163 HD
BRANCH   6   9
HETATM    9  C6  UNL     1       2.775  -1.346   1.088  1.00  0.00     0.065 A 
HETATM   10  C7  UNL     1       3.457  -2.177   1.969  1.00  0.00     0.125 A 
HETATM   11  N2  UNL     1       4.716  -1.724   2.056  1.00  0.00    -0.309 N 
HETATM   12  N3  UNL     1       4.890  -0.644   1.279  1.00  0.00    -0.307 N 
ATOM     13  H2  UNL     1       5.443  -2.144   2.635  1.00  0.00     0.186 HD
HETATM   14  C8  UNL     1       6.121   0.088   1.134  1.00  0.00     0.177 C 
HETATM   15  C9  UNL     1       3.708  -0.415   0.692  1.00  0.00     0.128 A 
ENDBRANCH   6   9
ENDBRANCH   1   5
BRANCH   1  16
HETATM   16  C10 UNL     1      -1.101   0.755  -0.393  1.00  0.00     0.009 C 
BRANCH  16  17
HETATM   17  N4  UNL     1      -1.314   0.903   1.069  1.00  0.00    -0.390 N 
ATOM     18  H4  UNL     1      -0.843   1.622   1.618  1.00  0.00     0.159 HD
BRANCH  17  19
HETATM   19  C11 UNL     1      -2.211  -0.018   1.645  1.00  0.00     0.081 A 
HETATM   20  C12 UNL     1      -1.859  -0.542   3.078  1.00  0.00     0.027 A 
HETATM   21  C13 UNL     1      -2.930   0.474   2.913  1.00  0.00     0.027 A 
ENDBRANCH  17  19
ENDBRANCH  16  17
BRANCH  16  22
HETATM   22  C14 UNL     1      -2.234   1.399  -1.059  1.00  0.00     0.025 C 
HETATM   23  C15 UNL     1      -2.537   2.789  -0.413  1.00  0.00     0.016 C 
HETATM   24  C16 UNL     1      -3.573   0.710  -0.959  1.00  0.00     0.016 C 
ENDBRANCH  16  22
ENDBRANCH   1  16
TORSDOF 7
