REMARK  7 active torsions:
REMARK  status: ('A' for Active; 'I' for Inactive)
REMARK    1  A    between atoms: C2_2  and  C3_3 
REMARK    2  A    between atoms: C6_7  and  N1_8 
REMARK       I    between atoms: N1_8  and  C7_10 
REMARK    3  A    between atoms: C7_10  and  C8_12 
REMARK    4  A    between atoms: C8_12  and  C9_14 
REMARK    5  A    between atoms: C9_14  and  C10_15 
REMARK    6  A    between atoms: C9_14  and  C13_19 
REMARK    7  A    between atoms: C10_15  and  N2_16 
ROOT
HETATM    1  N1  UNL     1       1.467  -0.134  -0.116  1.00  0.00    -0.349 N 
ATOM      2  H1  UNL     1       1.270  -0.868   0.564  1.00  0.00     0.163 HD
HETATM    3  C7  UNL     1       0.430   0.747  -0.436  1.00  0.00     0.255 C 
HETATM    4  O2  UNL     1       0.711   1.657  -1.296  1.00  0.00    -0.267 OA
ENDROOT
BRANCH   3   5
HETATM    5  C8  UNL     1      -0.919   0.687   0.141  1.00  0.00     0.063 C 
HETATM    6  S1  UNL     1      -0.889   0.326   1.929  1.00  0.00    -0.051 SA
BRANCH   5   7
HETATM    7  C9  UNL     1      -2.009   0.102  -0.612  1.00  0.00     0.064 C 
BRANCH   7   8
HETATM    8  C10 UNL     1      -3.273   0.246   0.305  1.00  0.00     0.281 C 
BRANCH   8   9
HETATM    9  N2  UNL     1      -3.506   1.630   0.575  1.00  0.00     0.080 N 
HETATM   10  C11 UNL     1      -3.922   2.380  -0.584  1.00  0.00     0.309 C 
HETATM   11  C12 UNL     1      -4.322   1.860   1.725  1.00  0.00     0.309 C 
ENDBRANCH   8   9
ENDBRANCH   7   8
BRANCH   7  12
HETATM   12  C13 UNL     1      -2.073  -1.245  -1.142  1.00  0.00    -0.004 A 
HETATM   13  C14 UNL     1      -1.979  -2.350  -0.044  1.00  0.00     0.006 A 
HETATM   14  C15 UNL     1      -1.134  -2.324  -1.288  1.00  0.00     0.006 A 
ENDBRANCH   7  12
ENDBRANCH   5   7
ENDBRANCH   3   5
BRANCH   1  15
HETATM   15  C6  UNL     1       2.799  -0.082  -0.677  1.00  0.00     0.119 C 
HETATM   16  C3  UNL     1       3.782  -0.024   0.464  1.00  0.00     0.166 C 
HETATM   17  O1  UNL     1       4.175  -1.314   0.761  1.00  0.00    -0.380 OA
HETATM   18  C4  UNL     1       3.707  -2.181  -0.181  1.00  0.00     0.170 C 
HETATM   19  C5  UNL     1       3.192  -1.377  -1.346  1.00  0.00     0.054 C 
BRANCH  16  20
HETATM   20  C2  UNL     1       4.916   0.885   0.203  1.00  0.00    -0.003 C 
HETATM   21  C1  UNL     1       5.562   1.404   1.247  1.00  0.00     0.009 C 
ENDBRANCH  16  20
ENDBRANCH   1  15
TORSDOF 7
