REMARK  9 active torsions:
REMARK  status: ('A' for Active; 'I' for Inactive)
REMARK    1  A    between atoms: N1_2  and  C3_4 
REMARK       I    between atoms: N2_7  and  C6_8 
REMARK    2  A    between atoms: C6_8  and  C7_10 
REMARK    3  A    between atoms: C7_10  and  C8_11 
REMARK    4  A    between atoms: C8_11  and  C9_12 
REMARK    5  A    between atoms: C10_14  and  C11_15 
REMARK    6  A    between atoms: C11_15  and  O3_16 
REMARK    7  A    between atoms: C17_25  and  O6_26 
REMARK    8  A    between atoms: O6_26  and  C18_27 
REMARK       I    between atoms: C18_27  and  N3_29 
REMARK    9  A    between atoms: N3_29  and  C19_31 
ROOT
HETATM    1  C9  UNL     1       0.030  -0.955  -0.083  1.00  0.00     0.154 C 
HETATM    2  O2  UNL     1      -0.804  -1.979  -0.219  1.00  0.00    -0.373 OA
HETATM    3  C10 UNL     1      -0.431  -3.232  -0.498  1.00  0.00     0.177 C 
HETATM    4  C12 UNL     1       0.916  -3.490  -1.062  1.00  0.00     0.188 C 
HETATM    5  O4  UNL     1       1.701  -4.314  -0.219  1.00  0.00    -0.345 OA
HETATM    6  C13 UNL     1       2.936  -4.188  -0.865  1.00  0.00     0.158 C 
HETATM    7  C14 UNL     1       2.927  -4.943  -2.163  1.00  0.00     0.078 C 
HETATM    8  C15 UNL     1       4.056  -4.746  -0.013  1.00  0.00     0.078 C 
HETATM    9  O5  UNL     1       3.076  -2.826  -1.030  1.00  0.00    -0.345 OA
HETATM   10  C16 UNL     1       1.787  -2.302  -1.253  1.00  0.00     0.189 C 
HETATM   11  C17 UNL     1       1.511  -1.256  -0.196  1.00  0.00     0.194 C 
ENDROOT
BRANCH   1  12
HETATM   12  C8  UNL     1      -0.152  -0.025   1.090  1.00  0.00     0.044 C 
BRANCH  12  13
HETATM   13  C7  UNL     1      -1.454   0.680   1.171  1.00  0.00     0.105 C 
BRANCH  13  14
HETATM   14  C6  UNL     1      -2.659  -0.128   1.347  1.00  0.00     0.219 C 
HETATM   15  N2  UNL     1      -3.971   0.377   1.022  1.00  0.00    -0.349 N 
HETATM   16  C5  UNL     1      -4.057   1.715   0.510  1.00  0.00     0.128 C 
HETATM   17  C25 UNL     1      -5.085  -0.492   1.237  1.00  0.00     0.165 C 
HETATM   18  C4  UNL     1      -5.332   2.402   1.012  1.00  0.00     0.058 C 
HETATM   19  C3  UNL     1      -6.484   1.506   0.618  1.00  0.00     0.258 C 
HETATM   20  C26 UNL     1      -6.385   0.252   1.430  1.00  0.00     0.221 C 
HETATM   21  F1  UNL     1      -7.450  -0.608   1.216  1.00  0.00    -0.245 F 
HETATM   22  O1  UNL     1      -2.541  -1.301   1.801  1.00  0.00    -0.273 OA
BRANCH  19  23
HETATM   23  N1  UNL     1      -6.441   1.307  -0.801  1.00  0.00     0.087 N 
HETATM   24  C1  UNL     1      -6.627   2.598  -1.438  1.00  0.00     0.310 C 
HETATM   25  C2  UNL     1      -7.441   0.418  -1.310  1.00  0.00     0.310 C 
ENDBRANCH  19  23
ENDBRANCH  13  14
ENDBRANCH  12  13
ENDBRANCH   1  12
BRANCH  11  26
HETATM   26  O6  UNL     1       2.193  -0.088  -0.621  1.00  0.00    -0.293 OA
BRANCH  26  27
HETATM   27  C18 UNL     1       3.151   0.575   0.085  1.00  0.00     0.361 C 
HETATM   28  O7  UNL     1       3.481   0.131   1.223  1.00  0.00    -0.238 OA
HETATM   29  N3  UNL     1       3.778   1.749  -0.437  1.00  0.00    -0.332 N 
ATOM     30  H3  UNL     1       3.504   2.098  -1.355  1.00  0.00     0.165 HD
BRANCH  29  31
HETATM   31  C19 UNL     1       4.808   2.460   0.325  1.00  0.00     0.086 C 
HETATM   32  C20 UNL     1       6.044   2.501  -0.556  1.00  0.00     0.025 C 
HETATM   33  C21 UNL     1       7.112   3.326   0.142  1.00  0.00     0.002 C 
HETATM   34  C22 UNL     1       6.634   4.768   0.149  1.00  0.00     0.000 C 
HETATM   35  C23 UNL     1       5.380   4.825   0.973  1.00  0.00     0.002 C 
HETATM   36  C24 UNL     1       4.331   3.866   0.526  1.00  0.00     0.025 C 
ENDBRANCH  29  31
ENDBRANCH  26  27
ENDBRANCH  11  26
BRANCH   3  37
HETATM   37  C11 UNL     1      -0.683  -4.218   0.657  1.00  0.00     0.198 C 
BRANCH  37  38
HETATM   38  O3  UNL     1      -0.280  -5.506   0.307  1.00  0.00    -0.398 OA
ATOM     39  H3  UNL     1      -0.436  -6.114   1.020  1.00  0.00     0.209 HD
ENDBRANCH  37  38
ENDBRANCH   3  37
TORSDOF 9
