REMARK  8 active torsions:
REMARK  status: ('A' for Active; 'I' for Inactive)
REMARK    1  A    between atoms: S1_2  and  C2_4 
REMARK    2  A    between atoms: C10_13  and  C11_14 
REMARK    3  A    between atoms: C12_18  and  O3_19 
REMARK    4  A    between atoms: O3_19  and  C13_20 
REMARK    5  A    between atoms: C13_20  and  C14_21 
REMARK    6  A    between atoms: C18_25  and  O4_26 
REMARK    7  A    between atoms: C20_29  and  C21_30 
REMARK       I    between atoms: C21_30  and  N3_32 
REMARK    8  A    between atoms: N3_32  and  C22_34 
ROOT
HETATM    1  O4  UNL     1       1.016  -1.509   2.812  1.00  0.00    -0.243 OA
HETATM    2  C19 UNL     1       1.619  -1.349   4.020  1.00  0.00     0.234 C 
HETATM    3  N2  UNL     1       2.135  -1.211   5.048  1.00  0.00    -0.164 NA
ENDROOT
BRANCH   1   4
HETATM    4  C18 UNL     1       1.506  -0.972   1.631  1.00  0.00     0.098 C 
HETATM    5  C11 UNL     1       0.930  -0.347   0.465  1.00  0.00     0.253 C 
HETATM    6  N1  UNL     1       2.039   0.559   0.058  1.00  0.00    -0.035 N 
HETATM    7  C12 UNL     1       3.179  -0.379   0.123  1.00  0.00     0.348 C 
ATOM      8  H12 UNL     1       1.913   1.043  -0.831  1.00  0.00     0.281 HD
ATOM      9  H11 UNL     1       2.137   1.414   0.605  1.00  0.00     0.281 HD
HETATM   10  C17 UNL     1       2.842  -0.997   1.439  1.00  0.00     0.069 C 
BRANCH   5  11
HETATM   11  C10 UNL     1      -0.216   0.576   0.598  1.00  0.00     0.060 C 
HETATM   12  C9  UNL     1      -0.363   1.240  -0.782  1.00  0.00     0.175 C 
HETATM   13  O2  UNL     1      -1.624   1.652  -1.085  1.00  0.00    -0.386 OA
HETATM   14  C8  UNL     1      -1.822   3.032  -1.095  1.00  0.00     0.208 C 
HETATM   15  C7  UNL     1      -2.233   3.465   0.314  1.00  0.00    -0.008 A 
HETATM   16  C2  UNL     1      -2.724   4.734   0.655  1.00  0.00     0.037 A 
HETATM   17  C6  UNL     1      -2.174   2.710   1.337  1.00  0.00    -0.033 A 
HETATM   18  C3  UNL     1      -2.958   4.660   2.022  1.00  0.00     0.008 A 
HETATM   19  C4  UNL     1      -2.632   3.413   2.512  1.00  0.00     0.073 A 
HETATM   20  C5  UNL     1      -2.164   2.054   2.448  1.00  0.00    -0.059 A 
HETATM   21  C27 UNL     1      -1.707   0.629   2.556  1.00  0.00     0.050 C 
HETATM   22  C20 UNL     1      -1.501   0.135   1.131  1.00  0.00     0.090 C 
BRANCH  16  23
HETATM   23  S1  UNL     1      -2.979   6.101  -0.413  1.00  0.00     0.046 S 
HETATM   24  C1  UNL     1      -1.573   7.136  -0.549  1.00  0.00     0.133 C 
HETATM   25  O1  UNL     1      -4.370   6.918   0.005  1.00  0.00    -0.253 OA
ENDBRANCH  16  23
BRANCH  22  26
HETATM   26  C21 UNL     1      -1.899  -1.271   0.972  1.00  0.00     0.223 C 
HETATM   27  O5  UNL     1      -2.176  -2.009   1.931  1.00  0.00    -0.273 OA
HETATM   28  N3  UNL     1      -1.980  -1.832  -0.320  1.00  0.00    -0.353 N 
ATOM     29  H3  UNL     1      -1.755  -1.228  -1.111  1.00  0.00     0.163 HD
BRANCH  28  30
HETATM   30  C22 UNL     1      -2.356  -3.192  -0.607  1.00  0.00     0.118 C 
HETATM   31  C23 UNL     1      -1.465  -3.870  -1.589  1.00  0.00     0.028 C 
HETATM   32  C24 UNL     1      -2.305  -5.003  -2.096  1.00  0.00     0.005 C 
HETATM   33  C25 UNL     1      -3.675  -4.385  -2.215  1.00  0.00     0.039 C 
HETATM   34  C26 UNL     1      -3.695  -3.152  -1.358  1.00  0.00     0.192 C 
HETATM   35  F1  UNL     1      -4.730  -3.163  -0.433  1.00  0.00    -0.247 F 
ENDBRANCH  28  30
ENDBRANCH  22  26
ENDBRANCH   5  11
BRANCH   7  36
HETATM   36  O3  UNL     1       4.359   0.274   0.208  1.00  0.00    -0.356 OA
BRANCH  36  37
HETATM   37  C13 UNL     1       5.350   0.094  -0.670  1.00  0.00     0.175 C 
BRANCH  37  38
HETATM   38  C14 UNL     1       6.061  -1.193  -0.805  1.00  0.00     0.009 A 
HETATM   39  C15 UNL     1       5.499  -2.495  -1.147  1.00  0.00     0.007 A 
HETATM   40  C16 UNL     1       6.176  -2.247   0.207  1.00  0.00     0.007 A 
ENDBRANCH  37  38
ENDBRANCH  36  37
ENDBRANCH   7  36
ENDBRANCH   1   4
TORSDOF 8
