REMARK  9 active torsions:
REMARK  status: ('A' for Active; 'I' for Inactive)
REMARK    1  A    between atoms: O1_2  and  C2_3 
REMARK    2  A    between atoms: C4_7  and  N2_8 
REMARK    3  A    between atoms: N2_8  and  C5_10 
REMARK    4  A    between atoms: C7_14  and  C8_15 
REMARK    5  A    between atoms: C8_15  and  C9_17 
REMARK    6  A    between atoms: C9_17  and  C10_18 
REMARK    7  A    between atoms: N4_24  and  C16_26 
REMARK    8  A    between atoms: N5_29  and  S1_30 
REMARK    9  A    between atoms: S1_30  and  C19_33 
ROOT
HETATM    1  C5  UNL     1      -3.893   0.545   0.562  1.00  0.00     0.684 A 
HETATM    2  N3  UNL     1      -4.526  -0.521   1.075  1.00  0.00    -0.201 N 
ATOM      3  H3  UNL     1      -5.517  -0.439   1.301  1.00  0.00     0.183 HD
HETATM    4  C6  UNL     1      -3.908  -1.691   1.303  1.00  0.00     0.125 A 
HETATM    5  C7  UNL     1      -2.535  -1.803   0.989  1.00  0.00     0.070 A 
HETATM    6  C15 UNL     1      -1.881  -0.730   0.469  1.00  0.00     0.132 A 
HETATM    7  N4  UNL     1      -0.673  -0.753   0.174  1.00  0.00    -0.370 N 
ATOM      8  H4  UNL     1      -0.242  -1.657   0.367  1.00  0.00     0.161 HD
HETATM    9  N6  UNL     1      -2.592   0.426   0.269  1.00  0.00    -0.176 N 
ATOM     10  H6  UNL     1      -2.106   1.233  -0.122  1.00  0.00     0.186 HD
ENDROOT
BRANCH   5  11
HETATM   11  C8  UNL     1      -1.845  -3.061   1.219  1.00  0.00     0.165 C 
HETATM   12  O2  UNL     1      -2.572  -3.967   1.771  1.00  0.00    -0.292 OA
BRANCH  11  13
HETATM   13  C9  UNL     1      -0.481  -3.411   0.913  1.00  0.00     0.093 C 
BRANCH  13  14
HETATM   14  C10 UNL     1       0.002  -4.782   1.212  1.00  0.00    -0.034 A 
HETATM   15  C11 UNL     1       1.500  -5.005   0.844  1.00  0.00     0.016 C 
HETATM   16  C12 UNL     1      -0.538  -5.722   2.184  1.00  0.00     0.015 A 
HETATM   17  C13 UNL     1      -0.918  -5.918   0.742  1.00  0.00    -0.009 A 
HETATM   18  C14 UNL     1      -0.220  -7.046  -0.029  1.00  0.00     0.011 C 
ENDBRANCH  13  14
ENDBRANCH  11  13
ENDBRANCH   5  11
BRANCH   7  19
HETATM   19  C16 UNL     1       0.234   0.167  -0.359  1.00  0.00     0.092 C 
HETATM   20  C17 UNL     1       0.773   1.205   0.598  1.00  0.00     0.071 C 
HETATM   21  C18 UNL     1       1.597   2.227  -0.112  1.00  0.00     0.083 C 
HETATM   22  N5  UNL     1       2.160   1.874  -1.337  1.00  0.00    -0.269 N 
HETATM   23  C22 UNL     1       2.118   0.572  -1.816  1.00  0.00     0.083 C 
HETATM   24  C23 UNL     1       1.469  -0.471  -0.984  1.00  0.00     0.071 C 
BRANCH  22  25
HETATM   25  S1  UNL     1       3.700   2.599  -1.639  1.00  0.00     0.239 S 
HETATM   26  O3  UNL     1       3.553   4.098  -1.673  1.00  0.00    -0.205 OA
HETATM   27  O4  UNL     1       4.236   2.190  -2.986  1.00  0.00    -0.205 OA
BRANCH  25  28
HETATM   28  C19 UNL     1       4.908   2.110  -0.433  1.00  0.00     0.130 A 
HETATM   29  C20 UNL     1       5.657   0.834  -0.598  1.00  0.00     0.023 A 
HETATM   30  C21 UNL     1       6.335   2.149  -0.832  1.00  0.00     0.023 A 
ENDBRANCH  25  28
ENDBRANCH  22  25
ENDBRANCH   7  19
BRANCH   1  31
HETATM   31  N2  UNL     1      -4.556   1.640   0.373  1.00  0.00    -0.190 N 
ATOM     32  H2  UNL     1      -5.545   1.662   0.621  1.00  0.00     0.184 HD
BRANCH  31  33
HETATM   33  C4  UNL     1      -3.964   2.811  -0.165  1.00  0.00     0.067 A 
HETATM   34  C3  UNL     1      -3.381   3.673   0.761  1.00  0.00     0.120 A 
HETATM   35  N1  UNL     1      -2.798   4.813   0.292  1.00  0.00    -0.342 N 
HETATM   36  C2  UNL     1      -2.791   5.088  -1.017  1.00  0.00     0.181 A 
ATOM     37  H1  UNL     1      -2.363   5.463   0.946  1.00  0.00     0.167 HD
HETATM   38  C25 UNL     1      -3.365   4.243  -1.936  1.00  0.00     0.169 A 
HETATM   39  C24 UNL     1      -3.970   3.070  -1.504  1.00  0.00     0.078 A 
HETATM   40  F1  UNL     1      -3.353   4.528  -3.256  1.00  0.00    -0.201 F 
BRANCH  36  41
HETATM   41  O1  UNL     1      -2.195   6.248  -1.464  1.00  0.00    -0.338 OA
HETATM   42  C1  UNL     1      -1.594   7.144  -0.550  1.00  0.00     0.211 C 
ENDBRANCH  36  41
ENDBRANCH  31  33
ENDBRANCH   1  31
TORSDOF 9
