REMARK  8 active torsions:
REMARK  status: ('A' for Active; 'I' for Inactive)
REMARK    1  A    between atoms: O1_2  and  C2_3 
REMARK    2  A    between atoms: C2_3  and  C3_5 
REMARK    3  A    between atoms: C8_11  and  S1_12 
REMARK    4  A    between atoms: S1_12  and  N1_15 
REMARK    5  A    between atoms: N1_15  and  C9_17 
REMARK    6  A    between atoms: C9_17  and  C10_18 
REMARK    7  A    between atoms: C9_17  and  C14_22 
REMARK    8  A    between atoms: C10_18  and  C11_19 
REMARK       I    between atoms: C14_22  and  N2_24 
ROOT
HETATM    1  S1  UNL     1       0.403  -1.404  -3.018  1.00  0.00     0.261 S 
HETATM    2  O3  UNL     1       1.038  -0.268  -3.793  1.00  0.00    -0.200 OA
HETATM    3  O4  UNL     1       0.612  -2.624  -3.920  1.00  0.00    -0.200 OA
ENDROOT
BRANCH   1   4
HETATM    4  C8  UNL     1       1.278  -1.726  -1.553  1.00  0.00     0.108 A 
HETATM    5  C7  UNL     1       2.007  -0.722  -0.919  1.00  0.00     0.071 A 
HETATM    6  C6  UNL     1       2.665  -0.944   0.248  1.00  0.00     0.028 A 
HETATM    7 CL1  UNL     1       2.113   0.839  -1.690  1.00  0.00    -0.082 Cl
HETATM    8  C4  UNL     1       3.384   0.071   0.865  1.00  0.00    -0.025 A 
HETATM    9  C22 UNL     1       2.614  -2.205   0.827  1.00  0.00     0.092 A 
HETATM   10  C3  UNL     1       4.014  -0.304   2.068  1.00  0.00     0.121 A 
HETATM   11  C5  UNL     1       3.489   1.420   0.331  1.00  0.00     0.050 C 
HETATM   12  C23 UNL     1       3.908  -1.579   2.566  1.00  0.00     0.305 A 
HETATM   13  O6  UNL     1       3.216  -2.491   1.938  1.00  0.00    -0.274 OA
HETATM   14  O7  UNL     1       4.467  -1.934   3.643  1.00  0.00    -0.259 OA
HETATM   15  C21 UNL     1       1.891  -3.213   0.199  1.00  0.00     0.046 A 
HETATM   16  C19 UNL     1       1.226  -2.982  -0.982  1.00  0.00    -0.034 A 
HETATM   17  C20 UNL     1       0.471  -4.100  -1.618  1.00  0.00     0.050 C 
BRANCH  10  18
HETATM   18  C2  UNL     1       4.795   0.697   2.793  1.00  0.00     0.299 C 
HETATM   19  O2  UNL     1       4.239   1.419   3.663  1.00  0.00    -0.259 OA
BRANCH  18  20
HETATM   20  O1  UNL     1       6.153   0.899   2.568  1.00  0.00    -0.322 OA
HETATM   21  C1  UNL     1       6.898   1.872   3.277  1.00  0.00     0.213 C 
ENDBRANCH  18  20
ENDBRANCH  10  18
ENDBRANCH   1   4
BRANCH   1  22
HETATM   22  N1  UNL     1      -1.226  -1.225  -2.771  1.00  0.00    -0.301 N 
ATOM     23  H1  UNL     1      -1.879  -1.867  -3.220  1.00  0.00     0.173 HD
BRANCH  22  24
HETATM   24  C9  UNL     1      -1.731  -0.164  -1.923  1.00  0.00     0.185 C 
BRANCH  24  25
HETATM   25  C10 UNL     1      -2.507   0.804  -2.781  1.00  0.00     0.039 C 
BRANCH  25  26
HETATM   26  C11 UNL     1      -3.156   1.970  -2.206  1.00  0.00    -0.020 C 
HETATM   27  C12 UNL     1      -4.239   1.794  -1.206  1.00  0.00     0.009 C 
HETATM   28  C13 UNL     1      -3.796   2.767  -3.369  1.00  0.00     0.009 C 
ENDBRANCH  25  26
ENDBRANCH  24  25
BRANCH  24  29
HETATM   29  C14 UNL     1      -2.481  -0.786  -0.828  1.00  0.00     0.243 C 
HETATM   30  O5  UNL     1      -3.316  -1.730  -1.029  1.00  0.00    -0.271 OA
HETATM   31  N2  UNL     1      -2.289  -0.351   0.510  1.00  0.00    -0.347 N 
HETATM   32  C15 UNL     1      -1.349   0.665   0.921  1.00  0.00     0.153 C 
HETATM   33  C18 UNL     1      -3.071  -0.954   1.594  1.00  0.00     0.153 C 
HETATM   34  C16 UNL     1      -1.637   1.010   2.382  1.00  0.00     0.252 C 
HETATM   35  N3  UNL     1      -3.028   1.285   2.590  1.00  0.00    -0.072 N 
HETATM   36  C17 UNL     1      -3.839   0.130   2.284  1.00  0.00     0.252 C 
ATOM     37  H32 UNL     1      -3.206   1.629   3.534  1.00  0.00     0.277 HD
ATOM     38  H31 UNL     1      -3.331   2.106   2.066  1.00  0.00     0.277 HD
ENDBRANCH  24  29
ENDBRANCH  22  24
ENDBRANCH   1  22
TORSDOF 8
