REMARK  9 active torsions:
REMARK  status: ('A' for Active; 'I' for Inactive)
REMARK    1  A    between atoms: O1_2  and  N1_3 
REMARK    2  A    between atoms: C2_5  and  C3_6 
REMARK    3  A    between atoms: C3_6  and  O2_7 
REMARK    4  A    between atoms: C3_6  and  C4_9 
REMARK    5  A    between atoms: C4_9  and  C5_10 
REMARK    6  A    between atoms: C5_10  and  C6_11 
REMARK    7  A    between atoms: C8_14  and  O4_15 
REMARK    8  A    between atoms: O4_15  and  C9_16 
REMARK    9  A    between atoms: C14_22  and  C15_23 
ROOT
HETATM    1  C6  UNL     1      -0.615   0.664  -1.304  1.00  0.00     0.199 C 
HETATM    2  O3  UNL     1      -1.114   0.885  -2.578  1.00  0.00    -0.349 OA
HETATM    3  C7  UNL     1      -1.512  -0.443  -2.595  1.00  0.00     0.216 C 
HETATM    4  C8  UNL     1      -1.717  -0.352  -1.132  1.00  0.00     0.148 C 
HETATM    5  C11 UNL     1      -2.966   0.458  -0.833  1.00  0.00     0.054 C 
HETATM    6  C12 UNL     1      -2.733   0.998   0.574  1.00  0.00     0.024 C 
HETATM    7  C13 UNL     1      -3.847   1.943   0.887  1.00  0.00     0.013 C 
HETATM    8  C14 UNL     1      -1.361   1.569   0.718  1.00  0.00     0.229 C 
HETATM    9  O8  UNL     1      -0.646   1.700  -0.430  1.00  0.00    -0.336 OA
ENDROOT
BRANCH   1  10
HETATM   10  C5  UNL     1       0.777   0.084  -1.363  1.00  0.00     0.075 C 
BRANCH  10  11
HETATM   11  C4  UNL     1       1.366  -0.156   0.022  1.00  0.00     0.043 C 
BRANCH  11  12
HETATM   12  C3  UNL     1       2.762  -0.739  -0.208  1.00  0.00     0.158 C 
BRANCH  12  13
HETATM   13  C2  UNL     1       3.379  -0.991   1.109  1.00  0.00     0.118 C 
HETATM   14  N1  UNL     1       4.662  -1.038   1.209  1.00  0.00    -0.280 N 
ATOM     15  H1  UNL     1       5.085  -1.212   2.121  1.00  0.00     0.193 HD
BRANCH  14  16
HETATM   16  O1  UNL     1       5.464  -0.861   0.126  1.00  0.00    -0.286 OA
HETATM   17  C1  UNL     1       6.782  -0.353   0.202  1.00  0.00     0.237 C 
ENDBRANCH  14  16
ENDBRANCH  12  13
BRANCH  12  18
HETATM   18  O2  UNL     1       3.537   0.108  -0.984  1.00  0.00    -0.390 OA
ATOM     19  H2  UNL     1       3.140   0.270  -1.832  1.00  0.00     0.210 HD
ENDBRANCH  12  18
ENDBRANCH  11  12
ENDBRANCH  10  11
ENDBRANCH   1  10
BRANCH   4  20
HETATM   20  O4  UNL     1      -1.430  -1.429  -0.332  1.00  0.00    -0.302 OA
BRANCH  20  21
HETATM   21  C9  UNL     1      -2.261  -2.463  -0.059  1.00  0.00     0.255 C 
HETATM   22  C10 UNL     1      -1.872  -3.617   0.841  1.00  0.00     0.126 C 
HETATM   23  O5  UNL     1      -3.405  -2.479  -0.567  1.00  0.00    -0.266 OA
ENDBRANCH  20  21
ENDBRANCH   4  20
BRANCH   8  24
HETATM   24  C15 UNL     1      -1.453   2.895   1.377  1.00  0.00     0.203 C 
HETATM   25  O6  UNL     1      -0.927   3.914   0.864  1.00  0.00    -0.646 OA
HETATM   26  O7  UNL     1      -2.120   3.062   2.581  1.00  0.00    -0.646 OA
ENDBRANCH   8  24
TORSDOF 9
