REMARK  7 active torsions:
REMARK  status: ('A' for Active; 'I' for Inactive)
REMARK    1  A    between atoms: C3_8  and  N4_9 
REMARK    2  A    between atoms: C3_8  and  N5_15 
REMARK    3  A    between atoms: C8_18  and  C9_19 
REMARK    4  A    between atoms: C9_19  and  C10_20 
REMARK    5  A    between atoms: N6_21  and  C11_23 
REMARK    6  A    between atoms: C11_23  and  C12_24 
REMARK    7  A    between atoms: C12_24  and  C13_25 
ROOT
HETATM    1  N1  UNL     1       0.140  -0.724  -4.185  1.00  0.00    -0.062 NA
HETATM    2  C1  UNL     1      -0.590  -0.870  -2.969  1.00  0.00     0.203 C 
HETATM    3  N2  UNL     1      -1.304  -1.969  -2.918  1.00  0.00    -0.274 N 
ATOM      4  H2  UNL     1      -1.282  -2.604  -3.716  1.00  0.00     0.189 HD
HETATM    5  N3  UNL     1      -2.099  -2.308  -1.809  1.00  0.00    -0.309 N 
ATOM      6  H3  UNL     1      -2.382  -3.287  -1.773  1.00  0.00     0.185 HD
HETATM    7  C2  UNL     1      -2.531  -1.586  -0.828  1.00  0.00     0.142 C 
HETATM    8  C3  UNL     1      -2.309  -0.119  -0.568  1.00  0.00     0.224 C 
HETATM    9  C8  UNL     1      -0.868   0.162  -0.596  1.00  0.00     0.149 C 
HETATM   10  N7  UNL     1      -0.444   0.169  -2.009  1.00  0.00    -0.354 N 
ATOM     11  H7  UNL     1       0.009   1.022  -2.337  1.00  0.00     0.162 HD
ENDROOT
BRANCH   8  12
HETATM   12  N4  UNL     1      -3.085   0.224   0.541  1.00  0.00    -0.352 N 
HETATM   13  C4  UNL     1      -2.850  -0.370   1.784  1.00  0.00     0.087 C 
HETATM   14  C5  UNL     1      -4.166  -0.769   2.415  1.00  0.00     0.212 C 
HETATM   15  O1  UNL     1      -5.030   0.310   2.447  1.00  0.00    -0.385 OA
HETATM   16  C6  UNL     1      -5.359   0.636   1.112  1.00  0.00     0.188 C 
HETATM   17  C7  UNL     1      -4.060   1.204   0.506  1.00  0.00     0.151 C 
ENDBRANCH   8  12
BRANCH   8  18
HETATM   18  N5  UNL     1      -2.877   0.531  -1.765  1.00  0.00    -0.116 N 
HETATM   19  O2  UNL     1      -3.570  -0.031  -2.601  1.00  0.00    -0.534 OA
HETATM   20  O3  UNL     1      -2.582   1.875  -1.911  1.00  0.00    -0.534 OA
ENDBRANCH   8  18
BRANCH   9  21
HETATM   21  C9  UNL     1       0.053  -0.790   0.092  1.00  0.00     0.074 C 
BRANCH  21  22
HETATM   22  C10 UNL     1       1.491  -0.370  -0.050  1.00  0.00     0.057 C 
HETATM   23  N6  UNL     1       2.105   0.327   0.817  1.00  0.00    -0.402 N 
ATOM     24  H6  UNL     1       1.609   0.625   1.657  1.00  0.00     0.158 HD
BRANCH  23  25
HETATM   25  C11 UNL     1       3.466   0.703   0.647  1.00  0.00     0.119 C 
BRANCH  25  26
HETATM   26  C12 UNL     1       4.392  -0.436   1.075  1.00  0.00     0.024 C 
BRANCH  26  27
HETATM   27  C13 UNL     1       5.836  -0.055   0.904  1.00  0.00    -0.013 A 
HETATM   28  C14 UNL     1       6.355   1.146   1.670  1.00  0.00     0.005 A 
HETATM   29  C15 UNL     1       6.264   1.154   0.182  1.00  0.00     0.005 A 
ENDBRANCH  26  27
ENDBRANCH  25  26
ENDBRANCH  23  25
ENDBRANCH  21  22
ENDBRANCH   9  21
TORSDOF 7
