REMARK  10 active torsions:
REMARK  status: ('A' for Active; 'I' for Inactive)
REMARK    1  A    between atoms: O1_2  and  C2_3 
REMARK    2  A    between atoms: C3_4  and  C4_5 
REMARK       I    between atoms: C4_5  and  N1_7 
REMARK    3  A    between atoms: N1_7  and  C5_9 
REMARK    4  A    between atoms: C5_9  and  C6_10 
REMARK    5  A    between atoms: C6_10  and  C7_11 
REMARK    6  A    between atoms: C7_11  and  C9_13 
REMARK    7  A    between atoms: C9_13  and  O3_14 
REMARK    8  A    between atoms: C9_13  and  N2_16 
REMARK    9  A    between atoms: N2_16  and  N3_18 
REMARK   10  A    between atoms: N3_18  and  N4_19 
ROOT
HETATM    1  C4  UNL     1      -0.399  -0.390  -0.999  1.00  0.00     0.249 C 
HETATM    2  O2  UNL     1      -0.749  -1.312  -1.776  1.00  0.00    -0.271 OA
HETATM    3  N1  UNL     1      -1.396   0.568  -0.641  1.00  0.00    -0.359 N 
ATOM      4  H1  UNL     1      -1.125   1.324  -0.012  1.00  0.00     0.162 HD
ENDROOT
BRANCH   3   5
HETATM    5  C5  UNL     1      -2.744   0.539  -1.104  1.00  0.00     0.123 C 
BRANCH   5   6
HETATM    6  C6  UNL     1      -3.538  -0.668  -0.748  1.00  0.00     0.028 C 
BRANCH   6   7
HETATM    7  C7  UNL     1      -3.706  -0.971   0.692  1.00  0.00     0.034 C 
HETATM    8  C8  UNL     1      -4.554  -2.254   0.760  1.00  0.00     0.014 C 
BRANCH   7   9
HETATM    9  C9  UNL     1      -4.431   0.037   1.516  1.00  0.00     0.250 C 
BRANCH   9  10
HETATM   10  O3  UNL     1      -4.462  -0.487   2.836  1.00  0.00    -0.374 OA
ATOM     11  H3  UNL     1      -4.924   0.156   3.361  1.00  0.00     0.212 HD
ENDBRANCH   9  10
BRANCH   9  12
HETATM   12  N2  UNL     1      -3.814   1.340   1.566  1.00  0.00    -0.223 N 
ATOM     13  H2  UNL     1      -2.805   1.396   1.426  1.00  0.00     0.200 HD
BRANCH  12  14
HETATM   14  N3  UNL     1      -4.417   2.374   1.764  1.00  0.00    -0.246 NA
BRANCH  14  15
HETATM   15  N4  UNL     1      -5.027   3.430   1.593  1.00  0.00    -0.261 N 
ATOM     16  H42 UNL     1      -4.988   3.391   0.574  1.00  0.00     0.193 HD
ATOM     17  H41 UNL     1      -5.534   4.299   1.759  1.00  0.00     0.193 HD
ENDBRANCH  14  15
ENDBRANCH  12  14
ENDBRANCH   9  12
ENDBRANCH   7   9
ENDBRANCH   6   7
ENDBRANCH   5   6
ENDBRANCH   3   5
BRANCH   1  18
HETATM   18  C3  UNL     1       0.978  -0.347  -0.514  1.00  0.00     0.248 C 
HETATM   19  C2  UNL     1       1.764   0.866  -0.894  1.00  0.00     0.193 C 
HETATM   20  C14 UNL     1       3.180   0.356  -0.712  1.00  0.00     0.212 C 
HETATM   21  C10 UNL     1       3.036  -1.133  -0.865  1.00  0.00     0.296 C 
HETATM   22  O6  UNL     1       3.635   0.516   0.586  1.00  0.00    -0.343 OA
HETATM   23  O4  UNL     1       1.688  -1.421  -1.028  1.00  0.00    -0.341 OA
HETATM   24  O5  UNL     1       3.546  -1.624   0.324  1.00  0.00    -0.323 OA
HETATM   25  C11 UNL     1       4.436  -0.635   0.735  1.00  0.00     0.160 C 
HETATM   26  C12 UNL     1       4.830  -0.772   2.176  1.00  0.00     0.078 C 
HETATM   27  C13 UNL     1       5.646  -0.538  -0.148  1.00  0.00     0.078 C 
BRANCH  19  28
HETATM   28  O1  UNL     1       1.535   1.363  -2.148  1.00  0.00    -0.385 OA
HETATM   29  C1  UNL     1       1.150   2.675  -2.224  1.00  0.00     0.202 C 
ENDBRANCH  19  28
ENDBRANCH   1  18
TORSDOF 10
