REMARK  8 active torsions:
REMARK  status: ('A' for Active; 'I' for Inactive)
REMARK    1  A    between atoms: C3_6  and  C4_7 
REMARK    2  A    between atoms: C5_8  and  S1_9 
REMARK    3  A    between atoms: S1_9  and  N3_12 
REMARK    4  A    between atoms: N3_12  and  C6_14 
REMARK    5  A    between atoms: C6_14  and  C7_15 
REMARK    6  A    between atoms: C7_15  and  N4_16 
REMARK    7  A    between atoms: C12_23  and  C13_24 
REMARK    8  A    between atoms: C13_24  and  O4_25 
ROOT
HETATM    1  N1  UNL     1       3.959   2.863  -2.932  1.00  0.00    -0.190 NA
HETATM    2  C1  UNL     1       4.030   1.967  -2.203  1.00  0.00     0.119 C 
HETATM    3  C2  UNL     1       4.141   0.821  -1.289  1.00  0.00     0.130 A 
HETATM    4  N2  UNL     1       3.138   0.037  -1.048  1.00  0.00    -0.341 N 
ATOM      5  H2  UNL     1       2.238   0.207  -1.497  1.00  0.00     0.167 HD
HETATM    6  C3  UNL     1       3.281  -0.981  -0.221  1.00  0.00     0.076 A 
HETATM    7  S2  UNL     1       4.912  -0.850   0.257  1.00  0.00    -0.072 SA
HETATM    8  C12 UNL     1       5.329   0.547  -0.660  1.00  0.00     0.045 A 
ENDROOT
BRANCH   8   9
HETATM    9  C13 UNL     1       6.639   1.278  -0.746  1.00  0.00     0.213 C 
BRANCH   9  10
HETATM   10  O4  UNL     1       7.531   0.580   0.092  1.00  0.00    -0.396 OA
ATOM     11  H4  UNL     1       8.359   1.042   0.038  1.00  0.00     0.209 HD
ENDBRANCH   9  10
ENDBRANCH   8   9
BRANCH   6  12
HETATM   12  C4  UNL     1       2.255  -1.969   0.171  1.00  0.00     0.050 C 
HETATM   13  C5  UNL     1       1.030  -1.924  -0.297  1.00  0.00     0.134 C 
BRANCH  13  14
HETATM   14  S1  UNL     1      -0.125  -3.119   0.206  1.00  0.00     0.248 S 
HETATM   15  O1  UNL     1       0.619  -4.284   0.807  1.00  0.00    -0.201 OA
HETATM   16  O2  UNL     1      -0.911  -3.574  -1.005  1.00  0.00    -0.201 OA
BRANCH  14  17
HETATM   17  N3  UNL     1      -1.189  -2.470   1.401  1.00  0.00    -0.314 N 
ATOM     18  H3  UNL     1      -1.295  -2.804   2.359  1.00  0.00     0.172 HD
BRANCH  17  19
HETATM   19  C6  UNL     1      -1.906  -1.360   0.792  1.00  0.00     0.162 C 
BRANCH  19  20
HETATM   20  C7  UNL     1      -2.862  -0.721   1.762  1.00  0.00     0.292 C 
BRANCH  20  21
HETATM   21  N4  UNL     1      -3.588   0.368   1.194  1.00  0.00     0.094 N 
HETATM   22  C8  UNL     1      -4.527  -0.083   0.195  1.00  0.00     0.298 C 
HETATM   23  C9  UNL     1      -5.178   1.070  -0.527  1.00  0.00     0.198 C 
HETATM   24  O3  UNL     1      -4.258   1.908  -1.131  1.00  0.00    -0.388 OA
HETATM   25  C10 UNL     1      -2.958   1.726  -0.746  1.00  0.00     0.198 C 
HETATM   26  C11 UNL     1      -2.783   1.466   0.738  1.00  0.00     0.298 C 
ENDBRANCH  20  21
ENDBRANCH  19  20
ENDBRANCH  17  19
ENDBRANCH  14  17
ENDBRANCH  13  14
ENDBRANCH   6  12
TORSDOF 8
