REMARK  5 active torsions:
REMARK  status: ('A' for Active; 'I' for Inactive)
REMARK    1  A    between atoms: C2_2  and  O1_3 
REMARK    2  A    between atoms: O1_3  and  C3_4 
REMARK    3  A    between atoms: C6_7  and  N1_8 
REMARK    4  A    between atoms: N1_8  and  C7_10 
REMARK    5  A    between atoms: C10_16  and  C11_17 
ROOT
HETATM    1  C7  UNL     1       0.407  -0.310   1.336  1.00  0.00     0.150 A 
HETATM    2  N2  UNL     1       0.177   0.079   0.075  1.00  0.00    -0.330 N 
ATOM      3  H2  UNL     1       0.948   0.275  -0.564  1.00  0.00     0.168 HD
HETATM    4  C8  UNL     1      -1.061   0.200  -0.311  1.00  0.00     0.089 A 
HETATM    5  C9  UNL     1      -2.067  -0.070   0.562  1.00  0.00     0.049 A 
HETATM    6  S1  UNL     1      -1.167  -0.498   1.955  1.00  0.00    -0.051 SA
HETATM    7  C10 UNL     1      -3.519   0.028   0.219  1.00  0.00    -0.028 C 
HETATM    8  C14 UNL     1      -4.049   0.940  -0.787  1.00  0.00    -0.010 C 
HETATM    9  C15 UNL     1      -4.597   0.221  -2.027  1.00  0.00     0.021 C 
HETATM   10  C16 UNL     1      -5.166   1.810  -0.254  1.00  0.00     0.021 C 
HETATM   11  C17 UNL     1      -3.019   1.905  -1.381  1.00  0.00     0.094 C 
HETATM   12  S2  UNL     1      -1.667   0.774  -1.938  1.00  0.00    -0.110 SA
ENDROOT
BRANCH   1  13
HETATM   13  N1  UNL     1       1.547  -0.500   1.950  1.00  0.00    -0.337 N 
ATOM     14  H1  UNL     1       1.532  -0.799   2.925  1.00  0.00     0.168 HD
BRANCH  13  15
HETATM   15  C6  UNL     1       2.786  -0.310   1.326  1.00  0.00     0.034 A 
HETATM   16  C5  UNL     1       3.158   0.970   0.970  1.00  0.00     0.032 A 
HETATM   17  C4  UNL     1       4.369   1.204   0.353  1.00  0.00     0.039 A 
HETATM   18  C3  UNL     1       5.238   0.174   0.076  1.00  0.00     0.068 A 
HETATM   19  C19 UNL     1       4.843  -1.110   0.445  1.00  0.00     0.039 A 
HETATM   20  C18 UNL     1       3.647  -1.367   1.057  1.00  0.00     0.032 A 
BRANCH  18  21
HETATM   21  O1  UNL     1       6.454   0.427  -0.545  1.00  0.00    -0.352 OA
BRANCH  21  22
HETATM   22  C2  UNL     1       7.299  -0.688  -0.799  1.00  0.00     0.171 C 
HETATM   23  C1  UNL     1       8.562  -0.229  -1.472  1.00  0.00     0.034 C 
ENDBRANCH  21  22
ENDBRANCH  18  21
ENDBRANCH  13  15
ENDBRANCH   1  13
BRANCH   7  24
HETATM   24  C11 UNL     1      -4.306  -0.785   0.879  1.00  0.00    -0.079 C 
HETATM   25  C12 UNL     1      -3.763  -1.753   1.912  1.00  0.00     0.043 C 
HETATM   26  C13 UNL     1      -5.764  -0.832   0.708  1.00  0.00     0.043 C 
ENDBRANCH   7  24
TORSDOF 5
