REMARK  4 active torsions:
REMARK  status: ('A' for Active; 'I' for Inactive)
REMARK    1  A    between atoms: C2_2  and  C3_3 
REMARK    2  A    between atoms: C3_3  and  C5_5 
REMARK    3  A    between atoms: C5_5  and  C6_6 
REMARK    4  A    between atoms: C11_11  and  O1_12 
ROOT
HETATM    1  C5  UNL     1      -1.226  -0.247  -0.005  1.00  0.00     0.032 C 
HETATM    2  C9  UNL     1       0.237  -0.235   0.222  1.00  0.00     0.028 A 
HETATM    3  C10 UNL     1       0.641  -0.399   1.556  1.00  0.00     0.150 A 
HETATM    4  C11 UNL     1       1.956  -0.371   1.933  1.00  0.00     0.109 A 
HETATM    5  C12 UNL     1       2.990  -0.184   1.017  1.00  0.00    -0.012 A 
HETATM    6  C13 UNL     1       4.379  -0.159   1.450  1.00  0.00     0.052 C 
HETATM    7  C14 UNL     1       2.614  -0.028  -0.294  1.00  0.00     0.012 A 
HETATM    8  C15 UNL     1       1.254  -0.057  -0.667  1.00  0.00     0.090 A 
HETATM    9  O2  UNL     1       0.932   0.091  -1.956  1.00  0.00    -0.346 OA
HETATM   10  C16 UNL     1       1.803   0.207  -2.997  1.00  0.00     0.204 A 
HETATM   11  C17 UNL     1       3.219   0.242  -2.590  1.00  0.00     0.007 A 
HETATM   12  C18 UNL     1       3.644   0.133  -1.318  1.00  0.00    -0.050 A 
HETATM   13  C19 UNL     1       5.054   0.181  -0.981  1.00  0.00     0.049 C 
HETATM   14  O3  UNL     1      -0.350  -0.614   2.549  1.00  0.00    -0.193 OA
HETATM   15  O4  UNL     1      -1.378  -1.267   2.178  1.00  0.00    -0.224 OA
HETATM   16  C20 UNL     1      -1.547  -1.532   0.815  1.00  0.00     0.102 C 
HETATM   17  C21 UNL     1      -0.574  -2.646   0.567  1.00  0.00     0.050 C 
HETATM   18  C22 UNL     1      -2.861  -2.174   0.715  1.00  0.00     0.050 C 
ENDROOT
BRANCH   1  19
HETATM   19  C3  UNL     1      -1.777   0.891   0.881  1.00  0.00    -0.002 C 
HETATM   20  C4  UNL     1      -3.105   0.798   1.416  1.00  0.00     0.011 C 
BRANCH  19  21
HETATM   21  C2  UNL     1      -1.581   2.283   0.307  1.00  0.00     0.001 C 
HETATM   22  C1  UNL     1      -1.773   3.255   1.473  1.00  0.00     0.005 C 
ENDBRANCH  19  21
ENDBRANCH   1  19
BRANCH   1  23
HETATM   23  C6  UNL     1      -1.802  -0.287  -1.325  1.00  0.00    -0.006 C 
HETATM   24  C7  UNL     1      -1.782   0.896  -2.242  1.00  0.00     0.011 C 
HETATM   25  C8  UNL     1      -3.095  -0.905  -1.668  1.00  0.00     0.011 C 
ENDBRANCH   1  23
BRANCH   4  26
HETATM   26  O1  UNL     1       2.316  -0.534   3.287  1.00  0.00    -0.357 OA
ATOM     27  H1  UNL     1       3.229  -0.515   3.549  1.00  0.00     0.217 HD
ENDBRANCH   4  26
TORSDOF 4
