REMARK  6 active torsions:
REMARK  status: ('A' for Active; 'I' for Inactive)
REMARK    1  A    between atoms: C4_7  and  C5_8 
REMARK    2  A    between atoms: C5_8  and  C6_10 
REMARK    3  A    between atoms: C7_11  and  C8_12 
REMARK    4  A    between atoms: C10_14  and  C11_15 
REMARK    5  A    between atoms: C15_19  and  O2_20 
REMARK    6  A    between atoms: C16_22  and  C17_23 
ROOT
HETATM    1  C8  UNL     1       0.295  -0.423   0.218  1.00  0.00    -0.029 A 
HETATM    2  C9  UNL     1       0.109   0.781  -0.411  1.00  0.00     0.022 A 
HETATM    3  C10 UNL     1      -1.151   1.201  -0.693  1.00  0.00    -0.016 A 
HETATM    4  C15 UNL     1      -2.265   0.431  -0.356  1.00  0.00     0.080 A 
HETATM    5  C16 UNL     1      -2.114  -0.814   0.291  1.00  0.00    -0.010 A 
HETATM    6  C21 UNL     1      -0.833  -1.210   0.568  1.00  0.00    -0.042 A 
HETATM    7  C22 UNL     1      -0.575  -2.431   1.331  1.00  0.00     0.049 C 
ENDROOT
BRANCH   1   8
HETATM    8  C7  UNL     1       1.623  -0.936   0.504  1.00  0.00     0.016 C 
HETATM    9  C6  UNL     1       2.732  -0.261   0.278  1.00  0.00     0.057 C 
BRANCH   9  10
HETATM   10  C5  UNL     1       4.038  -0.814   0.579  1.00  0.00     0.191 C 
HETATM   11  O1  UNL     1       4.136  -1.953   1.064  1.00  0.00    -0.287 OA
BRANCH  10  12
HETATM   12  C4  UNL     1       5.267  -0.056   0.324  1.00  0.00     0.078 A 
HETATM   13  C2  UNL     1       6.561  -0.450   0.557  1.00  0.00     0.026 A 
HETATM   14  C1  UNL     1       6.880  -1.817   1.150  1.00  0.00     0.070 C 
HETATM   15  N1  UNL     1       7.496   0.388   0.253  1.00  0.00    -0.362 N 
HETATM   16  C3  UNL     1       7.194   1.569  -0.261  1.00  0.00     0.139 A 
ATOM     17  H1  UNL     1       8.472   0.138   0.410  1.00  0.00     0.165 HD
HETATM   18  S1  UNL     1       5.489   1.507  -0.324  1.00  0.00    -0.079 SA
ENDBRANCH  10  12
ENDBRANCH   9  10
ENDBRANCH   1   8
BRANCH   3  19
HETATM   19  C11 UNL     1      -1.330   2.513  -1.377  1.00  0.00    -0.021 C 
HETATM   20  C12 UNL     1      -2.037   2.354  -2.703  1.00  0.00     0.019 C 
HETATM   21  C13 UNL     1       0.008   3.143  -1.634  1.00  0.00     0.019 C 
HETATM   22  C14 UNL     1      -2.091   3.425  -0.436  1.00  0.00     0.019 C 
ENDBRANCH   3  19
BRANCH   5  23
HETATM   23  C17 UNL     1      -3.319  -1.538   0.533  1.00  0.00    -0.021 C 
HETATM   24  C18 UNL     1      -3.364  -2.865   1.183  1.00  0.00     0.019 C 
HETATM   25  C19 UNL     1      -4.347  -0.718   1.358  1.00  0.00     0.019 C 
HETATM   26  C20 UNL     1      -4.078  -1.762  -0.815  1.00  0.00     0.019 C 
ENDBRANCH   5  23
BRANCH   4  27
HETATM   27  O2  UNL     1      -3.439   0.930  -0.674  1.00  0.00    -0.360 OA
ATOM     28  H2  UNL     1      -4.197   0.406  -0.445  1.00  0.00     0.217 HD
ENDBRANCH   4  27
TORSDOF 6
