REMARK  4 active torsions:
REMARK  status: ('A' for Active; 'I' for Inactive)
REMARK    1  A    between atoms: C4_4  and  O1_5 
REMARK    2  A    between atoms: C5_7  and  C7_9 
REMARK    3  A    between atoms: C7_9  and  C8_10 
REMARK    4  A    between atoms: C8_10  and  C9_11 
ROOT
HETATM    1  C1  UNL     1       0.769  -4.027  -0.066  1.00  0.00     0.043 C 
HETATM    2  C2  UNL     1       1.002  -2.522  -0.369  1.00  0.00    -0.085 C 
HETATM    3  C3  UNL     1       0.139  -1.920  -1.152  1.00  0.00     0.007 C 
HETATM    4  C4  UNL     1      -0.026  -0.596  -1.679  1.00  0.00     0.149 C 
HETATM    5  C5  UNL     1      -0.945   0.383  -1.032  1.00  0.00    -0.008 C 
HETATM    6  C6  UNL     1      -1.513   1.144  -2.288  1.00  0.00     0.018 C 
HETATM    7  C12 UNL     1      -0.203   1.535  -0.390  1.00  0.00     0.039 C 
HETATM    8  C13 UNL     1       0.365   1.364   0.945  1.00  0.00     0.138 C 
HETATM    9  C14 UNL     1       1.751   1.916   1.174  1.00  0.00     0.037 C 
HETATM   10  C15 UNL     1       2.819   1.519   0.246  1.00  0.00     0.036 C 
HETATM   11  C16 UNL     1       3.893   0.663   0.827  1.00  0.00    -0.087 C 
HETATM   12  C17 UNL     1       4.801   1.324   1.838  1.00  0.00     0.043 C 
HETATM   13  C18 UNL     1       4.104  -0.600   0.532  1.00  0.00    -0.024 C 
HETATM   14  C19 UNL     1       3.268  -1.383  -0.462  1.00  0.00     0.031 C 
HETATM   15  C20 UNL     1       2.183  -2.005   0.329  1.00  0.00     0.037 C 
HETATM   16  O2  UNL     1      -0.448   2.255   1.758  1.00  0.00    -0.315 OA
HETATM   17  C21 UNL     1      -0.583   3.395   0.982  1.00  0.00     0.263 C 
HETATM   18  O3  UNL     1      -0.431   4.613   1.297  1.00  0.00    -0.265 OA
HETATM   19  C22 UNL     1      -0.966   2.826  -0.365  1.00  0.00     0.089 C 
HETATM   20  C23 UNL     1      -0.503   3.824  -1.400  1.00  0.00     0.021 C 
ENDROOT
BRANCH   5  21
HETATM   21  C7  UNL     1      -2.167  -0.074  -0.398  1.00  0.00     0.013 C 
BRANCH  21  22
HETATM   22  C8  UNL     1      -2.249  -1.004   0.714  1.00  0.00     0.005 C 
BRANCH  22  23
HETATM   23  C9  UNL     1      -3.757  -1.167   1.041  1.00  0.00    -0.023 C 
HETATM   24  C10 UNL     1      -3.895  -2.120   2.183  1.00  0.00     0.009 C 
HETATM   25  C11 UNL     1      -4.525  -1.643  -0.138  1.00  0.00     0.009 C 
ENDBRANCH  22  23
ENDBRANCH  21  22
ENDBRANCH   5  21
BRANCH   4  26
HETATM   26  O1  UNL     1      -0.367  -0.796  -3.073  1.00  0.00    -0.391 OA
ATOM     27  H1  UNL     1      -0.476   0.081  -3.422  1.00  0.00     0.210 HD
ENDBRANCH   4  26
TORSDOF 4
