REMARK  4 active torsions:
REMARK  status: ('A' for Active; 'I' for Inactive)
REMARK    1  A    between atoms: S1_2  and  C2_3 
REMARK    2  A    between atoms: C5_9  and  C6_10 
REMARK    3  A    between atoms: C6_10  and  O3_12 
REMARK    4  A    between atoms: O3_12  and  C7_13 
ROOT
HETATM    1  C2  UNL     1       3.826   1.435  -0.922  1.00  0.00     0.100 A 
HETATM    2  N1  UNL     1       4.886   0.985  -1.615  1.00  0.00    -0.254 N 
ATOM      3  H1  UNL     1       5.569   1.579  -2.085  1.00  0.00     0.195 HD
HETATM    4  O1  UNL     1       4.916  -0.311  -1.601  1.00  0.00    -0.241 OA
HETATM    5  C3  UNL     1       3.892  -0.746  -0.908  1.00  0.00     0.086 A 
HETATM    6  C4  UNL     1       3.148   0.333  -0.441  1.00  0.00     0.023 A 
HETATM    7  C5  UNL     1       1.948   0.118   0.362  1.00  0.00     0.127 C 
HETATM    8  C17 UNL     1       2.047  -1.042   1.313  1.00  0.00    -0.000 C 
HETATM    9  C18 UNL     1       2.458  -0.552   2.705  1.00  0.00     0.011 C 
HETATM   10  C19 UNL     1       2.876  -2.172   0.865  1.00  0.00     0.012 C 
HETATM   11  C20 UNL     1       3.390  -2.094  -0.539  1.00  0.00     0.068 C 
ENDROOT
BRANCH   7  12
HETATM   12  C6  UNL     1       0.713   0.004  -0.462  1.00  0.00     0.268 C 
HETATM   13  O2  UNL     1       0.737   0.088  -1.710  1.00  0.00    -0.264 OA
BRANCH  12  14
HETATM   14  O3  UNL     1      -0.540  -0.204   0.126  1.00  0.00    -0.311 OA
BRANCH  14  15
HETATM   15  C7  UNL     1      -1.722  -0.317  -0.595  1.00  0.00     0.165 C 
HETATM   16  C8  UNL     1      -2.292  -1.736  -0.363  1.00  0.00     0.070 C 
HETATM   17  C9  UNL     1      -3.569  -1.865  -1.110  1.00  0.00    -0.085 C 
HETATM   18  C10 UNL     1      -3.888  -3.266  -1.577  1.00  0.00     0.043 C 
HETATM   19  C11 UNL     1      -4.371  -0.859  -1.358  1.00  0.00    -0.020 C 
HETATM   20  C12 UNL     1      -4.100   0.521  -0.923  1.00  0.00     0.064 C 
HETATM   21  C13 UNL     1      -2.809   0.574  -0.117  1.00  0.00    -0.045 C 
HETATM   22  C14 UNL     1      -2.788   1.376   0.909  1.00  0.00    -0.082 C 
HETATM   23  C15 UNL     1      -3.980   2.198   1.234  1.00  0.00     0.043 C 
HETATM   24  C16 UNL     1      -1.611   1.505   1.791  1.00  0.00     0.043 C 
ENDBRANCH  14  15
ENDBRANCH  12  14
ENDBRANCH   7  12
BRANCH   1  25
HETATM   25  S1  UNL     1       3.307   3.114  -0.620  1.00  0.00    -0.114 SA
HETATM   26  C1  UNL     1       4.460   4.234  -1.417  1.00  0.00     0.097 C 
ENDBRANCH   1  25
TORSDOF 4
