REMARK  4 active torsions:
REMARK  status: ('A' for Active; 'I' for Inactive)
REMARK    1  A    between atoms: C2_2  and  C3_3 
REMARK    2  A    between atoms: C4_4  and  C5_5 
REMARK    3  A    between atoms: C8_8  and  C10_10 
REMARK    4  A    between atoms: C14_14  and  C15_15 
ROOT
HETATM    1  C5  UNL     1       1.155  -0.445  -0.425  1.00  0.00    -0.014 C 
HETATM    2  C6  UNL     1       0.582  -1.623  -0.015  1.00  0.00    -0.058 C 
HETATM    3  C7  UNL     1       1.542  -2.689   0.175  1.00  0.00     0.045 C 
HETATM    4  C8  UNL     1      -0.858  -1.860   0.253  1.00  0.00     0.024 C 
HETATM    5  C9  UNL     1      -0.980  -3.190   0.946  1.00  0.00     0.027 C 
HETATM    6  C12 UNL     1      -1.475  -0.794   1.079  1.00  0.00     0.049 A 
HETATM    7  C13 UNL     1      -2.230  -1.058   2.186  1.00  0.00     0.066 A 
HETATM    8  C14 UNL     1      -2.644   0.167   2.679  1.00  0.00     0.127 A 
HETATM    9  N1  UNL     1      -2.140   1.093   1.877  1.00  0.00    -0.287 N 
ATOM     10  H1  UNL     1      -2.284   2.095   1.999  1.00  0.00     0.188 HD
HETATM   11  N2  UNL     1      -1.432   0.564   0.905  1.00  0.00    -0.257 N 
HETATM   12  C16 UNL     1      -0.736   1.287  -0.149  1.00  0.00     0.081 A 
HETATM   13  C17 UNL     1       0.417   0.774  -0.716  1.00  0.00     0.045 A 
HETATM   14  S1  UNL     1       0.819   1.912  -1.897  1.00  0.00    -0.091 SA
HETATM   15  C18 UNL     1      -0.457   3.024  -1.670  1.00  0.00    -0.012 A 
HETATM   16  C19 UNL     1      -0.700   4.301  -2.417  1.00  0.00     0.057 C 
HETATM   17  C20 UNL     1      -1.176   2.458  -0.658  1.00  0.00    -0.019 A 
HETATM   18  C21 UNL     1      -2.424   3.146  -0.136  1.00  0.00     0.052 C 
ENDROOT
BRANCH   1  19
HETATM   19  C4  UNL     1       2.570  -0.419  -0.605  1.00  0.00     0.009 C 
HETATM   20  C3  UNL     1       3.293   0.607  -0.952  1.00  0.00    -0.026 C 
BRANCH  20  21
HETATM   21  C2  UNL     1       4.818   0.441  -1.101  1.00  0.00     0.022 C 
HETATM   22  C1  UNL     1       5.422   1.409  -0.102  1.00  0.00     0.009 C 
ENDBRANCH  20  21
ENDBRANCH   1  19
BRANCH   4  23
HETATM   23  C10 UNL     1      -1.657  -1.860  -1.050  1.00  0.00     0.015 C 
HETATM   24  C11 UNL     1      -1.192  -2.932  -2.000  1.00  0.00     0.006 C 
ENDBRANCH   4  23
BRANCH   8  25
HETATM   25  C15 UNL     1      -3.479   0.410   3.854  1.00  0.00     0.228 C 
HETATM   26  O1  UNL     1      -3.776   1.587   4.185  1.00  0.00    -0.643 OA
HETATM   27  O2  UNL     1      -3.963  -0.612   4.628  1.00  0.00    -0.643 OA
ENDBRANCH   8  25
TORSDOF 4
