REMARK  4 active torsions:
REMARK  status: ('A' for Active; 'I' for Inactive)
REMARK    1  A    between atoms: C2_2  and  C3_3 
REMARK    2  A    between atoms: C9_9  and  S1_10 
REMARK    3  A    between atoms: S1_10  and  C10_13 
REMARK    4  A    between atoms: C11_14  and  O3_15 
ROOT
HETATM    1  C10 UNL     1      -1.231   0.716  -0.636  1.00  0.00     0.104 A 
HETATM    2  C11 UNL     1      -1.551  -0.325  -1.500  1.00  0.00     0.088 A 
HETATM    3  C12 UNL     1      -2.785  -0.907  -1.540  1.00  0.00     0.051 A 
HETATM    4  C13 UNL     1      -3.818  -0.470  -0.688  1.00  0.00    -0.015 A 
HETATM    5  C14 UNL     1      -5.085  -0.957  -0.620  1.00  0.00     0.027 A 
HETATM    6  C15 UNL     1      -5.921  -0.377   0.287  1.00  0.00    -0.020 A 
HETATM    7  C16 UNL     1      -7.351  -0.697   0.582  1.00  0.00     0.056 C 
HETATM    8  S2  UNL     1      -4.943   0.815   1.016  1.00  0.00    -0.094 SA
HETATM    9  C17 UNL     1      -3.496   0.547   0.150  1.00  0.00     0.023 A 
HETATM   10  C18 UNL     1      -2.223   1.158   0.200  1.00  0.00    -0.019 A 
HETATM   11  C19 UNL     1      -2.109   2.290   1.135  1.00  0.00     0.051 C 
ENDROOT
BRANCH   1  12
HETATM   12  S1  UNL     1       0.319   1.486  -0.670  1.00  0.00     0.210 S 
HETATM   13  O1  UNL     1       0.489   1.930  -2.126  1.00  0.00    -0.217 OA
HETATM   14  O2  UNL     1       0.289   2.818   0.073  1.00  0.00    -0.217 OA
BRANCH  12  15
HETATM   15  C9  UNL     1       1.663   0.528  -0.197  1.00  0.00     0.071 A 
HETATM   16  C7  UNL     1       1.797  -0.078   1.012  1.00  0.00    -0.034 A 
HETATM   17  C5  UNL     1       2.950  -0.829   1.271  1.00  0.00    -0.054 A 
HETATM   18  C8  UNL     1       0.785   0.006   2.078  1.00  0.00     0.050 C 
HETATM   19  C4  UNL     1       3.947  -0.973   0.348  1.00  0.00     0.014 A 
HETATM   20  C6  UNL     1       3.108  -1.497   2.590  1.00  0.00     0.049 C 
HETATM   21  C3  UNL     1       3.830  -0.368  -0.880  1.00  0.00    -0.057 A 
HETATM   22  C20 UNL     1       2.701   0.360  -1.116  1.00  0.00     0.031 A 
BRANCH  21  23
HETATM   23  C2  UNL     1       4.904  -0.503  -1.920  1.00  0.00     0.034 C 
HETATM   24  C1  UNL     1       5.919   0.598  -1.782  1.00  0.00     0.010 C 
ENDBRANCH  21  23
ENDBRANCH  12  15
ENDBRANCH   1  12
BRANCH   2  25
HETATM   25  O3  UNL     1      -0.530  -0.786  -2.370  1.00  0.00    -0.359 OA
ATOM     26  H3  UNL     1      -0.749  -1.497  -2.960  1.00  0.00     0.217 HD
ENDBRANCH   2  25
TORSDOF 4
