REMARK  3 active torsions:
REMARK  status: ('A' for Active; 'I' for Inactive)
REMARK    1  A    between atoms: O1_2  and  C2_3 
REMARK    2  A    between atoms: C6_7  and  O2_8 
REMARK    3  A    between atoms: C8_10  and  O3_11 
ROOT
HETATM    1  C2  UNL     1       3.489  -0.992   1.152  1.00  0.00     0.105 A 
HETATM    2  C3  UNL     1       2.247  -1.434   1.555  1.00  0.00     0.060 A 
HETATM    3  C4  UNL     1       1.109  -0.906   0.978  1.00  0.00     0.034 A 
HETATM    4  C5  UNL     1       1.127   0.063  -0.002  1.00  0.00     0.086 A 
HETATM    5  C6  UNL     1       2.380   0.504  -0.402  1.00  0.00     0.132 A 
HETATM    6  C8  UNL     1       3.519  -0.026   0.175  1.00  0.00     0.137 A 
HETATM    7  N1  UNL     1       0.075   0.710  -0.701  1.00  0.00    -0.352 N 
ATOM      8  H1  UNL     1       0.378   1.288  -1.485  1.00  0.00     0.166 HD
HETATM    9  C10 UNL     1      -1.327   0.687  -0.491  1.00  0.00     0.041 A 
HETATM   10  C11 UNL     1      -1.938   1.870  -0.820  1.00  0.00     0.037 A 
HETATM   11  C12 UNL     1      -3.300   2.015  -0.679  1.00  0.00    -0.054 A 
HETATM   12  C13 UNL     1      -3.921   3.314  -1.048  1.00  0.00     0.049 C 
HETATM   13  C14 UNL     1      -4.106   1.005  -0.212  1.00  0.00    -0.055 A 
HETATM   14  C15 UNL     1      -5.559   1.208  -0.079  1.00  0.00     0.049 C 
HETATM   15  C16 UNL     1      -3.479  -0.206   0.125  1.00  0.00     0.018 A 
HETATM   16  C17 UNL     1      -2.116  -0.357  -0.014  1.00  0.00    -0.013 A 
HETATM   17  C18 UNL     1      -1.659  -1.682   0.382  1.00  0.00     0.035 C 
HETATM   18  C19 UNL     1      -1.076  -2.347  -0.863  1.00  0.00     0.032 C 
HETATM   19  C20 UNL     1      -2.784  -2.510   0.937  1.00  0.00     0.032 C 
HETATM   20  S1  UNL     1      -0.376  -1.636   1.666  1.00  0.00    -0.113 SA
ENDROOT
BRANCH   1  21
HETATM   21  O1  UNL     1       4.680  -1.470   1.680  1.00  0.00    -0.353 OA
HETATM   22  C1  UNL     1       4.715  -2.461   2.685  1.00  0.00     0.210 C 
ENDBRANCH   1  21
BRANCH   6  23
HETATM   23  O3  UNL     1       4.751   0.444  -0.255  1.00  0.00    -0.351 OA
HETATM   24  C9  UNL     1       5.420  -0.178  -1.333  1.00  0.00     0.210 C 
ENDBRANCH   6  23
BRANCH   5  25
HETATM   25  O2  UNL     1       2.451   1.484  -1.389  1.00  0.00    -0.351 OA
HETATM   26  C7  UNL     1       2.469   2.860  -0.995  1.00  0.00     0.210 C 
ENDBRANCH   5  25
TORSDOF 3
