REMARK  4 active torsions:
REMARK  status: ('A' for Active; 'I' for Inactive)
REMARK    1  A    between atoms: O1_2  and  C2_3 
REMARK    2  A    between atoms: C8_9  and  O2_10 
REMARK    3  A    between atoms: C13_16  and  S1_17 
REMARK    4  A    between atoms: S1_17  and  S2_18 
ROOT
HETATM    1  C2  UNL     1      -2.393   0.887   1.187  1.00  0.00     0.155 C 
HETATM    2  C3  UNL     1      -2.294  -0.517   1.741  1.00  0.00     0.036 C 
HETATM    3  C4  UNL     1      -1.978  -1.581   0.766  1.00  0.00     0.012 C 
HETATM    4  C5  UNL     1      -1.884  -1.196  -0.667  1.00  0.00    -0.037 C 
HETATM    5  C6  UNL     1      -2.260  -2.364  -1.545  1.00  0.00     0.015 C 
HETATM    6  C7  UNL     1      -2.692   0.051  -1.022  1.00  0.00     0.050 C 
HETATM    7  C8  UNL     1      -1.877   1.061  -0.173  1.00  0.00     0.089 C 
HETATM    8  C9  UNL     1      -0.537   0.737  -0.599  1.00  0.00     0.035 C 
HETATM    9  C10 UNL     1       0.680   1.282   0.041  1.00  0.00     0.023 C 
HETATM   10  C11 UNL     1       1.083   0.832   1.382  1.00  0.00     0.015 C 
HETATM   11  C12 UNL     1       2.627   0.865   1.378  1.00  0.00     0.048 C 
HETATM   12  C13 UNL     1       2.878   0.606  -0.059  1.00  0.00    -0.008 C 
HETATM   13  C15 UNL     1       1.825   0.827  -0.809  1.00  0.00    -0.062 C 
HETATM   14  C16 UNL     1       1.824   0.626  -2.321  1.00  0.00     0.036 C 
HETATM   15  C17 UNL     1       1.353  -0.772  -2.652  1.00  0.00     0.005 C 
HETATM   16  C18 UNL     1      -0.091  -1.000  -2.381  1.00  0.00     0.006 C 
HETATM   17  C19 UNL     1      -0.442  -0.746  -0.929  1.00  0.00     0.001 C 
ENDROOT
BRANCH  12  18
HETATM   18  S1  UNL     1       4.463   0.041  -0.743  1.00  0.00    -0.062 SA
BRANCH  18  19
HETATM   19  S2  UNL     1       5.883  -0.186   0.827  1.00  0.00    -0.097 SA
HETATM   20  C14 UNL     1       5.836  -1.866   1.517  1.00  0.00     0.103 C 
ENDBRANCH  18  19
ENDBRANCH  12  18
BRANCH   7  21
HETATM   21  O2  UNL     1      -2.323   2.322  -0.640  1.00  0.00    -0.387 OA
ATOM     22  H2  UNL     1      -1.988   2.435  -1.522  1.00  0.00     0.210 HD
ENDBRANCH   7  21
BRANCH   1  23
HETATM   23  O1  UNL     1      -2.021   1.858   2.107  1.00  0.00    -0.388 OA
HETATM   24  C1  UNL     1      -3.033   2.642   2.574  1.00  0.00     0.202 C 
ENDBRANCH   1  23
TORSDOF 4
