REMARK  6 active torsions:
REMARK  status: ('A' for Active; 'I' for Inactive)
REMARK    1  A    between atoms: C2_2  and  O1_5 
REMARK    2  A    between atoms: O1_5  and  C5_6 
REMARK    3  A    between atoms: C5_6  and  C6_7 
REMARK    4  A    between atoms: C6_7  and  C7_8 
REMARK    5  A    between atoms: C7_8  and  C8_9 
REMARK       I    between atoms: C8_9  and  N1_11 
REMARK    6  A    between atoms: N2_25  and  O3_27 
ROOT
HETATM    1  C8  UNL     1      -1.239  -0.073  -1.019  1.00  0.00     0.229 C 
HETATM    2  O2  UNL     1      -1.086  -0.206  -2.258  1.00  0.00    -0.273 OA
HETATM    3  N1  UNL     1      -2.495  -0.028  -0.359  1.00  0.00    -0.280 N 
HETATM    4  C9  UNL     1      -2.597  -0.390   1.022  1.00  0.00     0.059 A 
HETATM    5  C10 UNL     1      -1.655  -1.257   1.591  1.00  0.00     0.031 A 
HETATM    6  C11 UNL     1      -1.761  -1.761   2.867  1.00  0.00     0.002 A 
HETATM    7  C12 UNL     1      -2.830  -1.422   3.648  1.00  0.00     0.002 A 
HETATM    8  C13 UNL     1      -3.785  -0.580   3.142  1.00  0.00     0.021 A 
HETATM    9  C14 UNL     1      -3.638  -0.101   1.865  1.00  0.00     0.033 A 
HETATM   10  S1  UNL     1      -4.956   0.949   1.308  1.00  0.00    -0.086 SA
HETATM   11  C15 UNL     1      -4.726   1.115  -0.447  1.00  0.00     0.033 A 
HETATM   12  C16 UNL     1      -5.749   1.732  -1.121  1.00  0.00     0.021 A 
HETATM   13  C17 UNL     1      -5.647   1.973  -2.458  1.00  0.00     0.002 A 
HETATM   14  C18 UNL     1      -4.494   1.578  -3.082  1.00  0.00     0.002 A 
HETATM   15  C19 UNL     1      -3.442   0.948  -2.414  1.00  0.00     0.031 A 
HETATM   16  C20 UNL     1      -3.548   0.704  -1.065  1.00  0.00     0.059 A 
ENDROOT
BRANCH   1  17
HETATM   17  C7  UNL     1       0.104   0.056  -0.430  1.00  0.00     0.112 C 
BRANCH  17  18
HETATM   18  C6  UNL     1       1.133  -0.771  -1.198  1.00  0.00     0.095 C 
BRANCH  18  19
HETATM   19  C5  UNL     1       2.474  -0.662  -0.637  1.00  0.00     0.138 C 
HETATM   20  N2  UNL     1       3.054  -1.734  -0.221  1.00  0.00    -0.251 N 
ATOM     21  H2  UNL     1       3.993  -1.658   0.171  1.00  0.00     0.196 HD
BRANCH  19  22
HETATM   22  O1  UNL     1       3.185   0.522  -0.515  1.00  0.00    -0.328 OA
BRANCH  22  23
HETATM   23  C2  UNL     1       4.508   0.505  -0.014  1.00  0.00     0.058 C 
HETATM   24  C1  UNL     1       4.492  -0.076   1.398  1.00  0.00     0.045 C 
HETATM   25  C3  UNL     1       5.402  -0.388  -0.851  1.00  0.00     0.045 C 
HETATM   26  C4  UNL     1       5.093   1.879   0.076  1.00  0.00     0.045 C 
ENDBRANCH  22  23
ENDBRANCH  19  22
BRANCH  20  27
HETATM   27  O3  UNL     1       2.468  -2.972  -0.281  1.00  0.00    -0.288 OA
ATOM     28  H3  UNL     1       2.896  -3.763   0.026  1.00  0.00     0.244 HD
ENDBRANCH  20  27
ENDBRANCH  18  19
ENDBRANCH  17  18
ENDBRANCH   1  17
TORSDOF 6
