REMARK  6 active torsions:
REMARK  status: ('A' for Active; 'I' for Inactive)
REMARK    1  A    between atoms: C5_7  and  C6_8 
REMARK    2  A    between atoms: C7_11  and  C8_12 
REMARK    3  A    between atoms: C8_12  and  N3_13 
REMARK    4  A    between atoms: N3_13  and  C9_14 
REMARK    5  A    between atoms: N3_13  and  C12_17 
REMARK    6  A    between atoms: C20_26  and  O1_27 
ROOT
HETATM    1  C6  UNL     1       1.731  -0.428   1.067  1.00  0.00     0.087 A 
HETATM    2  N2  UNL     1       0.526  -0.396   0.595  1.00  0.00    -0.351 N 
ATOM      3  H2  UNL     1       0.361   0.123  -0.267  1.00  0.00     0.166 HD
HETATM    4  C7  UNL     1      -0.472  -0.980   1.150  1.00  0.00     0.040 A 
HETATM    5  C16 UNL     1      -0.165  -1.675   2.335  1.00  0.00     0.005 A 
HETATM    6  C17 UNL     1      -1.076  -2.455   3.224  1.00  0.00     0.058 C 
HETATM    7  S1  UNL     1       1.503  -1.393   2.484  1.00  0.00    -0.074 SA
ENDROOT
BRANCH   1   8
HETATM    8  C5  UNL     1       2.950   0.173   0.557  1.00  0.00     0.029 A 
HETATM    9  C3  UNL     1       4.139   0.022   1.263  1.00  0.00     0.019 A 
HETATM   10  N1  UNL     1       5.249   0.605   0.720  1.00  0.00    -0.360 N 
HETATM   11  C4  UNL     1       4.299  -0.698   2.521  1.00  0.00     0.069 C 
HETATM   12  C2  UNL     1       5.256   1.290  -0.413  1.00  0.00     0.039 A 
ATOM     13  H1  UNL     1       6.132   0.506   1.221  1.00  0.00     0.165 HD
HETATM   14  C1  UNL     1       6.539   1.892  -0.921  1.00  0.00     0.071 C 
HETATM   15  C20 UNL     1       4.101   1.461  -1.138  1.00  0.00     0.094 A 
HETATM   16  C18 UNL     1       2.939   0.880  -0.618  1.00  0.00    -0.012 A 
HETATM   17  C19 UNL     1       1.720   1.092  -1.434  1.00  0.00     0.052 C 
BRANCH  15  18
HETATM   18  O1  UNL     1       4.094   2.175  -2.324  1.00  0.00    -0.358 OA
ATOM     19  H1  UNL     1       3.296   2.293  -2.825  1.00  0.00     0.217 HD
ENDBRANCH  15  18
ENDBRANCH   1   8
BRANCH   4  20
HETATM   20  C8  UNL     1      -1.866  -1.012   0.649  1.00  0.00     0.176 C 
BRANCH  20  21
HETATM   21  N3  UNL     1      -2.193  -0.292  -0.524  1.00  0.00    -0.396 N 
BRANCH  21  22
HETATM   22  C9  UNL     1      -2.145   1.103  -0.406  1.00  0.00     0.072 C 
HETATM   23  C10 UNL     1      -2.044   1.887  -1.712  1.00  0.00     0.031 C 
HETATM   24  C11 UNL     1      -3.234   1.701   0.473  1.00  0.00     0.031 C 
ENDBRANCH  21  22
BRANCH  21  25
HETATM   25  C12 UNL     1      -3.241  -0.939  -1.205  1.00  0.00     0.017 C 
HETATM   26  C13 UNL     1      -4.530  -1.026  -0.391  1.00  0.00     0.037 C 
HETATM   27  C14 UNL     1      -3.654  -0.415  -2.549  1.00  0.00     0.037 C 
HETATM   28  C15 UNL     1      -2.810  -2.381  -1.464  1.00  0.00     0.037 C 
ENDBRANCH  21  25
ENDBRANCH  20  21
ENDBRANCH   4  20
TORSDOF 6
