REMARK  3 active torsions:
REMARK  status: ('A' for Active; 'I' for Inactive)
REMARK    1  A    between atoms: C5_5  and  C6_6 
REMARK       I    between atoms: C6_6  and  N1_8 
REMARK       I    between atoms: N1_8  and  C7_10 
REMARK       I    between atoms: C7_10  and  N2_12 
REMARK    2  A    between atoms: N3_14  and  C8_16 
REMARK    3  A    between atoms: C9_17  and  C10_18 
ROOT
HETATM    1  C6  UNL     1       1.895  -0.623  -0.348  1.00  0.00     0.259 C 
HETATM    2  O1  UNL     1       1.378  -1.780  -0.239  1.00  0.00    -0.267 OA
HETATM    3  N1  UNL     1       1.056   0.466  -0.655  1.00  0.00    -0.274 N 
ATOM      4  H1  UNL     1       1.463   1.397  -0.744  1.00  0.00     0.173 HD
HETATM    5  C7  UNL     1      -0.361   0.298  -0.846  1.00  0.00     0.341 C 
HETATM    6  O2  UNL     1      -0.812  -0.862  -0.727  1.00  0.00    -0.245 OA
HETATM    7  N2  UNL     1      -1.225   1.347  -1.150  1.00  0.00    -0.251 N 
ATOM      8  H2  UNL     1      -1.042   1.846  -2.020  1.00  0.00     0.191 HD
HETATM    9  N3  UNL     1      -2.198   1.745  -0.477  1.00  0.00    -0.295 N 
ATOM     10  H3  UNL     1      -2.752   2.531  -0.819  1.00  0.00     0.187 HD
ENDROOT
BRANCH   9  11
HETATM   11  C8  UNL     1      -2.564   1.111   0.792  1.00  0.00     0.072 A 
HETATM   12  C9  UNL     1      -3.553   0.197   0.903  1.00  0.00     0.010 A 
HETATM   13  C16 UNL     1      -3.785  -0.314   2.153  1.00  0.00     0.065 A 
HETATM   14  S1  UNL     1      -2.637   0.481   3.127  1.00  0.00    -0.104 SA
HETATM   15  C17 UNL     1      -1.889   1.440   1.939  1.00  0.00     0.007 A 
HETATM   16  C18 UNL     1      -0.762   2.408   2.121  1.00  0.00     0.059 C 
BRANCH  12  17
HETATM   17  C10 UNL     1      -4.385  -0.271  -0.253  1.00  0.00    -0.023 A 
HETATM   18  C11 UNL     1      -4.901   0.634  -1.155  1.00  0.00     0.012 A 
HETATM   19  C12 UNL     1      -5.671   0.181  -2.221  1.00  0.00     0.001 A 
HETATM   20  C13 UNL     1      -5.917  -1.169  -2.375  1.00  0.00     0.000 A 
HETATM   21  C14 UNL     1      -5.408  -2.093  -1.481  1.00  0.00     0.001 A 
HETATM   22  C15 UNL     1      -4.652  -1.599  -0.442  1.00  0.00     0.012 A 
ENDBRANCH  12  17
ENDBRANCH   9  11
BRANCH   1  23
HETATM   23  C5  UNL     1       3.319  -0.493  -0.150  1.00  0.00     0.032 A 
HETATM   24  C4  UNL     1       3.964   0.697  -0.254  1.00  0.00     0.017 A 
HETATM   25  C3  UNL     1       5.333   0.770  -0.055  1.00  0.00     0.007 A 
HETATM   26  C2  UNL     1       6.049  -0.346   0.248  1.00  0.00    -0.062 A 
HETATM   27  C1  UNL     1       7.511  -0.280   0.463  1.00  0.00     0.048 C 
HETATM   28  C20 UNL     1       5.423  -1.559   0.359  1.00  0.00     0.007 A 
HETATM   29  C19 UNL     1       4.086  -1.623   0.162  1.00  0.00     0.017 A 
ENDBRANCH   1  23
TORSDOF 3
