REMARK  6 active torsions:
REMARK  status: ('A' for Active; 'I' for Inactive)
REMARK    1  A    between atoms: C3_3  and  C6_6 
REMARK    2  A    between atoms: C10_10  and  C11_11 
REMARK    3  A    between atoms: C11_11  and  C12_13 
REMARK    4  A    between atoms: C13_14  and  C14_15 
REMARK    5  A    between atoms: C17_18  and  N1_19 
REMARK    6  A    between atoms: C18_22  and  O4_23 
ROOT
HETATM    1  C1  UNL     1       6.213  -1.411   1.929  1.00  0.00     0.013 C 
HETATM    2  C2  UNL     1       5.833  -0.480   1.243  1.00  0.00    -0.103 C 
HETATM    3  C3  UNL     1       5.352   0.623   0.436  1.00  0.00     0.049 C 
HETATM    4  C4  UNL     1       5.562   1.970   1.084  1.00  0.00     0.034 C 
HETATM    5  C5  UNL     1       5.950   0.650  -0.937  1.00  0.00     0.034 C 
ENDROOT
BRANCH   3   6
HETATM    6  C6  UNL     1       3.862   0.439   0.293  1.00  0.00     0.004 A 
HETATM    7  C7  UNL     1       3.068  -0.501   0.881  1.00  0.00     0.024 A 
HETATM    8  C8  UNL     1       1.741  -0.476   0.597  1.00  0.00    -0.040 A 
HETATM    9  C9  UNL     1       0.791  -1.513   1.201  1.00  0.00     0.049 C 
HETATM   10  C10 UNL     1       1.294   0.486  -0.254  1.00  0.00     0.061 A 
HETATM   11  S1  UNL     1       2.762   1.335  -0.635  1.00  0.00    -0.088 SA
BRANCH  10  12
HETATM   12  C11 UNL     1      -0.008   0.865  -0.774  1.00  0.00     0.189 C 
HETATM   13  O1  UNL     1      -0.022   1.843  -1.620  1.00  0.00    -0.287 OA
BRANCH  12  14
HETATM   14  C12 UNL     1      -1.295   0.315  -0.484  1.00  0.00     0.057 C 
HETATM   15  C13 UNL     1      -2.389   0.812  -1.059  1.00  0.00     0.015 C 
BRANCH  15  16
HETATM   16  C14 UNL     1      -3.728   0.362  -0.859  1.00  0.00    -0.033 A 
HETATM   17  C15 UNL     1      -4.787   0.967  -1.501  1.00  0.00     0.014 A 
HETATM   18  C16 UNL     1      -6.089   0.569  -1.335  1.00  0.00     0.040 A 
HETATM   19  C17 UNL     1      -6.413  -0.502  -0.481  1.00  0.00     0.136 A 
HETATM   20  C18 UNL     1      -5.370  -1.112   0.163  1.00  0.00     0.099 A 
HETATM   21  C19 UNL     1      -4.049  -0.687  -0.024  1.00  0.00     0.050 A 
BRANCH  19  22
HETATM   22  N1  UNL     1      -7.774  -0.841  -0.366  1.00  0.00    -0.113 N 
HETATM   23  O2  UNL     1      -8.223  -1.987  -0.208  1.00  0.00    -0.532 OA
HETATM   24  O3  UNL     1      -8.765   0.144  -0.455  1.00  0.00    -0.532 OA
ENDBRANCH  19  22
BRANCH  20  25
HETATM   25  O4  UNL     1      -5.598  -2.180   1.031  1.00  0.00    -0.358 OA
ATOM     26  H4  UNL     1      -4.874  -2.603   1.478  1.00  0.00     0.217 HD
ENDBRANCH  20  25
ENDBRANCH  15  16
ENDBRANCH  12  14
ENDBRANCH  10  12
ENDBRANCH   3   6
TORSDOF 6
