REMARK  8 active torsions:
REMARK  status: ('A' for Active; 'I' for Inactive)
REMARK    1  A    between atoms: C4_4  and  C5_5 
REMARK    2  A    between atoms: C5_5  and  O2_7 
REMARK    3  A    between atoms: O2_7  and  C6_8 
REMARK    4  A    between atoms: C9_11  and  N1_12 
REMARK    5  A    between atoms: N1_12  and  N2_14 
REMARK    6  A    between atoms: N2_14  and  N3_15 
REMARK    7  A    between atoms: C11_19  and  C12_20 
REMARK    8  A    between atoms: C16_25  and  C17_26 
ROOT
HETATM    1  C6  UNL     1      -1.574  -0.653   0.892  1.00  0.00     0.086 A 
HETATM    2  C7  UNL     1      -2.167  -1.681   1.638  1.00  0.00     0.040 A 
HETATM    3  C8  UNL     1      -3.523  -1.872   1.708  1.00  0.00     0.035 A 
HETATM    4  C9  UNL     1      -4.351  -1.020   1.015  1.00  0.00     0.063 A 
HETATM    5  C10 UNL     1      -3.813   0.003   0.268  1.00  0.00     0.042 A 
HETATM    6  C11 UNL     1      -2.419   0.184   0.209  1.00  0.00    -0.014 A 
ENDROOT
BRANCH   1   7
HETATM    7  O2  UNL     1      -0.217  -0.490   0.849  1.00  0.00    -0.274 OA
BRANCH   7   8
HETATM    8  C5  UNL     1       0.695  -1.310   0.233  1.00  0.00     0.305 C 
HETATM    9  O1  UNL     1       0.286  -2.315  -0.357  1.00  0.00    -0.258 OA
BRANCH   8  10
HETATM   10  C4  UNL     1       2.127  -0.978   0.288  1.00  0.00     0.082 A 
HETATM   11  C3  UNL     1       3.175  -1.671  -0.262  1.00  0.00     0.033 A 
HETATM   12  C2  UNL     1       4.404  -1.167  -0.076  1.00  0.00    -0.037 A 
HETATM   13  C1  UNL     1       5.665  -1.818  -0.623  1.00  0.00     0.050 C 
HETATM   14  C16 UNL     1       4.509  -0.009   0.644  1.00  0.00     0.088 A 
HETATM   15  S1  UNL     1       2.889   0.344   1.041  1.00  0.00    -0.077 SA
BRANCH  14  16
HETATM   16  C17 UNL     1       5.745   0.739   0.982  1.00  0.00     0.217 C 
HETATM   17  O3  UNL     1       6.867   0.329   0.603  1.00  0.00    -0.643 OA
HETATM   18  O4  UNL     1       5.662   1.886   1.716  1.00  0.00    -0.643 OA
ENDBRANCH  14  16
ENDBRANCH   8  10
ENDBRANCH   7   8
ENDBRANCH   1   7
BRANCH   6  19
HETATM   19  C12 UNL     1      -1.873   1.296  -0.608  1.00  0.00    -0.021 C 
HETATM   20  C13 UNL     1      -3.035   2.077  -1.230  1.00  0.00     0.019 C 
HETATM   21  C14 UNL     1      -0.994   2.223   0.173  1.00  0.00     0.019 C 
HETATM   22  C15 UNL     1      -1.081   0.784  -1.809  1.00  0.00     0.019 C 
ENDBRANCH   6  19
BRANCH   4  23
HETATM   23  N1  UNL     1      -5.772  -1.206   1.076  1.00  0.00    -0.217 N 
ATOM     24  H1  UNL     1      -6.154  -2.083   1.430  1.00  0.00     0.203 HD
BRANCH  23  25
HETATM   25  N2  UNL     1      -6.531  -0.315   0.704  1.00  0.00    -0.243 NA
BRANCH  25  26
HETATM   26  N3  UNL     1      -7.299   0.651   0.597  1.00  0.00    -0.260 N 
ATOM     27  H32 UNL     1      -7.252   0.831   1.600  1.00  0.00     0.193 HD
ATOM     28  H31 UNL     1      -7.929   1.391   0.288  1.00  0.00     0.193 HD
ENDBRANCH  25  26
ENDBRANCH  23  25
ENDBRANCH   4  23
TORSDOF 8
