REMARK  7 active torsions:
REMARK  status: ('A' for Active; 'I' for Inactive)
REMARK    1  A    between atoms: C1_2  and  O2_3 
REMARK    2  A    between atoms: C1_2  and  C15_24 
REMARK    3  A    between atoms: O2_3  and  C2_4 
REMARK    4  A    between atoms: C7_9  and  N1_10 
REMARK    5  A    between atoms: N2_12  and  C8_14 
REMARK    6  A    between atoms: C8_14  and  N3_16 
REMARK    7  A    between atoms: N3_16  and  C9_18 
ROOT
HETATM    1  C2  UNL     1      -2.358  -2.178  -0.008  1.00  0.00     0.107 A 
HETATM    2  C3  UNL     1      -3.169  -3.293   0.016  1.00  0.00     0.040 A 
HETATM    3  C4  UNL     1      -2.616  -4.503   0.435  1.00  0.00     0.003 A 
HETATM    4  C5  UNL     1      -1.296  -4.615   0.822  1.00  0.00     0.002 A 
HETATM    5  C6  UNL     1      -0.507  -3.474   0.787  1.00  0.00     0.034 A 
HETATM    6  C7  UNL     1      -1.036  -2.260   0.373  1.00  0.00     0.082 A 
ENDROOT
BRANCH   6   7
HETATM    7  N1  UNL     1      -0.170  -1.132   0.361  1.00  0.00    -0.296 N 
HETATM    8  N2  UNL     1       1.024  -1.340  -0.031  1.00  0.00    -0.276 N 
ATOM      9  H2  UNL     1       1.306  -2.279  -0.313  1.00  0.00     0.189 HD
ATOM     10  H1  UNL     1      -0.488  -0.207   0.650  1.00  0.00     0.187 HD
BRANCH   8  11
HETATM   11  C8  UNL     1       1.982  -0.260  -0.080  1.00  0.00     0.191 C 
HETATM   12  S1  UNL     1       1.446   1.128  -0.697  1.00  0.00    -0.039 SA
BRANCH  11  13
HETATM   13  N3  UNL     1       3.256  -0.470   0.418  1.00  0.00    -0.332 N 
ATOM     14  H3  UNL     1       3.419  -1.400   0.803  1.00  0.00     0.168 HD
BRANCH  13  15
HETATM   15  C9  UNL     1       4.362   0.399   0.476  1.00  0.00     0.034 A 
HETATM   16  C10 UNL     1       4.570   1.454  -0.375  1.00  0.00     0.029 A 
HETATM   17  C11 UNL     1       5.678   2.306  -0.248  1.00  0.00     0.002 A 
HETATM   18  C12 UNL     1       6.614   2.125   0.740  1.00  0.00     0.000 A 
HETATM   19  C13 UNL     1       6.405   1.064   1.594  1.00  0.00     0.002 A 
HETATM   20  C14 UNL     1       5.332   0.224   1.485  1.00  0.00     0.029 A 
ENDBRANCH  13  15
ENDBRANCH  11  13
ENDBRANCH   8  11
ENDBRANCH   6   7
BRANCH   1  21
HETATM   21  O2  UNL     1      -2.851  -0.964  -0.412  1.00  0.00    -0.271 OA
BRANCH  21  22
HETATM   22  C1  UNL     1      -3.427  -0.032   0.422  1.00  0.00     0.315 C 
HETATM   23  O1  UNL     1      -3.521  -0.280   1.637  1.00  0.00    -0.257 OA
BRANCH  22  24
HETATM   24  C15 UNL     1      -3.933   1.251  -0.089  1.00  0.00     0.108 A 
HETATM   25  C16 UNL     1      -3.847   1.566  -1.429  1.00  0.00     0.036 A 
HETATM   26  C17 UNL     1      -4.323   2.779  -1.931  1.00  0.00     0.004 A 
HETATM   27  C18 UNL     1      -4.890   3.675  -1.056  1.00  0.00     0.017 A 
HETATM   28  C19 UNL     1      -4.966   3.340   0.285  1.00  0.00     0.088 A 
HETATM   29  N4  UNL     1      -4.494   2.157   0.728  1.00  0.00    -0.361 N 
ATOM     30  H4  UNL     1      -4.566   1.942   1.722  1.00  0.00     0.165 HD
ENDBRANCH  22  24
ENDBRANCH  21  22
ENDBRANCH   1  21
TORSDOF 7
