REMARK  5 active torsions:
REMARK  status: ('A' for Active; 'I' for Inactive)
REMARK    1  A    between atoms: O1_2  and  C2_3 
REMARK    2  A    between atoms: C4_5  and  C5_6 
REMARK    3  A    between atoms: C7_8  and  C8_9 
REMARK    4  A    between atoms: C18_22  and  O2_23 
REMARK    5  A    between atoms: C19_25  and  O3_26 
ROOT
HETATM    1  C5  UNL     1       0.700   0.001  -0.248  1.00  0.00    -0.010 A 
HETATM    2  C6  UNL     1       1.492  -1.151  -0.077  1.00  0.00     0.038 A 
HETATM    3  C7  UNL     1       2.825  -1.165   0.166  1.00  0.00     0.014 A 
HETATM    4  N1  UNL     1       3.395   0.038   0.241  1.00  0.00    -0.353 N 
ATOM      5  H1  UNL     1       4.397   0.099   0.423  1.00  0.00     0.166 HD
HETATM    6  C11 UNL     1       2.676   1.197   0.081  1.00  0.00     0.086 A 
HETATM    7  S1  UNL     1       3.164   2.836   0.118  1.00  0.00    -0.076 SA
HETATM    8  C12 UNL     1       1.674   3.565  -0.181  1.00  0.00    -0.012 A 
HETATM    9  C13 UNL     1       1.370   5.047  -0.280  1.00  0.00     0.057 C 
HETATM   10  C14 UNL     1       0.799   2.506  -0.309  1.00  0.00    -0.035 A 
HETATM   11  C15 UNL     1      -0.647   2.867  -0.648  1.00  0.00     0.050 C 
HETATM   12  C16 UNL     1       1.328   1.254  -0.167  1.00  0.00     0.016 A 
ENDROOT
BRANCH   1  13
HETATM   13  C4  UNL     1      -0.725  -0.213  -0.409  1.00  0.00    -0.019 A 
HETATM   14  C3  UNL     1      -1.643   0.070   0.567  1.00  0.00     0.052 A 
HETATM   15  C2  UNL     1      -2.999  -0.166   0.444  1.00  0.00     0.105 A 
HETATM   16  C19 UNL     1      -3.425  -0.720  -0.745  1.00  0.00     0.135 A 
HETATM   17  C18 UNL     1      -2.551  -1.031  -1.772  1.00  0.00     0.102 A 
HETATM   18  C17 UNL     1      -1.193  -0.767  -1.583  1.00  0.00     0.052 A 
BRANCH  15  19
HETATM   19  O1  UNL     1      -3.924   0.112   1.408  1.00  0.00    -0.353 OA
HETATM   20  C1  UNL     1      -3.635   0.676   2.666  1.00  0.00     0.210 C 
ENDBRANCH  15  19
BRANCH  16  21
HETATM   21  O3  UNL     1      -4.791  -0.982  -0.927  1.00  0.00    -0.351 OA
HETATM   22  C20 UNL     1      -5.378  -2.219  -0.567  1.00  0.00     0.210 C 
ENDBRANCH  16  21
BRANCH  17  23
HETATM   23  O2  UNL     1      -2.990  -1.589  -2.965  1.00  0.00    -0.358 OA
ATOM     24  H2  UNL     1      -3.914  -1.769  -3.094  1.00  0.00     0.217 HD
ENDBRANCH  17  23
ENDBRANCH   1  13
BRANCH   3  25
HETATM   25  C8  UNL     1       3.614  -2.423   0.338  1.00  0.00     0.027 C 
HETATM   26  C9  UNL     1       4.244  -2.483   1.731  1.00  0.00     0.016 C 
HETATM   27  C10 UNL     1       4.742  -2.520  -0.658  1.00  0.00     0.016 C 
ENDBRANCH   3  25
TORSDOF 5
