REMARK  4 active torsions:
REMARK  status: ('A' for Active; 'I' for Inactive)
REMARK    1  A    between atoms: C2_2  and  S1_4 
REMARK    2  A    between atoms: S1_4  and  C4_5 
REMARK    3  A    between atoms: C6_11  and  N3_12 
REMARK    4  A    between atoms: C7_17  and  N5_18 
ROOT
HETATM    1  C4  UNL     1       0.604  -1.287   0.023  1.00  0.00     0.114 A 
HETATM    2  N1  UNL     1       0.116  -0.065   0.034  1.00  0.00    -0.330 N 
ATOM      3  H1  UNL     1       0.747   0.736   0.025  1.00  0.00     0.168 HD
HETATM    4  C5  UNL     1      -1.175   0.123   0.057  1.00  0.00     0.143 A 
HETATM    5  N2  UNL     1      -1.828   1.330   0.073  1.00  0.00    -0.175 N 
ATOM      6  H2  UNL     1      -1.290   2.197   0.066  1.00  0.00     0.186 HD
HETATM    7  C6  UNL     1      -3.150   1.378   0.098  1.00  0.00     0.679 A 
HETATM    8  N4  UNL     1      -3.965   0.320   0.110  1.00  0.00    -0.176 N 
ATOM      9  H4  UNL     1      -4.979   0.425   0.129  1.00  0.00     0.186 HD
HETATM   10  C7  UNL     1      -3.383  -0.884   0.096  1.00  0.00     0.135 A 
HETATM   11  C8  UNL     1      -1.981  -0.981   0.070  1.00  0.00     0.096 A 
HETATM   12  S2  UNL     1      -0.808  -2.238   0.047  1.00  0.00    -0.058 SA
ENDROOT
BRANCH   1  13
HETATM   13  S1  UNL     1       2.250  -1.943  -0.008  1.00  0.00    -0.101 SA
BRANCH  13  14
HETATM   14  C2  UNL     1       3.510  -0.665  -0.049  1.00  0.00     0.046 C 
HETATM   15  C1  UNL     1       3.517   0.110  -1.339  1.00  0.00     0.021 C 
HETATM   16  C3  UNL     1       3.380   0.315   1.096  1.00  0.00     0.021 C 
ENDBRANCH  13  14
ENDBRANCH   1  13
BRANCH  10  17
HETATM   17  N5  UNL     1      -4.031  -1.992   0.103  1.00  0.00    -0.384 N 
ATOM     18  H52 UNL     1      -5.048  -1.922   0.122  1.00  0.00     0.157 HD
ATOM     19  H51 UNL     1      -3.587  -2.910   0.092  1.00  0.00     0.157 HD
ENDBRANCH  10  17
BRANCH   7  20
HETATM   20  N3  UNL     1      -3.697   2.570   0.116  1.00  0.00    -0.234 N 
ATOM     21  H32 UNL     1      -3.075   3.378   0.107  1.00  0.00     0.174 HD
ATOM     22  H31 UNL     1      -4.716   2.607   0.135  1.00  0.00     0.174 HD
ENDBRANCH   7  20
TORSDOF 4
