REMARK  4 active torsions:
REMARK  status: ('A' for Active; 'I' for Inactive)
REMARK    1  A    between atoms: C2_4  and  N2_5 
REMARK    2  A    between atoms: N2_5  and  C3_7 
REMARK    3  A    between atoms: C8_13  and  N3_14 
REMARK    4  A    between atoms: N3_14  and  C9_16 
ROOT
HETATM    1  C1  UNL     1      -1.252   1.100  -0.141  1.00  0.00     0.127 A 
HETATM    2  N1  UNL     1      -0.122   1.719  -0.329  1.00  0.00    -0.344 N 
ATOM      3  H1  UNL     1      -0.101   2.713  -0.558  1.00  0.00     0.167 HD
HETATM    4  C2  UNL     1       1.009   1.019  -0.214  1.00  0.00     0.146 A 
HETATM    5  S1  UNL     1       0.458  -0.548   0.169  1.00  0.00    -0.035 SA
HETATM    6  C8  UNL     1      -1.217  -0.233   0.165  1.00  0.00     0.095 A 
ENDROOT
BRANCH   6   7
HETATM    7  N3  UNL     1      -2.316  -1.136   0.417  1.00  0.00    -0.321 N 
ATOM      8  H3  UNL     1      -2.128  -2.115   0.634  1.00  0.00     0.169 HD
BRANCH   7   9
HETATM    9  C9  UNL     1      -3.643  -0.676   0.365  1.00  0.00     0.176 C 
HETATM   10  N4  UNL     1      -4.470  -0.603   1.358  1.00  0.00    -0.361 N 
HETATM   11  C10 UNL     1      -5.753  -0.081   0.939  1.00  0.00     0.142 C 
ATOM     12  H4  UNL     1      -4.246  -0.878   2.314  1.00  0.00     0.162 HD
HETATM   13  C11 UNL     1      -5.413   0.586  -0.376  1.00  0.00     0.142 C 
HETATM   14  N5  UNL     1      -4.277  -0.212  -0.821  1.00  0.00    -0.361 N 
ATOM     15  H5  UNL     1      -3.995  -0.399  -1.783  1.00  0.00     0.162 HD
ENDBRANCH   7   9
ENDBRANCH   6   7
BRANCH   4  16
HETATM   16  N2  UNL     1       2.200   1.515  -0.377  1.00  0.00    -0.366 N 
ATOM     17  H2  UNL     1       2.273   2.506  -0.609  1.00  0.00     0.162 HD
BRANCH  16  18
HETATM   18  C3  UNL     1       3.402   0.778  -0.256  1.00  0.00     0.083 C 
HETATM   19  C4  UNL     1       3.584  -0.316  -1.283  1.00  0.00     0.025 C 
HETATM   20  C5  UNL     1       4.837  -1.014  -0.733  1.00  0.00     0.002 C 
HETATM   21  C6  UNL     1       4.387  -1.213   0.721  1.00  0.00     0.002 C 
HETATM   22  C7  UNL     1       3.627   0.079   1.039  1.00  0.00     0.025 C 
ENDBRANCH  16  18
ENDBRANCH   4  16
TORSDOF 4
