REMARK  2 active torsions:
REMARK  status: ('A' for Active; 'I' for Inactive)
REMARK    1  A    between atoms: C2_2  and  C3_3 
REMARK    2  A    between atoms: C3_3  and  C4_4 
ROOT
HETATM    1  C4  UNL     1       1.398  -0.399  -0.929  1.00  0.00     0.086 A 
HETATM    2  N1  UNL     1       2.306   0.632  -0.726  1.00  0.00    -0.320 N 
ATOM      3  H1  UNL     1       2.171   1.467  -1.295  1.00  0.00     0.169 HD
HETATM    4  C5  UNL     1       3.269   0.659   0.071  1.00  0.00     0.196 A 
HETATM    5  N2  UNL     1       4.159   1.795   0.197  1.00  0.00    -0.063 NA
HETATM    6  N3  UNL     1       3.508  -0.462   0.921  1.00  0.00    -0.304 N 
ATOM      7  H3  UNL     1       4.290  -0.459   1.576  1.00  0.00     0.171 HD
HETATM    8  C6  UNL     1       2.718  -1.480   0.848  1.00  0.00     0.196 A 
HETATM    9  N4  UNL     1       3.002  -2.570   1.714  1.00  0.00    -0.063 NA
HETATM   10  N5  UNL     1       1.613  -1.497  -0.034  1.00  0.00    -0.320 N 
ATOM     11  H5  UNL     1       0.970  -2.289  -0.033  1.00  0.00     0.169 HD
ENDROOT
BRANCH   1  12
HETATM   12  C3  UNL     1      -0.030  -0.025  -1.152  1.00  0.00     0.086 C 
BRANCH  12  13
HETATM   13  C2  UNL     1      -0.777   0.723  -0.145  1.00  0.00    -0.024 C 
HETATM   14  C1  UNL     1      -0.172   2.088   0.198  1.00  0.00     0.016 C 
HETATM   15  C7  UNL     1      -2.128   1.100  -0.784  1.00  0.00     0.011 C 
HETATM   16  C8  UNL     1      -3.213   0.136  -0.606  1.00  0.00     0.001 C 
HETATM   17  C9  UNL     1      -2.905  -1.197  -0.052  1.00  0.00     0.001 C 
HETATM   18  C10 UNL     1      -1.873  -1.235   1.012  1.00  0.00     0.017 C 
HETATM   19  C11 UNL     1      -1.022  -0.001   1.128  1.00  0.00     0.067 C 
HETATM   20  S1  UNL     1      -1.768   1.116   2.386  1.00  0.00    -0.092 SA
ENDBRANCH  12  13
ENDBRANCH   1  12
TORSDOF 2
