REMARK  2 active torsions:
REMARK  status: ('A' for Active; 'I' for Inactive)
REMARK    1  A    between atoms: N1_2  and  C2_3 
REMARK    2  A    between atoms: N1_2  and  C7_14 
ROOT
HETATM    1  C2  UNL     1       0.940   0.260  -0.276  1.00  0.00     0.166 A 
HETATM    2  O1  UNL     1       1.449   1.003   0.667  1.00  0.00    -0.274 OA
HETATM    3  C3  UNL     1       2.580   0.732   1.275  1.00  0.00     0.168 A 
HETATM    4  N2  UNL     1       3.085   1.472   2.216  1.00  0.00    -0.378 N 
ATOM      5  H21 UNL     1       3.964   1.261   2.689  1.00  0.00     0.158 HD
ATOM      6  H22 UNL     1       2.565   2.307   2.485  1.00  0.00     0.158 HD
HETATM    7  C4  UNL     1       3.278  -0.390   0.914  1.00  0.00     0.098 A 
HETATM    8  N3  UNL     1       4.512  -0.697   1.563  1.00  0.00    -0.098 NA
HETATM    9  C5  UNL     1       2.791  -1.225  -0.085  1.00  0.00     0.054 A 
HETATM   10  C6  UNL     1       1.586  -0.880  -0.690  1.00  0.00     0.065 A 
HETATM   11  S1  UNL     1       0.966  -1.946  -1.976  1.00  0.00    -0.048 SA
ENDROOT
BRANCH   1  12
HETATM   12  N1  UNL     1      -0.285   0.636  -0.875  1.00  0.00    -0.360 N 
HETATM   13  C1  UNL     1      -0.192   1.173  -2.237  1.00  0.00     0.152 C 
BRANCH  12  14
HETATM   14  C7  UNL     1      -1.582   0.554  -0.304  1.00  0.00     0.086 C 
HETATM   15  C8  UNL     1      -1.601   0.092   1.140  1.00  0.00     0.025 C 
HETATM   16  C9  UNL     1      -3.121   0.068   1.353  1.00  0.00     0.002 C 
HETATM   17  C10 UNL     1      -3.649  -0.476   0.037  1.00  0.00     0.002 C 
HETATM   18  C11 UNL     1      -2.454  -0.518  -0.915  1.00  0.00     0.025 C 
ENDBRANCH  12  14
ENDBRANCH   1  12
TORSDOF 2
