REMARK  3 active torsions:
REMARK  status: ('A' for Active; 'I' for Inactive)
REMARK    1  A    between atoms: C2_2  and  C4_4 
REMARK    2  A    between atoms: C5_5  and  C6_6 
REMARK    3  A    between atoms: C6_6  and  C7_7 
ROOT
HETATM    1  C6  UNL     1      -1.671  -0.052  -0.209  1.00  0.00     0.223 C 
HETATM    2  C8  UNL     1      -2.484  -0.149   1.043  1.00  0.00     0.087 C 
HETATM    3  C9  UNL     1      -3.131   1.087   0.503  1.00  0.00     0.174 C 
HETATM    4  O1  UNL     1      -2.138   1.238  -0.455  1.00  0.00    -0.359 OA
ENDROOT
BRANCH   1   5
HETATM    5  C5  UNL     1      -0.229  -0.105   0.018  1.00  0.00    -0.058 C 
HETATM    6  C4  UNL     1       0.961  -0.134   0.217  1.00  0.00    -0.099 C 
BRANCH   6   7
HETATM    7  C2  UNL     1       2.411  -0.150   0.476  1.00  0.00     0.057 C 
HETATM    8  C1  UNL     1       3.078  -0.811  -0.705  1.00  0.00     0.023 C 
HETATM    9  C3  UNL     1       2.923   1.276   0.609  1.00  0.00     0.023 C 
ENDBRANCH   6   7
ENDBRANCH   1   5
BRANCH   1  10
HETATM   10  C7  UNL     1      -2.068  -1.069  -1.257  1.00  0.00     0.430 C 
HETATM   11  F1  UNL     1      -3.429  -1.047  -1.498  1.00  0.00    -0.167 F 
HETATM   12  F2  UNL     1      -1.726  -2.317  -0.772  1.00  0.00    -0.167 F 
HETATM   13  F3  UNL     1      -1.429  -0.827  -2.450  1.00  0.00    -0.167 F 
ENDBRANCH   1  10
TORSDOF 3
