REMARK  2 active torsions:
REMARK  status: ('A' for Active; 'I' for Inactive)
REMARK    1  A    between atoms: C1_2  and  C2_5 
REMARK    2  A    between atoms: C2_5  and  N1_7 
ROOT
HETATM    1  N1  UNL     1       0.510   0.334  -0.022  1.00  0.00    -0.368 N 
HETATM    2  C3  UNL     1       0.242  -1.067   0.142  1.00  0.00     0.123 C 
HETATM    3  C4  UNL     1      -1.033  -1.506  -0.544  1.00  0.00     0.020 C 
HETATM    4  C5  UNL     1      -2.101  -0.485  -0.222  1.00  0.00     0.003 C 
HETATM    5  C6  UNL     1      -1.769   0.868  -0.791  1.00  0.00     0.020 C 
HETATM    6  C7  UNL     1      -0.354   1.260  -0.688  1.00  0.00     0.123 C 
ENDROOT
BRANCH   1   7
HETATM    7  C2  UNL     1       1.727   0.823   0.522  1.00  0.00     0.183 C 
HETATM    8  S1  UNL     1       2.046   2.433   0.338  1.00  0.00    -0.056 SA
BRANCH   7   9
HETATM    9  C1  UNL     1       2.733   0.024   1.233  1.00  0.00     0.443 C 
HETATM   10  F1  UNL     1       3.329  -0.942   0.438  1.00  0.00    -0.164 F 
HETATM   11  F2  UNL     1       2.151  -0.617   2.337  1.00  0.00    -0.164 F 
HETATM   12  F3  UNL     1       3.680   0.878   1.765  1.00  0.00    -0.164 F 
ENDBRANCH   7   9
ENDBRANCH   1   7
TORSDOF 2
