REMARK  1 active torsions:
REMARK  status: ('A' for Active; 'I' for Inactive)
REMARK    1  A    between atoms: C7_8  and  C8_10 
ROOT
HETATM    1  C1  UNL     1      -1.384   2.075   0.246  1.00  0.00     0.015 C 
HETATM    2  C2  UNL     1      -0.747   0.728   0.030  1.00  0.00    -0.036 C 
HETATM    3  C3  UNL     1      -1.032  -0.208   1.194  1.00  0.00     0.039 C 
HETATM    4  C4  UNL     1      -0.228  -1.461   0.955  1.00  0.00     0.278 C 
HETATM    5  N1  UNL     1       0.482  -1.434  -0.297  1.00  0.00     0.134 N 
HETATM    6  C5  UNL     1      -0.520  -1.278  -1.340  1.00  0.00     0.278 C 
HETATM    7  C6  UNL     1      -1.283   0.025  -1.202  1.00  0.00     0.039 C 
HETATM    8  C7  UNL     1       1.419  -0.368  -0.423  1.00  0.00     0.356 C 
HETATM    9  F1  UNL     1       1.866  -0.367  -1.743  1.00  0.00    -0.202 F 
HETATM   10  C9  UNL     1       0.738   0.949  -0.152  1.00  0.00     0.092 C 
ENDROOT
BRANCH   8  11
HETATM   11  C8  UNL     1       2.608  -0.471   0.485  1.00  0.00     0.424 C 
HETATM   12  F2  UNL     1       3.351  -1.616   0.281  1.00  0.00    -0.209 F 
HETATM   13  F3  UNL     1       3.393   0.665   0.245  1.00  0.00    -0.209 F 
ENDBRANCH   8  11
TORSDOF 1
