REMARK  4 active torsions:
REMARK  status: ('A' for Active; 'I' for Inactive)
REMARK    1  A    between atoms: C2_2  and  C4_4 
REMARK    2  A    between atoms: C2_2  and  C5_6 
REMARK    3  A    between atoms: C7_8  and  C8_9 
REMARK    4  A    between atoms: C13_18  and  O2_19 
ROOT
HETATM    1  C5  UNL     1      -1.478  -0.143  -0.376  1.00  0.00    -0.006 A 
HETATM    2  C6  UNL     1      -0.534  -0.600   0.468  1.00  0.00     0.030 A 
HETATM    3  C7  UNL     1       0.747  -0.698  -0.023  1.00  0.00     0.008 A 
HETATM    4  S1  UNL     1       0.589  -0.154  -1.626  1.00  0.00    -0.065 SA
HETATM    5  C13 UNL     1      -1.076   0.183  -1.645  1.00  0.00     0.115 A 
ENDROOT
BRANCH   3   6
HETATM    6  C8  UNL     1       1.954  -1.171   0.685  1.00  0.00     0.031 C 
HETATM    7  C9  UNL     1       3.087  -0.557   0.448  1.00  0.00     0.012 C 
HETATM    8  C10 UNL     1       3.395   0.585  -0.445  1.00  0.00     0.064 C 
HETATM    9  C12 UNL     1       4.366  -0.924   1.071  1.00  0.00     0.247 C 
HETATM   10  C11 UNL     1       4.618   1.182   0.219  1.00  0.00     0.128 C 
HETATM   11  N1  UNL     1       5.355  -0.011   0.611  1.00  0.00    -0.357 N 
ATOM     12  H1  UNL     1       6.363  -0.160   0.566  1.00  0.00     0.162 HD
HETATM   13  O1  UNL     1       4.613  -1.869   1.882  1.00  0.00    -0.268 OA
ENDBRANCH   3   6
BRANCH   1  14
HETATM   14  C2  UNL     1      -2.936   0.019   0.028  1.00  0.00     0.009 C 
HETATM   15  C1  UNL     1      -3.258   1.489  -0.151  1.00  0.00     0.022 C 
HETATM   16  C3  UNL     1      -3.789  -0.849  -0.847  1.00  0.00     0.022 C 
BRANCH  14  17
HETATM   17  C4  UNL     1      -3.160  -0.330   1.472  1.00  0.00     0.236 C 
HETATM   18  F1  UNL     1      -4.470  -0.073   1.761  1.00  0.00    -0.254 F 
ENDBRANCH  14  17
ENDBRANCH   1  14
BRANCH   5  19
HETATM   19  O2  UNL     1      -1.859   0.678  -2.706  1.00  0.00    -0.353 OA
ATOM     20  H2  UNL     1      -1.580   0.904  -3.586  1.00  0.00     0.218 HD
ENDBRANCH   5  19
TORSDOF 4
