REMARK  5 active torsions:
REMARK  status: ('A' for Active; 'I' for Inactive)
REMARK    1  A    between atoms: N1_1  and  C1_5 
REMARK    2  A    between atoms: C3_7  and  C4_8 
REMARK    3  A    between atoms: C4_8  and  C5_9 
REMARK    4  A    between atoms: C6_10  and  C7_11 
REMARK    5  A    between atoms: C12_17  and  C13_18 
ROOT
HETATM    1  C1  UNL     1      -3.596   0.848  -0.017  1.00  0.00     0.223 C 
HETATM    2  C2  UNL     1      -2.373   1.739  -0.082  1.00  0.00     0.068 C 
HETATM    3  C3  UNL     1      -1.518   1.070   0.976  1.00  0.00     0.128 C 
HETATM    4  O1  UNL     1      -1.699  -0.264   0.742  1.00  0.00    -0.369 OA
HETATM    5  C12 UNL     1      -3.032  -0.457   0.361  1.00  0.00     0.259 C 
ENDROOT
BRANCH   3   6
HETATM    6  C4  UNL     1      -0.052   1.448   0.814  1.00  0.00     0.059 C 
BRANCH   6   7
HETATM    7  C5  UNL     1       0.691   0.751   1.882  1.00  0.00    -0.028 C 
HETATM    8  C6  UNL     1       1.649  -0.110   1.862  1.00  0.00    -0.026 C 
BRANCH   8   9
HETATM    9  C7  UNL     1       2.418  -0.772   0.839  1.00  0.00     0.008 C 
HETATM   10  C8  UNL     1       2.175  -0.494  -0.584  1.00  0.00     0.008 C 
HETATM   11  C9  UNL     1       3.302  -1.291  -1.252  1.00  0.00     0.001 C 
HETATM   12  C10 UNL     1       4.491  -0.895  -0.393  1.00  0.00     0.001 C 
HETATM   13  C11 UNL     1       3.921  -0.479   0.955  1.00  0.00     0.008 C 
ENDBRANCH   8   9
ENDBRANCH   6   7
ENDBRANCH   3   6
BRANCH   1  14
HETATM   14  N1  UNL     1      -4.374   0.880  -1.217  1.00  0.00    -0.072 N 
ATOM     15  H13 UNL     1      -4.633   1.837  -1.458  1.00  0.00     0.274 HD
ATOM     16  H12 UNL     1      -3.800   0.653  -2.029  1.00  0.00     0.274 HD
ATOM     17  H11 UNL     1      -5.198   0.280  -1.173  1.00  0.00     0.274 HD
ENDBRANCH   1  14
BRANCH   5  18
HETATM   18  C13 UNL     1      -3.048  -1.514  -0.689  1.00  0.00     0.415 C 
HETATM   19  F1  UNL     1      -2.472  -2.660  -0.121  1.00  0.00    -0.168 F 
HETATM   20  F2  UNL     1      -4.303  -1.884  -1.099  1.00  0.00    -0.168 F 
HETATM   21  F3  UNL     1      -2.223  -1.149  -1.734  1.00  0.00    -0.168 F 
ENDBRANCH   5  18
TORSDOF 5
