REMARK  5 active torsions:
REMARK  status: ('A' for Active; 'I' for Inactive)
REMARK    1  A    between atoms: C6_6  and  O1_8 
REMARK    2  A    between atoms: C8_10  and  N1_11 
REMARK       I    between atoms: N1_11  and  C9_12 
REMARK    3  A    between atoms: C9_12  and  C10_14 
REMARK    4  A    between atoms: C10_14  and  C11_15 
REMARK    5  A    between atoms: C17_23  and  C18_24 
ROOT
HETATM    1  C10 UNL     1       0.853   0.826   0.141  1.00  0.00     0.157 C 
ENDROOT
BRANCH   1   2
HETATM    2  C9  UNL     1      -0.055   0.041  -0.828  1.00  0.00     0.291 C 
HETATM    3  N1  UNL     1      -1.375   0.364  -0.751  1.00  0.00    -0.406 NA
HETATM    4  O2  UNL     1       0.516  -0.782  -1.561  1.00  0.00    -0.257 OA
BRANCH   3   5
HETATM    5  C8  UNL     1      -2.712   0.690  -0.674  1.00  0.00     0.204 C 
HETATM    6  C2  UNL     1      -3.285   0.404   0.712  1.00  0.00     0.024 C 
HETATM    7  C1  UNL     1      -3.828   1.609   1.402  1.00  0.00     0.014 C 
HETATM    8  C3  UNL     1      -4.353  -0.653   0.537  1.00  0.00    -0.009 C 
HETATM    9  C4  UNL     1      -4.339  -1.671   1.666  1.00  0.00     0.010 C 
HETATM   10  C5  UNL     1      -3.996  -1.272  -0.782  1.00  0.00     0.045 C 
HETATM   11  C6  UNL     1      -3.646  -0.076  -1.623  1.00  0.00     0.087 C 
HETATM   12  C7  UNL     1      -4.842   0.803  -1.950  1.00  0.00     0.049 C 
BRANCH  11  13
HETATM   13  O1  UNL     1      -3.029  -0.431  -2.819  1.00  0.00    -0.387 OA
ATOM     14  H1  UNL     1      -2.808   0.325  -3.350  1.00  0.00     0.210 HD
ENDBRANCH  11  13
ENDBRANCH   3   5
ENDBRANCH   1   2
BRANCH   1  15
HETATM   15  C11 UNL     1       2.234   0.422  -0.099  1.00  0.00    -0.044 A 
HETATM   16  C12 UNL     1       2.870   0.925  -1.221  1.00  0.00     0.032 A 
HETATM   17  C13 UNL     1       4.180   0.618  -1.500  1.00  0.00     0.043 A 
HETATM   18 CL1  UNL     1       4.969   1.257  -2.946  1.00  0.00    -0.084 Cl
HETATM   19  C14 UNL     1       4.869  -0.214  -0.634  1.00  0.00    -0.000 A 
HETATM   20  C15 UNL     1       4.245  -0.730   0.498  1.00  0.00     0.078 A 
HETATM   21  C19 UNL     1       6.267  -0.723  -0.652  1.00  0.00     0.086 C 
HETATM   22  C16 UNL     1       2.931  -0.400   0.746  1.00  0.00     0.045 A 
HETATM   23  O3  UNL     1       5.142  -1.541   1.210  1.00  0.00    -0.334 OA
HETATM   24  C17 UNL     1       6.462  -1.210   0.785  1.00  0.00     0.234 C 
BRANCH  24  25
HETATM   25  C18 UNL     1       7.047  -0.158   1.627  1.00  0.00     0.204 C 
HETATM   26  O4  UNL     1       8.198   0.283   1.429  1.00  0.00    -0.646 OA
HETATM   27  O5  UNL     1       6.283   0.364   2.685  1.00  0.00    -0.646 OA
ENDBRANCH  24  25
ENDBRANCH   1  15
TORSDOF 5
