REMARK  6 active torsions:
REMARK  status: ('A' for Active; 'I' for Inactive)
REMARK    1  A    between atoms: C2_2  and  O1_3 
REMARK    2  A    between atoms: O1_3  and  C3_4 
REMARK    3  A    between atoms: C3_4  and  C4_6 
REMARK    4  A    between atoms: C7_9  and  C8_10 
REMARK    5  A    between atoms: C13_17  and  O3_18 
REMARK    6  A    between atoms: C17_25  and  O6_26 
ROOT
HETATM    1  C4  UNL     1       0.831   1.730   0.156  1.00  0.00     0.061 C 
HETATM    2  C5  UNL     1      -0.304   1.342  -0.454  1.00  0.00     0.022 C 
HETATM    3  C6  UNL     1      -1.470   0.622  -0.076  1.00  0.00     0.031 C 
HETATM    4  C7  UNL     1      -1.900  -0.605  -0.123  1.00  0.00     0.045 C 
HETATM    5  N1  UNL     1      -1.210  -1.733  -0.663  1.00  0.00    -0.315 N 
ATOM      6  H1  UNL     1      -1.585  -2.634  -0.365  1.00  0.00     0.170 HD
HETATM    7  C13 UNL     1      -0.111  -1.827  -1.528  1.00  0.00     0.270 C 
HETATM    8  O4  UNL     1       1.202  -1.491  -1.302  1.00  0.00    -0.240 OA
HETATM    9  C14 UNL     1       1.988  -1.627  -0.193  1.00  0.00     0.273 C 
HETATM   10  O5  UNL     1       3.258  -1.767  -0.314  1.00  0.00    -0.264 OA
HETATM   11  C15 UNL     1       1.522  -1.630   1.218  1.00  0.00     0.114 C 
HETATM   12  C16 UNL     1       1.736  -3.112   1.655  1.00  0.00     0.023 C 
HETATM   13  C17 UNL     1       2.292  -0.723   2.095  1.00  0.00     0.155 C 
HETATM   14  C18 UNL     1       1.778   0.610   2.257  1.00  0.00     0.030 C 
HETATM   15  C19 UNL     1       1.235   1.527   1.526  1.00  0.00     0.049 C 
HETATM   16 CL1  UNL     1       1.060   3.092   2.501  1.00  0.00    -0.083 Cl
ENDROOT
BRANCH   1  17
HETATM   17  C3  UNL     1       1.807   2.511  -0.689  1.00  0.00     0.295 C 
HETATM   18  O2  UNL     1       2.889   2.961  -0.308  1.00  0.00    -0.259 OA
BRANCH  17  19
HETATM   19  O1  UNL     1       1.516   2.785  -2.038  1.00  0.00    -0.318 OA
BRANCH  19  20
HETATM   20  C2  UNL     1       2.412   3.515  -2.855  1.00  0.00     0.174 C 
HETATM   21  C1  UNL     1       1.835   3.648  -4.237  1.00  0.00     0.034 C 
ENDBRANCH  19  20
ENDBRANCH  17  19
ENDBRANCH   1  17
BRANCH   4  22
HETATM   22  C8  UNL     1      -3.256  -0.905   0.426  1.00  0.00    -0.013 A 
HETATM   23  C9  UNL     1      -3.870  -2.079   0.466  1.00  0.00    -0.009 A 
HETATM   24  C10 UNL     1      -5.203  -1.924   1.096  1.00  0.00     0.055 A 
HETATM   25  C11 UNL     1      -5.285  -0.492   1.422  1.00  0.00    -0.022 A 
HETATM   26  C12 UNL     1      -4.144   0.064   1.020  1.00  0.00     0.009 A 
ENDBRANCH   4  22
BRANCH  13  27
HETATM   27  O6  UNL     1       3.671  -0.734   1.778  1.00  0.00    -0.391 OA
ATOM     28  H6  UNL     1       4.166  -0.151   2.342  1.00  0.00     0.210 HD
ENDBRANCH  13  27
BRANCH   7  29
HETATM   29  O3  UNL     1      -0.346  -2.302  -2.733  1.00  0.00    -0.326 OA
ATOM     30  H3  UNL     1       0.399  -2.366  -3.319  1.00  0.00     0.221 HD
ENDBRANCH   7  29
TORSDOF 6
