REMARK  9 active torsions:
REMARK  status: ('A' for Active; 'I' for Inactive)
REMARK    1  A    between atoms: C3_3  and  C4_4 
REMARK    2  A    between atoms: C3_3  and  C19_29 
REMARK    3  A    between atoms: C10_11  and  C11_12 
REMARK       I    between atoms: C11_12  and  N1_14 
REMARK    4  A    between atoms: N1_14  and  C12_16 
REMARK    5  A    between atoms: C12_16  and  C13_17 
REMARK    6  A    between atoms: C13_17  and  O3_19 
REMARK    7  A    between atoms: C15_21  and  O4_22 
REMARK    8  A    between atoms: O4_22  and  C16_23 
REMARK    9  A    between atoms: C18_26  and  O6_27 
ROOT
HETATM    1  C4  UNL     1      -3.907  -0.449  -1.035  1.00  0.00     0.015 C 
HETATM    2  C5  UNL     1      -2.826  -0.190  -1.635  1.00  0.00    -0.023 C 
HETATM    3  C6  UNL     1      -2.660   1.271  -2.196  1.00  0.00     0.213 C 
HETATM    4  O1  UNL     1      -1.444   1.756  -1.703  1.00  0.00    -0.344 OA
HETATM    5  C7  UNL     1      -0.417   0.919  -1.316  1.00  0.00     0.109 A 
HETATM    6  C8  UNL     1      -0.438  -0.400  -1.414  1.00  0.00    -0.007 A 
HETATM    7  C9  UNL     1       0.838  -0.927  -0.899  1.00  0.00     0.087 A 
HETATM    8  C10 UNL     1       1.615   0.259  -0.484  1.00  0.00     0.051 A 
HETATM    9  C15 UNL     1       0.892   1.324  -0.724  1.00  0.00     0.124 A 
HETATM   10  C18 UNL     1      -1.679  -1.017  -1.990  1.00  0.00     0.181 C 
ENDROOT
BRANCH   8  11
HETATM   11  C11 UNL     1       2.988   0.228   0.107  1.00  0.00     0.254 C 
HETATM   12  O2  UNL     1       3.498   1.333   0.401  1.00  0.00    -0.268 OA
HETATM   13  N1  UNL     1       3.632  -0.985   0.303  1.00  0.00    -0.334 N 
ATOM     14  H1  UNL     1       3.088  -1.789  -0.009  1.00  0.00     0.168 HD
BRANCH  13  15
HETATM   15  C12 UNL     1       4.883  -1.331   0.845  1.00  0.00     0.095 C 
BRANCH  15  16
HETATM   16  C13 UNL     1       5.107  -1.113   2.286  1.00  0.00     0.152 C 
HETATM   17  C14 UNL     1       5.054   0.298   2.752  1.00  0.00     0.045 C 
BRANCH  16  18
HETATM   18  O3  UNL     1       6.422  -1.623   2.592  1.00  0.00    -0.391 OA
ATOM     19  H3  UNL     1       6.566  -1.483   3.520  1.00  0.00     0.210 HD
ENDBRANCH  16  18
ENDBRANCH  15  16
ENDBRANCH  13  15
ENDBRANCH   8  11
BRANCH   9  20
HETATM   20  O4  UNL     1       1.296   2.632  -0.462  1.00  0.00    -0.276 OA
BRANCH  20  21
HETATM   21  C16 UNL     1       1.060   3.275   0.738  1.00  0.00     0.260 C 
HETATM   22  C17 UNL     1       1.491   4.668   1.016  1.00  0.00     0.126 C 
HETATM   23  O5  UNL     1       0.452   2.643   1.632  1.00  0.00    -0.265 OA
ENDBRANCH  20  21
ENDBRANCH   9  20
BRANCH  10  24
HETATM   24  O6  UNL     1      -1.522  -1.026  -3.419  1.00  0.00    -0.387 OA
ATOM     25  H6  UNL     1      -0.775  -1.565  -3.650  1.00  0.00     0.210 HD
ENDBRANCH  10  24
BRANCH   1  26
HETATM   26  C3  UNL     1      -4.446  -1.589  -0.392  1.00  0.00    -0.048 C 
HETATM   27  C2  UNL     1      -5.701  -1.505   0.104  1.00  0.00    -0.023 C 
HETATM   28  C1  UNL     1      -6.451  -0.263  -0.035  1.00  0.00     0.036 C 
BRANCH  26  29
HETATM   29  C19 UNL     1      -3.801  -2.886  -0.175  1.00  0.00     0.152 C 
HETATM   30 CL1  UNL     1      -2.442  -2.654   0.981  1.00  0.00    -0.126 Cl
ENDBRANCH  26  29
ENDBRANCH   1  26
TORSDOF 9
