REMARK  5 active torsions:
REMARK  status: ('A' for Active; 'I' for Inactive)
REMARK    1  A    between atoms: C2_3  and  N2_4 
REMARK    2  A    between atoms: N2_4  and  C3_7 
REMARK    3  A    between atoms: C3_7  and  C4_8 
REMARK    4  A    between atoms: C4_8  and  C5_9 
REMARK    5  A    between atoms: C4_8  and  N3_13 
ROOT
HETATM    1  N1  UNL     1      -3.160   3.118  -0.738  1.00  0.00    -0.195 NA
HETATM    2  C1  UNL     1      -3.125   1.983  -0.539  1.00  0.00     0.099 C 
HETATM    3  C2  UNL     1      -3.086   0.547  -0.312  1.00  0.00     0.213 C 
HETATM    4  C15 UNL     1      -4.378  -0.036  -0.882  1.00  0.00     0.055 C 
HETATM    5  C16 UNL     1      -5.397   0.710  -0.011  1.00  0.00     0.004 C 
HETATM    6  C17 UNL     1      -4.722   0.865   1.335  1.00  0.00     0.004 C 
HETATM    7  C18 UNL     1      -3.325   0.307   1.162  1.00  0.00     0.055 C 
ENDROOT
BRANCH   3   8
HETATM    8  N2  UNL     1      -1.927  -0.098  -0.827  1.00  0.00    -0.048 N 
ATOM      9  H22 UNL     1      -2.008  -1.112  -0.758  1.00  0.00     0.279 HD
ATOM     10  H21 UNL     1      -1.875  -0.008  -1.842  1.00  0.00     0.279 HD
BRANCH   8  11
HETATM   11  C3  UNL     1      -0.729   0.368  -0.205  1.00  0.00     0.287 C 
BRANCH  11  12
HETATM   12  C4  UNL     1       0.538  -0.245  -0.672  1.00  0.00     0.018 C 
BRANCH  12  13
HETATM   13  C5  UNL     1       0.729  -1.697  -0.518  1.00  0.00     0.033 C 
HETATM   14  C6  UNL     1       0.667  -2.245   0.901  1.00  0.00     0.010 C 
HETATM   15  C7  UNL     1       0.298  -3.579   0.225  1.00  0.00     0.001 C 
HETATM   16  C8  UNL     1      -0.315  -2.676  -0.871  1.00  0.00     0.010 C 
ENDBRANCH  12  13
BRANCH  12  17
HETATM   17  N3  UNL     1       1.726   0.444  -0.343  1.00  0.00    -0.365 N 
HETATM   18  C9  UNL     1       2.097   0.662   0.979  1.00  0.00     0.063 C 
HETATM   19  C10 UNL     1       3.456   0.184   1.386  1.00  0.00     0.044 C 
HETATM   20  C11 UNL     1       4.615   0.846   0.749  1.00  0.00     0.005 C 
HETATM   21  C12 UNL     1       4.236   2.007  -0.100  1.00  0.00     0.002 C 
HETATM   22  C13 UNL     1       3.590   1.636  -1.412  1.00  0.00     0.020 C 
HETATM   23  C14 UNL     1       2.754   0.412  -1.328  1.00  0.00     0.128 C 
ENDBRANCH  12  17
ENDBRANCH  11  12
ENDBRANCH   8  11
ENDBRANCH   3   8
TORSDOF 5
