REMARK  5 active torsions:
REMARK  status: ('A' for Active; 'I' for Inactive)
REMARK    1  A    between atoms: N1_2  and  C3_4 
REMARK    2  A    between atoms: C3_4  and  C4_5 
REMARK    3  A    between atoms: C4_5  and  C5_6 
REMARK    4  A    between atoms: C8_9  and  N2_10 
REMARK    5  A    between atoms: N2_10  and  C9_12 
ROOT
HETATM    1  C5  UNL     1       2.406  -1.213   0.144  1.00  0.00    -0.013 C 
HETATM    2  C6  UNL     1       2.130   0.115  -0.496  1.00  0.00     0.007 C 
HETATM    3  C7  UNL     1       0.625   0.403  -0.598  1.00  0.00     0.025 C 
HETATM    4  C8  UNL     1      -0.105  -0.273   0.500  1.00  0.00     0.077 C 
HETATM    5  C17 UNL     1       0.768  -0.318   1.747  1.00  0.00     0.025 C 
HETATM    6  C18 UNL     1       1.973  -1.187   1.601  1.00  0.00     0.007 C 
ENDROOT
BRANCH   4   7
HETATM    7  N2  UNL     1      -1.390   0.227   0.746  1.00  0.00    -0.411 N 
ATOM      8  H2  UNL     1      -1.593   0.688   1.633  1.00  0.00     0.154 HD
BRANCH   7   9
HETATM    9  C9  UNL     1      -2.402   0.098  -0.220  1.00  0.00     0.110 C 
HETATM   10  C10 UNL     1      -2.218   0.800  -1.540  1.00  0.00     0.027 C 
HETATM   11  C11 UNL     1      -3.616   1.310  -1.967  1.00  0.00     0.009 C 
HETATM   12  C12 UNL     1      -4.492   0.465  -1.108  1.00  0.00     0.023 C 
HETATM   13  C13 UNL     1      -5.785   1.043  -0.669  1.00  0.00     0.037 C 
HETATM   14  C16 UNL     1      -3.716   0.636   0.205  1.00  0.00     0.248 C 
HETATM   15  C14 UNL     1      -5.864   0.554   0.786  1.00  0.00     0.273 C 
HETATM   16  N3  UNL     1      -4.549  -0.023   1.091  1.00  0.00     0.091 N 
HETATM   17  C15 UNL     1      -4.670  -1.435   1.030  1.00  0.00     0.310 C 
ENDBRANCH   7   9
ENDBRANCH   4   7
BRANCH   1  18
HETATM   18  C4  UNL     1       3.798  -1.657  -0.032  1.00  0.00     0.034 C 
BRANCH  18  19
HETATM   19  C3  UNL     1       4.898  -0.853   0.508  1.00  0.00     0.271 C 
BRANCH  19  20
HETATM   20  N1  UNL     1       5.059   0.479  -0.037  1.00  0.00     0.080 N 
HETATM   21  C1  UNL     1       6.080   1.202   0.750  1.00  0.00     0.309 C 
HETATM   22  C2  UNL     1       5.586   0.389  -1.416  1.00  0.00     0.309 C 
ENDBRANCH  19  20
ENDBRANCH  18  19
ENDBRANCH   1  18
TORSDOF 5
