REMARK  5 active torsions:
REMARK  status: ('A' for Active; 'I' for Inactive)
REMARK    1  A    between atoms: C2_2  and  N1_3 
REMARK    2  A    between atoms: N1_3  and  C3_4 
REMARK       I    between atoms: N1_3  and  C16_20 
REMARK    3  A    between atoms: C3_4  and  C4_5 
REMARK    4  A    between atoms: C4_5  and  N2_6 
REMARK    5  A    between atoms: N2_6  and  C5_8 
ROOT
HETATM    1  C5  UNL     1      -0.566  -0.690   0.187  1.00  0.00     0.079 C 
HETATM    2  C6  UNL     1      -0.878   0.401  -0.750  1.00  0.00     0.029 C 
HETATM    3  C7  UNL     1      -2.352   0.468  -1.156  1.00  0.00    -0.010 C 
HETATM    4  C8  UNL     1      -2.907  -0.878  -1.507  1.00  0.00     0.007 C 
HETATM    5  C9  UNL     1      -2.977  -1.868  -0.418  1.00  0.00     0.032 C 
HETATM    6  C10 UNL     1      -2.883  -1.319   0.983  1.00  0.00     0.124 C 
HETATM    7  C11 UNL     1      -1.527  -0.817   1.346  1.00  0.00     0.056 C 
HETATM    8  O1  UNL     1      -3.829  -0.443   1.330  1.00  0.00    -0.376 OA
HETATM    9  C12 UNL     1      -4.098   0.671   0.690  1.00  0.00     0.054 C 
HETATM   10  C13 UNL     1      -4.359   1.744   1.773  1.00  0.00     0.045 C 
HETATM   11  C14 UNL     1      -5.461   0.517  -0.009  1.00  0.00     0.045 C 
HETATM   12  C15 UNL     1      -3.173   1.297  -0.258  1.00  0.00     0.042 C 
ENDROOT
BRANCH   1  13
HETATM   13  N2  UNL     1       0.727  -0.457   0.795  1.00  0.00    -0.415 N 
ATOM     14  H2  UNL     1       0.842  -0.315   1.799  1.00  0.00     0.153 HD
BRANCH  13  15
HETATM   15  C4  UNL     1       1.832  -0.440  -0.113  1.00  0.00     0.134 C 
BRANCH  15  16
HETATM   16  C3  UNL     1       3.082  -0.238   0.748  1.00  0.00     0.145 C 
BRANCH  16  17
HETATM   17  N1  UNL     1       4.289  -0.202  -0.027  1.00  0.00    -0.351 N 
HETATM   18  C16 UNL     1       4.959  -1.430  -0.277  1.00  0.00     0.215 C 
HETATM   19  C17 UNL     1       6.216  -1.474  -1.067  1.00  0.00     0.117 C 
HETATM   20  O2  UNL     1       4.520  -2.535   0.156  1.00  0.00    -0.274 OA
BRANCH  17  21
HETATM   21  C2  UNL     1       4.793   1.062  -0.516  1.00  0.00     0.121 C 
HETATM   22  C1  UNL     1       5.728   1.711   0.486  1.00  0.00     0.026 C 
ENDBRANCH  17  21
ENDBRANCH  16  17
ENDBRANCH  15  16
ENDBRANCH  13  15
ENDBRANCH   1  13
TORSDOF 5
