REMARK  7 active torsions:
REMARK  status: ('A' for Active; 'I' for Inactive)
REMARK    1  A    between atoms: O1_2  and  C2_3 
REMARK    2  A    between atoms: C3_4  and  N1_5 
REMARK       I    between atoms: N1_5  and  C4_7 
REMARK    3  A    between atoms: C4_7  and  C5_9 
REMARK    4  A    between atoms: C6_13  and  C7_14 
REMARK    5  A    between atoms: C12_21  and  C13_22 
REMARK       I    between atoms: C13_22  and  N4_24 
REMARK    6  A    between atoms: N4_24  and  C14_26 
REMARK    7  A    between atoms: C17_29  and  O6_30 
ROOT
HETATM    1  C2  UNL     1      -0.350  -0.672   0.566  1.00  0.00     0.129 A 
HETATM    2  C3  UNL     1       0.537  -0.007  -0.295  1.00  0.00     0.071 A 
HETATM    3  C10 UNL     1      -0.050   0.764  -1.259  1.00  0.00     0.034 A 
HETATM    4  C11 UNL     1      -1.416   0.876  -1.365  1.00  0.00     0.022 A 
HETATM    5  C12 UNL     1      -2.307   0.209  -0.497  1.00  0.00     0.068 A 
HETATM    6  C17 UNL     1      -1.719  -0.566   0.465  1.00  0.00     0.119 A 
ENDROOT
BRANCH   2   7
HETATM    7  N1  UNL     1       1.916  -0.189  -0.091  1.00  0.00    -0.319 N 
HETATM    8  C4  UNL     1       2.974   0.378  -0.821  1.00  0.00     0.282 C 
HETATM    9  O2  UNL     1       2.782   1.142  -1.778  1.00  0.00    -0.265 OA
ATOM     10  H1  UNL     1       2.179  -0.805   0.678  1.00  0.00     0.169 HD
BRANCH   8  11
HETATM   11  C5  UNL     1       4.373   0.058  -0.440  1.00  0.00     0.174 A 
HETATM   12  O3  UNL     1       4.789  -0.712   0.524  1.00  0.00    -0.231 OA
HETATM   13  N2  UNL     1       6.083  -0.755   0.557  1.00  0.00    -0.255 N 
HETATM   14  C6  UNL     1       6.603   0.026  -0.437  1.00  0.00     0.128 A 
ATOM     15  H2  UNL     1       6.633  -1.293   1.227  1.00  0.00     0.195 HD
HETATM   16  C8  UNL     1       5.507   0.552  -1.082  1.00  0.00     0.013 A 
HETATM   17  C9  UNL     1       5.459   1.463  -2.233  1.00  0.00     0.054 C 
BRANCH  14  18
HETATM   18  C7  UNL     1       8.010   0.234  -0.720  1.00  0.00     0.283 C 
HETATM   19  N3  UNL     1       8.983  -0.431   0.097  1.00  0.00    -0.056 NA
HETATM   20  O4  UNL     1       8.456   0.953  -1.630  1.00  0.00    -0.269 OA
ENDBRANCH  14  18
ENDBRANCH   8  11
ENDBRANCH   2   7
BRANCH   1  21
HETATM   21  O1  UNL     1       0.159  -1.478   1.575  1.00  0.00    -0.351 OA
HETATM   22  C1  UNL     1       0.407  -0.833   2.826  1.00  0.00     0.210 C 
ENDBRANCH   1  21
BRANCH   6  23
HETATM   23  O6  UNL     1      -2.464  -1.301   1.398  1.00  0.00    -0.352 OA
HETATM   24  C18 UNL     1      -2.676  -2.675   0.962  1.00  0.00     0.210 C 
ENDBRANCH   6  23
BRANCH   5  25
HETATM   25  C13 UNL     1      -3.714   0.470  -0.621  1.00  0.00     0.254 C 
HETATM   26  O5  UNL     1      -4.059   1.175  -1.645  1.00  0.00    -0.268 OA
HETATM   27  N4  UNL     1      -4.749   0.069   0.200  1.00  0.00    -0.353 N 
ATOM     28  H4  UNL     1      -4.551  -0.482   1.035  1.00  0.00     0.163 HD
BRANCH  27  29
HETATM   29  C14 UNL     1      -6.137   0.433  -0.126  1.00  0.00     0.076 C 
HETATM   30  C15 UNL     1      -6.988  -0.817  -0.265  1.00  0.00     0.032 C 
HETATM   31  C16 UNL     1      -6.699   1.222   1.038  1.00  0.00     0.032 C 
ENDBRANCH  27  29
ENDBRANCH   5  25
TORSDOF 7
