REMARK  4 active torsions:
REMARK  status: ('A' for Active; 'I' for Inactive)
REMARK    1  A    between atoms: C2_2  and  C5_5 
REMARK       I    between atoms: C5_5  and  N1_7 
REMARK    2  A    between atoms: N1_7  and  C6_9 
REMARK    3  A    between atoms: C6_9  and  C7_10 
REMARK    4  A    between atoms: C7_10  and  O2_11 
ROOT
HETATM    1  C7  UNL     1       1.129  -0.096   0.155  1.00  0.00     0.081 C 
HETATM    2  C8  UNL     1       1.102   1.061  -0.805  1.00  0.00     0.040 C 
HETATM    3  C9  UNL     1       2.401   1.745  -1.001  1.00  0.00     0.003 C 
HETATM    4  C10 UNL     1       3.586   0.842  -1.148  1.00  0.00     0.001 C 
HETATM    5  C11 UNL     1       3.081  -0.599  -1.226  1.00  0.00     0.012 C 
HETATM    6  C12 UNL     1       2.423  -0.866   0.109  1.00  0.00    -0.015 C 
HETATM    7  C13 UNL     1       2.243  -2.346   0.254  1.00  0.00     0.018 C 
HETATM    8  C14 UNL     1       3.347  -0.413   1.237  1.00  0.00     0.018 C 
ENDROOT
BRANCH   1   9
HETATM    9  C6  UNL     1       0.042  -1.040  -0.263  1.00  0.00     0.161 C 
BRANCH   9  10
HETATM   10  N1  UNL     1      -1.291  -0.563  -0.256  1.00  0.00    -0.358 N 
HETATM   11  C5  UNL     1      -2.090  -0.111   0.793  1.00  0.00     0.225 C 
HETATM   12  O1  UNL     1      -1.692  -0.072   1.980  1.00  0.00    -0.273 OA
ATOM     13  H1  UNL     1      -1.742  -0.548  -1.171  1.00  0.00     0.162 HD
BRANCH  11  14
HETATM   14  C2  UNL     1      -3.493   0.370   0.600  1.00  0.00     0.030 C 
HETATM   15  C1  UNL     1      -3.595   1.546  -0.308  1.00  0.00     0.024 C 
HETATM   16  C3  UNL     1      -4.179   0.692   1.900  1.00  0.00     0.024 C 
HETATM   17  C4  UNL     1      -4.241  -0.787  -0.056  1.00  0.00     0.024 C 
ENDBRANCH  11  14
ENDBRANCH   9  10
ENDBRANCH   1   9
BRANCH   1  18
HETATM   18  O2  UNL     1       0.958   0.326   1.455  1.00  0.00    -0.387 OA
ATOM     19  H2  UNL     1       1.647   0.924   1.720  1.00  0.00     0.210 HD
ENDBRANCH   1  18
TORSDOF 4
