REMARK  5 active torsions:
REMARK  status: ('A' for Active; 'I' for Inactive)
REMARK    1  A    between atoms: N1_5  and  C5_6 
REMARK    2  A    between atoms: C5_6  and  C6_10 
REMARK    3  A    between atoms: C6_10  and  S1_11 
REMARK    4  A    between atoms: S1_11  and  C7_12 
REMARK    5  A    between atoms: C12_17  and  N3_18 
ROOT
HETATM    1  C1  UNL     1      -4.820   0.353   0.030  1.00  0.00     0.012 C 
HETATM    2  C2  UNL     1      -3.446  -0.071  -0.444  1.00  0.00     0.015 C 
HETATM    3  C3  UNL     1      -2.885  -1.064   0.518  1.00  0.00     0.026 C 
HETATM    4  C4  UNL     1      -1.393  -0.964   0.694  1.00  0.00     0.124 C 
HETATM    5  N1  UNL     1      -0.728  -0.376  -0.445  1.00  0.00    -0.368 N 
HETATM    6  C11 UNL     1      -1.180   0.915  -0.899  1.00  0.00     0.157 C 
HETATM    7  C12 UNL     1      -2.626   1.178  -0.598  1.00  0.00     0.205 C 
ENDROOT
BRANCH   5   8
HETATM    8  C5  UNL     1       0.337  -1.042  -1.101  1.00  0.00     0.082 C 
HETATM    9  N2  UNL     1       0.492  -0.820  -2.356  1.00  0.00    -0.388 N 
ATOM     10  H22 UNL     1      -0.145  -0.181  -2.831  1.00  0.00     0.157 HD
ATOM     11  H21 UNL     1       1.259  -1.299  -2.828  1.00  0.00     0.157 HD
BRANCH   8  12
HETATM   12  C6  UNL     1       1.261  -1.969  -0.412  1.00  0.00     0.150 C 
BRANCH  12  13
HETATM   13  S1  UNL     1       2.201  -1.243   0.918  1.00  0.00    -0.153 SA
BRANCH  13  14
HETATM   14  C7  UNL     1       3.389  -0.011   0.404  1.00  0.00    -0.003 C 
HETATM   15  C8  UNL     1       2.647   1.191  -0.141  1.00  0.00     0.026 C 
HETATM   16  C9  UNL     1       4.318  -0.508  -0.685  1.00  0.00     0.026 C 
HETATM   17  C10 UNL     1       4.245   0.488   1.545  1.00  0.00     0.026 C 
ENDBRANCH  13  14
ENDBRANCH  12  13
ENDBRANCH   8  12
ENDBRANCH   5   8
BRANCH   7  18
HETATM   18  N3  UNL     1      -2.799   2.023   0.568  1.00  0.00    -0.073 N 
ATOM     19  H33 UNL     1      -3.781   2.228   0.751  1.00  0.00     0.274 HD
ATOM     20  H32 UNL     1      -2.588   1.529   1.435  1.00  0.00     0.274 HD
ATOM     21  H31 UNL     1      -2.242   2.871   0.463  1.00  0.00     0.274 HD
ENDBRANCH   7  18
TORSDOF 5
