REMARK  4 active torsions:
REMARK  status: ('A' for Active; 'I' for Inactive)
REMARK    1  A    between atoms: C2_2  and  C3_3 
REMARK    2  A    between atoms: N1_10  and  N2_12 
REMARK    3  A    between atoms: N2_12  and  C10_14 
REMARK    4  A    between atoms: C10_14  and  N3_16 
ROOT
HETATM    1  N3  UNL     1       4.097   0.380  -0.547  1.00  0.00    -0.269 N 
ATOM      2  H3  UNL     1       3.752  -0.462  -0.086  1.00  0.00     0.180 HD
HETATM    3  C11 UNL     1       5.452   0.699  -0.457  1.00  0.00     0.184 C 
HETATM    4  N4  UNL     1       6.583   0.984  -0.377  1.00  0.00    -0.172 NA
ENDROOT
BRANCH   1   5
HETATM    5  C10 UNL     1       3.178   1.208  -1.272  1.00  0.00     0.199 C 
HETATM    6  S1  UNL     1       3.758   2.548  -2.001  1.00  0.00    -0.038 SA
BRANCH   5   7
HETATM    7  N2  UNL     1       1.815   0.854  -1.342  1.00  0.00    -0.276 N 
ATOM      8  H2  UNL     1       1.183   1.460  -1.865  1.00  0.00     0.189 HD
BRANCH   7   9
HETATM    9  N1  UNL     1       1.293  -0.270  -0.739  1.00  0.00    -0.306 N 
HETATM   10  C9  UNL     1       0.154  -0.370  -0.155  1.00  0.00     0.011 C 
HETATM   11  C3  UNL     1      -0.745   0.806  -0.084  1.00  0.00     0.054 C 
HETATM   12  C8  UNL     1      -0.122  -1.725   0.392  1.00  0.00     0.054 C 
HETATM   13  C4  UNL     1      -2.112   0.427   0.436  1.00  0.00     0.014 C 
HETATM   14  C5  UNL     1      -2.791  -0.580  -0.473  1.00  0.00     0.001 C 
HETATM   15  C6  UNL     1      -2.564  -1.992   0.026  1.00  0.00     0.000 C 
HETATM   16  C7  UNL     1      -1.200  -2.426  -0.426  1.00  0.00     0.006 C 
ATOM     17  H1  UNL     1       1.872  -1.110  -0.759  1.00  0.00     0.186 HD
BRANCH  11  18
HETATM   18  C2  UNL     1      -0.139   1.806   0.835  1.00  0.00    -0.026 C 
HETATM   19  C1  UNL     1      -0.738   2.236   1.927  1.00  0.00     0.007 C 
ENDBRANCH  11  18
ENDBRANCH   7   9
ENDBRANCH   5   7
ENDBRANCH   1   5
TORSDOF 4
