REMARK  4 active torsions:
REMARK  status: ('A' for Active; 'I' for Inactive)
REMARK    1  A    between atoms: C7_7  and  C8_8 
REMARK    2  A    between atoms: C8_8  and  C11_11 
REMARK    3  A    between atoms: C11_11  and  O1_12 
REMARK    4  A    between atoms: C14_16  and  O2_18 
ROOT
HETATM    1  C1  UNL     1      -1.407  -2.509   0.106  1.00  0.00     0.015 C 
HETATM    2  C2  UNL     1      -1.648  -0.998  -0.071  1.00  0.00    -0.044 C 
HETATM    3  C3  UNL     1      -2.847  -0.909  -0.998  1.00  0.00     0.015 C 
HETATM    4  C4  UNL     1      -1.890  -0.372   1.255  1.00  0.00     0.010 C 
HETATM    5  C5  UNL     1      -1.309   0.959   1.523  1.00  0.00     0.009 C 
HETATM    6  C6  UNL     1       0.010   1.226   0.787  1.00  0.00     0.025 C 
HETATM    7  C7  UNL     1       0.535  -0.138   0.430  1.00  0.00     0.007 C 
HETATM    8  C12 UNL     1      -0.376  -0.471  -0.706  1.00  0.00     0.001 C 
HETATM    9  C13 UNL     1      -0.738   0.830  -1.387  1.00  0.00     0.043 C 
HETATM   10  C14 UNL     1      -0.347   1.957  -0.465  1.00  0.00     0.059 C 
HETATM   11  C15 UNL     1      -1.477   2.955  -0.288  1.00  0.00     0.046 C 
ENDROOT
BRANCH   7  12
HETATM   12  C8  UNL     1       1.972  -0.303   0.226  1.00  0.00    -0.022 C 
HETATM   13  C9  UNL     1       2.737   0.081   1.497  1.00  0.00     0.017 C 
HETATM   14  C10 UNL     1       2.603   0.224  -1.004  1.00  0.00     0.017 C 
BRANCH  12  15
HETATM   15  C11 UNL     1       2.234  -1.830   0.167  1.00  0.00     0.173 C 
BRANCH  15  16
HETATM   16  O1  UNL     1       3.614  -2.031  -0.026  1.00  0.00    -0.400 OA
ATOM     17  H1  UNL     1       3.775  -2.967  -0.062  1.00  0.00     0.209 HD
ENDBRANCH  15  16
ENDBRANCH  12  15
ENDBRANCH   7  12
BRANCH  10  18
HETATM   18  O2  UNL     1       0.691   2.723  -0.987  1.00  0.00    -0.390 OA
ATOM     19  H2  UNL     1       0.464   3.188  -1.784  1.00  0.00     0.210 HD
ENDBRANCH  10  18
TORSDOF 4
