REMARK  5 active torsions:
REMARK  status: ('A' for Active; 'I' for Inactive)
REMARK    1  A    between atoms: C4_7  and  C5_8 
REMARK    2  A    between atoms: C10_16  and  C11_17 
REMARK    3  A    between atoms: C13_20  and  C14_21 
REMARK    4  A    between atoms: C14_21  and  N4_22 
REMARK    5  A    between atoms: N4_22  and  C15_24 
ROOT
HETATM    1  C1  UNL     1      -0.027  -3.972  -2.225  1.00  0.00     0.070 C 
HETATM    2  C2  UNL     1       1.092  -3.056  -1.795  1.00  0.00     0.035 A 
HETATM    3  N1  UNL     1       2.308  -2.951  -2.297  1.00  0.00    -0.337 N 
ATOM      4  H1  UNL     1       2.691  -3.508  -3.061  1.00  0.00     0.168 HD
HETATM    5  C3  UNL     1       2.958  -1.977  -1.622  1.00  0.00     0.172 A 
HETATM    6  S1  UNL     1       4.432  -1.122  -1.388  1.00  0.00    -0.037 SA
HETATM    7  C4  UNL     1       3.924  -0.125  -0.068  1.00  0.00     0.074 A 
HETATM    8  N2  UNL     1       2.680  -0.528   0.065  1.00  0.00    -0.289 N 
ATOM      9  H2  UNL     1       2.099  -0.102   0.787  1.00  0.00     0.188 HD
HETATM   10  N3  UNL     1       2.177  -1.428  -0.673  1.00  0.00    -0.233 N 
HETATM   11  C10 UNL     1       0.987  -2.100  -0.771  1.00  0.00     0.090 A 
ENDROOT
BRANCH  11  12
HETATM   12  C11 UNL     1      -0.195  -2.046   0.113  1.00  0.00     0.202 C 
HETATM   13  C12 UNL     1      -1.434  -1.515  -0.642  1.00  0.00     0.209 C 
HETATM   14  O1  UNL     1      -2.243  -1.471   0.547  1.00  0.00    -0.357 OA
HETATM   15  C13 UNL     1      -1.379  -0.621   1.345  1.00  0.00     0.277 C 
HETATM   16  O2  UNL     1      -0.109  -0.879   0.984  1.00  0.00    -0.346 OA
BRANCH  15  17
HETATM   17  C14 UNL     1      -1.955   0.750   0.892  1.00  0.00     0.174 C 
BRANCH  17  18
HETATM   18  N4  UNL     1      -3.372   0.571   1.179  1.00  0.00    -0.412 N 
ATOM     19  H4  UNL     1      -3.683  -0.069   1.910  1.00  0.00     0.153 HD
BRANCH  18  20
HETATM   20  C15 UNL     1      -4.308   1.315   0.410  1.00  0.00     0.076 C 
HETATM   21  C16 UNL     1      -5.178   2.256   1.149  1.00  0.00     0.024 C 
HETATM   22  C17 UNL     1      -6.604   1.720   1.034  1.00  0.00     0.002 C 
HETATM   23  C18 UNL     1      -6.638   0.838  -0.181  1.00  0.00     0.002 C 
HETATM   24  C19 UNL     1      -5.251   0.322  -0.312  1.00  0.00     0.024 C 
ENDBRANCH  18  20
ENDBRANCH  17  18
ENDBRANCH  15  17
ENDBRANCH  11  12
BRANCH   7  25
HETATM   25  C5  UNL     1       4.740   0.860   0.703  1.00  0.00     0.044 C 
HETATM   26  C6  UNL     1       5.014   2.148  -0.017  1.00  0.00     0.011 C 
HETATM   27  C7  UNL     1       6.359   2.584   0.544  1.00  0.00     0.001 C 
HETATM   28  C8  UNL     1       7.058   1.329   1.025  1.00  0.00     0.001 C 
HETATM   29  C9  UNL     1       6.099   0.182   0.877  1.00  0.00     0.011 C 
ENDBRANCH   7  25
TORSDOF 5
