REMARK  6 active torsions:
REMARK  status: ('A' for Active; 'I' for Inactive)
REMARK    1  A    between atoms: C2_2  and  S2_4 
REMARK    2  A    between atoms: S2_4  and  C3_5 
REMARK    3  A    between atoms: C3_5  and  C4_6 
REMARK    4  A    between atoms: N1_8  and  N2_10 
REMARK       I    between atoms: N2_10  and  C6_12 
REMARK    5  A    between atoms: C6_12  and  C7_14 
REMARK    6  A    between atoms: C7_14  and  C8_15 
ROOT
HETATM    1  N2  UNL     1       1.254   0.984  -0.661  1.00  0.00    -0.270 N 
ATOM      2  H2  UNL     1       1.668   0.714  -1.553  1.00  0.00     0.190 HD
HETATM    3  C6  UNL     1      -0.115   1.343  -0.635  1.00  0.00     0.240 C 
HETATM    4  O1  UNL     1      -0.633   1.681   0.467  1.00  0.00    -0.272 OA
ENDROOT
BRANCH   3   5
HETATM    5  C7  UNL     1      -0.938   1.329  -1.864  1.00  0.00     0.144 C 
BRANCH   5   6
HETATM    6  C8  UNL     1      -2.349   1.781  -1.505  1.00  0.00    -0.031 A 
HETATM    7  C9  UNL     1      -2.715   3.055  -1.832  1.00  0.00     0.058 A 
HETATM    8  S3  UNL     1      -4.316   3.160  -1.266  1.00  0.00    -0.101 SA
HETATM    9  C10 UNL     1      -4.487   1.590  -0.629  1.00  0.00     0.018 A 
HETATM   10  C11 UNL     1      -5.537   0.941   0.002  1.00  0.00     0.059 A 
HETATM   11  C15 UNL     1      -3.277   1.016  -0.876  1.00  0.00    -0.009 A 
HETATM   12  C12 UNL     1      -5.391  -0.384   0.428  1.00  0.00     0.106 A 
HETATM   13  C13 UNL     1      -4.185  -0.953   0.181  1.00  0.00     0.105 A 
HETATM   14  O3  UNL     1      -6.239  -1.270   1.070  1.00  0.00    -0.323 OA
HETATM   15  C14 UNL     1      -3.121  -0.318  -0.451  1.00  0.00     0.053 A 
HETATM   16  O2  UNL     1      -4.259  -2.270   0.686  1.00  0.00    -0.323 OA
HETATM   17  C16 UNL     1      -5.620  -2.551   0.944  1.00  0.00     0.352 C 
ENDBRANCH   5   6
ENDBRANCH   3   5
BRANCH   1  18
HETATM   18  N1  UNL     1       2.060   0.981   0.469  1.00  0.00    -0.306 N 
HETATM   19  C4  UNL     1       3.002   0.086   0.686  1.00  0.00     0.009 C 
HETATM   20  C5  UNL     1       3.160  -0.936  -0.368  1.00  0.00     0.066 C 
ATOM     21  H1  UNL     1       1.915   1.710   1.168  1.00  0.00     0.186 HD
BRANCH  19  22
HETATM   22  C3  UNL     1       3.803   0.174   1.919  1.00  0.00     0.133 C 
BRANCH  22  23
HETATM   23  S2  UNL     1       5.463   0.748   1.769  1.00  0.00    -0.117 SA
BRANCH  23  24
HETATM   24  C2  UNL     1       6.636  -0.275   0.983  1.00  0.00     0.041 C 
HETATM   25  C1  UNL     1       6.474  -1.632   0.443  1.00  0.00     0.069 C 
HETATM   26  S1  UNL     1       7.989   0.282   0.831  1.00  0.00    -0.078 SA
ENDBRANCH  23  24
ENDBRANCH  22  23
ENDBRANCH  19  22
ENDBRANCH   1  18
TORSDOF 6
