REMARK  6 active torsions:
REMARK  status: ('A' for Active; 'I' for Inactive)
REMARK    1  A    between atoms: O1_2  and  C2_3 
REMARK    2  A    between atoms: C4_5  and  C5_6 
REMARK    3  A    between atoms: C7_9  and  N1_10 
REMARK    4  A    between atoms: N1_10  and  N2_12 
REMARK    5  A    between atoms: C15_24  and  O2_25 
REMARK    6  A    between atoms: C17_27  and  O3_28 
ROOT
HETATM    1  N2  UNL     1       3.365   0.667  -0.724  1.00  0.00    -0.307 N 
ATOM      2  H2  UNL     1       2.935   0.550  -1.642  1.00  0.00     0.186 HD
HETATM    3  C8  UNL     1       4.181  -0.217  -0.295  1.00  0.00     0.005 C 
HETATM    4  C9  UNL     1       4.879  -0.186   1.002  1.00  0.00     0.055 C 
HETATM    5  C10 UNL     1       6.189  -0.854   0.710  1.00  0.00     0.025 C 
HETATM    6  C11 UNL     1       6.076  -1.531  -0.615  1.00  0.00     0.098 C 
HETATM    7  C12 UNL     1       6.511  -2.924  -0.522  1.00  0.00     0.064 C 
HETATM    8  N3  UNL     1       6.870  -4.020  -0.447  1.00  0.00    -0.197 NA
HETATM    9  C13 UNL     1       4.599  -1.441  -0.991  1.00  0.00     0.073 C 
ENDROOT
BRANCH   1  10
HETATM   10  N1  UNL     1       3.053   1.788   0.041  1.00  0.00    -0.280 N 
ATOM     11  H1  UNL     1       3.806   2.367   0.413  1.00  0.00     0.189 HD
BRANCH  10  12
HETATM   12  C7  UNL     1       1.800   2.113   0.293  1.00  0.00     0.163 A 
HETATM   13  S1  UNL     1       1.185   3.421   1.187  1.00  0.00    -0.062 SA
HETATM   14  C6  UNL     1      -0.478   3.051   1.053  1.00  0.00     0.083 A 
HETATM   15  C5  UNL     1      -0.460   1.903   0.304  1.00  0.00     0.051 A 
HETATM   16  N4  UNL     1       0.704   1.446  -0.071  1.00  0.00    -0.334 N 
ATOM     17  H4  UNL     1       0.774   0.596  -0.631  1.00  0.00     0.168 HD
BRANCH  15  18
HETATM   18  C4  UNL     1      -1.735   1.201  -0.020  1.00  0.00    -0.003 A 
HETATM   19  C3  UNL     1      -2.948   1.712   0.377  1.00  0.00     0.053 A 
HETATM   20  C2  UNL     1      -4.139   1.062   0.127  1.00  0.00     0.105 A 
HETATM   21  C17 UNL     1      -4.178  -0.129  -0.533  1.00  0.00     0.135 A 
HETATM   22  C15 UNL     1      -2.951  -0.658  -0.943  1.00  0.00     0.105 A 
HETATM   23  C14 UNL     1      -1.757  -0.004  -0.691  1.00  0.00     0.053 A 
BRANCH  20  24
HETATM   24  O1  UNL     1      -5.317   1.646   0.563  1.00  0.00    -0.353 OA
HETATM   25  C1  UNL     1      -5.318   2.893   1.224  1.00  0.00     0.210 C 
ENDBRANCH  20  24
BRANCH  21  26
HETATM   26  O3  UNL     1      -5.346  -0.821  -0.809  1.00  0.00    -0.351 OA
HETATM   27  C18 UNL     1      -5.843  -1.773   0.121  1.00  0.00     0.210 C 
ENDBRANCH  21  26
BRANCH  22  28
HETATM   28  O2  UNL     1      -2.915  -1.863  -1.620  1.00  0.00    -0.353 OA
HETATM   29  C16 UNL     1      -1.673  -2.387  -2.029  1.00  0.00     0.210 C 
ENDBRANCH  22  28
ENDBRANCH  15  18
ENDBRANCH  10  12
ENDBRANCH   1  10
TORSDOF 6
