REMARK  6 active torsions:
REMARK  status: ('A' for Active; 'I' for Inactive)
REMARK    1  A    between atoms: C8_8  and  O1_9 
REMARK    2  A    between atoms: C13_15  and  O2_16 
REMARK    3  A    between atoms: O2_16  and  C14_17 
REMARK    4  A    between atoms: C14_17  and  C15_18 
REMARK    5  A    between atoms: C14_17  and  C17_21 
REMARK    6  A    between atoms: C18_26  and  C19_27 
ROOT
HETATM    1  C15 UNL     1       2.180   1.777   1.263  1.00  0.00     0.164 C 
HETATM    2  C16 UNL     1       3.462   2.272   0.838  1.00  0.00     0.062 C 
HETATM    3  N1  UNL     1       4.506   2.697   0.499  1.00  0.00    -0.197 NA
ENDROOT
BRANCH   1   4
HETATM    4  C14 UNL     1       1.493   1.003   0.124  1.00  0.00     0.211 C 
BRANCH   4   5
HETATM    5  O2  UNL     1       0.291   0.587   0.638  1.00  0.00    -0.366 OA
BRANCH   5   6
HETATM    6  C13 UNL     1      -0.828   1.144   0.093  1.00  0.00     0.159 C 
HETATM    7  C2  UNL     1      -1.567   2.030   1.043  1.00  0.00    -0.060 C 
HETATM    8  C1  UNL     1      -1.449   3.346   1.062  1.00  0.00     0.017 C 
HETATM    9  C3  UNL     1      -2.478   1.354   2.001  1.00  0.00     0.036 C 
HETATM   10  C4  UNL     1      -3.436   0.411   1.263  1.00  0.00     0.010 C 
HETATM   11  C5  UNL     1      -3.159   0.507  -0.225  1.00  0.00     0.003 C 
HETATM   12  C6  UNL     1      -4.189  -0.110  -1.069  1.00  0.00     0.015 C 
HETATM   13  C11 UNL     1      -1.736   0.053  -0.425  1.00  0.00    -0.010 C 
HETATM   14  C7  UNL     1      -5.178  -0.842  -0.144  1.00  0.00     0.013 C 
HETATM   15  C8  UNL     1      -3.796  -1.036  -2.134  1.00  0.00     0.122 C 
HETATM   16  C9  UNL     1      -2.333  -1.150  -2.423  1.00  0.00     0.033 C 
HETATM   17  C10 UNL     1      -1.521  -0.006  -1.924  1.00  0.00     0.015 C 
HETATM   18  C12 UNL     1      -1.434  -1.248   0.236  1.00  0.00     0.018 C 
BRANCH  15  19
HETATM   19  O1  UNL     1      -4.262  -2.353  -1.891  1.00  0.00    -0.395 OA
ATOM     20  H1  UNL     1      -4.007  -2.953  -2.582  1.00  0.00     0.210 HD
ENDBRANCH  15  19
ENDBRANCH   5   6
ENDBRANCH   4   5
BRANCH   4  21
HETATM   21  C17 UNL     1       2.421  -0.085  -0.263  1.00  0.00     0.170 A 
HETATM   22  N2  UNL     1       2.175  -1.212  -0.964  1.00  0.00    -0.279 N 
HETATM   23  N3  UNL     1       3.273  -1.919  -1.091  1.00  0.00    -0.281 N 
ATOM     24  H2  UNL     1       1.265  -1.476  -1.341  1.00  0.00     0.189 HD
HETATM   25  C18 UNL     1       4.254  -1.239  -0.461  1.00  0.00     0.143 A 
ATOM     26  H3  UNL     1       3.367  -2.812  -1.574  1.00  0.00     0.189 HD
HETATM   27  O3  UNL     1       3.711  -0.158   0.017  1.00  0.00    -0.279 OA
BRANCH  25  28
HETATM   28  C19 UNL     1       5.674  -1.595  -0.309  1.00  0.00     0.054 C 
HETATM   29  C20 UNL     1       6.582  -0.592  -1.013  1.00  0.00     0.018 C 
HETATM   30  C21 UNL     1       6.102  -1.640   1.146  1.00  0.00     0.018 C 
ENDBRANCH  25  28
ENDBRANCH   4  21
ENDBRANCH   1   4
TORSDOF 6
