REMARK  6 active torsions:
REMARK  status: ('A' for Active; 'I' for Inactive)
REMARK    1  A    between atoms: C2_2  and  O1_3 
REMARK    2  A    between atoms: O1_3  and  C3_4 
REMARK    3  A    between atoms: C3_4  and  C4_6 
REMARK    4  A    between atoms: C5_7  and  C6_8 
REMARK    5  A    between atoms: C6_8  and  N1_9 
REMARK    6  A    between atoms: N2_12  and  C9_13 
ROOT
HETATM    1  N1  UNL     1       0.275  -0.759   0.597  1.00  0.00     0.096 N 
HETATM    2  C7  UNL     1      -0.386  -1.523  -0.465  1.00  0.00     0.303 C 
HETATM    3  C8  UNL     1      -1.391  -0.689  -1.155  1.00  0.00     0.303 C 
HETATM    4  N2  UNL     1      -2.359  -0.077  -0.231  1.00  0.00     0.100 N 
HETATM    5  C15 UNL     1      -1.614   0.846   0.553  1.00  0.00     0.247 C 
HETATM    6  C16 UNL     1      -2.012   0.650   2.015  1.00  0.00     0.045 C 
HETATM    7  C17 UNL     1      -0.124   0.650   0.463  1.00  0.00     0.308 C 
ENDROOT
BRANCH   1   8
HETATM    8  C6  UNL     1       1.720  -0.737   0.313  1.00  0.00     0.312 C 
BRANCH   8   9
HETATM    9  C5  UNL     1       2.514  -0.356   1.546  1.00  0.00    -0.005 A 
HETATM   10  C4  UNL     1       3.864  -0.201   1.528  1.00  0.00     0.079 A 
HETATM   11  C19 UNL     1       4.455   0.096   2.722  1.00  0.00     0.103 A 
HETATM   12  S1  UNL     1       3.160   0.154   3.830  1.00  0.00    -0.086 SA
HETATM   13  N3  UNL     1       5.866   0.309   2.962  1.00  0.00    -0.093 NA
HETATM   14  C18 UNL     1       1.892  -0.201   2.749  1.00  0.00     0.061 A 
BRANCH  10  15
HETATM   15  C3  UNL     1       4.704  -0.344   0.294  1.00  0.00     0.296 C 
HETATM   16  O2  UNL     1       4.208  -0.618  -0.823  1.00  0.00    -0.259 OA
BRANCH  15  17
HETATM   17  O1  UNL     1       6.070  -0.182   0.328  1.00  0.00    -0.318 OA
BRANCH  17  18
HETATM   18  C2  UNL     1       6.819  -0.327  -0.859  1.00  0.00     0.174 C 
HETATM   19  C1  UNL     1       6.307   0.710  -1.836  1.00  0.00     0.034 C 
ENDBRANCH  17  18
ENDBRANCH  15  17
ENDBRANCH  10  15
ENDBRANCH   8   9
ENDBRANCH   1   8
BRANCH   4  20
HETATM   20  C9  UNL     1      -3.438   0.447  -1.004  1.00  0.00     0.223 C 
HETATM   21  C10 UNL     1      -4.117  -0.710  -1.703  1.00  0.00     0.036 C 
HETATM   22  C11 UNL     1      -5.618  -0.688  -1.501  1.00  0.00     0.002 C 
HETATM   23  C12 UNL     1      -5.814  -0.652   0.020  1.00  0.00     0.000 C 
HETATM   24  C13 UNL     1      -5.483   0.754   0.439  1.00  0.00     0.002 C 
HETATM   25  C14 UNL     1      -4.372   1.375  -0.345  1.00  0.00     0.036 C 
ENDBRANCH   4  20
TORSDOF 6
