REMARK  6 active torsions:
REMARK  status: ('A' for Active; 'I' for Inactive)
REMARK    1  A    between atoms: C2_2  and  S1_3 
REMARK    2  A    between atoms: C2_2  and  C6_10 
REMARK    3  A    between atoms: S1_3  and  C3_4 
REMARK    4  A    between atoms: C6_10  and  O2_12 
REMARK    5  A    between atoms: O2_12  and  C7_13 
REMARK    6  A    between atoms: C12_19  and  C13_20 
ROOT
HETATM    1  C7  UNL     1      -0.137   0.032   0.472  1.00  0.00     0.158 C 
HETATM    2  C8  UNL     1      -0.941  -1.237   0.586  1.00  0.00     0.201 C 
HETATM    3  O3  UNL     1      -2.248  -0.707   0.687  1.00  0.00    -0.378 OA
HETATM    4  C9  UNL     1      -2.348   0.229  -0.325  1.00  0.00     0.063 C 
HETATM    5  C10 UNL     1      -2.840  -0.426  -1.561  1.00  0.00     0.039 C 
HETATM    6  C11 UNL     1      -4.230  -0.178  -1.974  1.00  0.00     0.018 C 
HETATM    7  C12 UNL     1      -5.221   0.175  -0.917  1.00  0.00     0.087 C 
HETATM    8  C14 UNL     1      -4.615   0.787   0.317  1.00  0.00     0.018 C 
HETATM    9  C15 UNL     1      -3.266   1.381   0.060  1.00  0.00     0.039 C 
HETATM   10  C16 UNL     1      -0.961   0.840  -0.496  1.00  0.00     0.073 C 
ENDROOT
BRANCH   1  11
HETATM   11  O2  UNL     1       1.176  -0.157   0.082  1.00  0.00    -0.313 OA
BRANCH  11  12
HETATM   12  C6  UNL     1       2.230   0.235   0.892  1.00  0.00     0.273 C 
HETATM   13  O1  UNL     1       1.936   0.768   1.989  1.00  0.00    -0.264 OA
BRANCH  12  14
HETATM   14  C2  UNL     1       3.631   0.015   0.436  1.00  0.00     0.150 C 
HETATM   15  C1  UNL     1       3.931  -1.440   0.194  1.00  0.00     0.032 C 
BRANCH  14  16
HETATM   16  S1  UNL     1       4.717   0.740   1.696  1.00  0.00    -0.090 SA
BRANCH  16  17
HETATM   17  C3  UNL     1       6.409   0.758   1.050  1.00  0.00     0.112 A 
HETATM   18  N1  UNL     1       6.999   1.716   0.350  1.00  0.00    -0.354 N 
HETATM   19  C4  UNL     1       8.223   1.567  -0.036  1.00  0.00     0.096 A 
ATOM     20  H1  UNL     1       6.489   2.568   0.117  1.00  0.00     0.166 HD
HETATM   21  C5  UNL     1       8.865   0.403   0.303  1.00  0.00     0.069 A 
HETATM   22  S2  UNL     1       7.639  -0.418   1.175  1.00  0.00    -0.076 SA
ENDBRANCH  16  17
ENDBRANCH  14  16
ENDBRANCH  12  14
ENDBRANCH  11  12
ENDBRANCH   1  11
BRANCH   7  23
HETATM   23  C13 UNL     1      -6.039  -0.978  -0.476  1.00  0.00     0.177 C 
HETATM   24  O4  UNL     1      -7.285  -0.919  -0.615  1.00  0.00    -0.648 OA
HETATM   25  O5  UNL     1      -5.447  -2.106   0.082  1.00  0.00    -0.648 OA
ENDBRANCH   7  23
TORSDOF 6
