REMARK  7 active torsions:
REMARK  status: ('A' for Active; 'I' for Inactive)
REMARK    1  A    between atoms: C1_2  and  C2_3 
REMARK    2  A    between atoms: C1_2  and  O6_19 
REMARK    3  A    between atoms: C2_3  and  N1_4 
REMARK    4  A    between atoms: C5_9  and  C6_10 
REMARK    5  A    between atoms: C9_13  and  O3_14 
REMARK    6  A    between atoms: O6_19  and  C11_20 
REMARK    7  A    between atoms: C11_20  and  C12_21 
ROOT
HETATM    1  N1  UNL     1       1.516   0.569   1.445  1.00  0.00    -0.265 N 
HETATM    2  C3  UNL     1       1.685  -0.805   1.668  1.00  0.00     0.294 C 
HETATM    3  O2  UNL     1       0.937  -1.585   2.268  1.00  0.00    -0.259 OA
HETATM    4  S1  UNL     1       3.227  -1.250   0.907  1.00  0.00    -0.023 SA
HETATM    5  C4  UNL     1       3.747   0.432   0.540  1.00  0.00     0.081 C 
HETATM    6  C5  UNL     1       4.926   0.813   0.088  1.00  0.00     0.062 C 
HETATM    7  C10 UNL     1       2.579   1.241   0.857  1.00  0.00     0.268 C 
HETATM    8  O5  UNL     1       2.613   2.497   0.574  1.00  0.00    -0.266 OA
ENDROOT
BRANCH   1   9
HETATM    9  C2  UNL     1       0.264   1.253   1.823  1.00  0.00     0.247 C 
BRANCH   9  10
HETATM   10  C1  UNL     1      -0.703   1.233   0.713  1.00  0.00     0.277 C 
HETATM   11  O1  UNL     1      -0.419   0.674  -0.360  1.00  0.00    -0.263 OA
BRANCH  10  12
HETATM   12  O6  UNL     1      -1.925   1.838   0.865  1.00  0.00    -0.320 OA
BRANCH  12  13
HETATM   13  C11 UNL     1      -2.948   1.910  -0.075  1.00  0.00     0.183 C 
BRANCH  13  14
HETATM   14  C12 UNL     1      -3.463   0.555  -0.488  1.00  0.00     0.010 C 
HETATM   15  C13 UNL     1      -3.985  -0.117   0.758  1.00  0.00     0.007 C 
HETATM   16  C14 UNL     1      -5.340  -0.732   0.544  1.00  0.00     0.000 C 
HETATM   17  C15 UNL     1      -5.275  -1.591  -0.699  1.00  0.00     0.000 C 
HETATM   18  C16 UNL     1      -5.033  -0.702  -1.878  1.00  0.00     0.000 C 
HETATM   19  C17 UNL     1      -4.623   0.690  -1.458  1.00  0.00     0.007 C 
ENDBRANCH  13  14
ENDBRANCH  12  13
ENDBRANCH  10  12
ENDBRANCH   9  10
ENDBRANCH   1   9
BRANCH   6  20
HETATM   20  C6  UNL     1       5.959  -0.176  -0.163  1.00  0.00     0.080 A 
HETATM   21  C7  UNL     1       5.844  -1.431  -0.712  1.00  0.00     0.042 A 
HETATM   22  C8  UNL     1       7.092  -2.010  -0.755  1.00  0.00     0.067 A 
HETATM   23  C9  UNL     1       7.946  -1.076  -0.221  1.00  0.00     0.183 A 
HETATM   24  O4  UNL     1       7.248  -0.027   0.109  1.00  0.00    -0.288 OA
BRANCH  23  25
HETATM   25  O3  UNL     1       9.334  -1.201  -0.049  1.00  0.00    -0.341 OA
ATOM     26  H3  UNL     1       9.925  -0.555   0.320  1.00  0.00     0.220 HD
ENDBRANCH  23  25
ENDBRANCH   6  20
TORSDOF 7
